MODEL 1
REMARK VINA RESULT:    -7.241      0.000      0.000
REMARK INTER + INTRA:         -18.475
REMARK INTER:                 -14.648
REMARK INTRA:                  -3.827
REMARK UNBOUND:                -3.827
REMARK SMILES CC[C@@H](C)[C@@H](NC(=O)[C@@H](O)Cc1ccc(O)c(Cl)c1)C(=O)N1[C@H](C(=O)NCCCCN=C(N)N)C[C@H]2CC[C@H](OS(=O)(=O)O)C[C@@H]21
REMARK SMILES IDX 22 1 36 2 46 3 35 4 23 5 45 6 37 7 39 8 38 9 20 10 21 11
REMARK SMILES IDX 5 12 6 13 7 14 8 15 9 17 11 18 12 19 17 20 19 21 15 22 14 23
REMARK SMILES IDX 13 24 18 25 16 26 10 28 3 30 4 31 2 32 1 33 24 34 25 35
REMARK SMILES IDX 26 36 27 38 28 39 29 40 30 41 31 42 32 43 33 44 34 45 40 50
REMARK SMILES IDX 41 51 42 52 43 53 44 54
REMARK H PARENT 6 16 16 27 10 29 26 37 33 46 33 47 34 48 34 49 44 55
ROOT
ATOM      1  N   UNL     1       0.988  -1.576  -4.782  1.00  0.00    -0.326 N 
ATOM      2  C   UNL     1       0.760  -0.031  -6.544  1.00  0.00     0.014 C 
ATOM      3  C   UNL     1       1.236  -0.165  -5.095  1.00  0.00     0.091 C 
ATOM      4  C   UNL     1      -0.420  -0.989  -6.599  1.00  0.00     0.041 C 
ATOM      5  C   UNL     1       0.176  -2.199  -5.856  1.00  0.00     0.175 C 
ATOM      6  C   UNL     1       2.670   0.354  -5.008  1.00  0.00     0.059 C 
ATOM      7  C   UNL     1       0.554   1.424  -6.915  1.00  0.00     0.008 C 
ATOM      8  C   UNL     1       2.979   1.495  -6.002  1.00  0.00     0.143 C 
ATOM      9  C   UNL     1       1.714   2.291  -6.381  1.00  0.00     0.034 C 
ENDROOT
BRANCH   1  10
ATOM     10  C   UNL     1       1.203  -2.275  -3.607  1.00  0.00     0.246 C 
ATOM     11  O   UNL     1       2.350  -2.636  -3.324  1.00  0.00    -0.272 OA
BRANCH  10  12
ATOM     12  C   UNL     1       0.008  -2.554  -2.650  1.00  0.00     0.174 C 
BRANCH  12  13
ATOM     13  N   UNL     1      -0.784  -1.337  -2.474  1.00  0.00    -0.342 N 
ATOM     14  C   UNL     1      -2.035  -1.124  -3.008  1.00  0.00     0.249 C 
ATOM     15  O   UNL     1      -2.642  -1.952  -3.675  1.00  0.00    -0.272 OA
ATOM     16  H   UNL     1      -0.350  -0.506  -2.079  1.00  0.00     0.164 HD
BRANCH  14  17
ATOM     17  C   UNL     1      -2.603   0.268  -2.657  1.00  0.00     0.207 C 
BRANCH  17  18
ATOM     18  C   UNL     1      -2.202   1.294  -3.722  1.00  0.00     0.077 C 
BRANCH  18  19
ATOM     19  C   UNL     1      -3.338   1.589  -4.675  1.00  0.00    -0.043 A 
ATOM     20  C   UNL     1      -5.709   1.575  -5.188  1.00  0.00     0.083 A 
ATOM     21  C   UNL     1      -4.666   1.349  -4.289  1.00  0.00     0.028 A 
ATOM     22  C   UNL     1      -5.434   2.040  -6.474  1.00  0.00     0.134 A 
ATOM     23  C   UNL     1      -4.123   2.282  -6.869  1.00  0.00     0.048 A 
ATOM     24  C   UNL     1      -3.077   2.055  -5.972  1.00  0.00     0.008 A 
ATOM     25  Cl  UNL     1      -7.334   1.274  -4.695  1.00  0.00    -0.080 Cl
BRANCH  22  26
ATOM     26  O   UNL     1      -6.422   2.266  -7.394  1.00  0.00    -0.506 OA
ATOM     27  H   UNL     1      -6.995   2.962  -7.023  1.00  0.00     0.293 HD
ENDBRANCH  22  26
ENDBRANCH  18  19
ENDBRANCH  17  18
BRANCH  17  28
ATOM     28  O   UNL     1      -2.137   0.708  -1.371  1.00  0.00    -0.383 OA
ATOM     29  H   UNL     1      -1.168   0.855  -1.469  1.00  0.00     0.211 HD
ENDBRANCH  17  28
ENDBRANCH  14  17
ENDBRANCH  12  13
BRANCH  12  30
ATOM     30  C   UNL     1       0.454  -3.171  -1.297  1.00  0.00     0.018 C 
ATOM     31  C   UNL     1      -0.391  -4.409  -0.957  1.00  0.00     0.010 C 
BRANCH  30  32
ATOM     32  C   UNL     1       0.428  -2.169  -0.118  1.00  0.00     0.002 C 
ATOM     33  C   UNL     1       0.833  -2.743   1.234  1.00  0.00     0.004 C 
ENDBRANCH  30  32
ENDBRANCH  12  30
ENDBRANCH  10  12
ENDBRANCH   1  10
BRANCH   5  34
ATOM     34  C   UNL     1       1.067  -3.060  -6.790  1.00  0.00     0.242 C 
ATOM     35  O   UNL     1       2.278  -3.191  -6.608  1.00  0.00    -0.273 OA
ATOM     36  N   UNL     1       0.417  -3.622  -7.866  1.00  0.00    -0.354 N 
ATOM     37  H   UNL     1      -0.561  -3.380  -8.031  1.00  0.00     0.163 HD
BRANCH  36  38
ATOM     38  C   UNL     1       1.040  -4.621  -8.710  1.00  0.00     0.116 C 
BRANCH  38  39
ATOM     39  C   UNL     1       1.728  -3.945  -9.893  1.00  0.00     0.023 C 
BRANCH  39  40
ATOM     40  C   UNL     1       3.081  -4.570 -10.215  1.00  0.00     0.026 C 
BRANCH  40  41
ATOM     41  C   UNL     1       3.366  -5.753  -9.290  1.00  0.00     0.146 C 
BRANCH  41  42
ATOM     42  N   UNL     1       4.691  -5.609  -8.700  1.00  0.00    -0.254 NA
ATOM     43  C   UNL     1       4.813  -5.531  -7.428  1.00  0.00     0.185 C 
ATOM     44  N   UNL     1       3.873  -5.561  -6.465  1.00  0.00    -0.370 N 
ATOM     45  N   UNL     1       6.042  -5.394  -6.905  1.00  0.00    -0.370 N 
ATOM     46  H   UNL     1       4.084  -5.245  -5.534  1.00  0.00     0.159 HD
ATOM     47  H   UNL     1       2.888  -5.673  -6.685  1.00  0.00     0.159 HD
ATOM     48  H   UNL     1       6.809  -5.372  -7.563  1.00  0.00     0.159 HD
ATOM     49  H   UNL     1       6.242  -5.563  -5.935  1.00  0.00     0.159 HD
ENDBRANCH  41  42
ENDBRANCH  40  41
ENDBRANCH  39  40
ENDBRANCH  38  39
ENDBRANCH  36  38
ENDBRANCH   5  34
BRANCH   8  50
ATOM     50  O   UNL     1       3.556   0.963  -7.195  1.00  0.00    -0.245 OA
BRANCH  50  51
ATOM     51  S   UNL     1       5.029   1.465  -7.668  1.00  0.00     0.397 S 
ATOM     52  O   UNL     1       5.703   2.020  -6.515  1.00  0.00    -0.169 OA
ATOM     53  O   UNL     1       4.916   2.202  -8.909  1.00  0.00    -0.169 OA
BRANCH  51  54
ATOM     54  O   UNL     1       5.772   0.075  -7.983  1.00  0.00    -0.264 OA
ATOM     55  H   UNL     1       6.690   0.281  -8.253  1.00  0.00     0.236 HD
ENDBRANCH  51  54
ENDBRANCH  50  51
ENDBRANCH   8  50
TORSDOF 19
ENDMDL
MODEL 2
REMARK VINA RESULT:    -7.006      1.457      1.948
REMARK INTER + INTRA:         -18.000
REMARK INTER:                 -14.981
REMARK INTRA:                  -3.019
REMARK UNBOUND:                -3.827
REMARK SMILES CC[C@@H](C)[C@@H](NC(=O)[C@@H](O)Cc1ccc(O)c(Cl)c1)C(=O)N1[C@H](C(=O)NCCCCN=C(N)N)C[C@H]2CC[C@H](OS(=O)(=O)O)C[C@@H]21
REMARK SMILES IDX 22 1 36 2 46 3 35 4 23 5 45 6 37 7 39 8 38 9 20 10 21 11
REMARK SMILES IDX 5 12 6 13 7 14 8 15 9 17 11 18 12 19 17 20 19 21 15 22 14 23
REMARK SMILES IDX 13 24 18 25 16 26 10 28 3 30 4 31 2 32 1 33 24 34 25 35
REMARK SMILES IDX 26 36 27 38 28 39 29 40 30 41 31 42 32 43 33 44 34 45 40 50
REMARK SMILES IDX 41 51 42 52 43 53 44 54
REMARK H PARENT 6 16 16 27 10 29 26 37 33 46 33 47 34 48 34 49 44 55
ROOT
ATOM      1  N   UNL     1       0.772  -1.685  -5.077  1.00  0.00    -0.326 N 
ATOM      2  C   UNL     1       0.500  -0.061  -6.759  1.00  0.00     0.014 C 
ATOM      3  C   UNL     1       1.019  -0.263  -5.333  1.00  0.00     0.091 C 
ATOM      4  C   UNL     1      -0.687  -1.010  -6.822  1.00  0.00     0.041 C 
ATOM      5  C   UNL     1      -0.076  -2.255  -6.154  1.00  0.00     0.175 C 
ATOM      6  C   UNL     1       2.458   0.245  -5.266  1.00  0.00     0.059 C 
ATOM      7  C   UNL     1       0.291   1.411  -7.057  1.00  0.00     0.008 C 
ATOM      8  C   UNL     1       2.743   1.429  -6.216  1.00  0.00     0.143 C 
ATOM      9  C   UNL     1       1.472   2.247  -6.520  1.00  0.00     0.034 C 
ENDROOT
BRANCH   1  10
ATOM     10  C   UNL     1       1.018  -2.439  -3.942  1.00  0.00     0.246 C 
ATOM     11  O   UNL     1       2.154  -2.888  -3.754  1.00  0.00    -0.272 OA
BRANCH  10  12
ATOM     12  C   UNL     1      -0.124  -2.668  -2.911  1.00  0.00     0.174 C 
BRANCH  12  13
ATOM     13  N   UNL     1      -0.875  -1.429  -2.715  1.00  0.00    -0.342 N 
ATOM     14  C   UNL     1      -2.211  -1.261  -3.004  1.00  0.00     0.249 C 
ATOM     15  O   UNL     1      -2.933  -2.151  -3.436  1.00  0.00    -0.272 OA
ATOM     16  H   UNL     1      -0.378  -0.565  -2.512  1.00  0.00     0.164 HD
BRANCH  14  17
ATOM     17  C   UNL     1      -2.710   0.169  -2.703  1.00  0.00     0.207 C 
BRANCH  17  18
ATOM     18  C   UNL     1      -2.201   1.148  -3.767  1.00  0.00     0.077 C 
BRANCH  18  19
ATOM     19  C   UNL     1      -3.283   1.510  -4.759  1.00  0.00    -0.043 A 
ATOM     20  C   UNL     1      -4.905   3.098  -5.615  1.00  0.00     0.083 A 
ATOM     21  C   UNL     1      -3.873   2.783  -4.730  1.00  0.00     0.028 A 
ATOM     22  C   UNL     1      -5.354   2.146  -6.531  1.00  0.00     0.134 A 
ATOM     23  C   UNL     1      -4.778   0.882  -6.572  1.00  0.00     0.048 A 
ATOM     24  C   UNL     1      -3.746   0.563  -5.686  1.00  0.00     0.008 A 
ATOM     25  Cl  UNL     1      -5.619   4.667  -5.563  1.00  0.00    -0.080 Cl
BRANCH  22  26
ATOM     26  O   UNL     1      -6.369   2.405  -7.412  1.00  0.00    -0.506 OA
ATOM     27  H   UNL     1      -6.721   1.540  -7.695  1.00  0.00     0.293 HD
ENDBRANCH  22  26
ENDBRANCH  18  19
ENDBRANCH  17  18
BRANCH  17  28
ATOM     28  O   UNL     1      -2.275   0.606  -1.406  1.00  0.00    -0.383 OA
ATOM     29  H   UNL     1      -3.077   0.605  -0.835  1.00  0.00     0.211 HD
ENDBRANCH  17  28
ENDBRANCH  14  17
ENDBRANCH  12  13
BRANCH  12  30
ATOM     30  C   UNL     1       0.387  -3.269  -1.573  1.00  0.00     0.018 C 
ATOM     31  C   UNL     1      -0.594  -4.323  -1.037  1.00  0.00     0.010 C 
BRANCH  30  32
ATOM     32  C   UNL     1       0.674  -2.206  -0.484  1.00  0.00     0.002 C 
ATOM     33  C   UNL     1       0.771  -2.742   0.938  1.00  0.00     0.004 C 
ENDBRANCH  30  32
ENDBRANCH  12  30
ENDBRANCH  10  12
ENDBRANCH   1  10
BRANCH   5  34
ATOM     34  C   UNL     1       0.782  -3.077  -7.152  1.00  0.00     0.242 C 
ATOM     35  O   UNL     1       0.328  -3.503  -8.214  1.00  0.00    -0.273 OA
ATOM     36  N   UNL     1       2.069  -3.340  -6.740  1.00  0.00    -0.354 N 
ATOM     37  H   UNL     1       2.350  -3.064  -5.799  1.00  0.00     0.163 HD
BRANCH  36  38
ATOM     38  C   UNL     1       3.066  -3.902  -7.629  1.00  0.00     0.116 C 
BRANCH  38  39
ATOM     39  C   UNL     1       3.792  -5.051  -6.933  1.00  0.00     0.023 C 
BRANCH  39  40
ATOM     40  C   UNL     1       3.583  -6.385  -7.640  1.00  0.00     0.026 C 
BRANCH  40  41
ATOM     41  C   UNL     1       4.696  -6.640  -8.657  1.00  0.00     0.146 C 
BRANCH  41  42
ATOM     42  N   UNL     1       4.822  -8.071  -8.900  1.00  0.00    -0.254 NA
ATOM     43  C   UNL     1       4.240  -8.595  -9.913  1.00  0.00     0.185 C 
ATOM     44  N   UNL     1       3.477  -8.024 -10.863  1.00  0.00    -0.370 N 
ATOM     45  N   UNL     1       4.365  -9.917 -10.117  1.00  0.00    -0.370 N 
ATOM     46  H   UNL     1       2.887  -8.586 -11.453  1.00  0.00     0.159 HD
ATOM     47  H   UNL     1       3.290  -7.026 -10.869  1.00  0.00     0.159 HD
ATOM     48  H   UNL     1       4.932 -10.422  -9.450  1.00  0.00     0.159 HD
ATOM     49  H   UNL     1       4.146 -10.354 -10.994  1.00  0.00     0.159 HD
ENDBRANCH  41  42
ENDBRANCH  40  41
ENDBRANCH  39  40
ENDBRANCH  38  39
ENDBRANCH  36  38
ENDBRANCH   5  34
BRANCH   8  50
ATOM     50  O   UNL     1       3.280   0.950  -7.449  1.00  0.00    -0.245 OA
BRANCH  50  51
ATOM     51  S   UNL     1       4.707   1.521  -7.979  1.00  0.00     0.397 S 
ATOM     52  O   UNL     1       4.447   2.415  -9.085  1.00  0.00    -0.169 OA
ATOM     53  O   UNL     1       5.656   0.433  -8.090  1.00  0.00    -0.169 OA
BRANCH  51  54
ATOM     54  O   UNL     1       5.168   2.459  -6.757  1.00  0.00    -0.264 OA
ATOM     55  H   UNL     1       4.693   3.311  -6.839  1.00  0.00     0.236 HD
ENDBRANCH  51  54
ENDBRANCH  50  51
ENDBRANCH   8  50
TORSDOF 19
ENDMDL
MODEL 3
REMARK VINA RESULT:    -6.809      2.926      4.280
REMARK INTER + INTRA:         -17.603
REMARK INTER:                 -13.182
REMARK INTRA:                  -4.421
REMARK UNBOUND:                -3.827
REMARK SMILES CC[C@@H](C)[C@@H](NC(=O)[C@@H](O)Cc1ccc(O)c(Cl)c1)C(=O)N1[C@H](C(=O)NCCCCN=C(N)N)C[C@H]2CC[C@H](OS(=O)(=O)O)C[C@@H]21
REMARK SMILES IDX 22 1 36 2 46 3 35 4 23 5 45 6 37 7 39 8 38 9 20 10 21 11
REMARK SMILES IDX 5 12 6 13 7 14 8 15 9 17 11 18 12 19 17 20 19 21 15 22 14 23
REMARK SMILES IDX 13 24 18 25 16 26 10 28 3 30 4 31 2 32 1 33 24 34 25 35
REMARK SMILES IDX 26 36 27 38 28 39 29 40 30 41 31 42 32 43 33 44 34 45 40 50
REMARK SMILES IDX 41 51 42 52 43 53 44 54
REMARK H PARENT 6 16 16 27 10 29 26 37 33 46 33 47 34 48 34 49 44 55
ROOT
ATOM      1  N   UNL     1       0.137  -2.661  -5.838  1.00  0.00    -0.326 N 
ATOM      2  C   UNL     1       0.278  -2.094  -8.118  1.00  0.00     0.014 C 
ATOM      3  C   UNL     1       0.939  -1.850  -6.759  1.00  0.00     0.091 C 
ATOM      4  C   UNL     1      -1.192  -2.235  -7.756  1.00  0.00     0.041 C 
ATOM      5  C   UNL     1      -1.083  -3.153  -6.525  1.00  0.00     0.175 C 
ATOM      6  C   UNL     1       2.430  -2.157  -6.884  1.00  0.00     0.059 C 
ATOM      7  C   UNL     1       0.698  -1.039  -9.123  1.00  0.00     0.008 C 
ATOM      8  C   UNL     1       3.011  -1.857  -8.283  1.00  0.00     0.143 C 
ATOM      9  C   UNL     1       2.213  -0.761  -9.019  1.00  0.00     0.034 C 
ENDROOT
BRANCH   1  10
ATOM     10  C   UNL     1       0.251  -2.822  -4.467  1.00  0.00     0.246 C 
ATOM     11  O   UNL     1       0.798  -3.837  -4.025  1.00  0.00    -0.272 OA
BRANCH  10  12
ATOM     12  C   UNL     1      -0.272  -1.705  -3.518  1.00  0.00     0.174 C 
BRANCH  12  13
ATOM     13  N   UNL     1      -0.642  -0.523  -4.295  1.00  0.00    -0.342 N 
ATOM     14  C   UNL     1      -1.921  -0.033  -4.427  1.00  0.00     0.249 C 
ATOM     15  O   UNL     1      -2.900  -0.524  -3.879  1.00  0.00    -0.272 OA
ATOM     16  H   UNL     1       0.035  -0.104  -4.928  1.00  0.00     0.164 HD
BRANCH  14  17
ATOM     17  C   UNL     1      -1.989   1.220  -5.327  1.00  0.00     0.207 C 
BRANCH  17  18
ATOM     18  C   UNL     1      -0.905   2.226  -4.927  1.00  0.00     0.077 C 
BRANCH  18  19
ATOM     19  C   UNL     1       0.108   2.430  -6.030  1.00  0.00    -0.043 A 
ATOM     20  C   UNL     1       2.365   2.184  -6.884  1.00  0.00     0.083 A 
ATOM     21  C   UNL     1       1.419   1.951  -5.885  1.00  0.00     0.028 A 
ATOM     22  C   UNL     1       2.009   2.894  -8.030  1.00  0.00     0.134 A 
ATOM     23  C   UNL     1       0.714   3.374  -8.188  1.00  0.00     0.048 A 
ATOM     24  C   UNL     1      -0.234   3.144  -7.189  1.00  0.00     0.008 A 
ATOM     25  Cl  UNL     1       3.972   1.588  -6.686  1.00  0.00    -0.080 Cl
BRANCH  22  26
ATOM     26  O   UNL     1       2.905   3.156  -9.032  1.00  0.00    -0.506 OA
ATOM     27  H   UNL     1       3.671   3.593  -8.616  1.00  0.00     0.293 HD
ENDBRANCH  22  26
ENDBRANCH  18  19
ENDBRANCH  17  18
BRANCH  17  28
ATOM     28  O   UNL     1      -3.278   1.849  -5.242  1.00  0.00    -0.383 OA
ATOM     29  H   UNL     1      -3.382   2.369  -6.071  1.00  0.00     0.211 HD
ENDBRANCH  17  28
ENDBRANCH  14  17
ENDBRANCH  12  13
BRANCH  12  30
ATOM     30  C   UNL     1       0.725  -1.375  -2.374  1.00  0.00     0.018 C 
ATOM     31  C   UNL     1       0.004  -0.690  -1.202  1.00  0.00     0.010 C 
BRANCH  30  32
ATOM     32  C   UNL     1       1.932  -0.519  -2.829  1.00  0.00     0.002 C 
ATOM     33  C   UNL     1       3.263  -0.873  -2.178  1.00  0.00     0.004 C 
ENDBRANCH  30  32
ENDBRANCH  12  30
ENDBRANCH  10  12
ENDBRANCH   1  10
BRANCH   5  34
ATOM     34  C   UNL     1      -0.921  -4.641  -6.934  1.00  0.00     0.242 C 
ATOM     35  O   UNL     1      -1.817  -5.270  -7.497  1.00  0.00    -0.273 OA
ATOM     36  N   UNL     1       0.274  -5.221  -6.573  1.00  0.00    -0.354 N 
ATOM     37  H   UNL     1       0.928  -4.685  -6.002  1.00  0.00     0.163 HD
BRANCH  36  38
ATOM     38  C   UNL     1       0.679  -6.524  -7.058  1.00  0.00     0.116 C 
BRANCH  38  39
ATOM     39  C   UNL     1       1.124  -6.420  -8.515  1.00  0.00     0.023 C 
BRANCH  39  40
ATOM     40  C   UNL     1       2.347  -7.280  -8.814  1.00  0.00     0.026 C 
BRANCH  40  41
ATOM     41  C   UNL     1       3.192  -7.478  -7.555  1.00  0.00     0.146 C 
BRANCH  41  42
ATOM     42  N   UNL     1       4.472  -6.800  -7.710  1.00  0.00    -0.254 NA
ATOM     43  C   UNL     1       4.665  -5.672  -7.135  1.00  0.00     0.185 C 
ATOM     44  N   UNL     1       3.843  -4.946  -6.357  1.00  0.00    -0.370 N 
ATOM     45  N   UNL     1       5.851  -5.061  -7.294  1.00  0.00    -0.370 N 
ATOM     46  H   UNL     1       4.033  -3.975  -6.176  1.00  0.00     0.159 HD
ATOM     47  H   UNL     1       2.909  -5.268  -6.122  1.00  0.00     0.159 HD
ATOM     48  H   UNL     1       6.533  -5.547  -7.861  1.00  0.00     0.159 HD
ATOM     49  H   UNL     1       6.161  -4.313  -6.700  1.00  0.00     0.159 HD
ENDBRANCH  41  42
ENDBRANCH  40  41
ENDBRANCH  39  40
ENDBRANCH  38  39
ENDBRANCH  36  38
ENDBRANCH   5  34
BRANCH   8  50
ATOM     50  O   UNL     1       2.999  -3.040  -9.082  1.00  0.00    -0.245 OA
BRANCH  50  51
ATOM     51  S   UNL     1       4.225  -3.326 -10.112  1.00  0.00     0.397 S 
ATOM     52  O   UNL     1       4.172  -4.719 -10.494  1.00  0.00    -0.169 OA
ATOM     53  O   UNL     1       5.439  -2.724  -9.601  1.00  0.00    -0.169 OA
BRANCH  51  54
ATOM     54  O   UNL     1       3.771  -2.497 -11.413  1.00  0.00    -0.264 OA
ATOM     55  H   UNL     1       2.981  -2.938 -11.787  1.00  0.00     0.236 HD
ENDBRANCH  51  54
ENDBRANCH  50  51
ENDBRANCH   8  50
TORSDOF 19
ENDMDL
MODEL 4
REMARK VINA RESULT:    -6.804      3.864      7.102
REMARK INTER + INTRA:         -17.591
REMARK INTER:                 -13.056
REMARK INTRA:                  -4.535
REMARK UNBOUND:                -3.827
REMARK SMILES CC[C@@H](C)[C@@H](NC(=O)[C@@H](O)Cc1ccc(O)c(Cl)c1)C(=O)N1[C@H](C(=O)NCCCCN=C(N)N)C[C@H]2CC[C@H](OS(=O)(=O)O)C[C@@H]21
REMARK SMILES IDX 22 1 36 2 46 3 35 4 23 5 45 6 37 7 39 8 38 9 20 10 21 11
REMARK SMILES IDX 5 12 6 13 7 14 8 15 9 17 11 18 12 19 17 20 19 21 15 22 14 23
REMARK SMILES IDX 13 24 18 25 16 26 10 28 3 30 4 31 2 32 1 33 24 34 25 35
REMARK SMILES IDX 26 36 27 38 28 39 29 40 30 41 31 42 32 43 33 44 34 45 40 50
REMARK SMILES IDX 41 51 42 52 43 53 44 54
REMARK H PARENT 6 16 16 27 10 29 26 37 33 46 33 47 34 48 34 49 44 55
ROOT
ATOM      1  N   UNL     1       2.050  -3.273 -10.047  1.00  0.00    -0.326 N 
ATOM      2  C   UNL     1       1.050  -1.259  -9.349  1.00  0.00     0.014 C 
ATOM      3  C   UNL     1       1.942  -2.407  -8.869  1.00  0.00     0.091 C 
ATOM      4  C   UNL     1       0.094  -1.955 -10.306  1.00  0.00     0.041 C 
ATOM      5  C   UNL     1       1.085  -2.837 -11.087  1.00  0.00     0.175 C 
ATOM      6  C   UNL     1       3.223  -1.813  -8.287  1.00  0.00     0.059 C 
ATOM      7  C   UNL     1       0.490  -0.480  -8.175  1.00  0.00     0.008 C 
ATOM      8  C   UNL     1       3.023  -0.433  -7.624  1.00  0.00     0.143 C 
ATOM      9  C   UNL     1       1.581  -0.241  -7.110  1.00  0.00     0.034 C 
ENDROOT
BRANCH   1  10
ATOM     10  C   UNL     1       2.717  -4.475 -10.208  1.00  0.00     0.246 C 
ATOM     11  O   UNL     1       3.754  -4.502 -10.879  1.00  0.00    -0.272 OA
BRANCH  10  12
ATOM     12  C   UNL     1       2.175  -5.753  -9.506  1.00  0.00     0.174 C 
BRANCH  12  13
ATOM     13  N   UNL     1       2.065  -5.524  -8.066  1.00  0.00    -0.342 N 
ATOM     14  C   UNL     1       0.952  -5.799  -7.304  1.00  0.00     0.249 C 
ATOM     15  O   UNL     1      -0.073  -6.299  -7.750  1.00  0.00    -0.272 OA
ATOM     16  H   UNL     1       2.774  -4.972  -7.589  1.00  0.00     0.164 HD
BRANCH  14  17
ATOM     17  C   UNL     1       1.141  -5.429  -5.817  1.00  0.00     0.207 C 
BRANCH  17  18
ATOM     18  C   UNL     1       2.146  -4.281  -5.675  1.00  0.00     0.077 C 
BRANCH  18  19
ATOM     19  C   UNL     1       1.570  -3.123  -4.891  1.00  0.00    -0.043 A 
ATOM     20  C   UNL     1       1.858  -1.294  -3.324  1.00  0.00     0.083 A 
ATOM     21  C   UNL     1       2.401  -2.330  -4.085  1.00  0.00     0.028 A 
ATOM     22  C   UNL     1       0.486  -1.045  -3.363  1.00  0.00     0.134 A 
ATOM     23  C   UNL     1      -0.349  -1.822  -4.157  1.00  0.00     0.048 A 
ATOM     24  C   UNL     1       0.191  -2.861  -4.918  1.00  0.00     0.008 A 
ATOM     25  Cl  UNL     1       2.895  -0.331  -2.339  1.00  0.00    -0.080 Cl
BRANCH  22  26
ATOM     26  O   UNL     1      -0.094  -0.047  -2.627  1.00  0.00    -0.506 OA
ATOM     27  H   UNL     1       0.604   0.611  -2.449  1.00  0.00     0.293 HD
ENDBRANCH  22  26
ENDBRANCH  18  19
ENDBRANCH  17  18
BRANCH  17  28
ATOM     28  O   UNL     1       1.598  -6.559  -5.057  1.00  0.00    -0.383 OA
ATOM     29  H   UNL     1       0.788  -7.044  -4.778  1.00  0.00     0.211 HD
ENDBRANCH  17  28
ENDBRANCH  14  17
ENDBRANCH  12  13
BRANCH  12  30
ATOM     30  C   UNL     1       3.005  -7.021  -9.842  1.00  0.00     0.018 C 
ATOM     31  C   UNL     1       2.128  -8.085 -10.521  1.00  0.00     0.010 C 
BRANCH  30  32
ATOM     32  C   UNL     1       3.731  -7.631  -8.619  1.00  0.00     0.002 C 
ATOM     33  C   UNL     1       5.182  -7.203  -8.441  1.00  0.00     0.004 C 
ENDBRANCH  30  32
ENDBRANCH  12  30
ENDBRANCH  10  12
ENDBRANCH   1  10
BRANCH   5  34
ATOM     34  C   UNL     1       1.806  -2.036 -12.205  1.00  0.00     0.242 C 
ATOM     35  O   UNL     1       3.032  -1.938 -12.258  1.00  0.00    -0.273 OA
ATOM     36  N   UNL     1       0.974  -1.399 -13.098  1.00  0.00    -0.354 N 
ATOM     37  H   UNL     1      -0.033  -1.419 -12.932  1.00  0.00     0.163 HD
BRANCH  36  38
ATOM     38  C   UNL     1       1.468  -0.793 -14.317  1.00  0.00     0.116 C 
BRANCH  38  39
ATOM     39  C   UNL     1       1.226   0.715 -14.281  1.00  0.00     0.023 C 
BRANCH  39  40
ATOM     40  C   UNL     1       2.184   1.436 -13.340  1.00  0.00     0.026 C 
BRANCH  40  41
ATOM     41  C   UNL     1       1.457   2.533 -12.562  1.00  0.00     0.146 C 
BRANCH  41  42
ATOM     42  N   UNL     1       1.769   2.420 -11.143  1.00  0.00    -0.254 NA
ATOM     43  C   UNL     1       1.097   3.099 -10.291  1.00  0.00     0.185 C 
ATOM     44  N   UNL     1       0.080   3.959 -10.479  1.00  0.00    -0.370 N 
ATOM     45  N   UNL     1       1.404   2.984  -8.988  1.00  0.00    -0.370 N 
ATOM     46  H   UNL     1      -0.190   4.601  -9.753  1.00  0.00     0.159 HD
ATOM     47  H   UNL     1      -0.290   4.154 -11.404  1.00  0.00     0.159 HD
ATOM     48  H   UNL     1       2.155   2.347  -8.759  1.00  0.00     0.159 HD
ATOM     49  H   UNL     1       0.787   3.287  -8.256  1.00  0.00     0.159 HD
ENDBRANCH  41  42
ENDBRANCH  40  41
ENDBRANCH  39  40
ENDBRANCH  38  39
ENDBRANCH  36  38
ENDBRANCH   5  34
BRANCH   8  50
ATOM     50  O   UNL     1       3.313   0.607  -8.559  1.00  0.00    -0.245 OA
BRANCH  50  51
ATOM     51  S   UNL     1       4.452   1.712  -8.203  1.00  0.00     0.397 S 
ATOM     52  O   UNL     1       5.722   1.028  -8.106  1.00  0.00    -0.169 OA
ATOM     53  O   UNL     1       3.974   2.579  -7.147  1.00  0.00    -0.169 OA
BRANCH  51  54
ATOM     54  O   UNL     1       4.520   2.572  -9.559  1.00  0.00    -0.264 OA
ATOM     55  H   UNL     1       5.158   2.135 -10.159  1.00  0.00     0.236 HD
ENDBRANCH  51  54
ENDBRANCH  50  51
ENDBRANCH   8  50
TORSDOF 19
ENDMDL
MODEL 5
REMARK VINA RESULT:    -6.755     15.414     17.977
REMARK INTER + INTRA:         -17.493
REMARK INTER:                 -13.165
REMARK INTRA:                  -4.327
REMARK UNBOUND:                -3.827
REMARK SMILES CC[C@@H](C)[C@@H](NC(=O)[C@@H](O)Cc1ccc(O)c(Cl)c1)C(=O)N1[C@H](C(=O)NCCCCN=C(N)N)C[C@H]2CC[C@H](OS(=O)(=O)O)C[C@@H]21
REMARK SMILES IDX 22 1 36 2 46 3 35 4 23 5 45 6 37 7 39 8 38 9 20 10 21 11
REMARK SMILES IDX 5 12 6 13 7 14 8 15 9 17 11 18 12 19 17 20 19 21 15 22 14 23
REMARK SMILES IDX 13 24 18 25 16 26 10 28 3 30 4 31 2 32 1 33 24 34 25 35
REMARK SMILES IDX 26 36 27 38 28 39 29 40 30 41 31 42 32 43 33 44 34 45 40 50
REMARK SMILES IDX 41 51 42 52 43 53 44 54
REMARK H PARENT 6 16 16 27 10 29 26 37 33 46 33 47 34 48 34 49 44 55
ROOT
ATOM      1  N   UNL     1       1.100   9.642   8.905  1.00  0.00    -0.326 N 
ATOM      2  C   UNL     1       2.648   8.867   7.310  1.00  0.00     0.014 C 
ATOM      3  C   UNL     1       2.474   9.873   8.451  1.00  0.00     0.091 C 
ATOM      4  C   UNL     1       1.264   8.830   6.682  1.00  0.00     0.041 C 
ATOM      5  C   UNL     1       0.392   8.755   7.949  1.00  0.00     0.175 C 
ATOM      6  C   UNL     1       3.611   9.671   9.451  1.00  0.00     0.059 C 
ATOM      7  C   UNL     1       3.845   9.224   6.450  1.00  0.00     0.008 C 
ATOM      8  C   UNL     1       4.930   9.196   8.804  1.00  0.00     0.143 C 
ATOM      9  C   UNL     1       5.044   9.635   7.330  1.00  0.00     0.034 C 
ENDROOT
BRANCH   1  10
ATOM     10  C   UNL     1       0.377  10.272   9.903  1.00  0.00     0.246 C 
ATOM     11  O   UNL     1       0.750  10.164  11.076  1.00  0.00    -0.272 OA
BRANCH  10  12
ATOM     12  C   UNL     1      -0.861  11.136   9.524  1.00  0.00     0.174 C 
BRANCH  12  13
ATOM     13  N   UNL     1      -2.009  10.272   9.254  1.00  0.00    -0.342 N 
ATOM     14  C   UNL     1      -2.884   9.801  10.207  1.00  0.00     0.249 C 
ATOM     15  O   UNL     1      -2.812  10.080  11.397  1.00  0.00    -0.272 OA
ATOM     16  H   UNL     1      -2.106   9.832   8.343  1.00  0.00     0.164 HD
BRANCH  14  17
ATOM     17  C   UNL     1      -3.983   8.895   9.611  1.00  0.00     0.207 C 
BRANCH  17  18
ATOM     18  C   UNL     1      -5.364   9.533   9.800  1.00  0.00     0.077 C 
BRANCH  18  19
ATOM     19  C   UNL     1      -5.580  10.695   8.857  1.00  0.00    -0.043 A 
ATOM     20  C   UNL     1      -6.296  12.979   8.464  1.00  0.00     0.083 A 
ATOM     21  C   UNL     1      -6.051  11.924   9.344  1.00  0.00     0.028 A 
ATOM     22  C   UNL     1      -6.075  12.813   7.096  1.00  0.00     0.134 A 
ATOM     23  C   UNL     1      -5.608  11.602   6.600  1.00  0.00     0.048 A 
ATOM     24  C   UNL     1      -5.363  10.543   7.478  1.00  0.00     0.008 A 
ATOM     25  Cl  UNL     1      -6.875  14.482   9.081  1.00  0.00    -0.080 Cl
BRANCH  22  26
ATOM     26  O   UNL     1      -6.311  13.815   6.194  1.00  0.00    -0.506 OA
ATOM     27  H   UNL     1      -6.025  13.481   5.323  1.00  0.00     0.293 HD
ENDBRANCH  22  26
ENDBRANCH  18  19
ENDBRANCH  17  18
BRANCH  17  28
ATOM     28  O   UNL     1      -3.971   7.595  10.222  1.00  0.00    -0.383 OA
ATOM     29  H   UNL     1      -3.067   7.235  10.076  1.00  0.00     0.211 HD
ENDBRANCH  17  28
ENDBRANCH  14  17
ENDBRANCH  12  13
BRANCH  12  30
ATOM     30  C   UNL     1      -0.572  12.118   8.356  1.00  0.00     0.018 C 
ATOM     31  C   UNL     1       0.439  13.193   8.784  1.00  0.00     0.010 C 
BRANCH  30  32
ATOM     32  C   UNL     1      -1.843  12.785   7.776  1.00  0.00     0.002 C 
ATOM     33  C   UNL     1      -2.598  13.695   8.736  1.00  0.00     0.004 C 
ENDBRANCH  30  32
ENDBRANCH  12  30
ENDBRANCH  10  12
ENDBRANCH   1  10
BRANCH   5  34
ATOM     34  C   UNL     1       0.308   7.307   8.500  1.00  0.00     0.242 C 
ATOM     35  O   UNL     1       0.757   6.996   9.603  1.00  0.00    -0.273 OA
ATOM     36  N   UNL     1      -0.256   6.386   7.646  1.00  0.00    -0.354 N 
ATOM     37  H   UNL     1      -0.500   6.680   6.699  1.00  0.00     0.163 HD
BRANCH  36  38
ATOM     38  C   UNL     1      -0.608   5.048   8.073  1.00  0.00     0.116 C 
BRANCH  38  39
ATOM     39  C   UNL     1       0.313   4.031   7.404  1.00  0.00     0.023 C 
BRANCH  39  40
ATOM     40  C   UNL     1       0.976   3.095   8.410  1.00  0.00     0.026 C 
BRANCH  40  41
ATOM     41  C   UNL     1       0.959   3.705   9.811  1.00  0.00     0.146 C 
BRANCH  41  42
ATOM     42  N   UNL     1       2.223   3.433  10.482  1.00  0.00    -0.254 NA
ATOM     43  C   UNL     1       3.170   4.292  10.422  1.00  0.00     0.185 C 
ATOM     44  N   UNL     1       3.214   5.489   9.808  1.00  0.00    -0.370 N 
ATOM     45  N   UNL     1       4.329   4.021  11.043  1.00  0.00    -0.370 N 
ATOM     46  H   UNL     1       4.094   5.945   9.636  1.00  0.00     0.159 HD
ATOM     47  H   UNL     1       2.416   5.858   9.300  1.00  0.00     0.159 HD
ATOM     48  H   UNL     1       4.376   3.140  11.539  1.00  0.00     0.159 HD
ATOM     49  H   UNL     1       5.017   4.724  11.242  1.00  0.00     0.159 HD
ENDBRANCH  41  42
ENDBRANCH  40  41
ENDBRANCH  39  40
ENDBRANCH  38  39
ENDBRANCH  36  38
ENDBRANCH   5  34
BRANCH   8  50
ATOM     50  O   UNL     1       5.019   7.772   8.861  1.00  0.00    -0.245 OA
BRANCH  50  51
ATOM     51  S   UNL     1       6.475   7.064   9.016  1.00  0.00     0.397 S 
ATOM     52  O   UNL     1       6.296   5.828   9.743  1.00  0.00    -0.169 OA
ATOM     53  O   UNL     1       7.455   8.050   9.424  1.00  0.00    -0.169 OA
BRANCH  51  54
ATOM     54  O   UNL     1       6.804   6.637   7.501  1.00  0.00    -0.264 OA
ATOM     55  H   UNL     1       6.249   7.185   6.909  1.00  0.00     0.236 HD
ENDBRANCH  51  54
ENDBRANCH  50  51
ENDBRANCH   8  50
TORSDOF 19
ENDMDL
MODEL 6
REMARK VINA RESULT:    -6.711      1.834      2.489
REMARK INTER + INTRA:         -17.403
REMARK INTER:                 -13.358
REMARK INTRA:                  -4.045
REMARK UNBOUND:                -3.827
REMARK SMILES CC[C@@H](C)[C@@H](NC(=O)[C@@H](O)Cc1ccc(O)c(Cl)c1)C(=O)N1[C@H](C(=O)NCCCCN=C(N)N)C[C@H]2CC[C@H](OS(=O)(=O)O)C[C@@H]21
REMARK SMILES IDX 22 1 36 2 46 3 35 4 23 5 45 6 37 7 39 8 38 9 20 10 21 11
REMARK SMILES IDX 5 12 6 13 7 14 8 15 9 17 11 18 12 19 17 20 19 21 15 22 14 23
REMARK SMILES IDX 13 24 18 25 16 26 10 28 3 30 4 31 2 32 1 33 24 34 25 35
REMARK SMILES IDX 26 36 27 38 28 39 29 40 30 41 31 42 32 43 33 44 34 45 40 50
REMARK SMILES IDX 41 51 42 52 43 53 44 54
REMARK H PARENT 6 16 16 27 10 29 26 37 33 46 33 47 34 48 34 49 44 55
ROOT
ATOM      1  N   UNL     1       0.849  -1.968  -5.276  1.00  0.00    -0.326 N 
ATOM      2  C   UNL     1      -0.132  -0.328  -6.652  1.00  0.00     0.014 C 
ATOM      3  C   UNL     1       0.751  -0.512  -5.414  1.00  0.00     0.091 C 
ATOM      4  C   UNL     1      -1.095  -1.501  -6.553  1.00  0.00     0.041 C 
ATOM      5  C   UNL     1      -0.113  -2.630  -6.191  1.00  0.00     0.175 C 
ATOM      6  C   UNL     1       2.039   0.285  -5.617  1.00  0.00     0.059 C 
ATOM      7  C   UNL     1      -0.682   1.083  -6.721  1.00  0.00     0.008 C 
ATOM      8  C   UNL     1       1.852   1.564  -6.462  1.00  0.00     0.143 C 
ATOM      9  C   UNL     1       0.413   2.112  -6.372  1.00  0.00     0.034 C 
ENDROOT
BRANCH   1  10
ATOM     10  C   UNL     1       1.506  -2.727  -4.322  1.00  0.00     0.246 C 
ATOM     11  O   UNL     1       2.616  -3.198  -4.589  1.00  0.00    -0.272 OA
BRANCH  10  12
ATOM     12  C   UNL     1       0.853  -2.934  -2.925  1.00  0.00     0.174 C 
BRANCH  12  13
ATOM     13  N   UNL     1      -0.596  -2.766  -3.021  1.00  0.00    -0.342 N 
ATOM     14  C   UNL     1      -1.523  -3.452  -2.269  1.00  0.00     0.249 C 
ATOM     15  O   UNL     1      -1.230  -4.270  -1.406  1.00  0.00    -0.272 OA
ATOM     16  H   UNL     1      -0.992  -2.240  -3.796  1.00  0.00     0.164 HD
BRANCH  14  17
ATOM     17  C   UNL     1      -2.976  -3.064  -2.616  1.00  0.00     0.207 C 
BRANCH  17  18
ATOM     18  C   UNL     1      -3.209  -1.573  -2.355  1.00  0.00     0.077 C 
BRANCH  18  19
ATOM     19  C   UNL     1      -3.581  -0.832  -3.620  1.00  0.00    -0.043 A 
ATOM     20  C   UNL     1      -3.702   1.230  -4.891  1.00  0.00     0.083 A 
ATOM     21  C   UNL     1      -3.313   0.540  -3.742  1.00  0.00     0.028 A 
ATOM     22  C   UNL     1      -4.361   0.558  -5.920  1.00  0.00     0.134 A 
ATOM     23  C   UNL     1      -4.633  -0.801  -5.812  1.00  0.00     0.048 A 
ATOM     24  C   UNL     1      -4.246  -1.495  -4.663  1.00  0.00     0.008 A 
ATOM     25  Cl  UNL     1      -3.363   2.916  -5.023  1.00  0.00    -0.080 Cl
BRANCH  22  26
ATOM     26  O   UNL     1      -4.771   1.194  -7.061  1.00  0.00    -0.506 OA
ATOM     27  H   UNL     1      -3.965   1.410  -7.566  1.00  0.00     0.293 HD
ENDBRANCH  22  26
ENDBRANCH  18  19
ENDBRANCH  17  18
BRANCH  17  28
ATOM     28  O   UNL     1      -3.915  -3.835  -1.848  1.00  0.00    -0.383 OA
ATOM     29  H   UNL     1      -4.219  -3.246  -1.121  1.00  0.00     0.211 HD
ENDBRANCH  17  28
ENDBRANCH  14  17
ENDBRANCH  12  13
BRANCH  12  30
ATOM     30  C   UNL     1       1.483  -2.032  -1.829  1.00  0.00     0.018 C 
ATOM     31  C   UNL     1       0.744  -0.688  -1.737  1.00  0.00     0.010 C 
BRANCH  30  32
ATOM     32  C   UNL     1       3.001  -1.793  -2.018  1.00  0.00     0.002 C 
ATOM     33  C   UNL     1       3.413  -0.338  -2.200  1.00  0.00     0.004 C 
ENDBRANCH  30  32
ENDBRANCH  12  30
ENDBRANCH  10  12
ENDBRANCH   1  10
BRANCH   5  34
ATOM     34  C   UNL     1       0.612  -3.182  -7.447  1.00  0.00     0.242 C 
ATOM     35  O   UNL     1       1.631  -2.661  -7.900  1.00  0.00    -0.273 OA
ATOM     36  N   UNL     1       0.004  -4.262  -8.047  1.00  0.00    -0.354 N 
ATOM     37  H   UNL     1      -0.902  -4.574  -7.696  1.00  0.00     0.163 HD
BRANCH  36  38
ATOM     38  C   UNL     1       0.650  -5.032  -9.090  1.00  0.00     0.116 C 
BRANCH  38  39
ATOM     39  C   UNL     1       0.512  -6.523  -8.794  1.00  0.00     0.023 C 
BRANCH  39  40
ATOM     40  C   UNL     1       1.863  -7.221  -8.674  1.00  0.00     0.026 C 
BRANCH  40  41
ATOM     41  C   UNL     1       2.464  -7.002  -7.286  1.00  0.00     0.146 C 
BRANCH  41  42
ATOM     42  N   UNL     1       3.901  -6.788  -7.400  1.00  0.00    -0.254 NA
ATOM     43  C   UNL     1       4.384  -5.618  -7.209  1.00  0.00     0.185 C 
ATOM     44  N   UNL     1       3.763  -4.466  -6.899  1.00  0.00    -0.370 N 
ATOM     45  N   UNL     1       5.711  -5.441  -7.323  1.00  0.00    -0.370 N 
ATOM     46  H   UNL     1       4.230  -3.583  -7.020  1.00  0.00     0.159 HD
ATOM     47  H   UNL     1       2.758  -4.422  -6.762  1.00  0.00     0.159 HD
ATOM     48  H   UNL     1       6.255  -6.263  -7.547  1.00  0.00     0.159 HD
ATOM     49  H   UNL     1       6.184  -4.631  -6.964  1.00  0.00     0.159 HD
ENDBRANCH  41  42
ENDBRANCH  40  41
ENDBRANCH  39  40
ENDBRANCH  38  39
ENDBRANCH  36  38
ENDBRANCH   5  34
BRANCH   8  50
ATOM     50  O   UNL     1       2.150   1.294  -7.832  1.00  0.00    -0.245 OA
BRANCH  50  51
ATOM     51  S   UNL     1       3.282   2.176  -8.596  1.00  0.00     0.397 S 
ATOM     52  O   UNL     1       3.307   1.766  -9.982  1.00  0.00    -0.169 OA
ATOM     53  O   UNL     1       4.488   2.218  -7.795  1.00  0.00    -0.169 OA
BRANCH  51  54
ATOM     54  O   UNL     1       2.628   3.644  -8.586  1.00  0.00    -0.264 OA
ATOM     55  H   UNL     1       1.951   3.664  -7.879  1.00  0.00     0.236 HD
ENDBRANCH  51  54
ENDBRANCH  50  51
ENDBRANCH   8  50
TORSDOF 19
ENDMDL
MODEL 7
REMARK VINA RESULT:    -6.683      5.417      8.425
REMARK INTER + INTRA:         -17.347
REMARK INTER:                 -15.123
REMARK INTRA:                  -2.223
REMARK UNBOUND:                -3.827
REMARK SMILES CC[C@@H](C)[C@@H](NC(=O)[C@@H](O)Cc1ccc(O)c(Cl)c1)C(=O)N1[C@H](C(=O)NCCCCN=C(N)N)C[C@H]2CC[C@H](OS(=O)(=O)O)C[C@@H]21
REMARK SMILES IDX 22 1 36 2 46 3 35 4 23 5 45 6 37 7 39 8 38 9 20 10 21 11
REMARK SMILES IDX 5 12 6 13 7 14 8 15 9 17 11 18 12 19 17 20 19 21 15 22 14 23
REMARK SMILES IDX 13 24 18 25 16 26 10 28 3 30 4 31 2 32 1 33 24 34 25 35
REMARK SMILES IDX 26 36 27 38 28 39 29 40 30 41 31 42 32 43 33 44 34 45 40 50
REMARK SMILES IDX 41 51 42 52 43 53 44 54
REMARK H PARENT 6 16 16 27 10 29 26 37 33 46 33 47 34 48 34 49 44 55
ROOT
ATOM      1  N   UNL     1      -2.832   0.436  -3.887  1.00  0.00    -0.326 N 
ATOM      2  C   UNL     1      -3.951   1.082  -5.855  1.00  0.00     0.014 C 
ATOM      3  C   UNL     1      -4.184   0.683  -4.395  1.00  0.00     0.091 C 
ATOM      4  C   UNL     1      -2.756   0.227  -6.249  1.00  0.00     0.041 C 
ATOM      5  C   UNL     1      -1.862   0.421  -5.011  1.00  0.00     0.175 C 
ATOM      6  C   UNL     1      -5.022   1.770  -3.725  1.00  0.00     0.059 C 
ATOM      7  C   UNL     1      -5.234   0.981  -6.657  1.00  0.00     0.008 C 
ATOM      8  C   UNL     1      -6.011   2.470  -4.682  1.00  0.00     0.143 C 
ATOM      9  C   UNL     1      -6.420   1.562  -5.859  1.00  0.00     0.034 C 
ENDROOT
BRANCH   1  10
ATOM     10  C   UNL     1      -2.416   0.026  -2.632  1.00  0.00     0.246 C 
ATOM     11  O   UNL     1      -1.244   0.220  -2.294  1.00  0.00    -0.272 OA
BRANCH  10  12
ATOM     12  C   UNL     1      -3.441  -0.629  -1.661  1.00  0.00     0.174 C 
BRANCH  12  13
ATOM     13  N   UNL     1      -3.900   0.356  -0.682  1.00  0.00    -0.342 N 
ATOM     14  C   UNL     1      -5.212   0.554  -0.315  1.00  0.00     0.249 C 
ATOM     15  O   UNL     1      -6.149  -0.102  -0.753  1.00  0.00    -0.272 OA
ATOM     16  H   UNL     1      -3.260   1.075  -0.352  1.00  0.00     0.164 HD
BRANCH  14  17
ATOM     17  C   UNL     1      -5.376   1.679   0.728  1.00  0.00     0.207 C 
BRANCH  17  18
ATOM     18  C   UNL     1      -6.768   1.620   1.366  1.00  0.00     0.077 C 
BRANCH  18  19
ATOM     19  C   UNL     1      -6.695   1.338   2.850  1.00  0.00    -0.043 A 
ATOM     20  C   UNL     1      -5.846   0.020   4.700  1.00  0.00     0.083 A 
ATOM     21  C   UNL     1      -5.873   0.310   3.336  1.00  0.00     0.028 A 
ATOM     22  C   UNL     1      -6.637   0.752   5.586  1.00  0.00     0.134 A 
ATOM     23  C   UNL     1      -7.456   1.774   5.118  1.00  0.00     0.048 A 
ATOM     24  C   UNL     1      -7.487   2.065   3.752  1.00  0.00     0.008 A 
ATOM     25  Cl  UNL     1      -4.830  -1.248   5.278  1.00  0.00    -0.080 Cl
BRANCH  22  26
ATOM     26  O   UNL     1      -6.652   0.498   6.930  1.00  0.00    -0.506 OA
ATOM     27  H   UNL     1      -5.933  -0.138   7.103  1.00  0.00     0.293 HD
ENDBRANCH  22  26
ENDBRANCH  18  19
ENDBRANCH  17  18
BRANCH  17  28
ATOM     28  O   UNL     1      -5.180   2.971   0.131  1.00  0.00    -0.383 OA
ATOM     29  H   UNL     1      -5.983   3.144  -0.412  1.00  0.00     0.211 HD
ENDBRANCH  17  28
ENDBRANCH  14  17
ENDBRANCH  12  13
BRANCH  12  30
ATOM     30  C   UNL     1      -2.893  -1.918  -0.991  1.00  0.00     0.018 C 
ATOM     31  C   UNL     1      -3.641  -3.159  -1.503  1.00  0.00     0.010 C 
BRANCH  30  32
ATOM     32  C   UNL     1      -2.927  -1.878   0.556  1.00  0.00     0.002 C 
ATOM     33  C   UNL     1      -4.109  -2.590   1.200  1.00  0.00     0.004 C 
ENDBRANCH  30  32
ENDBRANCH  12  30
ENDBRANCH  10  12
ENDBRANCH   1  10
BRANCH   5  34
ATOM     34  C   UNL     1      -1.075   1.757  -5.076  1.00  0.00     0.242 C 
ATOM     35  O   UNL     1      -1.340   2.712  -4.346  1.00  0.00    -0.273 OA
ATOM     36  N   UNL     1      -0.098   1.815  -6.045  1.00  0.00    -0.354 N 
ATOM     37  H   UNL     1      -0.007   1.035  -6.698  1.00  0.00     0.163 HD
BRANCH  36  38
ATOM     38  C   UNL     1       0.868   2.892  -6.105  1.00  0.00     0.116 C 
BRANCH  38  39
ATOM     39  C   UNL     1       0.784   3.588  -7.461  1.00  0.00     0.023 C 
BRANCH  39  40
ATOM     40  C   UNL     1       0.803   2.601  -8.624  1.00  0.00     0.026 C 
BRANCH  40  41
ATOM     41  C   UNL     1       0.596   3.327  -9.954  1.00  0.00     0.146 C 
BRANCH  41  42
ATOM     42  N   UNL     1       1.783   4.108 -10.278  1.00  0.00    -0.254 NA
ATOM     43  C   UNL     1       1.679   5.371 -10.460  1.00  0.00     0.185 C 
ATOM     44  N   UNL     1       0.597   6.168 -10.401  1.00  0.00    -0.370 N 
ATOM     45  N   UNL     1       2.784   6.072 -10.763  1.00  0.00    -0.370 N 
ATOM     46  H   UNL     1       0.616   7.090 -10.803  1.00  0.00     0.159 HD
ATOM     47  H   UNL     1      -0.322   5.803 -10.171  1.00  0.00     0.159 HD
ATOM     48  H   UNL     1       3.647   5.548 -10.818  1.00  0.00     0.159 HD
ATOM     49  H   UNL     1       2.831   7.073 -10.686  1.00  0.00     0.159 HD
ENDBRANCH  41  42
ENDBRANCH  40  41
ENDBRANCH  39  40
ENDBRANCH  38  39
ENDBRANCH  36  38
ENDBRANCH   5  34
BRANCH   8  50
ATOM     50  O   UNL     1      -5.424   3.659  -5.210  1.00  0.00    -0.245 OA
BRANCH  50  51
ATOM     51  S   UNL     1      -6.170   5.088  -4.994  1.00  0.00     0.397 S 
ATOM     52  O   UNL     1      -7.509   4.825  -4.517  1.00  0.00    -0.169 OA
ATOM     53  O   UNL     1      -5.924   5.943  -6.136  1.00  0.00    -0.169 OA
BRANCH  51  54
ATOM     54  O   UNL     1      -5.370   5.697  -3.738  1.00  0.00    -0.264 OA
ATOM     55  H   UNL     1      -5.628   5.187  -2.944  1.00  0.00     0.236 HD
ENDBRANCH  51  54
ENDBRANCH  50  51
ENDBRANCH   8  50
TORSDOF 19
ENDMDL
MODEL 8
REMARK VINA RESULT:    -6.643      2.275      3.361
REMARK INTER + INTRA:         -17.266
REMARK INTER:                 -14.944
REMARK INTRA:                  -2.322
REMARK UNBOUND:                -3.827
REMARK SMILES CC[C@@H](C)[C@@H](NC(=O)[C@@H](O)Cc1ccc(O)c(Cl)c1)C(=O)N1[C@H](C(=O)NCCCCN=C(N)N)C[C@H]2CC[C@H](OS(=O)(=O)O)C[C@@H]21
REMARK SMILES IDX 22 1 36 2 46 3 35 4 23 5 45 6 37 7 39 8 38 9 20 10 21 11
REMARK SMILES IDX 5 12 6 13 7 14 8 15 9 17 11 18 12 19 17 20 19 21 15 22 14 23
REMARK SMILES IDX 13 24 18 25 16 26 10 28 3 30 4 31 2 32 1 33 24 34 25 35
REMARK SMILES IDX 26 36 27 38 28 39 29 40 30 41 31 42 32 43 33 44 34 45 40 50
REMARK SMILES IDX 41 51 42 52 43 53 44 54
REMARK H PARENT 6 16 16 27 10 29 26 37 33 46 33 47 34 48 34 49 44 55
ROOT
ATOM      1  N   UNL     1       0.986  -1.641  -4.886  1.00  0.00    -0.326 N 
ATOM      2  C   UNL     1       0.720  -0.174  -6.708  1.00  0.00     0.014 C 
ATOM      3  C   UNL     1       1.148  -0.227  -5.239  1.00  0.00     0.091 C 
ATOM      4  C   UNL     1      -0.388  -1.214  -6.771  1.00  0.00     0.041 C 
ATOM      5  C   UNL     1       0.262  -2.354  -5.966  1.00  0.00     0.175 C 
ATOM      6  C   UNL     1       2.538   0.395  -5.118  1.00  0.00     0.059 C 
ATOM      7  C   UNL     1       0.428   1.251  -7.136  1.00  0.00     0.008 C 
ATOM      8  C   UNL     1       2.805   1.522  -6.139  1.00  0.00     0.143 C 
ATOM      9  C   UNL     1       1.503   2.214  -6.591  1.00  0.00     0.034 C 
ENDROOT
BRANCH   1  10
ATOM     10  C   UNL     1       1.205  -2.285  -3.680  1.00  0.00     0.246 C 
ATOM     11  O   UNL     1       2.354  -2.626  -3.380  1.00  0.00    -0.272 OA
BRANCH  10  12
ATOM     12  C   UNL     1       0.010  -2.527  -2.713  1.00  0.00     0.174 C 
BRANCH  12  13
ATOM     13  N   UNL     1      -0.720  -1.278  -2.499  1.00  0.00    -0.342 N 
ATOM     14  C   UNL     1      -1.952  -0.981  -3.038  1.00  0.00     0.249 C 
ATOM     15  O   UNL     1      -2.592  -1.751  -3.743  1.00  0.00    -0.272 OA
ATOM     16  H   UNL     1      -0.249  -0.487  -2.068  1.00  0.00     0.164 HD
BRANCH  14  17
ATOM     17  C   UNL     1      -2.451   0.425  -2.642  1.00  0.00     0.207 C 
BRANCH  17  18
ATOM     18  C   UNL     1      -3.961   0.402  -2.379  1.00  0.00     0.077 C 
BRANCH  18  19
ATOM     19  C   UNL     1      -4.274   0.438  -0.900  1.00  0.00    -0.043 A 
ATOM     20  C   UNL     1      -3.857  -0.346   1.357  1.00  0.00     0.083 A 
ATOM     21  C   UNL     1      -3.533  -0.343  -0.000  1.00  0.00     0.028 A 
ATOM     22  C   UNL     1      -4.921   0.428   1.822  1.00  0.00     0.134 A 
ATOM     23  C   UNL     1      -5.664   1.206   0.942  1.00  0.00     0.048 A 
ATOM     24  C   UNL     1      -5.343   1.209  -0.417  1.00  0.00     0.008 A 
ATOM     25  Cl  UNL     1      -2.934  -1.312   2.448  1.00  0.00    -0.080 Cl
BRANCH  22  26
ATOM     26  O   UNL     1      -5.283   0.449   3.142  1.00  0.00    -0.506 OA
ATOM     27  H   UNL     1      -4.589  -0.032   3.631  1.00  0.00     0.293 HD
ENDBRANCH  22  26
ENDBRANCH  18  19
ENDBRANCH  17  18
BRANCH  17  28
ATOM     28  O   UNL     1      -2.161   1.386  -3.669  1.00  0.00    -0.383 OA
ATOM     29  H   UNL     1      -2.148   2.264  -3.224  1.00  0.00     0.211 HD
ENDBRANCH  17  28
ENDBRANCH  14  17
ENDBRANCH  12  13
BRANCH  12  30
ATOM     30  C   UNL     1       0.443  -3.195  -1.380  1.00  0.00     0.018 C 
ATOM     31  C   UNL     1      -0.403  -4.446  -1.095  1.00  0.00     0.010 C 
BRANCH  30  32
ATOM     32  C   UNL     1       0.404  -2.238  -0.163  1.00  0.00     0.002 C 
ATOM     33  C   UNL     1       0.715  -2.881   1.182  1.00  0.00     0.004 C 
ENDBRANCH  30  32
ENDBRANCH  12  30
ENDBRANCH  10  12
ENDBRANCH   1  10
BRANCH   5  34
ATOM     34  C   UNL     1       1.246  -3.180  -6.837  1.00  0.00     0.242 C 
ATOM     35  O   UNL     1       2.446  -2.913  -6.906  1.00  0.00    -0.273 OA
ATOM     36  N   UNL     1       0.672  -4.197  -7.566  1.00  0.00    -0.354 N 
ATOM     37  H   UNL     1      -0.345  -4.293  -7.559  1.00  0.00     0.163 HD
BRANCH  36  38
ATOM     38  C   UNL     1       1.462  -5.195  -8.257  1.00  0.00     0.116 C 
BRANCH  38  39
ATOM     39  C   UNL     1       1.350  -6.536  -7.535  1.00  0.00     0.023 C 
BRANCH  39  40
ATOM     40  C   UNL     1       1.835  -7.701  -8.391  1.00  0.00     0.026 C 
BRANCH  40  41
ATOM     41  C   UNL     1       3.256  -8.105  -8.001  1.00  0.00     0.146 C 
BRANCH  41  42
ATOM     42  N   UNL     1       3.929  -6.984  -7.359  1.00  0.00    -0.254 NA
ATOM     43  C   UNL     1       4.991  -6.498  -7.883  1.00  0.00     0.185 C 
ATOM     44  N   UNL     1       5.647  -6.859  -9.001  1.00  0.00    -0.370 N 
ATOM     45  N   UNL     1       5.598  -5.467  -7.273  1.00  0.00    -0.370 N 
ATOM     46  H   UNL     1       6.593  -6.555  -9.161  1.00  0.00     0.159 HD
ATOM     47  H   UNL     1       5.316  -7.614  -9.593  1.00  0.00     0.159 HD
ATOM     48  H   UNL     1       5.163  -5.127  -6.427  1.00  0.00     0.159 HD
ATOM     49  H   UNL     1       6.279  -4.888  -7.732  1.00  0.00     0.159 HD
ENDBRANCH  41  42
ENDBRANCH  40  41
ENDBRANCH  39  40
ENDBRANCH  38  39
ENDBRANCH  36  38
ENDBRANCH   5  34
BRANCH   8  50
ATOM     50  O   UNL     1       3.463   0.994  -7.291  1.00  0.00    -0.245 OA
BRANCH  50  51
ATOM     51  S   UNL     1       4.910   1.590  -7.734  1.00  0.00     0.397 S 
ATOM     52  O   UNL     1       5.469   2.293  -6.600  1.00  0.00    -0.169 OA
ATOM     53  O   UNL     1       4.801   2.214  -9.036  1.00  0.00    -0.169 OA
BRANCH  51  54
ATOM     54  O   UNL     1       5.788   0.253  -7.896  1.00  0.00    -0.264 OA
ATOM     55  H   UNL     1       6.704   0.463  -7.623  1.00  0.00     0.236 HD
ENDBRANCH  51  54
ENDBRANCH  50  51
ENDBRANCH   8  50
TORSDOF 19
ENDMDL
MODEL 9
REMARK VINA RESULT:    -6.562      3.331      5.976
REMARK INTER + INTRA:         -17.102
REMARK INTER:                 -14.018
REMARK INTRA:                  -3.084
REMARK UNBOUND:                -3.827
REMARK SMILES CC[C@@H](C)[C@@H](NC(=O)[C@@H](O)Cc1ccc(O)c(Cl)c1)C(=O)N1[C@H](C(=O)NCCCCN=C(N)N)C[C@H]2CC[C@H](OS(=O)(=O)O)C[C@@H]21
REMARK SMILES IDX 22 1 36 2 46 3 35 4 23 5 45 6 37 7 39 8 38 9 20 10 21 11
REMARK SMILES IDX 5 12 6 13 7 14 8 15 9 17 11 18 12 19 17 20 19 21 15 22 14 23
REMARK SMILES IDX 13 24 18 25 16 26 10 28 3 30 4 31 2 32 1 33 24 34 25 35
REMARK SMILES IDX 26 36 27 38 28 39 29 40 30 41 31 42 32 43 33 44 34 45 40 50
REMARK SMILES IDX 41 51 42 52 43 53 44 54
REMARK H PARENT 6 16 16 27 10 29 26 37 33 46 33 47 34 48 34 49 44 55
ROOT
ATOM      1  N   UNL     1      -0.700   0.312  -5.741  1.00  0.00    -0.326 N 
ATOM      2  C   UNL     1       0.420   0.232  -7.810  1.00  0.00     0.014 C 
ATOM      3  C   UNL     1      -0.018   1.189  -6.698  1.00  0.00     0.091 C 
ATOM      4  C   UNL     1      -0.713  -0.781  -7.847  1.00  0.00     0.041 C 
ATOM      5  C   UNL     1      -0.905  -1.030  -6.339  1.00  0.00     0.175 C 
ATOM      6  C   UNL     1       1.206   1.968  -6.221  1.00  0.00     0.059 C 
ATOM      7  C   UNL     1       0.777   0.994  -9.071  1.00  0.00     0.008 C 
ATOM      8  C   UNL     1       2.250   2.224  -7.329  1.00  0.00     0.143 C 
ATOM      9  C   UNL     1       1.612   2.247  -8.732  1.00  0.00     0.034 C 
ENDROOT
BRANCH   1  10
ATOM     10  C   UNL     1      -1.324   0.620  -4.544  1.00  0.00     0.246 C 
ATOM     11  O   UNL     1      -0.734   0.391  -3.483  1.00  0.00    -0.272 OA
BRANCH  10  12
ATOM     12  C   UNL     1      -2.731   1.284  -4.561  1.00  0.00     0.174 C 
BRANCH  12  13
ATOM     13  N   UNL     1      -3.495   0.862  -3.387  1.00  0.00    -0.342 N 
ATOM     14  C   UNL     1      -3.992   1.709  -2.421  1.00  0.00     0.249 C 
ATOM     15  O   UNL     1      -3.870   2.927  -2.454  1.00  0.00    -0.272 OA
ATOM     16  H   UNL     1      -3.541  -0.124  -3.144  1.00  0.00     0.164 HD
BRANCH  14  17
ATOM     17  C   UNL     1      -4.740   0.958  -1.299  1.00  0.00     0.207 C 
BRANCH  17  18
ATOM     18  C   UNL     1      -4.370  -0.529  -1.310  1.00  0.00     0.077 C 
BRANCH  18  19
ATOM     19  C   UNL     1      -3.302  -0.850  -0.289  1.00  0.00    -0.043 A 
ATOM     20  C   UNL     1      -2.614  -1.115   2.022  1.00  0.00     0.083 A 
ATOM     21  C   UNL     1      -3.613  -0.866   1.080  1.00  0.00     0.028 A 
ATOM     22  C   UNL     1      -1.303  -1.347   1.606  1.00  0.00     0.134 A 
ATOM     23  C   UNL     1      -0.982  -1.334   0.253  1.00  0.00     0.048 A 
ATOM     24  C   UNL     1      -1.979  -1.084  -0.692  1.00  0.00     0.008 A 
ATOM     25  Cl  UNL     1      -3.016  -1.130   3.699  1.00  0.00    -0.080 Cl
BRANCH  22  26
ATOM     26  O   UNL     1      -0.289  -1.584   2.493  1.00  0.00    -0.506 OA
ATOM     27  H   UNL     1       0.520  -1.206   2.101  1.00  0.00     0.293 HD
ENDBRANCH  22  26
ENDBRANCH  18  19
ENDBRANCH  17  18
BRANCH  17  28
ATOM     28  O   UNL     1      -6.162   1.097  -1.443  1.00  0.00    -0.383 OA
ATOM     29  H   UNL     1      -6.365   2.040  -1.248  1.00  0.00     0.211 HD
ENDBRANCH  17  28
ENDBRANCH  14  17
ENDBRANCH  12  13
BRANCH  12  30
ATOM     30  C   UNL     1      -3.497   1.033  -5.887  1.00  0.00     0.018 C 
ATOM     31  C   UNL     1      -3.872   2.363  -6.561  1.00  0.00     0.010 C 
BRANCH  30  32
ATOM     32  C   UNL     1      -4.756   0.148  -5.721  1.00  0.00     0.002 C 
ATOM     33  C   UNL     1      -5.861   0.389  -6.741  1.00  0.00     0.004 C 
ENDBRANCH  30  32
ENDBRANCH  12  30
ENDBRANCH  10  12
ENDBRANCH   1  10
BRANCH   5  34
ATOM     34  C   UNL     1       0.137  -2.041  -5.790  1.00  0.00     0.242 C 
ATOM     35  O   UNL     1       0.286  -3.162  -6.277  1.00  0.00    -0.273 OA
ATOM     36  N   UNL     1       0.843  -1.614  -4.687  1.00  0.00    -0.354 N 
ATOM     37  H   UNL     1       0.590  -0.724  -4.257  1.00  0.00     0.163 HD
BRANCH  36  38
ATOM     38  C   UNL     1       1.993  -2.333  -4.180  1.00  0.00     0.116 C 
BRANCH  38  39
ATOM     39  C   UNL     1       1.960  -2.353  -2.654  1.00  0.00     0.023 C 
BRANCH  39  40
ATOM     40  C   UNL     1       3.164  -1.650  -2.035  1.00  0.00     0.026 C 
BRANCH  40  41
ATOM     41  C   UNL     1       3.100  -0.143  -2.287  1.00  0.00     0.146 C 
BRANCH  41  42
ATOM     42  N   UNL     1       4.433   0.433  -2.164  1.00  0.00    -0.254 NA
ATOM     43  C   UNL     1       4.852   1.253  -3.054  1.00  0.00     0.185 C 
ATOM     44  N   UNL     1       4.243   1.714  -4.161  1.00  0.00    -0.370 N 
ATOM     45  N   UNL     1       6.085   1.769  -2.925  1.00  0.00    -0.370 N 
ATOM     46  H   UNL     1       4.774   2.157  -4.892  1.00  0.00     0.159 HD
ATOM     47  H   UNL     1       3.298   1.435  -4.405  1.00  0.00     0.159 HD
ATOM     48  H   UNL     1       6.610   1.480  -2.111  1.00  0.00     0.159 HD
ATOM     49  H   UNL     1       6.391   2.580  -3.433  1.00  0.00     0.159 HD
ENDBRANCH  41  42
ENDBRANCH  40  41
ENDBRANCH  39  40
ENDBRANCH  38  39
ENDBRANCH  36  38
ENDBRANCH   5  34
BRANCH   8  50
ATOM     50  O   UNL     1       3.252   1.207  -7.303  1.00  0.00    -0.245 OA
BRANCH  50  51
ATOM     51  S   UNL     1       4.715   1.504  -7.949  1.00  0.00     0.397 S 
ATOM     52  O   UNL     1       4.536   2.411  -9.060  1.00  0.00    -0.169 OA
ATOM     53  O   UNL     1       5.445   0.261  -8.092  1.00  0.00    -0.169 OA
BRANCH  51  54
ATOM     54  O   UNL     1       5.425   2.365  -6.791  1.00  0.00    -0.264 OA
ATOM     55  H   UNL     1       5.181   3.304  -6.925  1.00  0.00     0.236 HD
ENDBRANCH  51  54
ENDBRANCH  50  51
ENDBRANCH   8  50
TORSDOF 19
ENDMDL
MODEL 10
REMARK VINA RESULT:    -6.490      3.187      5.546
REMARK INTER + INTRA:         -16.957
REMARK INTER:                 -13.709
REMARK INTRA:                  -3.248
REMARK UNBOUND:                -3.827
REMARK SMILES CC[C@@H](C)[C@@H](NC(=O)[C@@H](O)Cc1ccc(O)c(Cl)c1)C(=O)N1[C@H](C(=O)NCCCCN=C(N)N)C[C@H]2CC[C@H](OS(=O)(=O)O)C[C@@H]21
REMARK SMILES IDX 22 1 36 2 46 3 35 4 23 5 45 6 37 7 39 8 38 9 20 10 21 11
REMARK SMILES IDX 5 12 6 13 7 14 8 15 9 17 11 18 12 19 17 20 19 21 15 22 14 23
REMARK SMILES IDX 13 24 18 25 16 26 10 28 3 30 4 31 2 32 1 33 24 34 25 35
REMARK SMILES IDX 26 36 27 38 28 39 29 40 30 41 31 42 32 43 33 44 34 45 40 50
REMARK SMILES IDX 41 51 42 52 43 53 44 54
REMARK H PARENT 6 16 16 27 10 29 26 37 33 46 33 47 34 48 34 49 44 55
ROOT
ATOM      1  N   UNL     1       0.562  -2.846  -9.259  1.00  0.00    -0.326 N 
ATOM      2  C   UNL     1       1.929  -1.548 -10.669  1.00  0.00     0.014 C 
ATOM      3  C   UNL     1       0.750  -1.459  -9.695  1.00  0.00     0.091 C 
ATOM      4  C   UNL     1       1.715  -2.901 -11.331  1.00  0.00     0.041 C 
ATOM      5  C   UNL     1       1.379  -3.758 -10.097  1.00  0.00     0.175 C 
ATOM      6  C   UNL     1       1.076  -0.405  -8.639  1.00  0.00     0.059 C 
ATOM      7  C   UNL     1       2.015  -0.304 -11.531  1.00  0.00     0.008 C 
ATOM      8  C   UNL     1       1.956   0.750  -9.163  1.00  0.00     0.143 C 
ATOM      9  C   UNL     1       1.786   0.964 -10.681  1.00  0.00     0.034 C 
ENDROOT
BRANCH   1  10
ATOM     10  C   UNL     1      -0.372  -3.384  -8.390  1.00  0.00     0.246 C 
ATOM     11  O   UNL     1      -0.664  -4.581  -8.485  1.00  0.00    -0.272 OA
BRANCH  10  12
ATOM     12  C   UNL     1      -1.002  -2.483  -7.287  1.00  0.00     0.174 C 
BRANCH  12  13
ATOM     13  N   UNL     1      -0.730  -3.049  -5.966  1.00  0.00    -0.342 N 
ATOM     14  C   UNL     1       0.175  -2.542  -5.060  1.00  0.00     0.249 C 
ATOM     15  O   UNL     1       0.840  -1.532  -5.254  1.00  0.00    -0.272 OA
ATOM     16  H   UNL     1      -1.088  -3.971  -5.729  1.00  0.00     0.164 HD
BRANCH  14  17
ATOM     17  C   UNL     1       0.246  -3.373  -3.762  1.00  0.00     0.207 C 
BRANCH  17  18
ATOM     18  C   UNL     1       1.118  -2.664  -2.720  1.00  0.00     0.077 C 
BRANCH  18  19
ATOM     19  C   UNL     1       0.321  -2.262  -1.500  1.00  0.00    -0.043 A 
ATOM     20  C   UNL     1      -1.590  -1.139  -0.513  1.00  0.00     0.083 A 
ATOM     21  C   UNL     1      -0.882  -1.552  -1.642  1.00  0.00     0.028 A 
ATOM     22  C   UNL     1      -1.103  -1.430   0.761  1.00  0.00     0.134 A 
ATOM     23  C   UNL     1       0.087  -2.131   0.917  1.00  0.00     0.048 A 
ATOM     24  C   UNL     1       0.799  -2.545  -0.211  1.00  0.00     0.008 A 
ATOM     25  Cl  UNL     1      -3.066  -0.269  -0.709  1.00  0.00    -0.080 Cl
BRANCH  22  26
ATOM     26  O   UNL     1      -1.756  -1.036   1.898  1.00  0.00    -0.506 OA
ATOM     27  H   UNL     1      -2.470  -0.435   1.616  1.00  0.00     0.293 HD
ENDBRANCH  22  26
ENDBRANCH  18  19
ENDBRANCH  17  18
BRANCH  17  28
ATOM     28  O   UNL     1       0.777  -4.684  -4.015  1.00  0.00    -0.383 OA
ATOM     29  H   UNL     1       1.017  -4.700  -4.969  1.00  0.00     0.211 HD
ENDBRANCH  17  28
ENDBRANCH  14  17
ENDBRANCH  12  13
BRANCH  12  30
ATOM     30  C   UNL     1      -2.514  -2.220  -7.519  1.00  0.00     0.018 C 
ATOM     31  C   UNL     1      -3.368  -3.290  -6.821  1.00  0.00     0.010 C 
BRANCH  30  32
ATOM     32  C   UNL     1      -2.905  -2.118  -9.013  1.00  0.00     0.002 C 
ATOM     33  C   UNL     1      -4.381  -2.339  -9.317  1.00  0.00     0.004 C 
ENDBRANCH  30  32
ENDBRANCH  12  30
ENDBRANCH  10  12
ENDBRANCH   1  10
BRANCH   5  34
ATOM     34  C   UNL     1       2.660  -4.200  -9.341  1.00  0.00     0.242 C 
ATOM     35  O   UNL     1       2.726  -4.218  -8.112  1.00  0.00    -0.273 OA
ATOM     36  N   UNL     1       3.733  -4.518 -10.143  1.00  0.00    -0.354 N 
ATOM     37  H   UNL     1       3.655  -4.368 -11.150  1.00  0.00     0.163 HD
BRANCH  36  38
ATOM     38  C   UNL     1       4.927  -5.151  -9.622  1.00  0.00     0.116 C 
BRANCH  38  39
ATOM     39  C   UNL     1       4.873  -6.654  -9.883  1.00  0.00     0.023 C 
BRANCH  39  40
ATOM     40  C   UNL     1       4.796  -7.467  -8.595  1.00  0.00     0.026 C 
BRANCH  40  41
ATOM     41  C   UNL     1       3.404  -8.074  -8.420  1.00  0.00     0.146 C 
BRANCH  41  42
ATOM     42  N   UNL     1       2.985  -7.953  -7.030  1.00  0.00    -0.254 NA
ATOM     43  C   UNL     1       1.893  -7.348  -6.748  1.00  0.00     0.185 C 
ATOM     44  N   UNL     1       0.994  -6.762  -7.560  1.00  0.00    -0.370 N 
ATOM     45  N   UNL     1       1.526  -7.242  -5.460  1.00  0.00    -0.370 N 
ATOM     46  H   UNL     1       0.315  -6.117  -7.193  1.00  0.00     0.159 HD
ATOM     47  H   UNL     1       1.108  -6.760  -8.569  1.00  0.00     0.159 HD
ATOM     48  H   UNL     1       2.145  -7.666  -4.782  1.00  0.00     0.159 HD
ATOM     49  H   UNL     1       0.593  -7.002  -5.178  1.00  0.00     0.159 HD
ENDBRANCH  41  42
ENDBRANCH  40  41
ENDBRANCH  39  40
ENDBRANCH  38  39
ENDBRANCH  36  38
ENDBRANCH   5  34
BRANCH   8  50
ATOM     50  O   UNL     1       3.331   0.479  -8.894  1.00  0.00    -0.245 OA
BRANCH  50  51
ATOM     51  S   UNL     1       4.257   1.629  -8.211  1.00  0.00     0.397 S 
ATOM     52  O   UNL     1       3.448   2.338  -7.246  1.00  0.00    -0.169 OA
ATOM     53  O   UNL     1       5.002   2.327  -9.238  1.00  0.00    -0.169 OA
BRANCH  51  54
ATOM     54  O   UNL     1       5.298   0.754  -7.352  1.00  0.00    -0.264 OA
ATOM     55  H   UNL     1       5.022  -0.183  -7.412  1.00  0.00     0.236 HD
ENDBRANCH  51  54
ENDBRANCH  50  51
ENDBRANCH   8  50
TORSDOF 19
ENDMDL
MODEL 11
REMARK VINA RESULT:    -6.455      4.351      9.084
REMARK INTER + INTRA:         -16.885
REMARK INTER:                 -13.744
REMARK INTRA:                  -3.141
REMARK UNBOUND:                -3.827
REMARK SMILES CC[C@@H](C)[C@@H](NC(=O)[C@@H](O)Cc1ccc(O)c(Cl)c1)C(=O)N1[C@H](C(=O)NCCCCN=C(N)N)C[C@H]2CC[C@H](OS(=O)(=O)O)C[C@@H]21
REMARK SMILES IDX 22 1 36 2 46 3 35 4 23 5 45 6 37 7 39 8 38 9 20 10 21 11
REMARK SMILES IDX 5 12 6 13 7 14 8 15 9 17 11 18 12 19 17 20 19 21 15 22 14 23
REMARK SMILES IDX 13 24 18 25 16 26 10 28 3 30 4 31 2 32 1 33 24 34 25 35
REMARK SMILES IDX 26 36 27 38 28 39 29 40 30 41 31 42 32 43 33 44 34 45 40 50
REMARK SMILES IDX 41 51 42 52 43 53 44 54
REMARK H PARENT 6 16 16 27 10 29 26 37 33 46 33 47 34 48 34 49 44 55
ROOT
ATOM      1  N   UNL     1       0.454  -2.820  -7.947  1.00  0.00    -0.326 N 
ATOM      2  C   UNL     1       0.161  -1.182  -6.281  1.00  0.00     0.014 C 
ATOM      3  C   UNL     1      -0.194  -2.627  -6.646  1.00  0.00     0.091 C 
ATOM      4  C   UNL     1       0.165  -0.486  -7.633  1.00  0.00     0.041 C 
ATOM      5  C   UNL     1       0.942  -1.519  -8.469  1.00  0.00     0.175 C 
ATOM      6  C   UNL     1       0.221  -3.534  -5.489  1.00  0.00     0.059 C 
ATOM      7  C   UNL     1      -0.743  -0.664  -5.180  1.00  0.00     0.008 C 
ATOM      8  C   UNL     1       0.121  -2.859  -4.104  1.00  0.00     0.143 C 
ATOM      9  C   UNL     1      -0.933  -1.733  -4.083  1.00  0.00     0.034 C 
ENDROOT
BRANCH   1  10
ATOM     10  C   UNL     1       0.465  -3.927  -8.778  1.00  0.00     0.246 C 
ATOM     11  O   UNL     1       0.104  -3.801  -9.953  1.00  0.00    -0.272 OA
BRANCH  10  12
ATOM     12  C   UNL     1       0.969  -5.293  -8.228  1.00  0.00     0.174 C 
BRANCH  12  13
ATOM     13  N   UNL     1       2.404  -5.432  -8.479  1.00  0.00    -0.342 N 
ATOM     14  C   UNL     1       3.352  -5.698  -7.517  1.00  0.00     0.249 C 
ATOM     15  O   UNL     1       3.091  -5.878  -6.334  1.00  0.00    -0.272 OA
ATOM     16  H   UNL     1       2.787  -5.156  -9.380  1.00  0.00     0.164 HD
BRANCH  14  17
ATOM     17  C   UNL     1       4.782  -5.767  -8.093  1.00  0.00     0.207 C 
BRANCH  17  18
ATOM     18  C   UNL     1       5.208  -7.225  -8.296  1.00  0.00     0.077 C 
BRANCH  18  19
ATOM     19  C   UNL     1       4.683  -7.787  -9.599  1.00  0.00    -0.043 A 
ATOM     20  C   UNL     1       4.293  -7.558 -11.982  1.00  0.00     0.083 A 
ATOM     21  C   UNL     1       4.822  -7.059 -10.791  1.00  0.00     0.028 A 
ATOM     22  C   UNL     1       3.624  -8.782 -11.990  1.00  0.00     0.134 A 
ATOM     23  C   UNL     1       3.480  -9.513 -10.817  1.00  0.00     0.048 A 
ATOM     24  C   UNL     1       4.006  -9.016  -9.622  1.00  0.00     0.008 A 
ATOM     25  Cl  UNL     1       4.473  -6.649 -13.436  1.00  0.00    -0.080 Cl
BRANCH  22  26
ATOM     26  O   UNL     1       3.079  -9.307 -13.131  1.00  0.00    -0.506 OA
ATOM     27  H   UNL     1       3.762  -9.238 -13.824  1.00  0.00     0.293 HD
ENDBRANCH  22  26
ENDBRANCH  18  19
ENDBRANCH  17  18
BRANCH  17  28
ATOM     28  O   UNL     1       5.722  -5.113  -7.225  1.00  0.00    -0.383 OA
ATOM     29  H   UNL     1       5.380  -4.200  -7.093  1.00  0.00     0.211 HD
ENDBRANCH  17  28
ENDBRANCH  14  17
ENDBRANCH  12  13
BRANCH  12  30
ATOM     30  C   UNL     1       0.154  -6.497  -8.772  1.00  0.00     0.018 C 
ATOM     31  C   UNL     1       0.772  -7.032 -10.074  1.00  0.00     0.010 C 
BRANCH  30  32
ATOM     32  C   UNL     1      -1.347  -6.185  -8.985  1.00  0.00     0.002 C 
ATOM     33  C   UNL     1      -2.222  -6.317  -7.745  1.00  0.00     0.004 C 
ENDBRANCH  30  32
ENDBRANCH  12  30
ENDBRANCH  10  12
ENDBRANCH   1  10
BRANCH   5  34
ATOM     34  C   UNL     1       2.474  -1.384  -8.265  1.00  0.00     0.242 C 
ATOM     35  O   UNL     1       3.229  -2.357  -8.287  1.00  0.00    -0.273 OA
ATOM     36  N   UNL     1       2.920  -0.108  -8.005  1.00  0.00    -0.354 N 
ATOM     37  H   UNL     1       2.234   0.637  -7.880  1.00  0.00     0.163 HD
BRANCH  36  38
ATOM     38  C   UNL     1       4.328   0.234  -8.003  1.00  0.00     0.116 C 
BRANCH  38  39
ATOM     39  C   UNL     1       4.496   1.737  -7.796  1.00  0.00     0.023 C 
BRANCH  39  40
ATOM     40  C   UNL     1       5.289   2.067  -6.536  1.00  0.00     0.026 C 
BRANCH  40  41
ATOM     41  C   UNL     1       4.351   2.340  -5.360  1.00  0.00     0.146 C 
BRANCH  41  42
ATOM     42  N   UNL     1       5.122   2.787  -4.208  1.00  0.00    -0.254 NA
ATOM     43  C   UNL     1       5.071   2.122  -3.115  1.00  0.00     0.185 C 
ATOM     44  N   UNL     1       4.386   1.004  -2.814  1.00  0.00    -0.370 N 
ATOM     45  N   UNL     1       5.786   2.553  -2.063  1.00  0.00    -0.370 N 
ATOM     46  H   UNL     1       4.245   0.731  -1.856  1.00  0.00     0.159 HD
ATOM     47  H   UNL     1       3.802   0.536  -3.500  1.00  0.00     0.159 HD
ATOM     48  H   UNL     1       6.339   3.387  -2.208  1.00  0.00     0.159 HD
ATOM     49  H   UNL     1       5.986   1.974  -1.267  1.00  0.00     0.159 HD
ENDBRANCH  41  42
ENDBRANCH  40  41
ENDBRANCH  39  40
ENDBRANCH  38  39
ENDBRANCH  36  38
ENDBRANCH   5  34
BRANCH   8  50
ATOM     50  O   UNL     1       1.384  -2.304  -3.737  1.00  0.00    -0.245 OA
BRANCH  50  51
ATOM     51  S   UNL     1       1.688  -1.963  -2.175  1.00  0.00     0.397 S 
ATOM     52  O   UNL     1       0.890  -2.852  -1.361  1.00  0.00    -0.169 OA
ATOM     53  O   UNL     1       1.667  -0.529  -1.978  1.00  0.00    -0.169 OA
BRANCH  51  54
ATOM     54  O   UNL     1       3.207  -2.464  -2.012  1.00  0.00    -0.264 OA
ATOM     55  H   UNL     1       3.418  -3.034  -2.780  1.00  0.00     0.236 HD
ENDBRANCH  51  54
ENDBRANCH  50  51
ENDBRANCH   8  50
TORSDOF 19
ENDMDL
MODEL 12
REMARK VINA RESULT:    -6.422     14.731     18.636
REMARK INTER + INTRA:         -16.818
REMARK INTER:                 -11.795
REMARK INTRA:                  -5.023
REMARK UNBOUND:                -3.827
REMARK SMILES CC[C@@H](C)[C@@H](NC(=O)[C@@H](O)Cc1ccc(O)c(Cl)c1)C(=O)N1[C@H](C(=O)NCCCCN=C(N)N)C[C@H]2CC[C@H](OS(=O)(=O)O)C[C@@H]21
REMARK SMILES IDX 22 1 36 2 46 3 35 4 23 5 45 6 37 7 39 8 38 9 20 10 21 11
REMARK SMILES IDX 5 12 6 13 7 14 8 15 9 17 11 18 12 19 17 20 19 21 15 22 14 23
REMARK SMILES IDX 13 24 18 25 16 26 10 28 3 30 4 31 2 32 1 33 24 34 25 35
REMARK SMILES IDX 26 36 27 38 28 39 29 40 30 41 31 42 32 43 33 44 34 45 40 50
REMARK SMILES IDX 41 51 42 52 43 53 44 54
REMARK H PARENT 6 16 16 27 10 29 26 37 33 46 33 47 34 48 34 49 44 55
ROOT
ATOM      1  N   UNL     1     -11.475  -4.809   3.334  1.00  0.00    -0.326 N 
ATOM      2  C   UNL     1     -13.133  -3.474   4.340  1.00  0.00     0.014 C 
ATOM      3  C   UNL     1     -12.830  -4.904   3.884  1.00  0.00     0.091 C 
ATOM      4  C   UNL     1     -12.415  -2.631   3.298  1.00  0.00     0.041 C 
ATOM      5  C   UNL     1     -11.075  -3.385   3.213  1.00  0.00     0.175 C 
ATOM      6  C   UNL     1     -13.070  -5.848   5.061  1.00  0.00     0.059 C 
ATOM      7  C   UNL     1     -14.620  -3.278   4.559  1.00  0.00     0.008 C 
ATOM      8  C   UNL     1     -14.189  -5.379   6.016  1.00  0.00     0.143 C 
ATOM      9  C   UNL     1     -15.225  -4.489   5.301  1.00  0.00     0.034 C 
ENDROOT
BRANCH   1  10
ATOM     10  C   UNL     1     -10.681  -5.784   2.755  1.00  0.00     0.246 C 
ATOM     11  O   UNL     1      -9.687  -6.191   3.365  1.00  0.00    -0.272 OA
BRANCH  10  12
ATOM     12  C   UNL     1     -11.080  -6.375   1.372  1.00  0.00     0.174 C 
BRANCH  12  13
ATOM     13  N   UNL     1     -12.437  -6.918   1.434  1.00  0.00    -0.342 N 
ATOM     14  C   UNL     1     -13.477  -6.541   0.614  1.00  0.00     0.249 C 
ATOM     15  O   UNL     1     -13.372  -5.719  -0.287  1.00  0.00    -0.272 OA
ATOM     16  H   UNL     1     -12.715  -7.490   2.227  1.00  0.00     0.164 HD
BRANCH  14  17
ATOM     17  C   UNL     1     -14.791  -7.283   0.940  1.00  0.00     0.207 C 
BRANCH  17  18
ATOM     18  C   UNL     1     -14.698  -7.961   2.311  1.00  0.00     0.077 C 
BRANCH  18  19
ATOM     19  C   UNL     1     -15.852  -7.576   3.208  1.00  0.00    -0.043 A 
ATOM     20  C   UNL     1     -17.063  -7.815   5.296  1.00  0.00     0.083 A 
ATOM     21  C   UNL     1     -15.970  -8.135   4.490  1.00  0.00     0.028 A 
ATOM     22  C   UNL     1     -18.043  -6.939   4.828  1.00  0.00     0.134 A 
ATOM     23  C   UNL     1     -17.939  -6.378   3.561  1.00  0.00     0.048 A 
ATOM     24  C   UNL     1     -16.847  -6.698   2.751  1.00  0.00     0.008 A 
ATOM     25  Cl  UNL     1     -17.191  -8.513   6.868  1.00  0.00    -0.080 Cl
BRANCH  22  26
ATOM     26  O   UNL     1     -19.138  -6.604   5.578  1.00  0.00    -0.506 OA
ATOM     27  H   UNL     1     -18.803  -6.178   6.389  1.00  0.00     0.293 HD
ENDBRANCH  22  26
ENDBRANCH  18  19
ENDBRANCH  17  18
BRANCH  17  28
ATOM     28  O   UNL     1     -15.089  -8.270  -0.061  1.00  0.00    -0.383 OA
ATOM     29  H   UNL     1     -16.049  -8.466   0.028  1.00  0.00     0.211 HD
ENDBRANCH  17  28
ENDBRANCH  14  17
ENDBRANCH  12  13
BRANCH  12  30
ATOM     30  C   UNL     1     -10.052  -7.411   0.843  1.00  0.00     0.018 C 
ATOM     31  C   UNL     1      -9.791  -7.205  -0.657  1.00  0.00     0.010 C 
BRANCH  30  32
ATOM     32  C   UNL     1     -10.454  -8.881   1.116  1.00  0.00     0.002 C 
ATOM     33  C   UNL     1      -9.917  -9.473   2.412  1.00  0.00     0.004 C 
ENDBRANCH  30  32
ENDBRANCH  12  30
ENDBRANCH  10  12
ENDBRANCH   1  10
BRANCH   5  34
ATOM     34  C   UNL     1     -10.119  -2.982   4.367  1.00  0.00     0.242 C 
ATOM     35  O   UNL     1      -9.828  -3.754   5.281  1.00  0.00    -0.273 OA
ATOM     36  N   UNL     1      -9.663  -1.684   4.324  1.00  0.00    -0.354 N 
ATOM     37  H   UNL     1     -10.033  -1.056   3.609  1.00  0.00     0.163 HD
BRANCH  36  38
ATOM     38  C   UNL     1      -8.604  -1.206   5.189  1.00  0.00     0.116 C 
BRANCH  38  39
ATOM     39  C   UNL     1      -9.030   0.097   5.859  1.00  0.00     0.023 C 
BRANCH  39  40
ATOM     40  C   UNL     1      -9.103  -0.025   7.377  1.00  0.00     0.026 C 
BRANCH  40  41
ATOM     41  C   UNL     1     -10.552   0.056   7.859  1.00  0.00     0.146 C 
BRANCH  41  42
ATOM     42  N   UNL     1     -10.736  -0.813   9.014  1.00  0.00    -0.254 NA
ATOM     43  C   UNL     1     -11.062  -2.038   8.839  1.00  0.00     0.185 C 
ATOM     44  N   UNL     1     -11.279  -2.722   7.700  1.00  0.00    -0.370 N 
ATOM     45  N   UNL     1     -11.232  -2.821   9.917  1.00  0.00    -0.370 N 
ATOM     46  H   UNL     1     -11.763  -3.603   7.716  1.00  0.00     0.159 HD
ATOM     47  H   UNL     1     -11.181  -2.285   6.789  1.00  0.00     0.159 HD
ATOM     48  H   UNL     1     -11.078  -2.386  10.816  1.00  0.00     0.159 HD
ATOM     49  H   UNL     1     -11.250  -3.824   9.863  1.00  0.00     0.159 HD
ENDBRANCH  41  42
ENDBRANCH  40  41
ENDBRANCH  39  40
ENDBRANCH  38  39
ENDBRANCH  36  38
ENDBRANCH   5  34
BRANCH   8  50
ATOM     50  O   UNL     1     -13.629  -4.639   7.102  1.00  0.00    -0.245 OA
BRANCH  50  51
ATOM     51  S   UNL     1     -13.527  -5.325   8.573  1.00  0.00     0.397 S 
ATOM     52  O   UNL     1     -14.090  -6.654   8.486  1.00  0.00    -0.169 OA
ATOM     53  O   UNL     1     -13.962  -4.381   9.581  1.00  0.00    -0.169 OA
BRANCH  51  54
ATOM     54  O   UNL     1     -11.941  -5.531   8.738  1.00  0.00    -0.264 OA
ATOM     55  H   UNL     1     -11.773  -5.831   9.655  1.00  0.00     0.236 HD
ENDBRANCH  51  54
ENDBRANCH  50  51
ENDBRANCH   8  50
TORSDOF 19
ENDMDL
MODEL 13
REMARK VINA RESULT:    -6.404      4.169      7.307
REMARK INTER + INTRA:         -16.783
REMARK INTER:                 -12.784
REMARK INTRA:                  -3.999
REMARK UNBOUND:                -3.827
REMARK SMILES CC[C@@H](C)[C@@H](NC(=O)[C@@H](O)Cc1ccc(O)c(Cl)c1)C(=O)N1[C@H](C(=O)NCCCCN=C(N)N)C[C@H]2CC[C@H](OS(=O)(=O)O)C[C@@H]21
REMARK SMILES IDX 22 1 36 2 46 3 35 4 23 5 45 6 37 7 39 8 38 9 20 10 21 11
REMARK SMILES IDX 5 12 6 13 7 14 8 15 9 17 11 18 12 19 17 20 19 21 15 22 14 23
REMARK SMILES IDX 13 24 18 25 16 26 10 28 3 30 4 31 2 32 1 33 24 34 25 35
REMARK SMILES IDX 26 36 27 38 28 39 29 40 30 41 31 42 32 43 33 44 34 45 40 50
REMARK SMILES IDX 41 51 42 52 43 53 44 54
REMARK H PARENT 6 16 16 27 10 29 26 37 33 46 33 47 34 48 34 49 44 55
ROOT
ATOM      1  N   UNL     1       1.820  -2.336 -10.087  1.00  0.00    -0.326 N 
ATOM      2  C   UNL     1       0.149  -0.942  -9.189  1.00  0.00     0.014 C 
ATOM      3  C   UNL     1       1.597  -1.396  -8.985  1.00  0.00     0.091 C 
ATOM      4  C   UNL     1      -0.521  -2.194  -9.733  1.00  0.00     0.041 C 
ATOM      5  C   UNL     1       0.534  -2.644 -10.760  1.00  0.00     0.175 C 
ATOM      6  C   UNL     1       2.485  -0.156  -8.899  1.00  0.00     0.059 C 
ATOM      7  C   UNL     1      -0.397  -0.292  -7.933  1.00  0.00     0.008 C 
ATOM      8  C   UNL     1       1.783   1.069  -8.274  1.00  0.00     0.143 C 
ATOM      9  C   UNL     1       0.649   0.659  -7.313  1.00  0.00     0.034 C 
ENDROOT
BRANCH   1  10
ATOM     10  C   UNL     1       2.944  -3.079 -10.406  1.00  0.00     0.246 C 
ATOM     11  O   UNL     1       3.759  -2.620 -11.213  1.00  0.00    -0.272 OA
BRANCH  10  12
ATOM     12  C   UNL     1       3.177  -4.453  -9.713  1.00  0.00     0.174 C 
BRANCH  12  13
ATOM     13  N   UNL     1       3.156  -4.288  -8.260  1.00  0.00    -0.342 N 
ATOM     14  C   UNL     1       2.088  -4.589  -7.446  1.00  0.00     0.249 C 
ATOM     15  O   UNL     1       1.033  -5.060  -7.851  1.00  0.00    -0.272 OA
ATOM     16  H   UNL     1       3.898  -3.764  -7.802  1.00  0.00     0.164 HD
BRANCH  14  17
ATOM     17  C   UNL     1       2.369  -4.287  -5.958  1.00  0.00     0.207 C 
BRANCH  17  18
ATOM     18  C   UNL     1       2.695  -2.803  -5.765  1.00  0.00     0.077 C 
BRANCH  18  19
ATOM     19  C   UNL     1       1.949  -2.213  -4.589  1.00  0.00    -0.043 A 
ATOM     20  C   UNL     1      -0.102  -1.361  -3.613  1.00  0.00     0.083 A 
ATOM     21  C   UNL     1       0.573  -1.952  -4.682  1.00  0.00     0.028 A 
ATOM     22  C   UNL     1       0.590  -1.027  -2.449  1.00  0.00     0.134 A 
ATOM     23  C   UNL     1       1.953  -1.280  -2.343  1.00  0.00     0.048 A 
ATOM     24  C   UNL     1       2.632  -1.870  -3.412  1.00  0.00     0.008 A 
ATOM     25  Cl  UNL     1      -1.793  -1.048  -3.747  1.00  0.00    -0.080 Cl
BRANCH  22  26
ATOM     26  O   UNL     1      -0.027  -0.437  -1.379  1.00  0.00    -0.506 OA
ATOM     27  H   UNL     1       0.482   0.368  -1.171  1.00  0.00     0.293 HD
ENDBRANCH  22  26
ENDBRANCH  18  19
ENDBRANCH  17  18
BRANCH  17  28
ATOM     28  O   UNL     1       3.460  -5.083  -5.467  1.00  0.00    -0.383 OA
ATOM     29  H   UNL     1       4.193  -4.968  -6.113  1.00  0.00     0.211 HD
ENDBRANCH  17  28
ENDBRANCH  14  17
ENDBRANCH  12  13
BRANCH  12  30
ATOM     30  C   UNL     1       4.464  -5.165 -10.210  1.00  0.00     0.018 C 
ATOM     31  C   UNL     1       4.148  -6.108 -11.382  1.00  0.00     0.010 C 
BRANCH  30  32
ATOM     32  C   UNL     1       5.218  -5.933  -9.097  1.00  0.00     0.002 C 
ATOM     33  C   UNL     1       4.810  -7.389  -8.920  1.00  0.00     0.004 C 
ENDBRANCH  30  32
ENDBRANCH  12  30
ENDBRANCH  10  12
ENDBRANCH   1  10
BRANCH   5  34
ATOM     34  C   UNL     1       0.408  -1.857 -12.092  1.00  0.00     0.242 C 
ATOM     35  O   UNL     1      -0.543  -2.010 -12.859  1.00  0.00    -0.273 OA
ATOM     36  N   UNL     1       1.460  -1.017 -12.378  1.00  0.00    -0.354 N 
ATOM     37  H   UNL     1       2.275  -1.023 -11.763  1.00  0.00     0.163 HD
BRANCH  36  38
ATOM     38  C   UNL     1       1.410  -0.055 -13.459  1.00  0.00     0.116 C 
BRANCH  38  39
ATOM     39  C   UNL     1       1.509   1.362 -12.898  1.00  0.00     0.023 C 
BRANCH  39  40
ATOM     40  C   UNL     1       1.591   2.419 -13.994  1.00  0.00     0.026 C 
BRANCH  40  41
ATOM     41  C   UNL     1       2.953   3.113 -13.975  1.00  0.00     0.146 C 
BRANCH  41  42
ATOM     42  N   UNL     1       3.665   2.768 -12.752  1.00  0.00    -0.254 NA
ATOM     43  C   UNL     1       3.674   3.591 -11.772  1.00  0.00     0.185 C 
ATOM     44  N   UNL     1       3.104   4.805 -11.655  1.00  0.00    -0.370 N 
ATOM     45  N   UNL     1       4.340   3.257 -10.654  1.00  0.00    -0.370 N 
ATOM     46  H   UNL     1       3.394   5.440 -10.931  1.00  0.00     0.159 HD
ATOM     47  H   UNL     1       2.550   5.207 -12.404  1.00  0.00     0.159 HD
ATOM     48  H   UNL     1       4.792   2.353 -10.655  1.00  0.00     0.159 HD
ATOM     49  H   UNL     1       4.201   3.726  -9.777  1.00  0.00     0.159 HD
ENDBRANCH  41  42
ENDBRANCH  40  41
ENDBRANCH  39  40
ENDBRANCH  38  39
ENDBRANCH  36  38
ENDBRANCH   5  34
BRANCH   8  50
ATOM     50  O   UNL     1       1.231   1.895  -9.300  1.00  0.00    -0.245 OA
BRANCH  50  51
ATOM     51  S   UNL     1       0.906   3.457  -8.986  1.00  0.00     0.397 S 
ATOM     52  O   UNL     1       2.157   4.128  -8.715  1.00  0.00    -0.169 OA
ATOM     53  O   UNL     1      -0.216   3.546  -8.075  1.00  0.00    -0.169 OA
BRANCH  51  54
ATOM     54  O   UNL     1       0.422   3.994 -10.422  1.00  0.00    -0.264 OA
ATOM     55  H   UNL     1      -0.512   3.725 -10.542  1.00  0.00     0.236 HD
ENDBRANCH  51  54
ENDBRANCH  50  51
ENDBRANCH   8  50
TORSDOF 19
ENDMDL
MODEL 14
REMARK VINA RESULT:    -6.358      7.192     10.881
REMARK INTER + INTRA:         -16.690
REMARK INTER:                 -12.545
REMARK INTRA:                  -4.145
REMARK UNBOUND:                -3.827
REMARK SMILES CC[C@@H](C)[C@@H](NC(=O)[C@@H](O)Cc1ccc(O)c(Cl)c1)C(=O)N1[C@H](C(=O)NCCCCN=C(N)N)C[C@H]2CC[C@H](OS(=O)(=O)O)C[C@@H]21
REMARK SMILES IDX 22 1 36 2 46 3 35 4 23 5 45 6 37 7 39 8 38 9 20 10 21 11
REMARK SMILES IDX 5 12 6 13 7 14 8 15 9 17 11 18 12 19 17 20 19 21 15 22 14 23
REMARK SMILES IDX 13 24 18 25 16 26 10 28 3 30 4 31 2 32 1 33 24 34 25 35
REMARK SMILES IDX 26 36 27 38 28 39 29 40 30 41 31 42 32 43 33 44 34 45 40 50
REMARK SMILES IDX 41 51 42 52 43 53 44 54
REMARK H PARENT 6 16 16 27 10 29 26 37 33 46 33 47 34 48 34 49 44 55
ROOT
ATOM      1  N   UNL     1      -5.221  -0.215   1.331  1.00  0.00    -0.326 N 
ATOM      2  C   UNL     1      -5.196  -2.562   1.151  1.00  0.00     0.014 C 
ATOM      3  C   UNL     1      -6.135  -1.354   1.203  1.00  0.00     0.091 C 
ATOM      4  C   UNL     1      -4.064  -2.146   2.077  1.00  0.00     0.041 C 
ATOM      5  C   UNL     1      -3.845  -0.696   1.606  1.00  0.00     0.175 C 
ATOM      6  C   UNL     1      -7.060  -1.408  -0.012  1.00  0.00     0.059 C 
ATOM      7  C   UNL     1      -5.950  -3.847   1.429  1.00  0.00     0.008 C 
ATOM      8  C   UNL     1      -7.393  -2.842  -0.476  1.00  0.00     0.143 C 
ATOM      9  C   UNL     1      -7.298  -3.861   0.678  1.00  0.00     0.034 C 
ENDROOT
BRANCH   1  10
ATOM     10  C   UNL     1      -5.498   1.137   1.441  1.00  0.00     0.246 C 
ATOM     11  O   UNL     1      -5.399   1.855   0.441  1.00  0.00    -0.272 OA
BRANCH  10  12
ATOM     12  C   UNL     1      -5.967   1.715   2.808  1.00  0.00     0.174 C 
BRANCH  12  13
ATOM     13  N   UNL     1      -5.285   1.024   3.902  1.00  0.00    -0.342 N 
ATOM     14  C   UNL     1      -5.069   1.550   5.156  1.00  0.00     0.249 C 
ATOM     15  O   UNL     1      -5.454   2.659   5.506  1.00  0.00    -0.272 OA
ATOM     16  H   UNL     1      -4.775   0.164   3.715  1.00  0.00     0.164 HD
BRANCH  14  17
ATOM     17  C   UNL     1      -4.304   0.582   6.084  1.00  0.00     0.207 C 
BRANCH  17  18
ATOM     18  C   UNL     1      -3.568  -0.479   5.261  1.00  0.00     0.077 C 
BRANCH  18  19
ATOM     19  C   UNL     1      -2.085  -0.196   5.177  1.00  0.00    -0.043 A 
ATOM     20  C   UNL     1      -0.167   1.166   5.771  1.00  0.00     0.083 A 
ATOM     21  C   UNL     1      -1.527   0.877   5.890  1.00  0.00     0.028 A 
ATOM     22  C   UNL     1       0.642   0.389   4.940  1.00  0.00     0.134 A 
ATOM     23  C   UNL     1       0.102  -0.676   4.228  1.00  0.00     0.048 A 
ATOM     24  C   UNL     1      -1.259  -0.967   4.344  1.00  0.00     0.008 A 
ATOM     25  Cl  UNL     1       0.500   2.488   6.655  1.00  0.00    -0.080 Cl
BRANCH  22  26
ATOM     26  O   UNL     1       1.978   0.641   4.783  1.00  0.00    -0.506 OA
ATOM     27  H   UNL     1       2.401   0.453   5.641  1.00  0.00     0.293 HD
ENDBRANCH  22  26
ENDBRANCH  18  19
ENDBRANCH  17  18
BRANCH  17  28
ATOM     28  O   UNL     1      -5.197  -0.064   7.006  1.00  0.00    -0.383 OA
ATOM     29  H   UNL     1      -5.294   0.552   7.768  1.00  0.00     0.211 HD
ENDBRANCH  17  28
ENDBRANCH  14  17
ENDBRANCH  12  13
BRANCH  12  30
ATOM     30  C   UNL     1      -7.511   1.697   2.969  1.00  0.00     0.018 C 
ATOM     31  C   UNL     1      -7.989   0.339   3.507  1.00  0.00     0.010 C 
BRANCH  30  32
ATOM     32  C   UNL     1      -8.275   2.053   1.670  1.00  0.00     0.002 C 
ATOM     33  C   UNL     1      -9.512   1.210   1.390  1.00  0.00     0.004 C 
ENDBRANCH  30  32
ENDBRANCH  12  30
ENDBRANCH  10  12
ENDBRANCH   1  10
BRANCH   5  34
ATOM     34  C   UNL     1      -2.974  -0.637   0.323  1.00  0.00     0.242 C 
ATOM     35  O   UNL     1      -3.461  -0.481  -0.796  1.00  0.00    -0.273 OA
ATOM     36  N   UNL     1      -1.624  -0.824   0.523  1.00  0.00    -0.354 N 
ATOM     37  H   UNL     1      -1.295  -1.068   1.457  1.00  0.00     0.163 HD
BRANCH  36  38
ATOM     38  C   UNL     1      -0.649  -0.587  -0.521  1.00  0.00     0.116 C 
BRANCH  38  39
ATOM     39  C   UNL     1       0.701  -1.173  -0.111  1.00  0.00     0.023 C 
BRANCH  39  40
ATOM     40  C   UNL     1       0.696  -2.698  -0.102  1.00  0.00     0.026 C 
BRANCH  40  41
ATOM     41  C   UNL     1      -0.038  -3.245  -1.326  1.00  0.00     0.146 C 
BRANCH  41  42
ATOM     42  N   UNL     1      -1.269  -3.902  -0.910  1.00  0.00    -0.254 NA
ATOM     43  C   UNL     1      -2.350  -3.694  -1.563  1.00  0.00     0.185 C 
ATOM     44  N   UNL     1      -2.574  -2.924  -2.644  1.00  0.00    -0.370 N 
ATOM     45  N   UNL     1      -3.476  -4.306  -1.160  1.00  0.00    -0.370 N 
ATOM     46  H   UNL     1      -3.510  -2.662  -2.902  1.00  0.00     0.159 HD
ATOM     47  H   UNL     1      -1.827  -2.399  -3.088  1.00  0.00     0.159 HD
ATOM     48  H   UNL     1      -3.393  -4.913  -0.356  1.00  0.00     0.159 HD
ATOM     49  H   UNL     1      -4.291  -4.385  -1.743  1.00  0.00     0.159 HD
ENDBRANCH  41  42
ENDBRANCH  40  41
ENDBRANCH  39  40
ENDBRANCH  38  39
ENDBRANCH  36  38
ENDBRANCH   5  34
BRANCH   8  50
ATOM     50  O   UNL     1      -6.493  -3.243  -1.510  1.00  0.00    -0.245 OA
BRANCH  50  51
ATOM     51  S   UNL     1      -6.908  -4.459  -2.508  1.00  0.00     0.397 S 
ATOM     52  O   UNL     1      -8.351  -4.501  -2.584  1.00  0.00    -0.169 OA
ATOM     53  O   UNL     1      -6.130  -5.638  -2.188  1.00  0.00    -0.169 OA
BRANCH  51  54
ATOM     54  O   UNL     1      -6.410  -3.908  -3.934  1.00  0.00    -0.264 OA
ATOM     55  H   UNL     1      -7.063  -3.246  -4.242  1.00  0.00     0.236 HD
ENDBRANCH  51  54
ENDBRANCH  50  51
ENDBRANCH   8  50
TORSDOF 19
ENDMDL
MODEL 15
REMARK VINA RESULT:    -6.357      6.169     10.536
REMARK INTER + INTRA:         -16.687
REMARK INTER:                 -13.988
REMARK INTRA:                  -2.699
REMARK UNBOUND:                -3.827
REMARK SMILES CC[C@@H](C)[C@@H](NC(=O)[C@@H](O)Cc1ccc(O)c(Cl)c1)C(=O)N1[C@H](C(=O)NCCCCN=C(N)N)C[C@H]2CC[C@H](OS(=O)(=O)O)C[C@@H]21
REMARK SMILES IDX 22 1 36 2 46 3 35 4 23 5 45 6 37 7 39 8 38 9 20 10 21 11
REMARK SMILES IDX 5 12 6 13 7 14 8 15 9 17 11 18 12 19 17 20 19 21 15 22 14 23
REMARK SMILES IDX 13 24 18 25 16 26 10 28 3 30 4 31 2 32 1 33 24 34 25 35
REMARK SMILES IDX 26 36 27 38 28 39 29 40 30 41 31 42 32 43 33 44 34 45 40 50
REMARK SMILES IDX 41 51 42 52 43 53 44 54
REMARK H PARENT 6 16 16 27 10 29 26 37 33 46 33 47 34 48 34 49 44 55
ROOT
ATOM      1  N   UNL     1      -4.951  -0.470   1.134  1.00  0.00    -0.326 N 
ATOM      2  C   UNL     1      -4.646  -2.804   1.135  1.00  0.00     0.014 C 
ATOM      3  C   UNL     1      -5.717  -1.715   1.239  1.00  0.00     0.091 C 
ATOM      4  C   UNL     1      -3.456  -2.171   1.839  1.00  0.00     0.041 C 
ATOM      5  C   UNL     1      -3.499  -0.758   1.229  1.00  0.00     0.175 C 
ATOM      6  C   UNL     1      -6.793  -1.994   0.191  1.00  0.00     0.059 C 
ATOM      7  C   UNL     1      -5.178  -4.136   1.627  1.00  0.00     0.008 C 
ATOM      8  C   UNL     1      -7.000  -3.496  -0.103  1.00  0.00     0.143 C 
ATOM      9  C   UNL     1      -6.607  -4.380   1.097  1.00  0.00     0.034 C 
ENDROOT
BRANCH   1  10
ATOM     10  C   UNL     1      -5.382   0.845   1.181  1.00  0.00     0.246 C 
ATOM     11  O   UNL     1      -5.240   1.561   0.184  1.00  0.00    -0.272 OA
BRANCH  10  12
ATOM     12  C   UNL     1      -6.074   1.379   2.468  1.00  0.00     0.174 C 
BRANCH  12  13
ATOM     13  N   UNL     1      -5.634   0.606   3.629  1.00  0.00    -0.342 N 
ATOM     14  C   UNL     1      -5.284   1.140   4.848  1.00  0.00     0.249 C 
ATOM     15  O   UNL     1      -5.331   2.337   5.107  1.00  0.00    -0.272 OA
ATOM     16  H   UNL     1      -5.397  -0.377   3.518  1.00  0.00     0.164 HD
BRANCH  14  17
ATOM     17  C   UNL     1      -4.846   0.066   5.866  1.00  0.00     0.207 C 
BRANCH  17  18
ATOM     18  C   UNL     1      -4.066  -1.050   5.164  1.00  0.00     0.077 C 
BRANCH  18  19
ATOM     19  C   UNL     1      -2.577  -0.786   5.171  1.00  0.00    -0.043 A 
ATOM     20  C   UNL     1      -0.296  -1.605   5.081  1.00  0.00     0.083 A 
ATOM     21  C   UNL     1      -1.669  -1.846   5.024  1.00  0.00     0.028 A 
ATOM     22  C   UNL     1       0.178  -0.309   5.285  1.00  0.00     0.134 A 
ATOM     23  C   UNL     1      -0.710   0.750   5.432  1.00  0.00     0.048 A 
ATOM     24  C   UNL     1      -2.086   0.512   5.378  1.00  0.00     0.008 A 
ATOM     25  Cl  UNL     1       0.804  -2.921   4.899  1.00  0.00    -0.080 Cl
BRANCH  22  26
ATOM     26  O   UNL     1       1.515  -0.025   5.359  1.00  0.00    -0.506 OA
ATOM     27  H   UNL     1       1.592   0.860   5.760  1.00  0.00     0.293 HD
ENDBRANCH  22  26
ENDBRANCH  18  19
ENDBRANCH  17  18
BRANCH  17  28
ATOM     28  O   UNL     1      -5.980  -0.499   6.543  1.00  0.00    -0.383 OA
ATOM     29  H   UNL     1      -6.074  -1.416   6.199  1.00  0.00     0.211 HD
ENDBRANCH  17  28
ENDBRANCH  14  17
ENDBRANCH  12  13
BRANCH  12  30
ATOM     30  C   UNL     1      -7.621   1.430   2.342  1.00  0.00     0.018 C 
ATOM     31  C   UNL     1      -8.157   2.813   2.743  1.00  0.00     0.010 C 
BRANCH  30  32
ATOM     32  C   UNL     1      -8.346   0.324   3.146  1.00  0.00     0.002 C 
ATOM     33  C   UNL     1      -9.111   0.806   4.372  1.00  0.00     0.004 C 
ENDBRANCH  30  32
ENDBRANCH  12  30
ENDBRANCH  10  12
ENDBRANCH   1  10
BRANCH   5  34
ATOM     34  C   UNL     1      -2.837  -0.721  -0.175  1.00  0.00     0.242 C 
ATOM     35  O   UNL     1      -3.477  -0.474  -1.197  1.00  0.00    -0.273 OA
ATOM     36  N   UNL     1      -1.497  -1.037  -0.200  1.00  0.00    -0.354 N 
ATOM     37  H   UNL     1      -1.050  -1.350   0.663  1.00  0.00     0.163 HD
BRANCH  36  38
ATOM     38  C   UNL     1      -0.679  -0.844  -1.379  1.00  0.00     0.116 C 
BRANCH  38  39
ATOM     39  C   UNL     1       0.786  -0.694  -0.974  1.00  0.00     0.023 C 
BRANCH  39  40
ATOM     40  C   UNL     1       1.574  -1.987  -1.148  1.00  0.00     0.026 C 
BRANCH  40  41
ATOM     41  C   UNL     1       2.803  -1.759  -2.029  1.00  0.00     0.146 C 
BRANCH  41  42
ATOM     42  N   UNL     1       2.704  -2.574  -3.233  1.00  0.00    -0.254 NA
ATOM     43  C   UNL     1       2.358  -2.030  -4.339  1.00  0.00     0.185 C 
ATOM     44  N   UNL     1       2.046  -0.750  -4.614  1.00  0.00    -0.370 N 
ATOM     45  N   UNL     1       2.268  -2.800  -5.436  1.00  0.00    -0.370 N 
ATOM     46  H   UNL     1       1.560  -0.512  -5.461  1.00  0.00     0.159 HD
ATOM     47  H   UNL     1       2.076  -0.029  -3.899  1.00  0.00     0.159 HD
ATOM     48  H   UNL     1       2.495  -3.778  -5.318  1.00  0.00     0.159 HD
ATOM     49  H   UNL     1       2.238  -2.420  -6.366  1.00  0.00     0.159 HD
ENDBRANCH  41  42
ENDBRANCH  40  41
ENDBRANCH  39  40
ENDBRANCH  38  39
ENDBRANCH  36  38
ENDBRANCH   5  34
BRANCH   8  50
ATOM     50  O   UNL     1      -6.215  -3.887  -1.230  1.00  0.00    -0.245 OA
BRANCH  50  51
ATOM     51  S   UNL     1      -6.905  -4.736  -2.434  1.00  0.00     0.397 S 
ATOM     52  O   UNL     1      -6.011  -5.815  -2.789  1.00  0.00    -0.169 OA
ATOM     53  O   UNL     1      -7.432  -3.826  -3.430  1.00  0.00    -0.169 OA
BRANCH  51  54
ATOM     54  O   UNL     1      -8.150  -5.426  -1.686  1.00  0.00    -0.264 OA
ATOM     55  H   UNL     1      -7.793  -6.099  -1.071  1.00  0.00     0.236 HD
ENDBRANCH  51  54
ENDBRANCH  50  51
ENDBRANCH   8  50
TORSDOF 19
ENDMDL
MODEL 16
REMARK VINA RESULT:    -6.341     15.714     18.346
REMARK INTER + INTRA:         -16.655
REMARK INTER:                 -13.276
REMARK INTRA:                  -3.378
REMARK UNBOUND:                -3.827
REMARK SMILES CC[C@@H](C)[C@@H](NC(=O)[C@@H](O)Cc1ccc(O)c(Cl)c1)C(=O)N1[C@H](C(=O)NCCCCN=C(N)N)C[C@H]2CC[C@H](OS(=O)(=O)O)C[C@@H]21
REMARK SMILES IDX 22 1 36 2 46 3 35 4 23 5 45 6 37 7 39 8 38 9 20 10 21 11
REMARK SMILES IDX 5 12 6 13 7 14 8 15 9 17 11 18 12 19 17 20 19 21 15 22 14 23
REMARK SMILES IDX 13 24 18 25 16 26 10 28 3 30 4 31 2 32 1 33 24 34 25 35
REMARK SMILES IDX 26 36 27 38 28 39 29 40 30 41 31 42 32 43 33 44 34 45 40 50
REMARK SMILES IDX 41 51 42 52 43 53 44 54
REMARK H PARENT 6 16 16 27 10 29 26 37 33 46 33 47 34 48 34 49 44 55
ROOT
ATOM      1  N   UNL     1      -2.589   3.140  12.733  1.00  0.00    -0.326 N 
ATOM      2  C   UNL     1      -4.491   1.753  12.728  1.00  0.00     0.014 C 
ATOM      3  C   UNL     1      -3.918   3.037  12.122  1.00  0.00     0.091 C 
ATOM      4  C   UNL     1      -3.914   1.759  14.135  1.00  0.00     0.041 C 
ATOM      5  C   UNL     1      -2.456   2.149  13.830  1.00  0.00     0.175 C 
ATOM      6  C   UNL     1      -4.010   2.936  10.601  1.00  0.00     0.059 C 
ATOM      7  C   UNL     1      -5.994   1.689  12.541  1.00  0.00     0.008 C 
ATOM      8  C   UNL     1      -5.221   2.118  10.104  1.00  0.00     0.143 C 
ATOM      9  C   UNL     1      -6.385   2.133  11.116  1.00  0.00     0.034 C 
ENDROOT
BRANCH   1  10
ATOM     10  C   UNL     1      -1.614   4.111  12.578  1.00  0.00     0.246 C 
ATOM     11  O   UNL     1      -0.449   3.849  12.896  1.00  0.00    -0.272 OA
BRANCH  10  12
ATOM     12  C   UNL     1      -1.996   5.492  11.971  1.00  0.00     0.174 C 
BRANCH  12  13
ATOM     13  N   UNL     1      -1.071   5.835  10.891  1.00  0.00    -0.342 N 
ATOM     14  C   UNL     1      -1.415   5.948   9.563  1.00  0.00     0.249 C 
ATOM     15  O   UNL     1      -2.554   5.799   9.138  1.00  0.00    -0.272 OA
ATOM     16  H   UNL     1      -0.070   5.833  11.067  1.00  0.00     0.164 HD
BRANCH  14  17
ATOM     17  C   UNL     1      -0.211   6.305   8.665  1.00  0.00     0.207 C 
BRANCH  17  18
ATOM     18  C   UNL     1      -0.201   7.805   8.354  1.00  0.00     0.077 C 
BRANCH  18  19
ATOM     19  C   UNL     1       1.138   8.259   7.819  1.00  0.00    -0.043 A 
ATOM     20  C   UNL     1       3.550   8.402   8.035  1.00  0.00     0.083 A 
ATOM     21  C   UNL     1       2.321   7.939   8.505  1.00  0.00     0.028 A 
ATOM     22  C   UNL     1       3.607   9.185   6.881  1.00  0.00     0.134 A 
ATOM     23  C   UNL     1       2.444   9.509   6.193  1.00  0.00     0.048 A 
ATOM     24  C   UNL     1       1.212   9.050   6.662  1.00  0.00     0.008 A 
ATOM     25  Cl  UNL     1       4.992   7.998   8.891  1.00  0.00    -0.080 Cl
BRANCH  22  26
ATOM     26  O   UNL     1       4.789   9.670   6.388  1.00  0.00    -0.506 OA
ATOM     27  H   UNL     1       5.341   9.899   7.159  1.00  0.00     0.293 HD
ENDBRANCH  22  26
ENDBRANCH  18  19
ENDBRANCH  17  18
BRANCH  17  28
ATOM     28  O   UNL     1      -0.246   5.564   7.435  1.00  0.00    -0.383 OA
ATOM     29  H   UNL     1      -1.090   5.810   6.993  1.00  0.00     0.211 HD
ENDBRANCH  17  28
ENDBRANCH  14  17
ENDBRANCH  12  13
BRANCH  12  30
ATOM     30  C   UNL     1      -2.098   6.611  13.042  1.00  0.00     0.018 C 
ATOM     31  C   UNL     1      -3.214   6.301  14.052  1.00  0.00     0.010 C 
BRANCH  30  32
ATOM     32  C   UNL     1      -2.297   8.026  12.446  1.00  0.00     0.002 C 
ATOM     33  C   UNL     1      -3.673   8.294  11.851  1.00  0.00     0.004 C 
ENDBRANCH  30  32
ENDBRANCH  12  30
ENDBRANCH  10  12
ENDBRANCH   1  10
BRANCH   5  34
ATOM     34  C   UNL     1      -1.621   0.926  13.367  1.00  0.00     0.242 C 
ATOM     35  O   UNL     1      -2.102   0.021  12.685  1.00  0.00    -0.273 OA
ATOM     36  N   UNL     1      -0.321   0.899  13.821  1.00  0.00    -0.354 N 
ATOM     37  H   UNL     1      -0.016   1.614  14.482  1.00  0.00     0.163 HD
BRANCH  36  38
ATOM     38  C   UNL     1       0.654  -0.046  13.317  1.00  0.00     0.116 C 
BRANCH  38  39
ATOM     39  C   UNL     1       1.997   0.653  13.116  1.00  0.00     0.023 C 
BRANCH  39  40
ATOM     40  C   UNL     1       2.567   0.428  11.720  1.00  0.00     0.026 C 
BRANCH  40  41
ATOM     41  C   UNL     1       2.450   1.696  10.875  1.00  0.00     0.146 C 
BRANCH  41  42
ATOM     42  N   UNL     1       1.112   1.788  10.307  1.00  0.00    -0.254 NA
ATOM     43  C   UNL     1       0.887   2.604   9.346  1.00  0.00     0.185 C 
ATOM     44  N   UNL     1       1.720   3.454   8.719  1.00  0.00    -0.370 N 
ATOM     45  N   UNL     1      -0.355   2.676   8.839  1.00  0.00    -0.370 N 
ATOM     46  H   UNL     1       1.358   4.204   8.156  1.00  0.00     0.159 HD
ATOM     47  H   UNL     1       2.702   3.519   8.969  1.00  0.00     0.159 HD
ATOM     48  H   UNL     1      -1.044   2.061   9.250  1.00  0.00     0.159 HD
ATOM     49  H   UNL     1      -0.556   3.102   7.952  1.00  0.00     0.159 HD
ENDBRANCH  41  42
ENDBRANCH  40  41
ENDBRANCH  39  40
ENDBRANCH  38  39
ENDBRANCH  36  38
ENDBRANCH   5  34
BRANCH   8  50
ATOM     50  O   UNL     1      -4.836   0.761   9.877  1.00  0.00    -0.245 OA
BRANCH  50  51
ATOM     51  S   UNL     1      -3.584   0.437   8.891  1.00  0.00     0.397 S 
ATOM     52  O   UNL     1      -2.370   0.844   9.563  1.00  0.00    -0.169 OA
ATOM     53  O   UNL     1      -3.894   0.880   7.548  1.00  0.00    -0.169 OA
BRANCH  51  54
ATOM     54  O   UNL     1      -3.565  -1.171   8.891  1.00  0.00    -0.264 OA
ATOM     55  H   UNL     1      -4.268  -1.477   8.282  1.00  0.00     0.236 HD
ENDBRANCH  51  54
ENDBRANCH  50  51
ENDBRANCH   8  50
TORSDOF 19
ENDMDL
MODEL 17
REMARK VINA RESULT:    -6.326      7.043     11.056
REMARK INTER + INTRA:         -16.624
REMARK INTER:                 -13.207
REMARK INTRA:                  -3.417
REMARK UNBOUND:                -3.827
REMARK SMILES CC[C@@H](C)[C@@H](NC(=O)[C@@H](O)Cc1ccc(O)c(Cl)c1)C(=O)N1[C@H](C(=O)NCCCCN=C(N)N)C[C@H]2CC[C@H](OS(=O)(=O)O)C[C@@H]21
REMARK SMILES IDX 22 1 36 2 46 3 35 4 23 5 45 6 37 7 39 8 38 9 20 10 21 11
REMARK SMILES IDX 5 12 6 13 7 14 8 15 9 17 11 18 12 19 17 20 19 21 15 22 14 23
REMARK SMILES IDX 13 24 18 25 16 26 10 28 3 30 4 31 2 32 1 33 24 34 25 35
REMARK SMILES IDX 26 36 27 38 28 39 29 40 30 41 31 42 32 43 33 44 34 45 40 50
REMARK SMILES IDX 41 51 42 52 43 53 44 54
REMARK H PARENT 6 16 16 27 10 29 26 37 33 46 33 47 34 48 34 49 44 55
ROOT
ATOM      1  N   UNL     1      -5.178  -0.840   1.135  1.00  0.00    -0.326 N 
ATOM      2  C   UNL     1      -5.370  -3.186   1.063  1.00  0.00     0.014 C 
ATOM      3  C   UNL     1      -6.176  -1.892   0.918  1.00  0.00     0.091 C 
ATOM      4  C   UNL     1      -4.350  -2.827   2.134  1.00  0.00     0.041 C 
ATOM      5  C   UNL     1      -3.916  -1.435   1.640  1.00  0.00     0.175 C 
ATOM      6  C   UNL     1      -6.910  -1.928  -0.421  1.00  0.00     0.059 C 
ATOM      7  C   UNL     1      -6.286  -4.374   1.278  1.00  0.00     0.008 C 
ATOM      8  C   UNL     1      -7.317  -3.349  -0.868  1.00  0.00     0.143 C 
ATOM      9  C   UNL     1      -7.501  -4.303   0.329  1.00  0.00     0.034 C 
ENDROOT
BRANCH   1  10
ATOM     10  C   UNL     1      -5.326   0.536   1.144  1.00  0.00     0.246 C 
ATOM     11  O   UNL     1      -4.979   1.184   0.151  1.00  0.00    -0.272 OA
BRANCH  10  12
ATOM     12  C   UNL     1      -5.965   1.231   2.381  1.00  0.00     0.174 C 
BRANCH  12  13
ATOM     13  N   UNL     1      -5.580   0.526   3.603  1.00  0.00    -0.342 N 
ATOM     14  C   UNL     1      -5.252   1.132   4.795  1.00  0.00     0.249 C 
ATOM     15  O   UNL     1      -5.273   2.343   4.973  1.00  0.00    -0.272 OA
ATOM     16  H   UNL     1      -5.367  -0.468   3.565  1.00  0.00     0.164 HD
BRANCH  14  17
ATOM     17  C   UNL     1      -4.872   0.116   5.894  1.00  0.00     0.207 C 
BRANCH  17  18
ATOM     18  C   UNL     1      -4.006  -1.005   5.312  1.00  0.00     0.077 C 
BRANCH  18  19
ATOM     19  C   UNL     1      -2.558  -0.588   5.185  1.00  0.00    -0.043 A 
ATOM     20  C   UNL     1      -0.305  -1.028   4.402  1.00  0.00     0.083 A 
ATOM     21  C   UNL     1      -1.650  -1.390   4.475  1.00  0.00     0.028 A 
ATOM     22  C   UNL     1       0.142   0.132   5.037  1.00  0.00     0.134 A 
ATOM     23  C   UNL     1      -0.746   0.935   5.743  1.00  0.00     0.048 A 
ATOM     24  C   UNL     1      -2.093   0.574   5.820  1.00  0.00     0.008 A 
ATOM     25  Cl  UNL     1       0.796  -2.025   3.526  1.00  0.00    -0.080 Cl
BRANCH  22  26
ATOM     26  O   UNL     1       1.454   0.522   5.002  1.00  0.00    -0.506 OA
ATOM     27  H   UNL     1       1.989  -0.290   5.073  1.00  0.00     0.293 HD
ENDBRANCH  22  26
ENDBRANCH  18  19
ENDBRANCH  17  18
BRANCH  17  28
ATOM     28  O   UNL     1      -6.044  -0.452   6.500  1.00  0.00    -0.383 OA
ATOM     29  H   UNL     1      -6.174  -1.329   6.072  1.00  0.00     0.211 HD
ENDBRANCH  17  28
ENDBRANCH  14  17
ENDBRANCH  12  13
BRANCH  12  30
ATOM     30  C   UNL     1      -7.503   1.394   2.250  1.00  0.00     0.018 C 
ATOM     31  C   UNL     1      -7.939   2.813   2.649  1.00  0.00     0.010 C 
BRANCH  30  32
ATOM     32  C   UNL     1      -8.309   0.344   3.054  1.00  0.00     0.002 C 
ATOM     33  C   UNL     1      -9.059   0.886   4.264  1.00  0.00     0.004 C 
ENDBRANCH  30  32
ENDBRANCH  12  30
ENDBRANCH  10  12
ENDBRANCH   1  10
BRANCH   5  34
ATOM     34  C   UNL     1      -2.862  -1.534   0.505  1.00  0.00     0.242 C 
ATOM     35  O   UNL     1      -2.348  -2.603   0.175  1.00  0.00    -0.273 OA
ATOM     36  N   UNL     1      -2.504  -0.334  -0.068  1.00  0.00    -0.354 N 
ATOM     37  H   UNL     1      -2.874   0.530   0.329  1.00  0.00     0.163 HD
BRANCH  36  38
ATOM     38  C   UNL     1      -1.704  -0.261  -1.274  1.00  0.00     0.116 C 
BRANCH  38  39
ATOM     39  C   UNL     1      -2.603  -0.394  -2.501  1.00  0.00     0.023 C 
BRANCH  39  40
ATOM     40  C   UNL     1      -1.991   0.242  -3.744  1.00  0.00     0.026 C 
BRANCH  40  41
ATOM     41  C   UNL     1      -2.847   1.411  -4.232  1.00  0.00     0.146 C 
BRANCH  41  42
ATOM     42  N   UNL     1      -2.915   2.437  -3.199  1.00  0.00    -0.254 NA
ATOM     43  C   UNL     1      -4.037   2.704  -2.646  1.00  0.00     0.185 C 
ATOM     44  N   UNL     1      -5.255   2.173  -2.857  1.00  0.00    -0.370 N 
ATOM     45  N   UNL     1      -4.079   3.656  -1.699  1.00  0.00    -0.370 N 
ATOM     46  H   UNL     1      -6.083   2.642  -2.532  1.00  0.00     0.159 HD
ATOM     47  H   UNL     1      -5.402   1.428  -3.532  1.00  0.00     0.159 HD
ATOM     48  H   UNL     1      -3.201   4.102  -1.473  1.00  0.00     0.159 HD
ATOM     49  H   UNL     1      -4.850   3.757  -1.063  1.00  0.00     0.159 HD
ENDBRANCH  41  42
ENDBRANCH  40  41
ENDBRANCH  39  40
ENDBRANCH  38  39
ENDBRANCH  36  38
ENDBRANCH   5  34
BRANCH   8  50
ATOM     50  O   UNL     1      -6.320  -3.894  -1.734  1.00  0.00    -0.245 OA
BRANCH  50  51
ATOM     51  S   UNL     1      -6.762  -4.543  -3.158  1.00  0.00     0.397 S 
ATOM     52  O   UNL     1      -5.579  -4.659  -3.982  1.00  0.00    -0.169 OA
ATOM     53  O   UNL     1      -7.961  -3.889  -3.639  1.00  0.00    -0.169 OA
BRANCH  51  54
ATOM     54  O   UNL     1      -7.151  -6.045  -2.737  1.00  0.00    -0.264 OA
ATOM     55  H   UNL     1      -6.348  -6.598  -2.826  1.00  0.00     0.236 HD
ENDBRANCH  51  54
ENDBRANCH  50  51
ENDBRANCH   8  50
TORSDOF 19
ENDMDL
MODEL 18
REMARK VINA RESULT:    -6.324      3.596      6.687
REMARK INTER + INTRA:         -16.620
REMARK INTER:                 -12.206
REMARK INTRA:                  -4.414
REMARK UNBOUND:                -3.827
REMARK SMILES CC[C@@H](C)[C@@H](NC(=O)[C@@H](O)Cc1ccc(O)c(Cl)c1)C(=O)N1[C@H](C(=O)NCCCCN=C(N)N)C[C@H]2CC[C@H](OS(=O)(=O)O)C[C@@H]21
REMARK SMILES IDX 22 1 36 2 46 3 35 4 23 5 45 6 37 7 39 8 38 9 20 10 21 11
REMARK SMILES IDX 5 12 6 13 7 14 8 15 9 17 11 18 12 19 17 20 19 21 15 22 14 23
REMARK SMILES IDX 13 24 18 25 16 26 10 28 3 30 4 31 2 32 1 33 24 34 25 35
REMARK SMILES IDX 26 36 27 38 28 39 29 40 30 41 31 42 32 43 33 44 34 45 40 50
REMARK SMILES IDX 41 51 42 52 43 53 44 54
REMARK H PARENT 6 16 16 27 10 29 26 37 33 46 33 47 34 48 34 49 44 55
ROOT
ATOM      1  N   UNL     1      -3.243   0.846  -3.868  1.00  0.00    -0.326 N 
ATOM      2  C   UNL     1      -2.452  -1.049  -5.019  1.00  0.00     0.014 C 
ATOM      3  C   UNL     1      -2.897   0.402  -5.221  1.00  0.00     0.091 C 
ATOM      4  C   UNL     1      -3.357  -1.524  -3.893  1.00  0.00     0.041 C 
ATOM      5  C   UNL     1      -3.267  -0.315  -2.943  1.00  0.00     0.175 C 
ATOM      6  C   UNL     1      -1.792   1.147  -5.968  1.00  0.00     0.059 C 
ATOM      7  C   UNL     1      -2.445  -1.802  -6.335  1.00  0.00     0.008 C 
ATOM      8  C   UNL     1      -0.997   0.259  -6.949  1.00  0.00     0.143 C 
ATOM      9  C   UNL     1      -1.831  -0.936  -7.455  1.00  0.00     0.034 C 
ENDROOT
BRANCH   1  10
ATOM     10  C   UNL     1      -3.727   2.067  -3.430  1.00  0.00     0.246 C 
ATOM     11  O   UNL     1      -2.979   2.818  -2.796  1.00  0.00    -0.272 OA
BRANCH  10  12
ATOM     12  C   UNL     1      -5.185   2.484  -3.782  1.00  0.00     0.174 C 
BRANCH  12  13
ATOM     13  N   UNL     1      -5.955   1.310  -4.190  1.00  0.00    -0.342 N 
ATOM     14  C   UNL     1      -6.847   0.633  -3.390  1.00  0.00     0.249 C 
ATOM     15  O   UNL     1      -7.118   0.961  -2.241  1.00  0.00    -0.272 OA
ATOM     16  H   UNL     1      -5.722   0.831  -5.057  1.00  0.00     0.164 HD
BRANCH  14  17
ATOM     17  C   UNL     1      -7.489  -0.576  -4.103  1.00  0.00     0.207 C 
BRANCH  17  18
ATOM     18  C   UNL     1      -8.272  -0.117  -5.337  1.00  0.00     0.077 C 
BRANCH  18  19
ATOM     19  C   UNL     1      -7.685  -0.672  -6.615  1.00  0.00    -0.043 A 
ATOM     20  C   UNL     1      -7.928  -1.278  -8.951  1.00  0.00     0.083 A 
ATOM     21  C   UNL     1      -8.456  -0.719  -7.787  1.00  0.00     0.028 A 
ATOM     22  C   UNL     1      -6.631  -1.793  -8.952  1.00  0.00     0.134 A 
ATOM     23  C   UNL     1      -5.857  -1.753  -7.799  1.00  0.00     0.048 A 
ATOM     24  C   UNL     1      -6.383  -1.196  -6.631  1.00  0.00     0.008 A 
ATOM     25  Cl  UNL     1      -8.891  -1.327 -10.381  1.00  0.00    -0.080 Cl
BRANCH  22  26
ATOM     26  O   UNL     1      -6.074  -2.361 -10.067  1.00  0.00    -0.506 OA
ATOM     27  H   UNL     1      -5.118  -2.440  -9.892  1.00  0.00     0.293 HD
ENDBRANCH  22  26
ENDBRANCH  18  19
ENDBRANCH  17  18
BRANCH  17  28
ATOM     28  O   UNL     1      -8.368  -1.292  -3.220  1.00  0.00    -0.383 OA
ATOM     29  H   UNL     1      -9.194  -0.760  -3.169  1.00  0.00     0.211 HD
ENDBRANCH  17  28
ENDBRANCH  14  17
ENDBRANCH  12  13
BRANCH  12  30
ATOM     30  C   UNL     1      -5.245   3.626  -4.832  1.00  0.00     0.018 C 
ATOM     31  C   UNL     1      -6.597   4.353  -4.772  1.00  0.00     0.010 C 
BRANCH  30  32
ATOM     32  C   UNL     1      -4.958   3.156  -6.279  1.00  0.00     0.002 C 
ATOM     33  C   UNL     1      -6.184   2.757  -7.089  1.00  0.00     0.004 C 
ENDBRANCH  30  32
ENDBRANCH  12  30
ENDBRANCH  10  12
ENDBRANCH   1  10
BRANCH   5  34
ATOM     34  C   UNL     1      -1.977  -0.359  -2.082  1.00  0.00     0.242 C 
ATOM     35  O   UNL     1      -0.914   0.132  -2.463  1.00  0.00    -0.273 OA
ATOM     36  N   UNL     1      -2.093  -1.033  -0.887  1.00  0.00    -0.354 N 
ATOM     37  H   UNL     1      -2.966  -1.521  -0.681  1.00  0.00     0.163 HD
BRANCH  36  38
ATOM     38  C   UNL     1      -1.063  -0.988   0.130  1.00  0.00     0.116 C 
BRANCH  38  39
ATOM     39  C   UNL     1      -0.460  -2.378   0.318  1.00  0.00     0.023 C 
BRANCH  39  40
ATOM     40  C   UNL     1       1.048  -2.395   0.089  1.00  0.00     0.026 C 
BRANCH  40  41
ATOM     41  C   UNL     1       1.370  -2.344  -1.405  1.00  0.00     0.146 C 
BRANCH  41  42
ATOM     42  N   UNL     1       2.107  -1.125  -1.708  1.00  0.00    -0.254 NA
ATOM     43  C   UNL     1       2.674  -0.995  -2.849  1.00  0.00     0.185 C 
ATOM     44  N   UNL     1       2.716  -1.840  -3.895  1.00  0.00    -0.370 N 
ATOM     45  N   UNL     1       3.352   0.135  -3.108  1.00  0.00    -0.370 N 
ATOM     46  H   UNL     1       3.395  -1.716  -4.627  1.00  0.00     0.159 HD
ATOM     47  H   UNL     1       2.242  -2.738  -3.875  1.00  0.00     0.159 HD
ATOM     48  H   UNL     1       3.363   0.830  -2.373  1.00  0.00     0.159 HD
ATOM     49  H   UNL     1       3.615   0.411  -4.037  1.00  0.00     0.159 HD
ENDBRANCH  41  42
ENDBRANCH  40  41
ENDBRANCH  39  40
ENDBRANCH  38  39
ENDBRANCH  36  38
ENDBRANCH   5  34
BRANCH   8  50
ATOM     50  O   UNL     1       0.177  -0.245  -6.312  1.00  0.00    -0.245 OA
BRANCH  50  51
ATOM     51  S   UNL     1       1.568   0.593  -6.411  1.00  0.00     0.397 S 
ATOM     52  O   UNL     1       1.446   1.530  -7.505  1.00  0.00    -0.169 OA
ATOM     53  O   UNL     1       2.691  -0.315  -6.310  1.00  0.00    -0.169 OA
BRANCH  51  54
ATOM     54  O   UNL     1       1.523   1.478  -5.070  1.00  0.00    -0.264 OA
ATOM     55  H   UNL     1       2.247   1.172  -4.486  1.00  0.00     0.236 HD
ENDBRANCH  51  54
ENDBRANCH  50  51
ENDBRANCH   8  50
TORSDOF 19
ENDMDL
MODEL 19
REMARK VINA RESULT:    -6.309      4.793      9.212
REMARK INTER + INTRA:         -16.590
REMARK INTER:                 -13.363
REMARK INTRA:                  -3.228
REMARK UNBOUND:                -3.827
REMARK SMILES CC[C@@H](C)[C@@H](NC(=O)[C@@H](O)Cc1ccc(O)c(Cl)c1)C(=O)N1[C@H](C(=O)NCCCCN=C(N)N)C[C@H]2CC[C@H](OS(=O)(=O)O)C[C@@H]21
REMARK SMILES IDX 22 1 36 2 46 3 35 4 23 5 45 6 37 7 39 8 38 9 20 10 21 11
REMARK SMILES IDX 5 12 6 13 7 14 8 15 9 17 11 18 12 19 17 20 19 21 15 22 14 23
REMARK SMILES IDX 13 24 18 25 16 26 10 28 3 30 4 31 2 32 1 33 24 34 25 35
REMARK SMILES IDX 26 36 27 38 28 39 29 40 30 41 31 42 32 43 33 44 34 45 40 50
REMARK SMILES IDX 41 51 42 52 43 53 44 54
REMARK H PARENT 6 16 16 27 10 29 26 37 33 46 33 47 34 48 34 49 44 55
ROOT
ATOM      1  N   UNL     1      -3.345   0.902  -4.000  1.00  0.00    -0.326 N 
ATOM      2  C   UNL     1      -4.966   2.577  -4.332  1.00  0.00     0.014 C 
ATOM      3  C   UNL     1      -4.098   1.556  -5.073  1.00  0.00     0.091 C 
ATOM      4  C   UNL     1      -4.067   3.010  -3.184  1.00  0.00     0.041 C 
ATOM      5  C   UNL     1      -3.531   1.641  -2.726  1.00  0.00     0.175 C 
ATOM      6  C   UNL     1      -5.007   0.695  -5.949  1.00  0.00     0.059 C 
ATOM      7  C   UNL     1      -5.509   3.622  -5.286  1.00  0.00     0.008 C 
ATOM      8  C   UNL     1      -6.248   1.443  -6.482  1.00  0.00     0.143 C 
ATOM      9  C   UNL     1      -6.006   2.962  -6.590  1.00  0.00     0.034 C 
ENDROOT
BRANCH   1  10
ATOM     10  C   UNL     1      -2.387  -0.095  -4.067  1.00  0.00     0.246 C 
ATOM     11  O   UNL     1      -2.749  -1.277  -4.068  1.00  0.00    -0.272 OA
BRANCH  10  12
ATOM     12  C   UNL     1      -0.884   0.291  -4.183  1.00  0.00     0.174 C 
BRANCH  12  13
ATOM     13  N   UNL     1      -0.639   0.962  -5.460  1.00  0.00    -0.342 N 
ATOM     14  C   UNL     1      -0.561   2.326  -5.633  1.00  0.00     0.249 C 
ATOM     15  O   UNL     1      -0.662   3.136  -4.720  1.00  0.00    -0.272 OA
ATOM     16  H   UNL     1      -0.690   0.432  -6.326  1.00  0.00     0.164 HD
BRANCH  14  17
ATOM     17  C   UNL     1      -0.311   2.726  -7.103  1.00  0.00     0.207 C 
BRANCH  17  18
ATOM     18  C   UNL     1       0.494   4.028  -7.174  1.00  0.00     0.077 C 
BRANCH  18  19
ATOM     19  C   UNL     1       1.155   4.207  -8.522  1.00  0.00    -0.043 A 
ATOM     20  C   UNL     1       2.056   3.258 -10.564  1.00  0.00     0.083 A 
ATOM     21  C   UNL     1       1.401   3.096  -9.343  1.00  0.00     0.028 A 
ATOM     22  C   UNL     1       2.471   4.527 -10.971  1.00  0.00     0.134 A 
ATOM     23  C   UNL     1       2.234   5.636 -10.167  1.00  0.00     0.048 A 
ATOM     24  C   UNL     1       1.579   5.477  -8.944  1.00  0.00     0.008 A 
ATOM     25  Cl  UNL     1       2.350   1.881 -11.560  1.00  0.00    -0.080 Cl
BRANCH  22  26
ATOM     26  O   UNL     1       3.126   4.734 -12.155  1.00  0.00    -0.506 OA
ATOM     27  H   UNL     1       3.371   5.678 -12.177  1.00  0.00     0.293 HD
ENDBRANCH  22  26
ENDBRANCH  18  19
ENDBRANCH  17  18
BRANCH  17  28
ATOM     28  O   UNL     1      -1.549   2.891  -7.812  1.00  0.00    -0.383 OA
ATOM     29  H   UNL     1      -1.446   3.708  -8.351  1.00  0.00     0.211 HD
ENDBRANCH  17  28
ENDBRANCH  14  17
ENDBRANCH  12  13
BRANCH  12  30
ATOM     30  C   UNL     1       0.065  -0.916  -3.957  1.00  0.00     0.018 C 
ATOM     31  C   UNL     1       1.136  -0.580  -2.908  1.00  0.00     0.010 C 
BRANCH  30  32
ATOM     32  C   UNL     1       0.734  -1.432  -5.255  1.00  0.00     0.002 C 
ATOM     33  C   UNL     1       0.047  -2.621  -5.913  1.00  0.00     0.004 C 
ENDBRANCH  30  32
ENDBRANCH  12  30
ENDBRANCH  10  12
ENDBRANCH   1  10
BRANCH   5  34
ATOM     34  C   UNL     1      -4.545   0.908  -1.808  1.00  0.00     0.242 C 
ATOM     35  O   UNL     1      -4.902  -0.251  -2.016  1.00  0.00    -0.273 OA
ATOM     36  N   UNL     1      -5.057   1.666  -0.778  1.00  0.00    -0.354 N 
ATOM     37  H   UNL     1      -4.814   2.656  -0.729  1.00  0.00     0.163 HD
BRANCH  36  38
ATOM     38  C   UNL     1      -5.841   1.087   0.292  1.00  0.00     0.116 C 
BRANCH  38  39
ATOM     39  C   UNL     1      -4.953   0.834   1.508  1.00  0.00     0.023 C 
BRANCH  39  40
ATOM     40  C   UNL     1      -4.955  -0.630   1.937  1.00  0.00     0.026 C 
BRANCH  40  41
ATOM     41  C   UNL     1      -3.527  -1.137   2.140  1.00  0.00     0.146 C 
BRANCH  41  42
ATOM     42  N   UNL     1      -2.782  -1.022   0.894  1.00  0.00    -0.254 NA
ATOM     43  C   UNL     1      -2.824  -1.975   0.040  1.00  0.00     0.185 C 
ATOM     44  N   UNL     1      -3.481  -3.149   0.085  1.00  0.00    -0.370 N 
ATOM     45  N   UNL     1      -2.126  -1.851  -1.101  1.00  0.00    -0.370 N 
ATOM     46  H   UNL     1      -3.232  -3.899  -0.536  1.00  0.00     0.159 HD
ATOM     47  H   UNL     1      -4.069  -3.400   0.874  1.00  0.00     0.159 HD
ATOM     48  H   UNL     1      -1.609  -0.990  -1.219  1.00  0.00     0.159 HD
ATOM     49  H   UNL     1      -2.292  -2.429  -1.905  1.00  0.00     0.159 HD
ENDBRANCH  41  42
ENDBRANCH  40  41
ENDBRANCH  39  40
ENDBRANCH  38  39
ENDBRANCH  36  38
ENDBRANCH   5  34
BRANCH   8  50
ATOM     50  O   UNL     1      -7.363   1.223  -5.617  1.00  0.00    -0.245 OA
BRANCH  50  51
ATOM     51  S   UNL     1      -8.129  -0.212  -5.644  1.00  0.00     0.397 S 
ATOM     52  O   UNL     1      -7.715  -0.961  -4.479  1.00  0.00    -0.169 OA
ATOM     53  O   UNL     1      -8.055  -0.777  -6.976  1.00  0.00    -0.169 OA
BRANCH  51  54
ATOM     54  O   UNL     1      -9.654   0.217  -5.371  1.00  0.00    -0.264 OA
ATOM     55  H   UNL     1      -9.758   0.352  -4.407  1.00  0.00     0.236 HD
ENDBRANCH  51  54
ENDBRANCH  50  51
ENDBRANCH   8  50
TORSDOF 19
ENDMDL
MODEL 20
REMARK VINA RESULT:    -6.262      4.954      8.316
REMARK INTER + INTRA:         -16.495
REMARK INTER:                 -13.279
REMARK INTRA:                  -3.216
REMARK UNBOUND:                -3.827
REMARK SMILES CC[C@@H](C)[C@@H](NC(=O)[C@@H](O)Cc1ccc(O)c(Cl)c1)C(=O)N1[C@H](C(=O)NCCCCN=C(N)N)C[C@H]2CC[C@H](OS(=O)(=O)O)C[C@@H]21
REMARK SMILES IDX 22 1 36 2 46 3 35 4 23 5 45 6 37 7 39 8 38 9 20 10 21 11
REMARK SMILES IDX 5 12 6 13 7 14 8 15 9 17 11 18 12 19 17 20 19 21 15 22 14 23
REMARK SMILES IDX 13 24 18 25 16 26 10 28 3 30 4 31 2 32 1 33 24 34 25 35
REMARK SMILES IDX 26 36 27 38 28 39 29 40 30 41 31 42 32 43 33 44 34 45 40 50
REMARK SMILES IDX 41 51 42 52 43 53 44 54
REMARK H PARENT 6 16 16 27 10 29 26 37 33 46 33 47 34 48 34 49 44 55
ROOT
ATOM      1  N   UNL     1      -4.013  -1.729  -0.998  1.00  0.00    -0.326 N 
ATOM      2  C   UNL     1      -4.371  -1.410  -3.303  1.00  0.00     0.014 C 
ATOM      3  C   UNL     1      -4.466  -0.707  -1.946  1.00  0.00     0.091 C 
ATOM      4  C   UNL     1      -4.736  -2.847  -2.962  1.00  0.00     0.041 C 
ATOM      5  C   UNL     1      -3.904  -3.042  -1.681  1.00  0.00     0.175 C 
ATOM      6  C   UNL     1      -3.685   0.604  -2.026  1.00  0.00     0.059 C 
ATOM      7  C   UNL     1      -5.173  -0.669  -4.355  1.00  0.00     0.008 C 
ATOM      8  C   UNL     1      -3.699   1.251  -3.428  1.00  0.00     0.143 C 
ATOM      9  C   UNL     1      -4.950   0.853  -4.237  1.00  0.00     0.034 C 
ENDROOT
BRANCH   1  10
ATOM     10  C   UNL     1      -3.902  -1.674   0.381  1.00  0.00     0.246 C 
ATOM     11  O   UNL     1      -2.792  -1.823   0.901  1.00  0.00    -0.272 OA
BRANCH  10  12
ATOM     12  C   UNL     1      -5.167  -1.384   1.241  1.00  0.00     0.174 C 
BRANCH  12  13
ATOM     13  N   UNL     1      -4.776  -0.785   2.516  1.00  0.00    -0.342 N 
ATOM     14  C   UNL     1      -4.967   0.534   2.861  1.00  0.00     0.249 C 
ATOM     15  O   UNL     1      -5.518   1.355   2.138  1.00  0.00    -0.272 OA
ATOM     16  H   UNL     1      -4.171  -1.301   3.151  1.00  0.00     0.164 HD
BRANCH  14  17
ATOM     17  C   UNL     1      -4.431   0.865   4.270  1.00  0.00     0.207 C 
BRANCH  17  18
ATOM     18  C   UNL     1      -3.737  -0.357   4.880  1.00  0.00     0.077 C 
BRANCH  18  19
ATOM     19  C   UNL     1      -2.231  -0.236   4.822  1.00  0.00    -0.043 A 
ATOM     20  C   UNL     1      -0.075  -1.112   4.137  1.00  0.00     0.083 A 
ATOM     21  C   UNL     1      -1.467  -1.201   4.147  1.00  0.00     0.028 A 
ATOM     22  C   UNL     1       0.563  -0.064   4.801  1.00  0.00     0.134 A 
ATOM     23  C   UNL     1      -0.181   0.899   5.474  1.00  0.00     0.048 A 
ATOM     24  C   UNL     1      -1.575   0.812   5.487  1.00  0.00     0.008 A 
ATOM     25  Cl  UNL     1       0.846  -2.308   3.303  1.00  0.00    -0.080 Cl
BRANCH  22  26
ATOM     26  O   UNL     1       1.925   0.059   4.829  1.00  0.00    -0.506 OA
ATOM     27  H   UNL     1       2.230   0.006   3.904  1.00  0.00     0.293 HD
ENDBRANCH  22  26
ENDBRANCH  18  19
ENDBRANCH  17  18
BRANCH  17  28
ATOM     28  O   UNL     1      -5.490   1.295   5.140  1.00  0.00    -0.383 OA
ATOM     29  H   UNL     1      -5.053   1.649   5.947  1.00  0.00     0.211 HD
ENDBRANCH  17  28
ENDBRANCH  14  17
ENDBRANCH  12  13
BRANCH  12  30
ATOM     30  C   UNL     1      -6.066  -2.636   1.425  1.00  0.00     0.018 C 
ATOM     31  C   UNL     1      -5.212  -3.899   1.616  1.00  0.00     0.010 C 
BRANCH  30  32
ATOM     32  C   UNL     1      -7.080  -2.849   0.274  1.00  0.00     0.002 C 
ATOM     33  C   UNL     1      -8.357  -3.583   0.658  1.00  0.00     0.004 C 
ENDBRANCH  30  32
ENDBRANCH  12  30
ENDBRANCH  10  12
ENDBRANCH   1  10
BRANCH   5  34
ATOM     34  C   UNL     1      -2.423  -3.372  -2.005  1.00  0.00     0.242 C 
ATOM     35  O   UNL     1      -1.904  -3.079  -3.082  1.00  0.00    -0.273 OA
ATOM     36  N   UNL     1      -1.748  -4.064  -1.024  1.00  0.00    -0.354 N 
ATOM     37  H   UNL     1      -2.265  -4.383  -0.204  1.00  0.00     0.163 HD
BRANCH  36  38
ATOM     38  C   UNL     1      -0.314  -4.264  -1.066  1.00  0.00     0.116 C 
BRANCH  38  39
ATOM     39  C   UNL     1       0.390  -3.120  -0.339  1.00  0.00     0.023 C 
BRANCH  39  40
ATOM     40  C   UNL     1       1.456  -2.452  -1.200  1.00  0.00     0.026 C 
BRANCH  40  41
ATOM     41  C   UNL     1       1.249  -0.938  -1.242  1.00  0.00     0.146 C 
BRANCH  41  42
ATOM     42  N   UNL     1       1.392  -0.459  -2.611  1.00  0.00    -0.254 NA
ATOM     43  C   UNL     1       2.546  -0.109  -3.041  1.00  0.00     0.185 C 
ATOM     44  N   UNL     1       3.737  -0.102  -2.416  1.00  0.00    -0.370 N 
ATOM     45  N   UNL     1       2.656   0.334  -4.305  1.00  0.00    -0.370 N 
ATOM     46  H   UNL     1       4.509   0.424  -2.789  1.00  0.00     0.159 HD
ATOM     47  H   UNL     1       3.838  -0.420  -1.457  1.00  0.00     0.159 HD
ATOM     48  H   UNL     1       1.805   0.353  -4.849  1.00  0.00     0.159 HD
ATOM     49  H   UNL     1       3.537   0.399  -4.783  1.00  0.00     0.159 HD
ENDBRANCH  41  42
ENDBRANCH  40  41
ENDBRANCH  39  40
ENDBRANCH  38  39
ENDBRANCH  36  38
ENDBRANCH   5  34
BRANCH   8  50
ATOM     50  O   UNL     1      -2.540   0.856  -4.162  1.00  0.00    -0.245 OA
BRANCH  50  51
ATOM     51  S   UNL     1      -1.630   1.988  -4.896  1.00  0.00     0.397 S 
ATOM     52  O   UNL     1      -2.218   2.264  -6.187  1.00  0.00    -0.169 OA
ATOM     53  O   UNL     1      -0.229   1.651  -4.755  1.00  0.00    -0.169 OA
BRANCH  51  54
ATOM     54  O   UNL     1      -1.921   3.288  -3.995  1.00  0.00    -0.264 OA
ATOM     55  H   UNL     1      -2.853   3.243  -3.698  1.00  0.00     0.236 HD
ENDBRANCH  51  54
ENDBRANCH  50  51
ENDBRANCH   8  50
TORSDOF 19
ENDMDL
MODEL 21
REMARK VINA RESULT:    -6.221      4.793      9.107
REMARK INTER + INTRA:         -16.412
REMARK INTER:                 -13.389
REMARK INTRA:                  -3.022
REMARK UNBOUND:                -3.827
REMARK SMILES CC[C@@H](C)[C@@H](NC(=O)[C@@H](O)Cc1ccc(O)c(Cl)c1)C(=O)N1[C@H](C(=O)NCCCCN=C(N)N)C[C@H]2CC[C@H](OS(=O)(=O)O)C[C@@H]21
REMARK SMILES IDX 22 1 36 2 46 3 35 4 23 5 45 6 37 7 39 8 38 9 20 10 21 11
REMARK SMILES IDX 5 12 6 13 7 14 8 15 9 17 11 18 12 19 17 20 19 21 15 22 14 23
REMARK SMILES IDX 13 24 18 25 16 26 10 28 3 30 4 31 2 32 1 33 24 34 25 35
REMARK SMILES IDX 26 36 27 38 28 39 29 40 30 41 31 42 32 43 33 44 34 45 40 50
REMARK SMILES IDX 41 51 42 52 43 53 44 54
REMARK H PARENT 6 16 16 27 10 29 26 37 33 46 33 47 34 48 34 49 44 55
ROOT
ATOM      1  N   UNL     1      -3.247   0.848  -3.879  1.00  0.00    -0.326 N 
ATOM      2  C   UNL     1      -4.991   2.428  -3.939  1.00  0.00     0.014 C 
ATOM      3  C   UNL     1      -4.054   1.613  -4.834  1.00  0.00     0.091 C 
ATOM      4  C   UNL     1      -4.120   2.731  -2.730  1.00  0.00     0.041 C 
ATOM      5  C   UNL     1      -3.481   1.349  -2.502  1.00  0.00     0.175 C 
ATOM      6  C   UNL     1      -4.900   0.843  -5.847  1.00  0.00     0.059 C 
ATOM      7  C   UNL     1      -5.617   3.573  -4.710  1.00  0.00     0.008 C 
ATOM      8  C   UNL     1      -6.197   1.574  -6.256  1.00  0.00     0.143 C 
ATOM      9  C   UNL     1      -6.070   3.104  -6.109  1.00  0.00     0.034 C 
ENDROOT
BRANCH   1  10
ATOM     10  C   UNL     1      -2.217  -0.050  -4.105  1.00  0.00     0.246 C 
ATOM     11  O   UNL     1      -2.492  -1.224  -4.374  1.00  0.00    -0.272 OA
BRANCH  10  12
ATOM     12  C   UNL     1      -0.743   0.446  -4.057  1.00  0.00     0.174 C 
BRANCH  12  13
ATOM     13  N   UNL     1      -0.366   1.015  -5.350  1.00  0.00    -0.342 N 
ATOM     14  C   UNL     1      -0.440   2.350  -5.678  1.00  0.00     0.249 C 
ATOM     15  O   UNL     1      -0.808   3.224  -4.903  1.00  0.00    -0.272 OA
ATOM     16  H   UNL     1      -0.192   0.399  -6.140  1.00  0.00     0.164 HD
BRANCH  14  17
ATOM     17  C   UNL     1       0.013   2.634  -7.126  1.00  0.00     0.207 C 
BRANCH  17  18
ATOM     18  C   UNL     1       1.192   3.612  -7.137  1.00  0.00     0.077 C 
BRANCH  18  19
ATOM     19  C   UNL     1       2.520   2.891  -7.177  1.00  0.00    -0.043 A 
ATOM     20  C   UNL     1       4.624   2.300  -6.124  1.00  0.00     0.083 A 
ATOM     21  C   UNL     1       3.378   2.925  -6.066  1.00  0.00     0.028 A 
ATOM     22  C   UNL     1       5.022   1.641  -7.288  1.00  0.00     0.134 A 
ATOM     23  C   UNL     1       4.182   1.600  -8.395  1.00  0.00     0.048 A 
ATOM     24  C   UNL     1       2.935   2.226  -8.341  1.00  0.00     0.008 A 
ATOM     25  Cl  UNL     1       5.664   2.352  -4.749  1.00  0.00    -0.080 Cl
BRANCH  22  26
ATOM     26  O   UNL     1       6.238   1.023  -7.396  1.00  0.00    -0.506 OA
ATOM     27  H   UNL     1       6.839   1.660  -7.826  1.00  0.00     0.293 HD
ENDBRANCH  22  26
ENDBRANCH  18  19
ENDBRANCH  17  18
BRANCH  17  28
ATOM     28  O   UNL     1      -1.063   3.176  -7.908  1.00  0.00    -0.383 OA
ATOM     29  H   UNL     1      -0.642   3.643  -8.665  1.00  0.00     0.211 HD
ENDBRANCH  17  28
ENDBRANCH  14  17
ENDBRANCH  12  13
BRANCH  12  30
ATOM     30  C   UNL     1       0.245  -0.653  -3.583  1.00  0.00     0.018 C 
ATOM     31  C   UNL     1       0.116  -0.888  -2.069  1.00  0.00     0.010 C 
BRANCH  30  32
ATOM     32  C   UNL     1       1.720  -0.365  -3.952  1.00  0.00     0.002 C 
ATOM     33  C   UNL     1       2.709  -0.449  -2.797  1.00  0.00     0.004 C 
ENDBRANCH  30  32
ENDBRANCH  12  30
ENDBRANCH  10  12
ENDBRANCH   1  10
BRANCH   5  34
ATOM     34  C   UNL     1      -4.432   0.400  -1.725  1.00  0.00     0.242 C 
ATOM     35  O   UNL     1      -5.463   0.799  -1.185  1.00  0.00    -0.273 OA
ATOM     36  N   UNL     1      -4.011  -0.909  -1.638  1.00  0.00    -0.354 N 
ATOM     37  H   UNL     1      -3.089  -1.154  -2.003  1.00  0.00     0.163 HD
BRANCH  36  38
ATOM     38  C   UNL     1      -4.868  -1.965  -1.143  1.00  0.00     0.116 C 
BRANCH  38  39
ATOM     39  C   UNL     1      -4.052  -2.942  -0.299  1.00  0.00     0.023 C 
BRANCH  39  40
ATOM     40  C   UNL     1      -4.628  -4.353  -0.320  1.00  0.00     0.026 C 
BRANCH  40  41
ATOM     41  C   UNL     1      -5.991  -4.372  -1.013  1.00  0.00     0.146 C 
BRANCH  41  42
ATOM     42  N   UNL     1      -5.949  -5.272  -2.158  1.00  0.00    -0.254 NA
ATOM     43  C   UNL     1      -6.601  -4.977  -3.219  1.00  0.00     0.185 C 
ATOM     44  N   UNL     1      -7.374  -3.910  -3.492  1.00  0.00    -0.370 N 
ATOM     45  N   UNL     1      -6.552  -5.823  -4.262  1.00  0.00    -0.370 N 
ATOM     46  H   UNL     1      -8.017  -3.927  -4.265  1.00  0.00     0.159 HD
ATOM     47  H   UNL     1      -7.510  -3.164  -2.817  1.00  0.00     0.159 HD
ATOM     48  H   UNL     1      -5.983  -6.650  -4.143  1.00  0.00     0.159 HD
ATOM     49  H   UNL     1      -6.831  -5.558  -5.190  1.00  0.00     0.159 HD
ENDBRANCH  41  42
ENDBRANCH  40  41
ENDBRANCH  39  40
ENDBRANCH  38  39
ENDBRANCH  36  38
ENDBRANCH   5  34
BRANCH   8  50
ATOM     50  O   UNL     1      -7.287   1.130  -5.448  1.00  0.00    -0.245 OA
BRANCH  50  51
ATOM     51  S   UNL     1      -8.121  -0.197  -5.883  1.00  0.00     0.397 S 
ATOM     52  O   UNL     1      -7.702  -1.287  -5.030  1.00  0.00    -0.169 OA
ATOM     53  O   UNL     1      -8.122  -0.319  -7.326  1.00  0.00    -0.169 OA
BRANCH  51  54
ATOM     54  O   UNL     1      -9.613   0.176  -5.415  1.00  0.00    -0.264 OA
ATOM     55  H   UNL     1      -9.674   1.152  -5.362  1.00  0.00     0.236 HD
ENDBRANCH  51  54
ENDBRANCH  50  51
ENDBRANCH   8  50
TORSDOF 19
ENDMDL
MODEL 22
REMARK VINA RESULT:    -6.212     16.210     20.837
REMARK INTER + INTRA:         -16.395
REMARK INTER:                 -13.127
REMARK INTRA:                  -3.268
REMARK UNBOUND:                -3.827
REMARK SMILES CC[C@@H](C)[C@@H](NC(=O)[C@@H](O)Cc1ccc(O)c(Cl)c1)C(=O)N1[C@H](C(=O)NCCCCN=C(N)N)C[C@H]2CC[C@H](OS(=O)(=O)O)C[C@@H]21
REMARK SMILES IDX 22 1 36 2 46 3 35 4 23 5 45 6 37 7 39 8 38 9 20 10 21 11
REMARK SMILES IDX 5 12 6 13 7 14 8 15 9 17 11 18 12 19 17 20 19 21 15 22 14 23
REMARK SMILES IDX 13 24 18 25 16 26 10 28 3 30 4 31 2 32 1 33 24 34 25 35
REMARK SMILES IDX 26 36 27 38 28 39 29 40 30 41 31 42 32 43 33 44 34 45 40 50
REMARK SMILES IDX 41 51 42 52 43 53 44 54
REMARK H PARENT 6 16 16 27 10 29 26 37 33 46 33 47 34 48 34 49 44 55
ROOT
ATOM      1  N   UNL     1     -14.450  -2.917   7.842  1.00  0.00    -0.326 N 
ATOM      2  C   UNL     1     -13.647  -5.111   7.550  1.00  0.00     0.014 C 
ATOM      3  C   UNL     1     -14.434  -4.219   8.515  1.00  0.00     0.091 C 
ATOM      4  C   UNL     1     -12.621  -4.150   6.968  1.00  0.00     0.041 C 
ATOM      5  C   UNL     1     -13.519  -2.931   6.687  1.00  0.00     0.175 C 
ATOM      6  C   UNL     1     -15.771  -4.896   8.815  1.00  0.00     0.059 C 
ATOM      7  C   UNL     1     -13.173  -6.373   8.243  1.00  0.00     0.008 C 
ATOM      8  C   UNL     1     -15.705  -6.438   8.796  1.00  0.00     0.143 C 
ATOM      9  C   UNL     1     -14.293  -6.962   9.127  1.00  0.00     0.034 C 
ENDROOT
BRANCH   1  10
ATOM     10  C   UNL     1     -15.003  -1.715   8.249  1.00  0.00     0.246 C 
ATOM     11  O   UNL     1     -15.976  -1.263   7.636  1.00  0.00    -0.272 OA
BRANCH  10  12
ATOM     12  C   UNL     1     -14.416  -0.982   9.490  1.00  0.00     0.174 C 
BRANCH  12  13
ATOM     13  N   UNL     1     -12.955  -0.986   9.428  1.00  0.00    -0.342 N 
ATOM     14  C   UNL     1     -12.164   0.139   9.365  1.00  0.00     0.249 C 
ATOM     15  O   UNL     1     -12.601   1.282   9.383  1.00  0.00    -0.272 OA
ATOM     16  H   UNL     1     -12.461  -1.857   9.249  1.00  0.00     0.164 HD
BRANCH  14  17
ATOM     17  C   UNL     1     -10.658  -0.196   9.291  1.00  0.00     0.207 C 
BRANCH  17  18
ATOM     18  C   UNL     1     -10.390  -1.212   8.176  1.00  0.00     0.077 C 
BRANCH  18  19
ATOM     19  C   UNL     1      -9.963  -0.537   6.892  1.00  0.00    -0.043 A 
ATOM     20  C   UNL     1     -10.390   0.035   4.574  1.00  0.00     0.083 A 
ATOM     21  C   UNL     1     -10.808  -0.546   5.772  1.00  0.00     0.028 A 
ATOM     22  C   UNL     1      -9.129   0.625   4.486  1.00  0.00     0.134 A 
ATOM     23  C   UNL     1      -8.282   0.641   5.588  1.00  0.00     0.048 A 
ATOM     24  C   UNL     1      -8.696   0.059   6.788  1.00  0.00     0.008 A 
ATOM     25  Cl  UNL     1     -11.443   0.013   3.208  1.00  0.00    -0.080 Cl
BRANCH  22  26
ATOM     26  O   UNL     1      -8.672   1.197   3.330  1.00  0.00    -0.506 OA
ATOM     27  H   UNL     1      -7.705   1.070   3.318  1.00  0.00     0.293 HD
ENDBRANCH  22  26
ENDBRANCH  18  19
ENDBRANCH  17  18
BRANCH  17  28
ATOM     28  O   UNL     1     -10.183  -0.723  10.540  1.00  0.00    -0.383 OA
ATOM     29  H   UNL     1     -10.356  -0.025  11.213  1.00  0.00     0.211 HD
ENDBRANCH  17  28
ENDBRANCH  14  17
ENDBRANCH  12  13
BRANCH  12  30
ATOM     30  C   UNL     1     -14.953  -1.550  10.832  1.00  0.00     0.018 C 
ATOM     31  C   UNL     1     -16.477  -1.740  10.773  1.00  0.00     0.010 C 
BRANCH  30  32
ATOM     32  C   UNL     1     -14.571  -0.697  12.066  1.00  0.00     0.002 C 
ATOM     33  C   UNL     1     -15.436  -0.913  13.300  1.00  0.00     0.004 C 
ENDBRANCH  30  32
ENDBRANCH  12  30
ENDBRANCH  10  12
ENDBRANCH   1  10
BRANCH   5  34
ATOM     34  C   UNL     1     -14.299  -3.090   5.354  1.00  0.00     0.242 C 
ATOM     35  O   UNL     1     -14.167  -4.076   4.628  1.00  0.00    -0.273 OA
ATOM     36  N   UNL     1     -15.106  -2.027   5.017  1.00  0.00    -0.354 N 
ATOM     37  H   UNL     1     -15.081  -1.188   5.598  1.00  0.00     0.163 HD
BRANCH  36  38
ATOM     38  C   UNL     1     -16.061  -2.094   3.930  1.00  0.00     0.116 C 
BRANCH  38  39
ATOM     39  C   UNL     1     -16.123  -0.749   3.210  1.00  0.00     0.023 C 
BRANCH  39  40
ATOM     40  C   UNL     1     -17.000   0.262   3.940  1.00  0.00     0.026 C 
BRANCH  40  41
ATOM     41  C   UNL     1     -16.275   1.600   4.088  1.00  0.00     0.146 C 
BRANCH  41  42
ATOM     42  N   UNL     1     -17.026   2.471   4.983  1.00  0.00    -0.254 NA
ATOM     43  C   UNL     1     -16.805   2.427   6.243  1.00  0.00     0.185 C 
ATOM     44  N   UNL     1     -15.941   1.669   6.944  1.00  0.00    -0.370 N 
ATOM     45  N   UNL     1     -17.511   3.234   7.052  1.00  0.00    -0.370 N 
ATOM     46  H   UNL     1     -16.044   1.561   7.938  1.00  0.00     0.159 HD
ATOM     47  H   UNL     1     -15.318   1.010   6.487  1.00  0.00     0.159 HD
ATOM     48  H   UNL     1     -18.179   3.845   6.602  1.00  0.00     0.159 HD
ATOM     49  H   UNL     1     -17.238   3.430   7.998  1.00  0.00     0.159 HD
ENDBRANCH  41  42
ENDBRANCH  40  41
ENDBRANCH  39  40
ENDBRANCH  38  39
ENDBRANCH  36  38
ENDBRANCH   5  34
BRANCH   8  50
ATOM     50  O   UNL     1     -16.080  -6.928   7.508  1.00  0.00    -0.245 OA
BRANCH  50  51
ATOM     51  S   UNL     1     -17.475  -7.748   7.336  1.00  0.00     0.397 S 
ATOM     52  O   UNL     1     -18.384  -6.925   6.571  1.00  0.00    -0.169 OA
ATOM     53  O   UNL     1     -17.859  -8.325   8.607  1.00  0.00    -0.169 OA
BRANCH  51  54
ATOM     54  O   UNL     1     -17.040  -8.948   6.358  1.00  0.00    -0.264 OA
ATOM     55  H   UNL     1     -17.841  -9.474   6.157  1.00  0.00     0.236 HD
ENDBRANCH  51  54
ENDBRANCH  50  51
ENDBRANCH   8  50
TORSDOF 19
ENDMDL
MODEL 23
REMARK VINA RESULT:    -6.196      7.378     10.684
REMARK INTER + INTRA:         -16.361
REMARK INTER:                 -13.180
REMARK INTRA:                  -3.181
REMARK UNBOUND:                -3.827
REMARK SMILES CC[C@@H](C)[C@@H](NC(=O)[C@@H](O)Cc1ccc(O)c(Cl)c1)C(=O)N1[C@H](C(=O)NCCCCN=C(N)N)C[C@H]2CC[C@H](OS(=O)(=O)O)C[C@@H]21
REMARK SMILES IDX 22 1 36 2 46 3 35 4 23 5 45 6 37 7 39 8 38 9 20 10 21 11
REMARK SMILES IDX 5 12 6 13 7 14 8 15 9 17 11 18 12 19 17 20 19 21 15 22 14 23
REMARK SMILES IDX 13 24 18 25 16 26 10 28 3 30 4 31 2 32 1 33 24 34 25 35
REMARK SMILES IDX 26 36 27 38 28 39 29 40 30 41 31 42 32 43 33 44 34 45 40 50
REMARK SMILES IDX 41 51 42 52 43 53 44 54
REMARK H PARENT 6 16 16 27 10 29 26 37 33 46 33 47 34 48 34 49 44 55
ROOT
ATOM      1  N   UNL     1      -5.173  -1.874   1.931  1.00  0.00    -0.326 N 
ATOM      2  C   UNL     1      -4.046  -0.114   3.015  1.00  0.00     0.014 C 
ATOM      3  C   UNL     1      -4.744  -1.453   3.268  1.00  0.00     0.091 C 
ATOM      4  C   UNL     1      -4.858   0.476   1.872  1.00  0.00     0.041 C 
ATOM      5  C   UNL     1      -4.994  -0.761   0.966  1.00  0.00     0.175 C 
ATOM      6  C   UNL     1      -3.787  -2.358   4.041  1.00  0.00     0.059 C 
ATOM      7  C   UNL     1      -3.895   0.671   4.303  1.00  0.00     0.008 C 
ATOM      8  C   UNL     1      -2.838  -1.594   4.989  1.00  0.00     0.143 C 
ATOM      9  C   UNL     1      -3.440  -0.252   5.453  1.00  0.00     0.034 C 
ENDROOT
BRANCH   1  10
ATOM     10  C   UNL     1      -5.872  -3.003   1.538  1.00  0.00     0.246 C 
ATOM     11  O   UNL     1      -5.286  -4.090   1.499  1.00  0.00    -0.272 OA
BRANCH  10  12
ATOM     12  C   UNL     1      -7.385  -2.886   1.195  1.00  0.00     0.174 C 
BRANCH  12  13
ATOM     13  N   UNL     1      -7.903  -1.597   1.652  1.00  0.00    -0.342 N 
ATOM     14  C   UNL     1      -8.478  -0.644   0.842  1.00  0.00     0.249 C 
ATOM     15  O   UNL     1      -8.647  -0.785  -0.362  1.00  0.00    -0.272 OA
ATOM     16  H   UNL     1      -7.692  -1.275   2.594  1.00  0.00     0.164 HD
BRANCH  14  17
ATOM     17  C   UNL     1      -8.909   0.618   1.620  1.00  0.00     0.207 C 
BRANCH  17  18
ATOM     18  C   UNL     1     -10.088   0.300   2.546  1.00  0.00     0.077 C 
BRANCH  18  19
ATOM     19  C   UNL     1      -9.679   0.313   4.001  1.00  0.00    -0.043 A 
ATOM     20  C   UNL     1      -8.115   0.955   5.741  1.00  0.00     0.083 A 
ATOM     21  C   UNL     1      -8.516   0.987   4.405  1.00  0.00     0.028 A 
ATOM     22  C   UNL     1      -8.870   0.251   6.680  1.00  0.00     0.134 A 
ATOM     23  C   UNL     1     -10.024  -0.420   6.294  1.00  0.00     0.048 A 
ATOM     24  C   UNL     1     -10.427  -0.392   4.957  1.00  0.00     0.008 A 
ATOM     25  Cl  UNL     1      -6.682   1.788   6.217  1.00  0.00    -0.080 Cl
BRANCH  22  26
ATOM     26  O   UNL     1      -8.511   0.183   7.999  1.00  0.00    -0.506 OA
ATOM     27  H   UNL     1      -8.954  -0.603   8.369  1.00  0.00     0.293 HD
ENDBRANCH  22  26
ENDBRANCH  18  19
ENDBRANCH  17  18
BRANCH  17  28
ATOM     28  O   UNL     1      -9.278   1.678   0.724  1.00  0.00    -0.383 OA
ATOM     29  H   UNL     1      -8.803   1.499  -0.119  1.00  0.00     0.211 HD
ENDBRANCH  17  28
ENDBRANCH  14  17
ENDBRANCH  12  13
BRANCH  12  30
ATOM     30  C   UNL     1      -8.216  -4.082   1.733  1.00  0.00     0.018 C 
ATOM     31  C   UNL     1      -8.456  -5.122   0.627  1.00  0.00     0.010 C 
BRANCH  30  32
ATOM     32  C   UNL     1      -9.563  -3.666   2.373  1.00  0.00     0.002 C 
ATOM     33  C   UNL     1      -9.691  -3.951   3.864  1.00  0.00     0.004 C 
ENDBRANCH  30  32
ENDBRANCH  12  30
ENDBRANCH  10  12
ENDBRANCH   1  10
BRANCH   5  34
ATOM     34  C   UNL     1      -3.722  -0.980   0.104  1.00  0.00     0.242 C 
ATOM     35  O   UNL     1      -3.396  -0.206  -0.795  1.00  0.00    -0.273 OA
ATOM     36  N   UNL     1      -3.017  -2.130   0.381  1.00  0.00    -0.354 N 
ATOM     37  H   UNL     1      -3.403  -2.793   1.054  1.00  0.00     0.163 HD
BRANCH  36  38
ATOM     38  C   UNL     1      -1.703  -2.383  -0.172  1.00  0.00     0.116 C 
BRANCH  38  39
ATOM     39  C   UNL     1      -0.633  -2.061   0.869  1.00  0.00     0.023 C 
BRANCH  39  40
ATOM     40  C   UNL     1       0.779  -2.305   0.348  1.00  0.00     0.026 C 
BRANCH  40  41
ATOM     41  C   UNL     1       0.887  -1.921  -1.128  1.00  0.00     0.146 C 
BRANCH  41  42
ATOM     42  N   UNL     1       1.925  -0.913  -1.300  1.00  0.00    -0.254 NA
ATOM     43  C   UNL     1       2.786  -1.046  -2.238  1.00  0.00     0.185 C 
ATOM     44  N   UNL     1       2.917  -2.015  -3.162  1.00  0.00    -0.370 N 
ATOM     45  N   UNL     1       3.738  -0.108  -2.377  1.00  0.00    -0.370 N 
ATOM     46  H   UNL     1       3.775  -2.120  -3.677  1.00  0.00     0.159 HD
ATOM     47  H   UNL     1       2.271  -2.797  -3.210  1.00  0.00     0.159 HD
ATOM     48  H   UNL     1       3.706   0.664  -1.725  1.00  0.00     0.159 HD
ATOM     49  H   UNL     1       4.290  -0.013  -3.211  1.00  0.00     0.159 HD
ENDBRANCH  41  42
ENDBRANCH  40  41
ENDBRANCH  39  40
ENDBRANCH  38  39
ENDBRANCH  36  38
ENDBRANCH   5  34
BRANCH   8  50
ATOM     50  O   UNL     1      -1.596  -1.332   4.335  1.00  0.00    -0.245 OA
BRANCH  50  51
ATOM     51  S   UNL     1      -0.200  -1.650   5.105  1.00  0.00     0.397 S 
ATOM     52  O   UNL     1       0.196  -0.457   5.821  1.00  0.00    -0.169 OA
ATOM     53  O   UNL     1       0.707  -2.333   4.206  1.00  0.00    -0.169 OA
BRANCH  51  54
ATOM     54  O   UNL     1      -0.668  -2.700   6.230  1.00  0.00    -0.264 OA
ATOM     55  H   UNL     1      -1.583  -2.470   6.490  1.00  0.00     0.236 HD
ENDBRANCH  51  54
ENDBRANCH  50  51
ENDBRANCH   8  50
TORSDOF 19
ENDMDL
MODEL 24
REMARK VINA RESULT:    -6.182      4.717      9.960
REMARK INTER + INTRA:         -16.334
REMARK INTER:                 -13.808
REMARK INTRA:                  -2.525
REMARK UNBOUND:                -3.827
REMARK SMILES CC[C@@H](C)[C@@H](NC(=O)[C@@H](O)Cc1ccc(O)c(Cl)c1)C(=O)N1[C@H](C(=O)NCCCCN=C(N)N)C[C@H]2CC[C@H](OS(=O)(=O)O)C[C@@H]21
REMARK SMILES IDX 22 1 36 2 46 3 35 4 23 5 45 6 37 7 39 8 38 9 20 10 21 11
REMARK SMILES IDX 5 12 6 13 7 14 8 15 9 17 11 18 12 19 17 20 19 21 15 22 14 23
REMARK SMILES IDX 13 24 18 25 16 26 10 28 3 30 4 31 2 32 1 33 24 34 25 35
REMARK SMILES IDX 26 36 27 38 28 39 29 40 30 41 31 42 32 43 33 44 34 45 40 50
REMARK SMILES IDX 41 51 42 52 43 53 44 54
REMARK H PARENT 6 16 16 27 10 29 26 37 33 46 33 47 34 48 34 49 44 55
ROOT
ATOM      1  N   UNL     1      -3.639   0.875  -4.085  1.00  0.00    -0.326 N 
ATOM      2  C   UNL     1      -5.271   2.458  -4.697  1.00  0.00     0.014 C 
ATOM      3  C   UNL     1      -4.399   1.329  -5.254  1.00  0.00     0.091 C 
ATOM      4  C   UNL     1      -4.371   3.088  -3.645  1.00  0.00     0.041 C 
ATOM      5  C   UNL     1      -3.827   1.822  -2.958  1.00  0.00     0.175 C 
ATOM      6  C   UNL     1      -5.305   0.325  -5.964  1.00  0.00     0.059 C 
ATOM      7  C   UNL     1      -5.822   3.320  -5.816  1.00  0.00     0.008 C 
ATOM      8  C   UNL     1      -6.551   0.964  -6.614  1.00  0.00     0.143 C 
ATOM      9  C   UNL     1      -6.318   2.442  -6.985  1.00  0.00     0.034 C 
ENDROOT
BRANCH   1  10
ATOM     10  C   UNL     1      -2.676  -0.114  -3.983  1.00  0.00     0.246 C 
ATOM     11  O   UNL     1      -3.033  -1.293  -3.887  1.00  0.00    -0.272 OA
BRANCH  10  12
ATOM     12  C   UNL     1      -1.170   0.274  -4.032  1.00  0.00     0.174 C 
BRANCH  12  13
ATOM     13  N   UNL     1      -0.845   0.847  -5.338  1.00  0.00    -0.342 N 
ATOM     14  C   UNL     1      -0.715   2.192  -5.601  1.00  0.00     0.249 C 
ATOM     15  O   UNL     1      -0.830   3.067  -4.752  1.00  0.00    -0.272 OA
ATOM     16  H   UNL     1      -0.874   0.259  -6.167  1.00  0.00     0.164 HD
BRANCH  14  17
ATOM     17  C   UNL     1      -0.384   2.481  -7.081  1.00  0.00     0.207 C 
BRANCH  17  18
ATOM     18  C   UNL     1       0.832   3.406  -7.188  1.00  0.00     0.077 C 
BRANCH  18  19
ATOM     19  C   UNL     1       2.126   2.626  -7.263  1.00  0.00    -0.043 A 
ATOM     20  C   UNL     1       4.366   2.185  -6.442  1.00  0.00     0.083 A 
ATOM     21  C   UNL     1       3.155   2.871  -6.340  1.00  0.00     0.028 A 
ATOM     22  C   UNL     1       4.557   1.255  -7.463  1.00  0.00     0.134 A 
ATOM     23  C   UNL     1       3.547   1.002  -8.384  1.00  0.00     0.048 A 
ATOM     24  C   UNL     1       2.334   1.688  -8.286  1.00  0.00     0.008 A 
ATOM     25  Cl  UNL     1       5.618   2.501  -5.299  1.00  0.00    -0.080 Cl
BRANCH  22  26
ATOM     26  O   UNL     1       5.731   0.566  -7.610  1.00  0.00    -0.506 OA
ATOM     27  H   UNL     1       6.413   1.222  -7.845  1.00  0.00     0.293 HD
ENDBRANCH  22  26
ENDBRANCH  18  19
ENDBRANCH  17  18
BRANCH  17  28
ATOM     28  O   UNL     1      -1.502   3.084  -7.752  1.00  0.00    -0.383 OA
ATOM     29  H   UNL     1      -1.457   2.777  -8.686  1.00  0.00     0.211 HD
ENDBRANCH  17  28
ENDBRANCH  14  17
ENDBRANCH  12  13
BRANCH  12  30
ATOM     30  C   UNL     1      -0.234  -0.905  -3.653  1.00  0.00     0.018 C 
ATOM     31  C   UNL     1       0.112  -0.868  -2.156  1.00  0.00     0.010 C 
BRANCH  30  32
ATOM     32  C   UNL     1       1.063  -0.965  -4.497  1.00  0.00     0.002 C 
ATOM     33  C   UNL     1       2.254  -0.215  -3.916  1.00  0.00     0.004 C 
ENDBRANCH  30  32
ENDBRANCH  12  30
ENDBRANCH  10  12
ENDBRANCH   1  10
BRANCH   5  34
ATOM     34  C   UNL     1      -4.835   1.253  -1.924  1.00  0.00     0.242 C 
ATOM     35  O   UNL     1      -5.908   0.753  -2.258  1.00  0.00    -0.273 OA
ATOM     36  N   UNL     1      -4.465   1.399  -0.605  1.00  0.00    -0.354 N 
ATOM     37  H   UNL     1      -3.621   1.929  -0.387  1.00  0.00     0.163 HD
BRANCH  36  38
ATOM     38  C   UNL     1      -5.174   0.741   0.473  1.00  0.00     0.116 C 
BRANCH  38  39
ATOM     39  C   UNL     1      -5.686   1.781   1.466  1.00  0.00     0.023 C 
BRANCH  39  40
ATOM     40  C   UNL     1      -5.771   1.237   2.888  1.00  0.00     0.026 C 
BRANCH  40  41
ATOM     41  C   UNL     1      -4.714   0.156   3.119  1.00  0.00     0.146 C 
BRANCH  41  42
ATOM     42  N   UNL     1      -3.848   0.543   4.225  1.00  0.00    -0.254 NA
ATOM     43  C   UNL     1      -2.670   0.049   4.309  1.00  0.00     0.185 C 
ATOM     44  N   UNL     1      -2.039  -0.825   3.504  1.00  0.00    -0.370 N 
ATOM     45  N   UNL     1      -1.889   0.415   5.339  1.00  0.00    -0.370 N 
ATOM     46  H   UNL     1      -1.216  -1.310   3.819  1.00  0.00     0.159 HD
ATOM     47  H   UNL     1      -2.481  -1.195   2.668  1.00  0.00     0.159 HD
ATOM     48  H   UNL     1      -2.287   1.079   5.989  1.00  0.00     0.159 HD
ATOM     49  H   UNL     1      -0.896   0.265   5.348  1.00  0.00     0.159 HD
ENDBRANCH  41  42
ENDBRANCH  40  41
ENDBRANCH  39  40
ENDBRANCH  38  39
ENDBRANCH  36  38
ENDBRANCH   5  34
BRANCH   8  50
ATOM     50  O   UNL     1      -7.662   0.890  -5.721  1.00  0.00    -0.245 OA
BRANCH  50  51
ATOM     51  S   UNL     1      -8.542  -0.476  -5.644  1.00  0.00     0.397 S 
ATOM     52  O   UNL     1      -8.399  -1.024  -4.314  1.00  0.00    -0.169 OA
ATOM     53  O   UNL     1      -8.299  -1.278  -6.825  1.00  0.00    -0.169 OA
BRANCH  51  54
ATOM     54  O   UNL     1     -10.045   0.087  -5.727  1.00  0.00    -0.264 OA
ATOM     55  H   UNL     1     -10.590  -0.583  -6.188  1.00  0.00     0.236 HD
ENDBRANCH  51  54
ENDBRANCH  50  51
ENDBRANCH   8  50
TORSDOF 19
ENDMDL
MODEL 25
REMARK VINA RESULT:    -6.176      6.567     10.171
REMARK INTER + INTRA:         -16.322
REMARK INTER:                 -12.110
REMARK INTRA:                  -4.212
REMARK UNBOUND:                -3.827
REMARK SMILES CC[C@@H](C)[C@@H](NC(=O)[C@@H](O)Cc1ccc(O)c(Cl)c1)C(=O)N1[C@H](C(=O)NCCCCN=C(N)N)C[C@H]2CC[C@H](OS(=O)(=O)O)C[C@@H]21
REMARK SMILES IDX 22 1 36 2 46 3 35 4 23 5 45 6 37 7 39 8 38 9 20 10 21 11
REMARK SMILES IDX 5 12 6 13 7 14 8 15 9 17 11 18 12 19 17 20 19 21 15 22 14 23
REMARK SMILES IDX 13 24 18 25 16 26 10 28 3 30 4 31 2 32 1 33 24 34 25 35
REMARK SMILES IDX 26 36 27 38 28 39 29 40 30 41 31 42 32 43 33 44 34 45 40 50
REMARK SMILES IDX 41 51 42 52 43 53 44 54
REMARK H PARENT 6 16 16 27 10 29 26 37 33 46 33 47 34 48 34 49 44 55
ROOT
ATOM      1  N   UNL     1      -4.370  -0.762  -5.365  1.00  0.00    -0.326 N 
ATOM      2  C   UNL     1      -3.914   1.109  -4.011  1.00  0.00     0.014 C 
ATOM      3  C   UNL     1      -3.899   0.623  -5.463  1.00  0.00     0.091 C 
ATOM      4  C   UNL     1      -3.531  -0.142  -3.235  1.00  0.00     0.041 C 
ATOM      5  C   UNL     1      -4.415  -1.184  -3.944  1.00  0.00     0.175 C 
ATOM      6  C   UNL     1      -4.707   1.605  -6.309  1.00  0.00     0.059 C 
ATOM      7  C   UNL     1      -3.083   2.367  -3.851  1.00  0.00     0.008 C 
ATOM      8  C   UNL     1      -4.644   3.061  -5.801  1.00  0.00     0.143 C 
ATOM      9  C   UNL     1      -3.349   3.345  -5.014  1.00  0.00     0.034 C 
ENDROOT
BRANCH   1  10
ATOM     10  C   UNL     1      -4.544  -1.712  -6.357  1.00  0.00     0.246 C 
ATOM     11  O   UNL     1      -3.772  -2.675  -6.410  1.00  0.00    -0.272 OA
BRANCH  10  12
ATOM     12  C   UNL     1      -5.730  -1.571  -7.355  1.00  0.00     0.174 C 
BRANCH  12  13
ATOM     13  N   UNL     1      -6.992  -1.484  -6.620  1.00  0.00    -0.342 N 
ATOM     14  C   UNL     1      -7.914  -0.470  -6.749  1.00  0.00     0.249 C 
ATOM     15  O   UNL     1      -7.789   0.470  -7.525  1.00  0.00    -0.272 OA
ATOM     16  H   UNL     1      -7.160  -2.105  -5.832  1.00  0.00     0.164 HD
BRANCH  14  17
ATOM     17  C   UNL     1      -9.136  -0.654  -5.824  1.00  0.00     0.207 C 
BRANCH  17  18
ATOM     18  C   UNL     1     -10.407  -0.867  -6.653  1.00  0.00     0.077 C 
BRANCH  18  19
ATOM     19  C   UNL     1     -10.389  -2.194  -7.378  1.00  0.00    -0.043 A 
ATOM     20  C   UNL     1     -10.086  -3.472  -9.418  1.00  0.00     0.083 A 
ATOM     21  C   UNL     1     -10.054  -2.252  -8.740  1.00  0.00     0.028 A 
ATOM     22  C   UNL     1     -10.454  -4.636  -8.743  1.00  0.00     0.134 A 
ATOM     23  C   UNL     1     -10.789  -4.593  -7.394  1.00  0.00     0.048 A 
ATOM     24  C   UNL     1     -10.759  -3.374  -6.713  1.00  0.00     0.008 A 
ATOM     25  Cl  UNL     1      -9.671  -3.523 -11.091  1.00  0.00    -0.080 Cl
BRANCH  22  26
ATOM     26  O   UNL     1     -10.511  -5.853  -9.368  1.00  0.00    -0.506 OA
ATOM     27  H   UNL     1     -10.133  -6.504  -8.748  1.00  0.00     0.293 HD
ENDBRANCH  22  26
ENDBRANCH  18  19
ENDBRANCH  17  18
BRANCH  17  28
ATOM     28  O   UNL     1      -9.312   0.485  -4.966  1.00  0.00    -0.383 OA
ATOM     29  H   UNL     1      -9.903   0.188  -4.238  1.00  0.00     0.211 HD
ENDBRANCH  17  28
ENDBRANCH  14  17
ENDBRANCH  12  13
BRANCH  12  30
ATOM     30  C   UNL     1      -5.747  -2.690  -8.430  1.00  0.00     0.018 C 
ATOM     31  C   UNL     1      -6.160  -2.127  -9.799  1.00  0.00     0.010 C 
BRANCH  30  32
ATOM     32  C   UNL     1      -6.644  -3.896  -8.058  1.00  0.00     0.002 C 
ATOM     33  C   UNL     1      -6.715  -5.001  -9.103  1.00  0.00     0.004 C 
ENDBRANCH  30  32
ENDBRANCH  12  30
ENDBRANCH  10  12
ENDBRANCH   1  10
BRANCH   5  34
ATOM     34  C   UNL     1      -5.872  -1.157  -3.408  1.00  0.00     0.242 C 
ATOM     35  O   UNL     1      -6.633  -0.213  -3.618  1.00  0.00    -0.273 OA
ATOM     36  N   UNL     1      -6.232  -2.240  -2.637  1.00  0.00    -0.354 N 
ATOM     37  H   UNL     1      -5.521  -2.932  -2.399  1.00  0.00     0.163 HD
BRANCH  36  38
ATOM     38  C   UNL     1      -7.603  -2.484  -2.239  1.00  0.00     0.116 C 
BRANCH  38  39
ATOM     39  C   UNL     1      -8.356  -3.178  -3.372  1.00  0.00     0.023 C 
BRANCH  39  40
ATOM     40  C   UNL     1      -9.864  -3.191  -3.148  1.00  0.00     0.026 C 
BRANCH  40  41
ATOM     41  C   UNL     1     -10.190  -3.153  -1.655  1.00  0.00     0.146 C 
BRANCH  41  42
ATOM     42  N   UNL     1     -11.033  -4.290  -1.306  1.00  0.00    -0.254 NA
ATOM     43  C   UNL     1     -10.526  -5.286  -0.682  1.00  0.00     0.185 C 
ATOM     44  N   UNL     1      -9.266  -5.491  -0.258  1.00  0.00    -0.370 N 
ATOM     45  N   UNL     1     -11.319  -6.325  -0.374  1.00  0.00    -0.370 N 
ATOM     46  H   UNL     1      -8.954  -6.412  -0.003  1.00  0.00     0.159 HD
ATOM     47  H   UNL     1      -8.537  -4.797  -0.397  1.00  0.00     0.159 HD
ATOM     48  H   UNL     1     -12.288  -6.248  -0.651  1.00  0.00     0.159 HD
ATOM     49  H   UNL     1     -11.065  -7.020   0.306  1.00  0.00     0.159 HD
ENDBRANCH  41  42
ENDBRANCH  40  41
ENDBRANCH  39  40
ENDBRANCH  38  39
ENDBRANCH  36  38
ENDBRANCH   5  34
BRANCH   8  50
ATOM     50  O   UNL     1      -5.759   3.332  -4.950  1.00  0.00    -0.245 OA
BRANCH  50  51
ATOM     51  S   UNL     1      -6.340   4.847  -4.846  1.00  0.00     0.397 S 
ATOM     52  O   UNL     1      -7.740   4.766  -4.496  1.00  0.00    -0.169 OA
ATOM     53  O   UNL     1      -5.885   5.622  -5.981  1.00  0.00    -0.169 OA
BRANCH  51  54
ATOM     54  O   UNL     1      -5.593   5.403  -3.535  1.00  0.00    -0.264 OA
ATOM     55  H   UNL     1      -5.256   6.299  -3.741  1.00  0.00     0.236 HD
ENDBRANCH  51  54
ENDBRANCH  50  51
ENDBRANCH   8  50
TORSDOF 19
ENDMDL
MODEL 26
REMARK VINA RESULT:    -6.161     13.302     18.171
REMARK INTER + INTRA:         -16.291
REMARK INTER:                 -13.290
REMARK INTRA:                  -3.001
REMARK UNBOUND:                -3.827
REMARK SMILES CC[C@@H](C)[C@@H](NC(=O)[C@@H](O)Cc1ccc(O)c(Cl)c1)C(=O)N1[C@H](C(=O)NCCCCN=C(N)N)C[C@H]2CC[C@H](OS(=O)(=O)O)C[C@@H]21
REMARK SMILES IDX 22 1 36 2 46 3 35 4 23 5 45 6 37 7 39 8 38 9 20 10 21 11
REMARK SMILES IDX 5 12 6 13 7 14 8 15 9 17 11 18 12 19 17 20 19 21 15 22 14 23
REMARK SMILES IDX 13 24 18 25 16 26 10 28 3 30 4 31 2 32 1 33 24 34 25 35
REMARK SMILES IDX 26 36 27 38 28 39 29 40 30 41 31 42 32 43 33 44 34 45 40 50
REMARK SMILES IDX 41 51 42 52 43 53 44 54
REMARK H PARENT 6 16 16 27 10 29 26 37 33 46 33 47 34 48 34 49 44 55
ROOT
ATOM      1  N   UNL     1     -12.434  -0.726   2.447  1.00  0.00    -0.326 N 
ATOM      2  C   UNL     1     -14.487   0.418   2.593  1.00  0.00     0.014 C 
ATOM      3  C   UNL     1     -13.446  -0.096   1.594  1.00  0.00     0.091 C 
ATOM      4  C   UNL     1     -13.635   0.821   3.787  1.00  0.00     0.041 C 
ATOM      5  C   UNL     1     -12.691  -0.393   3.870  1.00  0.00     0.175 C 
ATOM      6  C   UNL     1     -14.158  -0.961   0.556  1.00  0.00     0.059 C 
ATOM      7  C   UNL     1     -15.396   1.445   1.948  1.00  0.00     0.008 C 
ATOM      8  C   UNL     1     -15.607  -0.515   0.264  1.00  0.00     0.143 C 
ATOM      9  C   UNL     1     -15.816   0.989   0.535  1.00  0.00     0.034 C 
ENDROOT
BRANCH   1  10
ATOM     10  C   UNL     1     -11.246  -1.348   2.104  1.00  0.00     0.246 C 
ATOM     11  O   UNL     1     -11.279  -2.490   1.636  1.00  0.00    -0.272 OA
BRANCH  10  12
ATOM     12  C   UNL     1      -9.902  -0.581   2.274  1.00  0.00     0.174 C 
BRANCH  12  13
ATOM     13  N   UNL     1      -9.453  -0.664   3.663  1.00  0.00    -0.342 N 
ATOM     14  C   UNL     1      -8.200  -1.069   4.066  1.00  0.00     0.249 C 
ATOM     15  O   UNL     1      -7.303  -1.382   3.293  1.00  0.00    -0.272 OA
ATOM     16  H   UNL     1     -10.131  -0.588   4.417  1.00  0.00     0.164 HD
BRANCH  14  17
ATOM     17  C   UNL     1      -8.038  -1.067   5.601  1.00  0.00     0.207 C 
BRANCH  17  18
ATOM     18  C   UNL     1      -9.062  -0.128   6.246  1.00  0.00     0.077 C 
BRANCH  18  19
ATOM     19  C   UNL     1      -9.847  -0.818   7.339  1.00  0.00    -0.043 A 
ATOM     20  C   UNL     1     -10.745  -0.836   9.592  1.00  0.00     0.083 A 
ATOM     21  C   UNL     1     -10.063  -0.177   8.569  1.00  0.00     0.028 A 
ATOM     22  C   UNL     1     -11.212  -2.136   9.396  1.00  0.00     0.134 A 
ATOM     23  C   UNL     1     -11.005  -2.782   8.183  1.00  0.00     0.048 A 
ATOM     24  C   UNL     1     -10.322  -2.126   7.157  1.00  0.00     0.008 A 
ATOM     25  Cl  UNL     1     -11.000  -0.032  11.096  1.00  0.00    -0.080 Cl
BRANCH  22  26
ATOM     26  O   UNL     1     -11.877  -2.826  10.374  1.00  0.00    -0.506 OA
ATOM     27  H   UNL     1     -11.392  -2.671  11.205  1.00  0.00     0.293 HD
ENDBRANCH  22  26
ENDBRANCH  18  19
ENDBRANCH  17  18
BRANCH  17  28
ATOM     28  O   UNL     1      -6.713  -0.661   5.981  1.00  0.00    -0.383 OA
ATOM     29  H   UNL     1      -6.805   0.239   6.367  1.00  0.00     0.211 HD
ENDBRANCH  17  28
ENDBRANCH  14  17
ENDBRANCH  12  13
BRANCH  12  30
ATOM     30  C   UNL     1      -9.977   0.883   1.763  1.00  0.00     0.018 C 
ATOM     31  C   UNL     1      -9.074   1.080   0.535  1.00  0.00     0.010 C 
BRANCH  30  32
ATOM     32  C   UNL     1      -9.642   1.937   2.845  1.00  0.00     0.002 C 
ATOM     33  C   UNL     1      -8.403   2.780   2.571  1.00  0.00     0.004 C 
ENDBRANCH  30  32
ENDBRANCH  12  30
ENDBRANCH  10  12
ENDBRANCH   1  10
BRANCH   5  34
ATOM     34  C   UNL     1     -13.359  -1.587   4.603  1.00  0.00     0.242 C 
ATOM     35  O   UNL     1     -14.043  -1.439   5.615  1.00  0.00    -0.273 OA
ATOM     36  N   UNL     1     -13.087  -2.827   4.069  1.00  0.00    -0.354 N 
ATOM     37  H   UNL     1     -12.417  -2.896   3.302  1.00  0.00     0.163 HD
BRANCH  36  38
ATOM     38  C   UNL     1     -13.792  -4.021   4.489  1.00  0.00     0.116 C 
BRANCH  38  39
ATOM     39  C   UNL     1     -12.859  -4.916   5.301  1.00  0.00     0.023 C 
BRANCH  39  40
ATOM     40  C   UNL     1     -13.618  -5.918   6.164  1.00  0.00     0.026 C 
BRANCH  40  41
ATOM     41  C   UNL     1     -13.252  -5.749   7.639  1.00  0.00     0.146 C 
BRANCH  41  42
ATOM     42  N   UNL     1     -14.459  -5.523   8.423  1.00  0.00    -0.254 NA
ATOM     43  C   UNL     1     -15.041  -6.512   8.989  1.00  0.00     0.185 C 
ATOM     44  N   UNL     1     -14.719  -7.818   8.995  1.00  0.00    -0.370 N 
ATOM     45  N   UNL     1     -16.155  -6.283   9.704  1.00  0.00    -0.370 N 
ATOM     46  H   UNL     1     -15.392  -8.512   9.272  1.00  0.00     0.159 HD
ATOM     47  H   UNL     1     -13.895  -8.166   8.513  1.00  0.00     0.159 HD
ATOM     48  H   UNL     1     -16.463  -5.321   9.758  1.00  0.00     0.159 HD
ATOM     49  H   UNL     1     -16.527  -6.947  10.360  1.00  0.00     0.159 HD
ENDBRANCH  41  42
ENDBRANCH  40  41
ENDBRANCH  39  40
ENDBRANCH  38  39
ENDBRANCH  36  38
ENDBRANCH   5  34
BRANCH   8  50
ATOM     50  O   UNL     1     -16.521  -1.252   1.076  1.00  0.00    -0.245 OA
BRANCH  50  51
ATOM     51  S   UNL     1     -17.841  -1.919   0.398  1.00  0.00     0.397 S 
ATOM     52  O   UNL     1     -17.862  -1.544  -0.998  1.00  0.00    -0.169 OA
ATOM     53  O   UNL     1     -18.987  -1.710   1.258  1.00  0.00    -0.169 OA
BRANCH  51  54
ATOM     54  O   UNL     1     -17.478  -3.485   0.426  1.00  0.00    -0.264 OA
ATOM     55  H   UNL     1     -17.046  -3.706  -0.424  1.00  0.00     0.236 HD
ENDBRANCH  51  54
ENDBRANCH  50  51
ENDBRANCH   8  50
TORSDOF 19
ENDMDL
MODEL 27
REMARK VINA RESULT:    -6.158      3.585      8.191
REMARK INTER + INTRA:         -16.285
REMARK INTER:                 -12.239
REMARK INTRA:                  -4.046
REMARK UNBOUND:                -3.827
REMARK SMILES CC[C@@H](C)[C@@H](NC(=O)[C@@H](O)Cc1ccc(O)c(Cl)c1)C(=O)N1[C@H](C(=O)NCCCCN=C(N)N)C[C@H]2CC[C@H](OS(=O)(=O)O)C[C@@H]21
REMARK SMILES IDX 22 1 36 2 46 3 35 4 23 5 45 6 37 7 39 8 38 9 20 10 21 11
REMARK SMILES IDX 5 12 6 13 7 14 8 15 9 17 11 18 12 19 17 20 19 21 15 22 14 23
REMARK SMILES IDX 13 24 18 25 16 26 10 28 3 30 4 31 2 32 1 33 24 34 25 35
REMARK SMILES IDX 26 36 27 38 28 39 29 40 30 41 31 42 32 43 33 44 34 45 40 50
REMARK SMILES IDX 41 51 42 52 43 53 44 54
REMARK H PARENT 6 16 16 27 10 29 26 37 33 46 33 47 34 48 34 49 44 55
ROOT
ATOM      1  N   UNL     1      -1.509  -2.143  -5.971  1.00  0.00    -0.326 N 
ATOM      2  C   UNL     1      -2.937  -1.913  -4.114  1.00  0.00     0.014 C 
ATOM      3  C   UNL     1      -1.815  -2.782  -4.688  1.00  0.00     0.091 C 
ATOM      4  C   UNL     1      -3.708  -1.497  -5.358  1.00  0.00     0.041 C 
ATOM      5  C   UNL     1      -2.540  -1.125  -6.290  1.00  0.00     0.175 C 
ATOM      6  C   UNL     1      -0.702  -2.883  -3.646  1.00  0.00     0.059 C 
ATOM      7  C   UNL     1      -3.664  -2.634  -2.996  1.00  0.00     0.008 C 
ATOM      8  C   UNL     1      -1.209  -2.837  -2.189  1.00  0.00     0.143 C 
ATOM      9  C   UNL     1      -2.660  -3.344  -2.064  1.00  0.00     0.034 C 
ENDROOT
BRANCH   1  10
ATOM     10  C   UNL     1      -0.589  -2.499  -6.943  1.00  0.00     0.246 C 
ATOM     11  O   UNL     1      -0.989  -2.764  -8.082  1.00  0.00    -0.272 OA
BRANCH  10  12
ATOM     12  C   UNL     1       0.927  -2.516  -6.594  1.00  0.00     0.174 C 
BRANCH  12  13
ATOM     13  N   UNL     1       1.429  -1.147  -6.483  1.00  0.00    -0.342 N 
ATOM     14  C   UNL     1       2.105  -0.639  -5.396  1.00  0.00     0.249 C 
ATOM     15  O   UNL     1       2.389  -1.294  -4.402  1.00  0.00    -0.272 OA
ATOM     16  H   UNL     1       1.135  -0.446  -7.158  1.00  0.00     0.164 HD
BRANCH  14  17
ATOM     17  C   UNL     1       2.488   0.846  -5.574  1.00  0.00     0.207 C 
BRANCH  17  18
ATOM     18  C   UNL     1       3.065   1.086  -6.973  1.00  0.00     0.077 C 
BRANCH  18  19
ATOM     19  C   UNL     1       2.460   2.307  -7.629  1.00  0.00    -0.043 A 
ATOM     20  C   UNL     1       2.224   3.758  -9.558  1.00  0.00     0.083 A 
ATOM     21  C   UNL     1       2.745   2.605  -8.971  1.00  0.00     0.028 A 
ATOM     22  C   UNL     1       1.420   4.620  -8.812  1.00  0.00     0.134 A 
ATOM     23  C   UNL     1       1.130   4.337  -7.482  1.00  0.00     0.048 A 
ATOM     24  C   UNL     1       1.651   3.184  -6.891  1.00  0.00     0.008 A 
ATOM     25  Cl  UNL     1       2.586   4.108 -11.208  1.00  0.00    -0.080 Cl
BRANCH  22  26
ATOM     26  O   UNL     1       0.896   5.768  -9.341  1.00  0.00    -0.506 OA
ATOM     27  H   UNL     1       1.423   6.507  -8.984  1.00  0.00     0.293 HD
ENDBRANCH  22  26
ENDBRANCH  18  19
ENDBRANCH  17  18
BRANCH  17  28
ATOM     28  O   UNL     1       3.448   1.255  -4.586  1.00  0.00    -0.383 OA
ATOM     29  H   UNL     1       2.941   1.387  -3.753  1.00  0.00     0.211 HD
ENDBRANCH  17  28
ENDBRANCH  14  17
ENDBRANCH  12  13
BRANCH  12  30
ATOM     30  C   UNL     1       1.761  -3.374  -7.583  1.00  0.00     0.018 C 
ATOM     31  C   UNL     1       2.938  -4.050  -6.862  1.00  0.00     0.010 C 
BRANCH  30  32
ATOM     32  C   UNL     1       2.273  -2.584  -8.812  1.00  0.00     0.002 C 
ATOM     33  C   UNL     1       3.786  -2.567  -8.991  1.00  0.00     0.004 C 
ENDBRANCH  30  32
ENDBRANCH  12  30
ENDBRANCH  10  12
ENDBRANCH   1  10
BRANCH   5  34
ATOM     34  C   UNL     1      -2.009   0.305  -5.999  1.00  0.00     0.242 C 
ATOM     35  O   UNL     1      -0.898   0.682  -6.371  1.00  0.00    -0.273 OA
ATOM     36  N   UNL     1      -2.848   1.099  -5.250  1.00  0.00    -0.354 N 
ATOM     37  H   UNL     1      -3.702   0.691  -4.869  1.00  0.00     0.163 HD
BRANCH  36  38
ATOM     38  C   UNL     1      -2.612   2.517  -5.069  1.00  0.00     0.116 C 
BRANCH  38  39
ATOM     39  C   UNL     1      -3.871   3.186  -4.522  1.00  0.00     0.023 C 
BRANCH  39  40
ATOM     40  C   UNL     1      -5.141   2.429  -4.895  1.00  0.00     0.026 C 
BRANCH  40  41
ATOM     41  C   UNL     1      -5.825   1.871  -3.647  1.00  0.00     0.146 C 
BRANCH  41  42
ATOM     42  N   UNL     1      -4.908   0.991  -2.935  1.00  0.00    -0.254 NA
ATOM     43  C   UNL     1      -4.511   1.307  -1.759  1.00  0.00     0.185 C 
ATOM     44  N   UNL     1      -4.809   2.381  -1.005  1.00  0.00    -0.370 N 
ATOM     45  N   UNL     1      -3.662   0.484  -1.122  1.00  0.00    -0.370 N 
ATOM     46  H   UNL     1      -4.241   2.623  -0.211  1.00  0.00     0.159 HD
ATOM     47  H   UNL     1      -5.449   3.099  -1.330  1.00  0.00     0.159 HD
ATOM     48  H   UNL     1      -3.393  -0.355  -1.618  1.00  0.00     0.159 HD
ATOM     49  H   UNL     1      -3.496   0.535  -0.132  1.00  0.00     0.159 HD
ENDBRANCH  41  42
ENDBRANCH  40  41
ENDBRANCH  39  40
ENDBRANCH  38  39
ENDBRANCH  36  38
ENDBRANCH   5  34
BRANCH   8  50
ATOM     50  O   UNL     1      -1.152  -1.499  -1.692  1.00  0.00    -0.245 OA
BRANCH  50  51
ATOM     51  S   UNL     1      -0.745  -1.236  -0.139  1.00  0.00     0.397 S 
ATOM     52  O   UNL     1       0.389  -2.076   0.174  1.00  0.00    -0.169 OA
ATOM     53  O   UNL     1      -1.937  -1.234   0.683  1.00  0.00    -0.169 OA
BRANCH  51  54
ATOM     54  O   UNL     1      -0.175   0.267  -0.191  1.00  0.00    -0.264 OA
ATOM     55  H   UNL     1      -0.941   0.877  -0.168  1.00  0.00     0.236 HD
ENDBRANCH  51  54
ENDBRANCH  50  51
ENDBRANCH   8  50
TORSDOF 19
ENDMDL
MODEL 28
REMARK VINA RESULT:    -6.151      4.617      8.582
REMARK INTER + INTRA:         -16.271
REMARK INTER:                 -11.805
REMARK INTRA:                  -4.466
REMARK UNBOUND:                -3.827
REMARK SMILES CC[C@@H](C)[C@@H](NC(=O)[C@@H](O)Cc1ccc(O)c(Cl)c1)C(=O)N1[C@H](C(=O)NCCCCN=C(N)N)C[C@H]2CC[C@H](OS(=O)(=O)O)C[C@@H]21
REMARK SMILES IDX 22 1 36 2 46 3 35 4 23 5 45 6 37 7 39 8 38 9 20 10 21 11
REMARK SMILES IDX 5 12 6 13 7 14 8 15 9 17 11 18 12 19 17 20 19 21 15 22 14 23
REMARK SMILES IDX 13 24 18 25 16 26 10 28 3 30 4 31 2 32 1 33 24 34 25 35
REMARK SMILES IDX 26 36 27 38 28 39 29 40 30 41 31 42 32 43 33 44 34 45 40 50
REMARK SMILES IDX 41 51 42 52 43 53 44 54
REMARK H PARENT 6 16 16 27 10 29 26 37 33 46 33 47 34 48 34 49 44 55
ROOT
ATOM      1  N   UNL     1      -0.644  -3.201 -10.110  1.00  0.00    -0.326 N 
ATOM      2  C   UNL     1      -0.856  -4.749  -8.349  1.00  0.00     0.014 C 
ATOM      3  C   UNL     1      -0.327  -4.593  -9.778  1.00  0.00     0.091 C 
ATOM      4  C   UNL     1      -2.091  -3.861  -8.350  1.00  0.00     0.041 C 
ATOM      5  C   UNL     1      -1.535  -2.622  -9.075  1.00  0.00     0.175 C 
ATOM      6  C   UNL     1       1.137  -5.029  -9.802  1.00  0.00     0.059 C 
ATOM      7  C   UNL     1      -0.993  -6.213  -7.978  1.00  0.00     0.008 C 
ATOM      8  C   UNL     1       1.469  -6.146  -8.789  1.00  0.00     0.143 C 
ATOM      9  C   UNL     1       0.237  -7.013  -8.457  1.00  0.00     0.034 C 
ENDROOT
BRANCH   1  10
ATOM     10  C   UNL     1      -0.420  -2.495 -11.280  1.00  0.00     0.246 C 
ATOM     11  O   UNL     1      -1.340  -2.375 -12.096  1.00  0.00    -0.272 OA
BRANCH  10  12
ATOM     12  C   UNL     1       0.968  -1.833 -11.522  1.00  0.00     0.174 C 
BRANCH  12  13
ATOM     13  N   UNL     1       0.986  -0.489 -10.946  1.00  0.00    -0.342 N 
ATOM     14  C   UNL     1       1.997   0.021 -10.161  1.00  0.00     0.249 C 
ATOM     15  O   UNL     1       3.017  -0.594  -9.879  1.00  0.00    -0.272 OA
ATOM     16  H   UNL     1       0.142   0.078 -10.962  1.00  0.00     0.164 HD
BRANCH  14  17
ATOM     17  C   UNL     1       1.715   1.463  -9.690  1.00  0.00     0.207 C 
BRANCH  17  18
ATOM     18  C   UNL     1       2.613   2.455 -10.436  1.00  0.00     0.077 C 
BRANCH  18  19
ATOM     19  C   UNL     1       2.022   2.855 -11.770  1.00  0.00    -0.043 A 
ATOM     20  C   UNL     1       2.253   3.162 -14.165  1.00  0.00     0.083 A 
ATOM     21  C   UNL     1       2.784   2.745 -12.943  1.00  0.00     0.028 A 
ATOM     22  C   UNL     1       0.963   3.690 -14.222  1.00  0.00     0.134 A 
ATOM     23  C   UNL     1       0.198   3.805 -13.067  1.00  0.00     0.048 A 
ATOM     24  C   UNL     1       0.727   3.391 -11.843  1.00  0.00     0.008 A 
ATOM     25  Cl  UNL     1       3.204   3.019 -15.596  1.00  0.00    -0.080 Cl
BRANCH  22  26
ATOM     26  O   UNL     1       0.404   4.122 -15.394  1.00  0.00    -0.506 OA
ATOM     27  H   UNL     1      -0.443   3.648 -15.492  1.00  0.00     0.293 HD
ENDBRANCH  22  26
ENDBRANCH  18  19
ENDBRANCH  17  18
BRANCH  17  28
ATOM     28  O   UNL     1       1.929   1.597  -8.276  1.00  0.00    -0.383 OA
ATOM     29  H   UNL     1       1.883   2.561  -8.084  1.00  0.00     0.211 HD
ENDBRANCH  17  28
ENDBRANCH  14  17
ENDBRANCH  12  13
BRANCH  12  30
ATOM     30  C   UNL     1       1.383  -1.842 -13.018  1.00  0.00     0.018 C 
ATOM     31  C   UNL     1       2.847  -2.284 -13.175  1.00  0.00     0.010 C 
BRANCH  30  32
ATOM     32  C   UNL     1       1.157  -0.488 -13.734  1.00  0.00     0.002 C 
ATOM     33  C   UNL     1       1.473  -0.478 -15.224  1.00  0.00     0.004 C 
ENDBRANCH  30  32
ENDBRANCH  12  30
ENDBRANCH  10  12
ENDBRANCH   1  10
BRANCH   5  34
ATOM     34  C   UNL     1      -0.735  -1.706  -8.110  1.00  0.00     0.242 C 
ATOM     35  O   UNL     1       0.485  -1.799  -7.975  1.00  0.00    -0.273 OA
ATOM     36  N   UNL     1      -1.495  -0.821  -7.378  1.00  0.00    -0.354 N 
ATOM     37  H   UNL     1      -2.512  -0.874  -7.446  1.00  0.00     0.163 HD
BRANCH  36  38
ATOM     38  C   UNL     1      -0.902   0.245  -6.598  1.00  0.00     0.116 C 
BRANCH  38  39
ATOM     39  C   UNL     1      -1.009  -0.081  -5.110  1.00  0.00     0.023 C 
BRANCH  39  40
ATOM     40  C   UNL     1       0.328   0.048  -4.387  1.00  0.00     0.026 C 
BRANCH  40  41
ATOM     41  C   UNL     1       0.656  -1.233  -3.621  1.00  0.00     0.146 C 
BRANCH  41  42
ATOM     42  N   UNL     1       0.832  -2.336  -4.557  1.00  0.00    -0.254 NA
ATOM     43  C   UNL     1       0.473  -3.517  -4.220  1.00  0.00     0.185 C 
ATOM     44  N   UNL     1      -0.078  -3.960  -3.075  1.00  0.00    -0.370 N 
ATOM     45  N   UNL     1       0.649  -4.520  -5.096  1.00  0.00    -0.370 N 
ATOM     46  H   UNL     1      -0.082  -4.941  -2.854  1.00  0.00     0.159 HD
ATOM     47  H   UNL     1      -0.293  -3.330  -2.308  1.00  0.00     0.159 HD
ATOM     48  H   UNL     1       1.052  -4.270  -5.988  1.00  0.00     0.159 HD
ATOM     49  H   UNL     1       0.187  -5.408  -5.006  1.00  0.00     0.159 HD
ENDBRANCH  41  42
ENDBRANCH  40  41
ENDBRANCH  39  40
ENDBRANCH  38  39
ENDBRANCH  36  38
ENDBRANCH   5  34
BRANCH   8  50
ATOM     50  O   UNL     1       1.963  -5.577  -7.576  1.00  0.00    -0.245 OA
BRANCH  50  51
ATOM     51  S   UNL     1       3.559  -5.608  -7.266  1.00  0.00     0.397 S 
ATOM     52  O   UNL     1       4.189  -4.581  -8.065  1.00  0.00    -0.169 OA
ATOM     53  O   UNL     1       4.030  -6.977  -7.279  1.00  0.00    -0.169 OA
BRANCH  51  54
ATOM     54  O   UNL     1       3.616  -5.079  -5.748  1.00  0.00    -0.264 OA
ATOM     55  H   UNL     1       3.924  -5.819  -5.186  1.00  0.00     0.236 HD
ENDBRANCH  51  54
ENDBRANCH  50  51
ENDBRANCH   8  50
TORSDOF 19
ENDMDL
MODEL 29
REMARK VINA RESULT:    -6.143      6.117      9.765
REMARK INTER + INTRA:         -16.253
REMARK INTER:                 -12.451
REMARK INTRA:                  -3.802
REMARK UNBOUND:                -3.827
REMARK SMILES CC[C@@H](C)[C@@H](NC(=O)[C@@H](O)Cc1ccc(O)c(Cl)c1)C(=O)N1[C@H](C(=O)NCCCCN=C(N)N)C[C@H]2CC[C@H](OS(=O)(=O)O)C[C@@H]21
REMARK SMILES IDX 22 1 36 2 46 3 35 4 23 5 45 6 37 7 39 8 38 9 20 10 21 11
REMARK SMILES IDX 5 12 6 13 7 14 8 15 9 17 11 18 12 19 17 20 19 21 15 22 14 23
REMARK SMILES IDX 13 24 18 25 16 26 10 28 3 30 4 31 2 32 1 33 24 34 25 35
REMARK SMILES IDX 26 36 27 38 28 39 29 40 30 41 31 42 32 43 33 44 34 45 40 50
REMARK SMILES IDX 41 51 42 52 43 53 44 54
REMARK H PARENT 6 16 16 27 10 29 26 37 33 46 33 47 34 48 34 49 44 55
ROOT
ATOM      1  N   UNL     1      -6.287  -1.914   0.035  1.00  0.00    -0.326 N 
ATOM      2  C   UNL     1      -6.055  -1.255  -2.214  1.00  0.00     0.014 C 
ATOM      3  C   UNL     1      -6.037  -0.720  -0.779  1.00  0.00     0.091 C 
ATOM      4  C   UNL     1      -7.104  -2.354  -2.148  1.00  0.00     0.041 C 
ATOM      5  C   UNL     1      -6.694  -3.045  -0.835  1.00  0.00     0.175 C 
ATOM      6  C   UNL     1      -4.731   0.042  -0.564  1.00  0.00     0.059 C 
ATOM      7  C   UNL     1      -6.222  -0.126  -3.211  1.00  0.00     0.008 C 
ATOM      8  C   UNL     1      -4.200   0.737  -1.836  1.00  0.00     0.143 C 
ATOM      9  C   UNL     1      -5.333   1.076  -2.826  1.00  0.00     0.034 C 
ENDROOT
BRANCH   1  10
ATOM     10  C   UNL     1      -6.400  -2.044   1.408  1.00  0.00     0.246 C 
ATOM     11  O   UNL     1      -6.287  -3.164   1.917  1.00  0.00    -0.272 OA
BRANCH  10  12
ATOM     12  C   UNL     1      -6.625  -0.777   2.283  1.00  0.00     0.174 C 
BRANCH  12  13
ATOM     13  N   UNL     1      -5.920  -0.919   3.557  1.00  0.00    -0.342 N 
ATOM     14  C   UNL     1      -4.575  -0.693   3.745  1.00  0.00     0.249 C 
ATOM     15  O   UNL     1      -3.816  -0.317   2.861  1.00  0.00    -0.272 OA
ATOM     16  H   UNL     1      -6.383  -1.372   4.340  1.00  0.00     0.164 HD
BRANCH  14  17
ATOM     17  C   UNL     1      -4.128  -0.945   5.201  1.00  0.00     0.207 C 
BRANCH  17  18
ATOM     18  C   UNL     1      -3.048  -2.031   5.248  1.00  0.00     0.077 C 
BRANCH  18  19
ATOM     19  C   UNL     1      -1.658  -1.440   5.317  1.00  0.00    -0.043 A 
ATOM     20  C   UNL     1      -0.197   0.496   5.370  1.00  0.00     0.083 A 
ATOM     21  C   UNL     1      -1.482  -0.048   5.357  1.00  0.00     0.028 A 
ATOM     22  C   UNL     1       0.917  -0.344   5.343  1.00  0.00     0.134 A 
ATOM     23  C   UNL     1       0.757  -1.724   5.304  1.00  0.00     0.048 A 
ATOM     24  C   UNL     1      -0.528  -2.271   5.289  1.00  0.00     0.008 A 
ATOM     25  Cl  UNL     1      -0.001   2.209   5.418  1.00  0.00    -0.080 Cl
BRANCH  22  26
ATOM     26  O   UNL     1       2.196   0.143   5.344  1.00  0.00    -0.506 OA
ATOM     27  H   UNL     1       2.126   1.113   5.421  1.00  0.00     0.293 HD
ENDBRANCH  22  26
ENDBRANCH  18  19
ENDBRANCH  17  18
BRANCH  17  28
ATOM     28  O   UNL     1      -5.238  -1.340   6.023  1.00  0.00    -0.383 OA
ATOM     29  H   UNL     1      -4.848  -1.696   6.854  1.00  0.00     0.211 HD
ENDBRANCH  17  28
ENDBRANCH  14  17
ENDBRANCH  12  13
BRANCH  12  30
ATOM     30  C   UNL     1      -8.128  -0.437   2.472  1.00  0.00     0.018 C 
ATOM     31  C   UNL     1      -8.604  -0.830   3.879  1.00  0.00     0.010 C 
BRANCH  30  32
ATOM     32  C   UNL     1      -9.048  -1.072   1.401  1.00  0.00     0.002 C 
ATOM     33  C   UNL     1      -9.540  -0.121   0.318  1.00  0.00     0.004 C 
ENDBRANCH  30  32
ENDBRANCH  12  30
ENDBRANCH  10  12
ENDBRANCH   1  10
BRANCH   5  34
ATOM     34  C   UNL     1      -5.512  -4.027  -1.051  1.00  0.00     0.242 C 
ATOM     35  O   UNL     1      -5.627  -5.063  -1.705  1.00  0.00    -0.273 OA
ATOM     36  N   UNL     1      -4.341  -3.683  -0.412  1.00  0.00    -0.354 N 
ATOM     37  H   UNL     1      -4.341  -2.876   0.213  1.00  0.00     0.163 HD
BRANCH  36  38
ATOM     38  C   UNL     1      -3.089  -4.361  -0.676  1.00  0.00     0.116 C 
BRANCH  38  39
ATOM     39  C   UNL     1      -2.255  -3.545  -1.661  1.00  0.00     0.023 C 
BRANCH  39  40
ATOM     40  C   UNL     1      -0.774  -3.908  -1.611  1.00  0.00     0.026 C 
BRANCH  40  41
ATOM     41  C   UNL     1       0.064  -2.706  -1.175  1.00  0.00     0.146 C 
BRANCH  41  42
ATOM     42  N   UNL     1      -0.164  -2.434   0.238  1.00  0.00    -0.254 NA
ATOM     43  C   UNL     1      -0.673  -1.314   0.593  1.00  0.00     0.185 C 
ATOM     44  N   UNL     1      -1.066  -0.267  -0.155  1.00  0.00    -0.370 N 
ATOM     45  N   UNL     1      -0.871  -1.081   1.901  1.00  0.00    -0.370 N 
ATOM     46  H   UNL     1      -1.218   0.634   0.265  1.00  0.00     0.159 HD
ATOM     47  H   UNL     1      -1.000  -0.280  -1.168  1.00  0.00     0.159 HD
ATOM     48  H   UNL     1      -0.609  -1.824   2.534  1.00  0.00     0.159 HD
ATOM     49  H   UNL     1      -1.470  -0.348   2.238  1.00  0.00     0.159 HD
ENDBRANCH  41  42
ENDBRANCH  40  41
ENDBRANCH  39  40
ENDBRANCH  38  39
ENDBRANCH  36  38
ENDBRANCH   5  34
BRANCH   8  50
ATOM     50  O   UNL     1      -3.257  -0.107  -2.498  1.00  0.00    -0.245 OA
BRANCH  50  51
ATOM     51  S   UNL     1      -2.178   0.546  -3.526  1.00  0.00     0.397 S 
ATOM     52  O   UNL     1      -2.691   0.391  -4.869  1.00  0.00    -0.169 OA
ATOM     53  O   UNL     1      -0.843   0.114  -3.168  1.00  0.00    -0.169 OA
BRANCH  51  54
ATOM     54  O   UNL     1      -2.300   2.113  -3.189  1.00  0.00    -0.264 OA
ATOM     55  H   UNL     1      -1.423   2.422  -2.883  1.00  0.00     0.236 HD
ENDBRANCH  51  54
ENDBRANCH  50  51
ENDBRANCH   8  50
TORSDOF 19
ENDMDL
MODEL 30
REMARK VINA RESULT:    -6.137      4.729     10.159
REMARK INTER + INTRA:         -16.242
REMARK INTER:                 -13.463
REMARK INTRA:                  -2.779
REMARK UNBOUND:                -3.827
REMARK SMILES CC[C@@H](C)[C@@H](NC(=O)[C@@H](O)Cc1ccc(O)c(Cl)c1)C(=O)N1[C@H](C(=O)NCCCCN=C(N)N)C[C@H]2CC[C@H](OS(=O)(=O)O)C[C@@H]21
REMARK SMILES IDX 22 1 36 2 46 3 35 4 23 5 45 6 37 7 39 8 38 9 20 10 21 11
REMARK SMILES IDX 5 12 6 13 7 14 8 15 9 17 11 18 12 19 17 20 19 21 15 22 14 23
REMARK SMILES IDX 13 24 18 25 16 26 10 28 3 30 4 31 2 32 1 33 24 34 25 35
REMARK SMILES IDX 26 36 27 38 28 39 29 40 30 41 31 42 32 43 33 44 34 45 40 50
REMARK SMILES IDX 41 51 42 52 43 53 44 54
REMARK H PARENT 6 16 16 27 10 29 26 37 33 46 33 47 34 48 34 49 44 55
ROOT
ATOM      1  N   UNL     1      -3.510   0.889  -4.025  1.00  0.00    -0.326 N 
ATOM      2  C   UNL     1      -5.123   2.532  -4.514  1.00  0.00     0.014 C 
ATOM      3  C   UNL     1      -4.243   1.458  -5.159  1.00  0.00     0.091 C 
ATOM      4  C   UNL     1      -4.245   3.052  -3.386  1.00  0.00     0.041 C 
ATOM      5  C   UNL     1      -3.719   1.723  -2.815  1.00  0.00     0.175 C 
ATOM      6  C   UNL     1      -5.136   0.532  -5.983  1.00  0.00     0.059 C 
ATOM      7  C   UNL     1      -5.648   3.501  -5.555  1.00  0.00     0.008 C 
ATOM      8  C   UNL     1      -6.366   1.237  -6.594  1.00  0.00     0.143 C 
ATOM      9  C   UNL     1      -6.120   2.744  -6.814  1.00  0.00     0.034 C 
ENDROOT
BRANCH   1  10
ATOM     10  C   UNL     1      -2.552  -0.110  -3.998  1.00  0.00     0.246 C 
ATOM     11  O   UNL     1      -2.911  -1.290  -4.078  1.00  0.00    -0.272 OA
BRANCH  10  12
ATOM     12  C   UNL     1      -1.046   0.273  -3.911  1.00  0.00     0.174 C 
BRANCH  12  13
ATOM     13  N   UNL     1      -0.604   0.849  -5.181  1.00  0.00    -0.342 N 
ATOM     14  C   UNL     1      -0.549   2.196  -5.461  1.00  0.00     0.249 C 
ATOM     15  O   UNL     1      -0.841   3.072  -4.656  1.00  0.00    -0.272 OA
ATOM     16  H   UNL     1      -0.481   0.247  -5.991  1.00  0.00     0.164 HD
BRANCH  14  17
ATOM     17  C   UNL     1      -0.057   2.487  -6.895  1.00  0.00     0.207 C 
BRANCH  17  18
ATOM     18  C   UNL     1       1.188   3.380  -6.863  1.00  0.00     0.077 C 
BRANCH  18  19
ATOM     19  C   UNL     1       2.458   2.580  -7.045  1.00  0.00    -0.043 A 
ATOM     20  C   UNL     1       4.746   2.094  -6.404  1.00  0.00     0.083 A 
ATOM     21  C   UNL     1       3.559   2.798  -6.202  1.00  0.00     0.028 A 
ATOM     22  C   UNL     1       4.842   1.171  -7.446  1.00  0.00     0.134 A 
ATOM     23  C   UNL     1       3.759   0.944  -8.288  1.00  0.00     0.048 A 
ATOM     24  C   UNL     1       2.570   1.649  -8.089  1.00  0.00     0.008 A 
ATOM     25  Cl  UNL     1       6.089   2.376  -5.359  1.00  0.00    -0.080 Cl
BRANCH  22  26
ATOM     26  O   UNL     1       5.989   0.464  -7.689  1.00  0.00    -0.506 OA
ATOM     27  H   UNL     1       6.715   1.114  -7.731  1.00  0.00     0.293 HD
ENDBRANCH  22  26
ENDBRANCH  18  19
ENDBRANCH  17  18
BRANCH  17  28
ATOM     28  O   UNL     1      -1.082   3.125  -7.674  1.00  0.00    -0.383 OA
ATOM     29  H   UNL     1      -0.763   3.112  -8.605  1.00  0.00     0.211 HD
ENDBRANCH  17  28
ENDBRANCH  14  17
ENDBRANCH  12  13
BRANCH  12  30
ATOM     30  C   UNL     1      -0.151  -0.911  -3.455  1.00  0.00     0.018 C 
ATOM     31  C   UNL     1       0.090  -0.859  -1.938  1.00  0.00     0.010 C 
BRANCH  30  32
ATOM     32  C   UNL     1       1.200  -0.994  -4.206  1.00  0.00     0.002 C 
ATOM     33  C   UNL     1       2.348  -0.223  -3.569  1.00  0.00     0.004 C 
ENDBRANCH  30  32
ENDBRANCH  12  30
ENDBRANCH  10  12
ENDBRANCH   1  10
BRANCH   5  34
ATOM     34  C   UNL     1      -4.751   1.061  -1.863  1.00  0.00     0.242 C 
ATOM     35  O   UNL     1      -5.686   0.378  -2.278  1.00  0.00    -0.273 OA
ATOM     36  N   UNL     1      -4.575   1.339  -0.525  1.00  0.00    -0.354 N 
ATOM     37  H   UNL     1      -3.854   2.008  -0.253  1.00  0.00     0.163 HD
BRANCH  36  38
ATOM     38  C   UNL     1      -5.305   0.640   0.512  1.00  0.00     0.116 C 
BRANCH  38  39
ATOM     39  C   UNL     1      -5.675   1.612   1.630  1.00  0.00     0.023 C 
BRANCH  39  40
ATOM     40  C   UNL     1      -7.138   2.039   1.570  1.00  0.00     0.026 C 
BRANCH  40  41
ATOM     41  C   UNL     1      -8.032   0.861   1.185  1.00  0.00     0.146 C 
BRANCH  41  42
ATOM     42  N   UNL     1      -8.064   0.719  -0.265  1.00  0.00    -0.254 NA
ATOM     43  C   UNL     1      -9.023   0.076  -0.817  1.00  0.00     0.185 C 
ATOM     44  N   UNL     1     -10.084  -0.539  -0.264  1.00  0.00    -0.370 N 
ATOM     45  N   UNL     1      -9.031  -0.047  -2.155  1.00  0.00    -0.370 N 
ATOM     46  H   UNL     1     -10.621  -1.208  -0.790  1.00  0.00     0.159 HD
ATOM     47  H   UNL     1     -10.241  -0.532   0.739  1.00  0.00     0.159 HD
ATOM     48  H   UNL     1      -8.269   0.396  -2.651  1.00  0.00     0.159 HD
ATOM     49  H   UNL     1      -9.849  -0.321  -2.671  1.00  0.00     0.159 HD
ENDBRANCH  41  42
ENDBRANCH  40  41
ENDBRANCH  39  40
ENDBRANCH  38  39
ENDBRANCH  36  38
ENDBRANCH   5  34
BRANCH   8  50
ATOM     50  O   UNL     1      -7.497   1.083  -5.736  1.00  0.00    -0.245 OA
BRANCH  50  51
ATOM     51  S   UNL     1      -8.297  -0.333  -5.709  1.00  0.00     0.397 S 
ATOM     52  O   UNL     1      -7.787  -1.113  -4.604  1.00  0.00    -0.169 OA
ATOM     53  O   UNL     1      -8.372  -0.875  -7.050  1.00  0.00    -0.169 OA
BRANCH  51  54
ATOM     54  O   UNL     1      -9.776   0.125  -5.276  1.00  0.00    -0.264 OA
ATOM     55  H   UNL     1     -10.311   0.217  -6.091  1.00  0.00     0.236 HD
ENDBRANCH  51  54
ENDBRANCH  50  51
ENDBRANCH   8  50
TORSDOF 19
ENDMDL
MODEL 31
REMARK VINA RESULT:    -6.130      3.911      7.348
REMARK INTER + INTRA:         -16.228
REMARK INTER:                 -12.887
REMARK INTRA:                  -3.340
REMARK UNBOUND:                -3.827
REMARK SMILES CC[C@@H](C)[C@@H](NC(=O)[C@@H](O)Cc1ccc(O)c(Cl)c1)C(=O)N1[C@H](C(=O)NCCCCN=C(N)N)C[C@H]2CC[C@H](OS(=O)(=O)O)C[C@@H]21
REMARK SMILES IDX 22 1 36 2 46 3 35 4 23 5 45 6 37 7 39 8 38 9 20 10 21 11
REMARK SMILES IDX 5 12 6 13 7 14 8 15 9 17 11 18 12 19 17 20 19 21 15 22 14 23
REMARK SMILES IDX 13 24 18 25 16 26 10 28 3 30 4 31 2 32 1 33 24 34 25 35
REMARK SMILES IDX 26 36 27 38 28 39 29 40 30 41 31 42 32 43 33 44 34 45 40 50
REMARK SMILES IDX 41 51 42 52 43 53 44 54
REMARK H PARENT 6 16 16 27 10 29 26 37 33 46 33 47 34 48 34 49 44 55
ROOT
ATOM      1  N   UNL     1      -1.295   0.081  -4.530  1.00  0.00    -0.326 N 
ATOM      2  C   UNL     1      -2.751   0.321  -6.364  1.00  0.00     0.014 C 
ATOM      3  C   UNL     1      -2.666  -0.236  -4.941  1.00  0.00     0.091 C 
ATOM      4  C   UNL     1      -1.349   0.083  -6.902  1.00  0.00     0.041 C 
ATOM      5  C   UNL     1      -0.512   0.555  -5.698  1.00  0.00     0.175 C 
ATOM      6  C   UNL     1      -3.819   0.345  -4.125  1.00  0.00     0.059 C 
ATOM      7  C   UNL     1      -3.940  -0.261  -7.104  1.00  0.00     0.008 C 
ATOM      8  C   UNL     1      -5.091   0.621  -4.956  1.00  0.00     0.143 C 
ATOM      9  C   UNL     1      -5.185  -0.294  -6.193  1.00  0.00     0.034 C 
ENDROOT
BRANCH   1  10
ATOM     10  C   UNL     1      -0.637  -0.196  -3.344  1.00  0.00     0.246 C 
ATOM     11  O   UNL     1      -1.132   0.186  -2.279  1.00  0.00    -0.272 OA
BRANCH  10  12
ATOM     12  C   UNL     1       0.685  -1.017  -3.374  1.00  0.00     0.174 C 
BRANCH  12  13
ATOM     13  N   UNL     1       0.490  -2.248  -4.139  1.00  0.00    -0.342 N 
ATOM     14  C   UNL     1       1.323  -2.699  -5.138  1.00  0.00     0.249 C 
ATOM     15  O   UNL     1       2.348  -2.123  -5.482  1.00  0.00    -0.272 OA
ATOM     16  H   UNL     1      -0.395  -2.747  -4.074  1.00  0.00     0.164 HD
BRANCH  14  17
ATOM     17  C   UNL     1       0.837  -4.022  -5.767  1.00  0.00     0.207 C 
BRANCH  17  18
ATOM     18  C   UNL     1      -0.627  -3.904  -6.200  1.00  0.00     0.077 C 
BRANCH  18  19
ATOM     19  C   UNL     1      -0.753  -3.454  -7.638  1.00  0.00    -0.043 A 
ATOM     20  C   UNL     1      -2.133  -2.802  -9.524  1.00  0.00     0.083 A 
ATOM     21  C   UNL     1      -2.015  -3.168  -8.183  1.00  0.00     0.028 A 
ATOM     22  C   UNL     1      -0.995  -2.720 -10.328  1.00  0.00     0.134 A 
ATOM     23  C   UNL     1       0.260  -3.000  -9.802  1.00  0.00     0.048 A 
ATOM     24  C   UNL     1       0.381  -3.369  -8.460  1.00  0.00     0.008 A 
ATOM     25  Cl  UNL     1      -3.691  -2.454 -10.175  1.00  0.00    -0.080 Cl
BRANCH  22  26
ATOM     26  O   UNL     1      -1.062  -2.375 -11.651  1.00  0.00    -0.506 OA
ATOM     27  H   UNL     1      -0.161  -2.117 -11.919  1.00  0.00     0.293 HD
ENDBRANCH  22  26
ENDBRANCH  18  19
ENDBRANCH  17  18
BRANCH  17  28
ATOM     28  O   UNL     1       0.975  -5.114  -4.844  1.00  0.00    -0.383 OA
ATOM     29  H   UNL     1       0.923  -5.935  -5.384  1.00  0.00     0.211 HD
ENDBRANCH  17  28
ENDBRANCH  14  17
ENDBRANCH  12  13
BRANCH  12  30
ATOM     30  C   UNL     1       1.257  -1.284  -1.956  1.00  0.00     0.018 C 
ATOM     31  C   UNL     1       2.793  -1.224  -1.966  1.00  0.00     0.010 C 
BRANCH  30  32
ATOM     32  C   UNL     1       0.782  -2.621  -1.336  1.00  0.00     0.002 C 
ATOM     33  C   UNL     1       0.487  -2.577   0.158  1.00  0.00     0.004 C 
ENDBRANCH  30  32
ENDBRANCH  12  30
ENDBRANCH  10  12
ENDBRANCH   1  10
BRANCH   5  34
ATOM     34  C   UNL     1      -0.366   2.100  -5.673  1.00  0.00     0.242 C 
ATOM     35  O   UNL     1      -0.725   2.779  -4.712  1.00  0.00    -0.273 OA
ATOM     36  N   UNL     1       0.143   2.658  -6.824  1.00  0.00    -0.354 N 
ATOM     37  H   UNL     1       0.309   2.056  -7.631  1.00  0.00     0.163 HD
BRANCH  36  38
ATOM     38  C   UNL     1       0.545   4.048  -6.897  1.00  0.00     0.116 C 
BRANCH  38  39
ATOM     39  C   UNL     1       0.892   4.412  -8.338  1.00  0.00     0.023 C 
BRANCH  39  40
ATOM     40  C   UNL     1       1.309   3.199  -9.162  1.00  0.00     0.026 C 
BRANCH  40  41
ATOM     41  C   UNL     1       2.330   3.593 -10.229  1.00  0.00     0.146 C 
BRANCH  41  42
ATOM     42  N   UNL     1       2.088   2.831 -11.448  1.00  0.00    -0.254 NA
ATOM     43  C   UNL     1       1.164   3.202 -12.253  1.00  0.00     0.185 C 
ATOM     44  N   UNL     1       0.315   4.243 -12.175  1.00  0.00    -0.370 N 
ATOM     45  N   UNL     1       0.954   2.484 -13.368  1.00  0.00    -0.370 N 
ATOM     46  H   UNL     1      -0.512   4.273 -12.746  1.00  0.00     0.159 HD
ATOM     47  H   UNL     1       0.345   4.898 -11.400  1.00  0.00     0.159 HD
ATOM     48  H   UNL     1       1.558   1.686 -13.508  1.00  0.00     0.159 HD
ATOM     49  H   UNL     1       0.427   2.833 -14.149  1.00  0.00     0.159 HD
ENDBRANCH  41  42
ENDBRANCH  40  41
ENDBRANCH  39  40
ENDBRANCH  38  39
ENDBRANCH  36  38
ENDBRANCH   5  34
BRANCH   8  50
ATOM     50  O   UNL     1      -5.104   1.980  -5.395  1.00  0.00    -0.245 OA
BRANCH  50  51
ATOM     51  S   UNL     1      -6.227   3.002  -4.810  1.00  0.00     0.397 S 
ATOM     52  O   UNL     1      -7.285   2.213  -4.221  1.00  0.00    -0.169 OA
ATOM     53  O   UNL     1      -6.502   4.033  -5.789  1.00  0.00    -0.169 OA
BRANCH  51  54
ATOM     54  O   UNL     1      -5.451   3.683  -3.578  1.00  0.00    -0.264 OA
ATOM     55  H   UNL     1      -6.083   4.270  -3.115  1.00  0.00     0.236 HD
ENDBRANCH  51  54
ENDBRANCH  50  51
ENDBRANCH   8  50
TORSDOF 19
ENDMDL
MODEL 32
REMARK VINA RESULT:    -6.129      3.096      5.280
REMARK INTER + INTRA:         -16.226
REMARK INTER:                 -11.915
REMARK INTRA:                  -4.311
REMARK UNBOUND:                -3.827
REMARK SMILES CC[C@@H](C)[C@@H](NC(=O)[C@@H](O)Cc1ccc(O)c(Cl)c1)C(=O)N1[C@H](C(=O)NCCCCN=C(N)N)C[C@H]2CC[C@H](OS(=O)(=O)O)C[C@@H]21
REMARK SMILES IDX 22 1 36 2 46 3 35 4 23 5 45 6 37 7 39 8 38 9 20 10 21 11
REMARK SMILES IDX 5 12 6 13 7 14 8 15 9 17 11 18 12 19 17 20 19 21 15 22 14 23
REMARK SMILES IDX 13 24 18 25 16 26 10 28 3 30 4 31 2 32 1 33 24 34 25 35
REMARK SMILES IDX 26 36 27 38 28 39 29 40 30 41 31 42 32 43 33 44 34 45 40 50
REMARK SMILES IDX 41 51 42 52 43 53 44 54
REMARK H PARENT 6 16 16 27 10 29 26 37 33 46 33 47 34 48 34 49 44 55
ROOT
ATOM      1  N   UNL     1       1.787  -1.761  -7.819  1.00  0.00    -0.326 N 
ATOM      2  C   UNL     1       1.890  -3.502  -9.400  1.00  0.00     0.014 C 
ATOM      3  C   UNL     1       2.656  -2.866  -8.236  1.00  0.00     0.091 C 
ATOM      4  C   UNL     1       1.225  -2.304 -10.059  1.00  0.00     0.041 C 
ATOM      5  C   UNL     1       0.704  -1.563  -8.813  1.00  0.00     0.175 C 
ATOM      6  C   UNL     1       2.980  -3.957  -7.218  1.00  0.00     0.059 C 
ATOM      7  C   UNL     1       2.799  -4.394 -10.223  1.00  0.00     0.008 C 
ATOM      8  C   UNL     1       3.207  -5.348  -7.848  1.00  0.00     0.143 C 
ATOM      9  C   UNL     1       3.697  -5.250  -9.307  1.00  0.00     0.034 C 
ENDROOT
BRANCH   1  10
ATOM     10  C   UNL     1       1.968  -0.819  -6.820  1.00  0.00     0.246 C 
ATOM     11  O   UNL     1       2.737   0.127  -7.019  1.00  0.00    -0.272 OA
BRANCH  10  12
ATOM     12  C   UNL     1       1.169  -0.948  -5.491  1.00  0.00     0.174 C 
BRANCH  12  13
ATOM     13  N   UNL     1       0.558   0.337  -5.150  1.00  0.00    -0.342 N 
ATOM     14  C   UNL     1      -0.673   0.768  -5.591  1.00  0.00     0.249 C 
ATOM     15  O   UNL     1      -1.413   0.103  -6.305  1.00  0.00    -0.272 OA
ATOM     16  H   UNL     1       1.117   1.055  -4.697  1.00  0.00     0.164 HD
BRANCH  14  17
ATOM     17  C   UNL     1      -1.031   2.177  -5.072  1.00  0.00     0.207 C 
BRANCH  17  18
ATOM     18  C   UNL     1      -2.061   2.841  -5.991  1.00  0.00     0.077 C 
BRANCH  18  19
ATOM     19  C   UNL     1      -3.465   2.719  -5.442  1.00  0.00    -0.043 A 
ATOM     20  C   UNL     1      -4.980   2.040  -3.673  1.00  0.00     0.083 A 
ATOM     21  C   UNL     1      -3.681   2.197  -4.157  1.00  0.00     0.028 A 
ATOM     22  C   UNL     1      -6.069   2.400  -4.467  1.00  0.00     0.134 A 
ATOM     23  C   UNL     1      -5.870   2.918  -5.742  1.00  0.00     0.048 A 
ATOM     24  C   UNL     1      -4.571   3.075  -6.230  1.00  0.00     0.008 A 
ATOM     25  Cl  UNL     1      -5.224   1.397  -2.092  1.00  0.00    -0.080 Cl
BRANCH  22  26
ATOM     26  O   UNL     1      -7.361   2.254  -4.040  1.00  0.00    -0.506 OA
ATOM     27  H   UNL     1      -7.367   1.507  -3.414  1.00  0.00     0.293 HD
ENDBRANCH  22  26
ENDBRANCH  18  19
ENDBRANCH  17  18
BRANCH  17  28
ATOM     28  O   UNL     1       0.137   3.009  -4.985  1.00  0.00    -0.383 OA
ATOM     29  H   UNL     1       0.320   3.317  -5.902  1.00  0.00     0.211 HD
ENDBRANCH  17  28
ENDBRANCH  14  17
ENDBRANCH  12  13
BRANCH  12  30
ATOM     30  C   UNL     1       2.024  -1.524  -4.330  1.00  0.00     0.018 C 
ATOM     31  C   UNL     1       1.367  -2.781  -3.740  1.00  0.00     0.010 C 
BRANCH  30  32
ATOM     32  C   UNL     1       2.317  -0.500  -3.207  1.00  0.00     0.002 C 
ATOM     33  C   UNL     1       3.249  -0.990  -2.106  1.00  0.00     0.004 C 
ENDBRANCH  30  32
ENDBRANCH  12  30
ENDBRANCH  10  12
ENDBRANCH   1  10
BRANCH   5  34
ATOM     34  C   UNL     1      -0.630  -2.170  -8.302  1.00  0.00     0.242 C 
ATOM     35  O   UNL     1      -0.673  -2.973  -7.371  1.00  0.00    -0.273 OA
ATOM     36  N   UNL     1      -1.753  -1.786  -9.001  1.00  0.00    -0.354 N 
ATOM     37  H   UNL     1      -1.639  -1.213  -9.838  1.00  0.00     0.163 HD
BRANCH  36  38
ATOM     38  C   UNL     1      -3.092  -2.081  -8.534  1.00  0.00     0.116 C 
BRANCH  38  39
ATOM     39  C   UNL     1      -3.988  -2.433  -9.719  1.00  0.00     0.023 C 
BRANCH  39  40
ATOM     40  C   UNL     1      -3.384  -3.518 -10.604  1.00  0.00     0.026 C 
BRANCH  40  41
ATOM     41  C   UNL     1      -3.296  -4.845  -9.852  1.00  0.00     0.146 C 
BRANCH  41  42
ATOM     42  N   UNL     1      -2.100  -5.567 -10.265  1.00  0.00    -0.254 NA
ATOM     43  C   UNL     1      -1.237  -5.917  -9.386  1.00  0.00     0.185 C 
ATOM     44  N   UNL     1      -1.232  -5.727  -8.054  1.00  0.00    -0.370 N 
ATOM     45  N   UNL     1      -0.138  -6.578  -9.787  1.00  0.00    -0.370 N 
ATOM     46  H   UNL     1      -0.385  -5.835  -7.523  1.00  0.00     0.159 HD
ATOM     47  H   UNL     1      -1.996  -5.255  -7.580  1.00  0.00     0.159 HD
ATOM     48  H   UNL     1      -0.067  -6.770 -10.777  1.00  0.00     0.159 HD
ATOM     49  H   UNL     1       0.453  -7.085  -9.154  1.00  0.00     0.159 HD
ENDBRANCH  41  42
ENDBRANCH  40  41
ENDBRANCH  39  40
ENDBRANCH  38  39
ENDBRANCH  36  38
ENDBRANCH   5  34
BRANCH   8  50
ATOM     50  O   UNL     1       1.992  -6.099  -7.827  1.00  0.00    -0.245 OA
BRANCH  50  51
ATOM     51  S   UNL     1       1.764  -7.225  -6.676  1.00  0.00     0.397 S 
ATOM     52  O   UNL     1       0.625  -8.029  -7.057  1.00  0.00    -0.169 OA
ATOM     53  O   UNL     1       1.855  -6.608  -5.368  1.00  0.00    -0.169 OA
BRANCH  51  54
ATOM     54  O   UNL     1       3.051  -8.169  -6.869  1.00  0.00    -0.264 OA
ATOM     55  H   UNL     1       2.892  -8.997  -6.371  1.00  0.00     0.236 HD
ENDBRANCH  51  54
ENDBRANCH  50  51
ENDBRANCH   8  50
TORSDOF 19
ENDMDL
MODEL 33
REMARK VINA RESULT:    -6.124      2.790      4.082
REMARK INTER + INTRA:         -16.217
REMARK INTER:                 -12.155
REMARK INTRA:                  -4.062
REMARK UNBOUND:                -3.827
REMARK SMILES CC[C@@H](C)[C@@H](NC(=O)[C@@H](O)Cc1ccc(O)c(Cl)c1)C(=O)N1[C@H](C(=O)NCCCCN=C(N)N)C[C@H]2CC[C@H](OS(=O)(=O)O)C[C@@H]21
REMARK SMILES IDX 22 1 36 2 46 3 35 4 23 5 45 6 37 7 39 8 38 9 20 10 21 11
REMARK SMILES IDX 5 12 6 13 7 14 8 15 9 17 11 18 12 19 17 20 19 21 15 22 14 23
REMARK SMILES IDX 13 24 18 25 16 26 10 28 3 30 4 31 2 32 1 33 24 34 25 35
REMARK SMILES IDX 26 36 27 38 28 39 29 40 30 41 31 42 32 43 33 44 34 45 40 50
REMARK SMILES IDX 41 51 42 52 43 53 44 54
REMARK H PARENT 6 16 16 27 10 29 26 37 33 46 33 47 34 48 34 49 44 55
ROOT
ATOM      1  N   UNL     1       0.177  -3.059  -6.828  1.00  0.00    -0.326 N 
ATOM      2  C   UNL     1       0.170  -1.648  -8.713  1.00  0.00     0.014 C 
ATOM      3  C   UNL     1       0.855  -1.874  -7.362  1.00  0.00     0.091 C 
ATOM      4  C   UNL     1      -1.263  -2.077  -8.437  1.00  0.00     0.041 C 
ATOM      5  C   UNL     1      -1.012  -3.380  -7.656  1.00  0.00     0.175 C 
ATOM      6  C   UNL     1       2.364  -1.944  -7.591  1.00  0.00     0.059 C 
ATOM      7  C   UNL     1       0.441  -0.249  -9.230  1.00  0.00     0.008 C 
ATOM      8  C   UNL     1       2.855  -1.069  -8.764  1.00  0.00     0.143 C 
ATOM      9  C   UNL     1       1.922   0.131  -9.022  1.00  0.00     0.034 C 
ENDROOT
BRANCH   1  10
ATOM     10  C   UNL     1       0.361  -3.721  -5.626  1.00  0.00     0.246 C 
ATOM     11  O   UNL     1       0.995  -4.781  -5.614  1.00  0.00    -0.272 OA
BRANCH  10  12
ATOM     12  C   UNL     1      -0.196  -3.096  -4.314  1.00  0.00     0.174 C 
BRANCH  12  13
ATOM     13  N   UNL     1      -0.634  -1.723  -4.562  1.00  0.00    -0.342 N 
ATOM     14  C   UNL     1      -1.804  -1.169  -4.092  1.00  0.00     0.249 C 
ATOM     15  O   UNL     1      -2.604  -1.766  -3.382  1.00  0.00    -0.272 OA
ATOM     16  H   UNL     1      -0.155  -1.159  -5.260  1.00  0.00     0.164 HD
BRANCH  14  17
ATOM     17  C   UNL     1      -1.992   0.296  -4.540  1.00  0.00     0.207 C 
BRANCH  17  18
ATOM     18  C   UNL     1      -1.503   0.483  -5.980  1.00  0.00     0.077 C 
BRANCH  18  19
ATOM     19  C   UNL     1      -0.253   1.332  -6.043  1.00  0.00    -0.043 A 
ATOM     20  C   UNL     1       0.896   3.329  -6.802  1.00  0.00     0.083 A 
ATOM     21  C   UNL     1      -0.271   2.571  -6.702  1.00  0.00     0.028 A 
ATOM     22  C   UNL     1       2.086   2.855  -6.247  1.00  0.00     0.134 A 
ATOM     23  C   UNL     1       2.118   1.630  -5.592  1.00  0.00     0.048 A 
ATOM     24  C   UNL     1       0.951   0.868  -5.492  1.00  0.00     0.008 A 
ATOM     25  Cl  UNL     1       0.854   4.848  -7.616  1.00  0.00    -0.080 Cl
BRANCH  22  26
ATOM     26  O   UNL     1       3.257   3.558  -6.329  1.00  0.00    -0.506 OA
ATOM     27  H   UNL     1       3.018   4.478  -6.546  1.00  0.00     0.293 HD
ENDBRANCH  22  26
ENDBRANCH  18  19
ENDBRANCH  17  18
BRANCH  17  28
ATOM     28  O   UNL     1      -1.281   1.196  -3.675  1.00  0.00    -0.383 OA
ATOM     29  H   UNL     1      -1.636   2.094  -3.865  1.00  0.00     0.211 HD
ENDBRANCH  17  28
ENDBRANCH  14  17
ENDBRANCH  12  13
BRANCH  12  30
ATOM     30  C   UNL     1       0.805  -3.193  -3.131  1.00  0.00     0.018 C 
ATOM     31  C   UNL     1       0.067  -3.473  -1.813  1.00  0.00     0.010 C 
BRANCH  30  32
ATOM     32  C   UNL     1       1.711  -1.947  -2.979  1.00  0.00     0.002 C 
ATOM     33  C   UNL     1       1.549  -1.180  -1.674  1.00  0.00     0.004 C 
ENDBRANCH  30  32
ENDBRANCH  12  30
ENDBRANCH  10  12
ENDBRANCH   1  10
BRANCH   5  34
ATOM     34  C   UNL     1      -0.715  -4.569  -8.607  1.00  0.00     0.242 C 
ATOM     35  O   UNL     1      -0.468  -4.410  -9.803  1.00  0.00    -0.273 OA
ATOM     36  N   UNL     1      -0.803  -5.817  -8.030  1.00  0.00    -0.354 N 
ATOM     37  H   UNL     1      -1.129  -5.890  -7.066  1.00  0.00     0.163 HD
BRANCH  36  38
ATOM     38  C   UNL     1      -0.351  -7.015  -8.707  1.00  0.00     0.116 C 
BRANCH  38  39
ATOM     39  C   UNL     1       0.758  -7.681  -7.897  1.00  0.00     0.023 C 
BRANCH  39  40
ATOM     40  C   UNL     1       2.148  -7.352  -8.432  1.00  0.00     0.026 C 
BRANCH  40  41
ATOM     41  C   UNL     1       3.219  -7.660  -7.385  1.00  0.00     0.146 C 
BRANCH  41  42
ATOM     42  N   UNL     1       4.435  -6.919  -7.693  1.00  0.00    -0.254 NA
ATOM     43  C   UNL     1       4.636  -5.778  -7.149  1.00  0.00     0.185 C 
ATOM     44  N   UNL     1       3.875  -5.086  -6.281  1.00  0.00    -0.370 N 
ATOM     45  N   UNL     1       5.761  -5.109  -7.449  1.00  0.00    -0.370 N 
ATOM     46  H   UNL     1       4.034  -4.105  -6.127  1.00  0.00     0.159 HD
ATOM     47  H   UNL     1       2.993  -5.453  -5.936  1.00  0.00     0.159 HD
ATOM     48  H   UNL     1       6.396  -5.564  -8.091  1.00  0.00     0.159 HD
ATOM     49  H   UNL     1       6.101  -4.340  -6.898  1.00  0.00     0.159 HD
ENDBRANCH  41  42
ENDBRANCH  40  41
ENDBRANCH  39  40
ENDBRANCH  38  39
ENDBRANCH  36  38
ENDBRANCH   5  34
BRANCH   8  50
ATOM     50  O   UNL     1       2.933  -1.848  -9.958  1.00  0.00    -0.245 OA
BRANCH  50  51
ATOM     51  S   UNL     1       4.092  -2.979 -10.105  1.00  0.00     0.397 S 
ATOM     52  O   UNL     1       4.585  -2.941 -11.463  1.00  0.00    -0.169 OA
ATOM     53  O   UNL     1       3.647  -4.214  -9.493  1.00  0.00    -0.169 OA
BRANCH  51  54
ATOM     54  O   UNL     1       5.271  -2.372  -9.195  1.00  0.00    -0.264 OA
ATOM     55  H   UNL     1       5.410  -1.442  -9.468  1.00  0.00     0.236 HD
ENDBRANCH  51  54
ENDBRANCH  50  51
ENDBRANCH   8  50
TORSDOF 19
ENDMDL
MODEL 34
REMARK VINA RESULT:    -6.119     12.486     16.107
REMARK INTER + INTRA:         -16.207
REMARK INTER:                 -13.096
REMARK INTRA:                  -3.111
REMARK UNBOUND:                -3.827
REMARK SMILES CC[C@@H](C)[C@@H](NC(=O)[C@@H](O)Cc1ccc(O)c(Cl)c1)C(=O)N1[C@H](C(=O)NCCCCN=C(N)N)C[C@H]2CC[C@H](OS(=O)(=O)O)C[C@@H]21
REMARK SMILES IDX 22 1 36 2 46 3 35 4 23 5 45 6 37 7 39 8 38 9 20 10 21 11
REMARK SMILES IDX 5 12 6 13 7 14 8 15 9 17 11 18 12 19 17 20 19 21 15 22 14 23
REMARK SMILES IDX 13 24 18 25 16 26 10 28 3 30 4 31 2 32 1 33 24 34 25 35
REMARK SMILES IDX 26 36 27 38 28 39 29 40 30 41 31 42 32 43 33 44 34 45 40 50
REMARK SMILES IDX 41 51 42 52 43 53 44 54
REMARK H PARENT 6 16 16 27 10 29 26 37 33 46 33 47 34 48 34 49 44 55
ROOT
ATOM      1  N   UNL     1      -2.732   2.416   9.462  1.00  0.00    -0.326 N 
ATOM      2  C   UNL     1      -1.712   4.043   8.100  1.00  0.00     0.014 C 
ATOM      3  C   UNL     1      -1.419   3.007   9.189  1.00  0.00     0.091 C 
ATOM      4  C   UNL     1      -3.097   4.544   8.479  1.00  0.00     0.041 C 
ATOM      5  C   UNL     1      -3.794   3.207   8.793  1.00  0.00     0.175 C 
ATOM      6  C   UNL     1      -0.301   2.090   8.695  1.00  0.00     0.059 C 
ATOM      7  C   UNL     1      -0.572   5.034   7.974  1.00  0.00     0.008 C 
ATOM      8  C   UNL     1       0.710   2.791   7.762  1.00  0.00     0.143 C 
ATOM      9  C   UNL     1       0.789   4.308   8.028  1.00  0.00     0.034 C 
ENDROOT
BRANCH   1  10
ATOM     10  C   UNL     1      -3.093   1.435  10.370  1.00  0.00     0.246 C 
ATOM     11  O   UNL     1      -3.014   0.248  10.036  1.00  0.00    -0.272 OA
BRANCH  10  12
ATOM     12  C   UNL     1      -3.547   1.843  11.801  1.00  0.00     0.174 C 
BRANCH  12  13
ATOM     13  N   UNL     1      -5.007   1.920  11.858  1.00  0.00    -0.342 N 
ATOM     14  C   UNL     1      -5.839   0.882  12.214  1.00  0.00     0.249 C 
ATOM     15  O   UNL     1      -5.442  -0.225  12.553  1.00  0.00    -0.272 OA
ATOM     16  H   UNL     1      -5.485   2.722  11.456  1.00  0.00     0.164 HD
BRANCH  14  17
ATOM     17  C   UNL     1      -7.332   1.271  12.160  1.00  0.00     0.207 C 
BRANCH  17  18
ATOM     18  C   UNL     1      -8.191   0.051  11.813  1.00  0.00     0.077 C 
BRANCH  18  19
ATOM     19  C   UNL     1      -9.578   0.450  11.363  1.00  0.00    -0.043 A 
ATOM     20  C   UNL     1     -11.251   0.631   9.616  1.00  0.00     0.083 A 
ATOM     21  C   UNL     1      -9.989   0.217  10.041  1.00  0.00     0.028 A 
ATOM     22  C   UNL     1     -12.110   1.280  10.505  1.00  0.00     0.134 A 
ATOM     23  C   UNL     1     -11.716   1.517  11.817  1.00  0.00     0.048 A 
ATOM     24  C   UNL     1     -10.452   1.105  12.245  1.00  0.00     0.008 A 
ATOM     25  Cl  UNL     1     -11.737   0.337   7.988  1.00  0.00    -0.080 Cl
BRANCH  22  26
ATOM     26  O   UNL     1     -13.353   1.714  10.131  1.00  0.00    -0.506 OA
ATOM     27  H   UNL     1     -13.846   1.893  10.953  1.00  0.00     0.293 HD
ENDBRANCH  22  26
ENDBRANCH  18  19
ENDBRANCH  17  18
BRANCH  17  28
ATOM     28  O   UNL     1      -7.562   2.307  11.192  1.00  0.00    -0.383 OA
ATOM     29  H   UNL     1      -8.295   1.986  10.619  1.00  0.00     0.211 HD
ENDBRANCH  17  28
ENDBRANCH  14  17
ENDBRANCH  12  13
BRANCH  12  30
ATOM     30  C   UNL     1      -2.866   3.147  12.297  1.00  0.00     0.018 C 
ATOM     31  C   UNL     1      -2.198   2.929  13.664  1.00  0.00     0.010 C 
BRANCH  30  32
ATOM     32  C   UNL     1      -3.823   4.363  12.361  1.00  0.00     0.002 C 
ATOM     33  C   UNL     1      -3.426   5.453  13.348  1.00  0.00     0.004 C 
ENDBRANCH  30  32
ENDBRANCH  12  30
ENDBRANCH  10  12
ENDBRANCH   1  10
BRANCH   5  34
ATOM     34  C   UNL     1      -4.277   2.497   7.500  1.00  0.00     0.242 C 
ATOM     35  O   UNL     1      -3.585   1.670   6.906  1.00  0.00    -0.273 OA
ATOM     36  N   UNL     1      -5.510   2.897   7.037  1.00  0.00    -0.354 N 
ATOM     37  H   UNL     1      -5.983   3.672   7.505  1.00  0.00     0.163 HD
BRANCH  36  38
ATOM     38  C   UNL     1      -6.205   2.195   5.978  1.00  0.00     0.116 C 
BRANCH  38  39
ATOM     39  C   UNL     1      -7.029   1.053   6.568  1.00  0.00     0.023 C 
BRANCH  39  40
ATOM     40  C   UNL     1      -7.232  -0.090   5.579  1.00  0.00     0.026 C 
BRANCH  40  41
ATOM     41  C   UNL     1      -5.887  -0.639   5.101  1.00  0.00     0.146 C 
BRANCH  41  42
ATOM     42  N   UNL     1      -5.174  -1.239   6.220  1.00  0.00    -0.254 NA
ATOM     43  C   UNL     1      -3.947  -1.578   6.081  1.00  0.00     0.185 C 
ATOM     44  N   UNL     1      -3.136  -1.471   5.013  1.00  0.00    -0.370 N 
ATOM     45  N   UNL     1      -3.309  -2.134   7.124  1.00  0.00    -0.370 N 
ATOM     46  H   UNL     1      -2.279  -1.996   4.966  1.00  0.00     0.159 HD
ATOM     47  H   UNL     1      -3.454  -1.059   4.141  1.00  0.00     0.159 HD
ATOM     48  H   UNL     1      -3.847  -2.243   7.973  1.00  0.00     0.159 HD
ATOM     49  H   UNL     1      -2.308  -2.205   7.174  1.00  0.00     0.159 HD
ENDBRANCH  41  42
ENDBRANCH  40  41
ENDBRANCH  39  40
ENDBRANCH  38  39
ENDBRANCH  36  38
ENDBRANCH   5  34
BRANCH   8  50
ATOM     50  O   UNL     1       0.340   2.588   6.398  1.00  0.00    -0.245 OA
BRANCH  50  51
ATOM     51  S   UNL     1       0.525   1.118   5.726  1.00  0.00     0.397 S 
ATOM     52  O   UNL     1       1.166   1.292   4.442  1.00  0.00    -0.169 OA
ATOM     53  O   UNL     1      -0.701   0.362   5.867  1.00  0.00    -0.169 OA
BRANCH  51  54
ATOM     54  O   UNL     1       1.633   0.450   6.681  1.00  0.00    -0.264 OA
ATOM     55  H   UNL     1       1.740  -0.484   6.406  1.00  0.00     0.236 HD
ENDBRANCH  51  54
ENDBRANCH  50  51
ENDBRANCH   8  50
TORSDOF 19
ENDMDL
MODEL 35
REMARK VINA RESULT:    -6.109      6.427      9.689
REMARK INTER + INTRA:         -16.186
REMARK INTER:                 -13.265
REMARK INTRA:                  -2.921
REMARK UNBOUND:                -3.827
REMARK SMILES CC[C@@H](C)[C@@H](NC(=O)[C@@H](O)Cc1ccc(O)c(Cl)c1)C(=O)N1[C@H](C(=O)NCCCCN=C(N)N)C[C@H]2CC[C@H](OS(=O)(=O)O)C[C@@H]21
REMARK SMILES IDX 22 1 36 2 46 3 35 4 23 5 45 6 37 7 39 8 38 9 20 10 21 11
REMARK SMILES IDX 5 12 6 13 7 14 8 15 9 17 11 18 12 19 17 20 19 21 15 22 14 23
REMARK SMILES IDX 13 24 18 25 16 26 10 28 3 30 4 31 2 32 1 33 24 34 25 35
REMARK SMILES IDX 26 36 27 38 28 39 29 40 30 41 31 42 32 43 33 44 34 45 40 50
REMARK SMILES IDX 41 51 42 52 43 53 44 54
REMARK H PARENT 6 16 16 27 10 29 26 37 33 46 33 47 34 48 34 49 44 55
ROOT
ATOM      1  N   UNL     1      -5.272  -0.846  -6.443  1.00  0.00    -0.326 N 
ATOM      2  C   UNL     1      -3.958   1.043  -5.946  1.00  0.00     0.014 C 
ATOM      3  C   UNL     1      -5.024   0.520  -6.913  1.00  0.00     0.091 C 
ATOM      4  C   UNL     1      -3.129  -0.199  -5.658  1.00  0.00     0.041 C 
ATOM      5  C   UNL     1      -4.251  -1.230  -5.437  1.00  0.00     0.175 C 
ATOM      6  C   UNL     1      -6.191   1.506  -6.924  1.00  0.00     0.059 C 
ATOM      7  C   UNL     1      -3.278   2.278  -6.505  1.00  0.00     0.008 C 
ATOM      8  C   UNL     1      -5.769   2.972  -6.687  1.00  0.00     0.143 C 
ATOM      9  C   UNL     1      -4.315   3.234  -7.130  1.00  0.00     0.034 C 
ENDROOT
BRANCH   1  10
ATOM     10  C   UNL     1      -6.126  -1.814  -6.941  1.00  0.00     0.246 C 
ATOM     11  O   UNL     1      -6.942  -2.346  -6.180  1.00  0.00    -0.272 OA
BRANCH  10  12
ATOM     12  C   UNL     1      -6.071  -2.182  -8.453  1.00  0.00     0.174 C 
BRANCH  12  13
ATOM     13  N   UNL     1      -7.152  -3.112  -8.779  1.00  0.00    -0.342 N 
ATOM     14  C   UNL     1      -8.115  -2.898  -9.739  1.00  0.00     0.249 C 
ATOM     15  O   UNL     1      -8.157  -1.904 -10.454  1.00  0.00    -0.272 OA
ATOM     16  H   UNL     1      -7.337  -3.903  -8.168  1.00  0.00     0.164 HD
BRANCH  14  17
ATOM     17  C   UNL     1      -9.128  -4.058  -9.835  1.00  0.00     0.207 C 
BRANCH  17  18
ATOM     18  C   UNL     1     -10.507  -3.608  -9.341  1.00  0.00     0.077 C 
BRANCH  18  19
ATOM     19  C   UNL     1     -10.412  -2.818  -8.055  1.00  0.00    -0.043 A 
ATOM     20  C   UNL     1     -10.349  -2.748  -5.631  1.00  0.00     0.083 A 
ATOM     21  C   UNL     1     -10.386  -3.481  -6.817  1.00  0.00     0.028 A 
ATOM     22  C   UNL     1     -10.339  -1.353  -5.671  1.00  0.00     0.134 A 
ATOM     23  C   UNL     1     -10.365  -0.684  -6.890  1.00  0.00     0.048 A 
ATOM     24  C   UNL     1     -10.404  -1.415  -8.079  1.00  0.00     0.008 A 
ATOM     25  Cl  UNL     1     -10.318  -3.580  -4.120  1.00  0.00    -0.080 Cl
BRANCH  22  26
ATOM     26  O   UNL     1     -10.314  -0.592  -4.534  1.00  0.00    -0.506 OA
ATOM     27  H   UNL     1     -10.707  -1.134  -3.825  1.00  0.00     0.293 HD
ENDBRANCH  22  26
ENDBRANCH  18  19
ENDBRANCH  17  18
BRANCH  17  28
ATOM     28  O   UNL     1      -8.693  -5.190  -9.065  1.00  0.00    -0.383 OA
ATOM     29  H   UNL     1      -8.906  -5.985  -9.605  1.00  0.00     0.211 HD
ENDBRANCH  17  28
ENDBRANCH  14  17
ENDBRANCH  12  13
BRANCH  12  30
ATOM     30  C   UNL     1      -4.680  -2.712  -8.891  1.00  0.00     0.018 C 
ATOM     31  C   UNL     1      -4.451  -2.471 -10.391  1.00  0.00     0.010 C 
BRANCH  30  32
ATOM     32  C   UNL     1      -4.449  -4.205  -8.551  1.00  0.00     0.002 C 
ATOM     33  C   UNL     1      -3.527  -4.468  -7.367  1.00  0.00     0.004 C 
ENDBRANCH  30  32
ENDBRANCH  12  30
ENDBRANCH  10  12
ENDBRANCH   1  10
BRANCH   5  34
ATOM     34  C   UNL     1      -4.833  -1.143  -4.001  1.00  0.00     0.242 C 
ATOM     35  O   UNL     1      -5.816  -0.455  -3.730  1.00  0.00    -0.273 OA
ATOM     36  N   UNL     1      -4.138  -1.848  -3.044  1.00  0.00    -0.354 N 
ATOM     37  H   UNL     1      -3.262  -2.302  -3.307  1.00  0.00     0.163 HD
BRANCH  36  38
ATOM     38  C   UNL     1      -4.655  -2.054  -1.707  1.00  0.00     0.116 C 
BRANCH  38  39
ATOM     39  C   UNL     1      -3.509  -2.034  -0.699  1.00  0.00     0.023 C 
BRANCH  39  40
ATOM     40  C   UNL     1      -3.988  -1.761   0.723  1.00  0.00     0.026 C 
BRANCH  40  41
ATOM     41  C   UNL     1      -5.231  -0.871   0.715  1.00  0.00     0.146 C 
BRANCH  41  42
ATOM     42  N   UNL     1      -4.832   0.530   0.667  1.00  0.00    -0.254 NA
ATOM     43  C   UNL     1      -5.341   1.303  -0.216  1.00  0.00     0.185 C 
ATOM     44  N   UNL     1      -6.244   1.041  -1.180  1.00  0.00    -0.370 N 
ATOM     45  N   UNL     1      -4.958   2.590  -0.246  1.00  0.00    -0.370 N 
ATOM     46  H   UNL     1      -6.369   1.674  -1.951  1.00  0.00     0.159 HD
ATOM     47  H   UNL     1      -6.651   0.118  -1.291  1.00  0.00     0.159 HD
ATOM     48  H   UNL     1      -4.285   2.874   0.453  1.00  0.00     0.159 HD
ATOM     49  H   UNL     1      -5.471   3.300  -0.737  1.00  0.00     0.159 HD
ENDBRANCH  41  42
ENDBRANCH  40  41
ENDBRANCH  39  40
ENDBRANCH  38  39
ENDBRANCH  36  38
ENDBRANCH   5  34
BRANCH   8  50
ATOM     50  O   UNL     1      -5.887   3.300  -5.303  1.00  0.00    -0.245 OA
BRANCH  50  51
ATOM     51  S   UNL     1      -6.345   4.799  -4.868  1.00  0.00     0.397 S 
ATOM     52  O   UNL     1      -7.717   4.733  -4.419  1.00  0.00    -0.169 OA
ATOM     53  O   UNL     1      -5.920   5.748  -5.876  1.00  0.00    -0.169 OA
BRANCH  51  54
ATOM     54  O   UNL     1      -5.463   5.049  -3.547  1.00  0.00    -0.264 OA
ATOM     55  H   UNL     1      -5.929   4.634  -2.794  1.00  0.00     0.236 HD
ENDBRANCH  51  54
ENDBRANCH  50  51
ENDBRANCH   8  50
TORSDOF 19
ENDMDL
MODEL 36
REMARK VINA RESULT:    -6.084      2.874      6.357
REMARK INTER + INTRA:         -16.135
REMARK INTER:                 -13.612
REMARK INTRA:                  -2.523
REMARK UNBOUND:                -3.827
REMARK SMILES CC[C@@H](C)[C@@H](NC(=O)[C@@H](O)Cc1ccc(O)c(Cl)c1)C(=O)N1[C@H](C(=O)NCCCCN=C(N)N)C[C@H]2CC[C@H](OS(=O)(=O)O)C[C@@H]21
REMARK SMILES IDX 22 1 36 2 46 3 35 4 23 5 45 6 37 7 39 8 38 9 20 10 21 11
REMARK SMILES IDX 5 12 6 13 7 14 8 15 9 17 11 18 12 19 17 20 19 21 15 22 14 23
REMARK SMILES IDX 13 24 18 25 16 26 10 28 3 30 4 31 2 32 1 33 24 34 25 35
REMARK SMILES IDX 26 36 27 38 28 39 29 40 30 41 31 42 32 43 33 44 34 45 40 50
REMARK SMILES IDX 41 51 42 52 43 53 44 54
REMARK H PARENT 6 16 16 27 10 29 26 37 33 46 33 47 34 48 34 49 44 55
ROOT
ATOM      1  N   UNL     1       2.064  -0.886  -7.950  1.00  0.00    -0.326 N 
ATOM      2  C   UNL     1       1.291  -3.008  -8.613  1.00  0.00     0.014 C 
ATOM      3  C   UNL     1       2.324  -1.928  -8.947  1.00  0.00     0.091 C 
ATOM      4  C   UNL     1       0.095  -2.194  -8.144  1.00  0.00     0.041 C 
ATOM      5  C   UNL     1       0.800  -1.176  -7.229  1.00  0.00     0.175 C 
ATOM      6  C   UNL     1       3.707  -2.574  -8.976  1.00  0.00     0.059 C 
ATOM      7  C   UNL     1       1.124  -3.975  -9.769  1.00  0.00     0.008 C 
ATOM      8  C   UNL     1       3.695  -4.046  -9.444  1.00  0.00     0.143 C 
ATOM      9  C   UNL     1       2.497  -4.352 -10.365  1.00  0.00     0.034 C 
ENDROOT
BRANCH   1  10
ATOM     10  C   UNL     1       2.677   0.343  -7.769  1.00  0.00     0.246 C 
ATOM     11  O   UNL     1       3.855   0.378  -7.400  1.00  0.00    -0.272 OA
BRANCH  10  12
ATOM     12  C   UNL     1       1.885   1.647  -8.075  1.00  0.00     0.174 C 
BRANCH  12  13
ATOM     13  N   UNL     1       0.509   1.520  -7.596  1.00  0.00    -0.342 N 
ATOM     14  C   UNL     1       0.106   1.710  -6.293  1.00  0.00     0.249 C 
ATOM     15  O   UNL     1       0.861   2.039  -5.387  1.00  0.00    -0.272 OA
ATOM     16  H   UNL     1      -0.197   1.102  -8.197  1.00  0.00     0.164 HD
BRANCH  14  17
ATOM     17  C   UNL     1      -1.409   1.485  -6.101  1.00  0.00     0.207 C 
BRANCH  17  18
ATOM     18  C   UNL     1      -2.184   2.772  -6.403  1.00  0.00     0.077 C 
BRANCH  18  19
ATOM     19  C   UNL     1      -3.584   2.732  -5.831  1.00  0.00    -0.043 A 
ATOM     20  C   UNL     1      -5.878   1.954  -5.940  1.00  0.00     0.083 A 
ATOM     21  C   UNL     1      -4.576   1.950  -6.441  1.00  0.00     0.028 A 
ATOM     22  C   UNL     1      -6.197   2.739  -4.831  1.00  0.00     0.134 A 
ATOM     23  C   UNL     1      -5.224   3.518  -4.217  1.00  0.00     0.048 A 
ATOM     24  C   UNL     1      -3.920   3.517  -4.717  1.00  0.00     0.008 A 
ATOM     25  Cl  UNL     1      -7.085   0.986  -6.703  1.00  0.00    -0.080 Cl
BRANCH  22  26
ATOM     26  O   UNL     1      -7.462   2.784  -4.311  1.00  0.00    -0.506 OA
ATOM     27  H   UNL     1      -7.660   3.723  -4.136  1.00  0.00     0.293 HD
ENDBRANCH  22  26
ENDBRANCH  18  19
ENDBRANCH  17  18
BRANCH  17  28
ATOM     28  O   UNL     1      -1.702   1.056  -4.761  1.00  0.00    -0.383 OA
ATOM     29  H   UNL     1      -2.355   0.325  -4.847  1.00  0.00     0.211 HD
ENDBRANCH  17  28
ENDBRANCH  14  17
ENDBRANCH  12  13
BRANCH  12  30
ATOM     30  C   UNL     1       1.956   2.054  -9.572  1.00  0.00     0.018 C 
ATOM     31  C   UNL     1       3.298   2.730  -9.892  1.00  0.00     0.010 C 
BRANCH  30  32
ATOM     32  C   UNL     1       0.784   2.958 -10.026  1.00  0.00     0.002 C 
ATOM     33  C   UNL     1       1.015   3.722 -11.323  1.00  0.00     0.004 C 
ENDBRANCH  30  32
ENDBRANCH  12  30
ENDBRANCH  10  12
ENDBRANCH   1  10
BRANCH   5  34
ATOM     34  C   UNL     1       1.092  -1.774  -5.826  1.00  0.00     0.242 C 
ATOM     35  O   UNL     1       2.211  -2.168  -5.499  1.00  0.00    -0.273 OA
ATOM     36  N   UNL     1      -0.002  -1.881  -4.997  1.00  0.00    -0.354 N 
ATOM     37  H   UNL     1      -0.924  -1.649  -5.367  1.00  0.00     0.163 HD
BRANCH  36  38
ATOM     38  C   UNL     1       0.123  -2.211  -3.592  1.00  0.00     0.116 C 
BRANCH  38  39
ATOM     39  C   UNL     1       0.207  -0.931  -2.764  1.00  0.00     0.023 C 
BRANCH  39  40
ATOM     40  C   UNL     1       1.244  -1.024  -1.651  1.00  0.00     0.026 C 
BRANCH  40  41
ATOM     41  C   UNL     1       2.592  -1.490  -2.203  1.00  0.00     0.146 C 
BRANCH  41  42
ATOM     42  N   UNL     1       3.585  -0.438  -2.029  1.00  0.00    -0.254 NA
ATOM     43  C   UNL     1       3.769   0.419  -2.961  1.00  0.00     0.185 C 
ATOM     44  N   UNL     1       3.169   0.536  -4.160  1.00  0.00    -0.370 N 
ATOM     45  N   UNL     1       4.693   1.378  -2.783  1.00  0.00    -0.370 N 
ATOM     46  H   UNL     1       3.579   1.100  -4.885  1.00  0.00     0.159 HD
ATOM     47  H   UNL     1       2.435  -0.101  -4.453  1.00  0.00     0.159 HD
ATOM     48  H   UNL     1       5.186   1.367  -1.901  1.00  0.00     0.159 HD
ATOM     49  H   UNL     1       4.730   2.208  -3.347  1.00  0.00     0.159 HD
ENDBRANCH  41  42
ENDBRANCH  40  41
ENDBRANCH  39  40
ENDBRANCH  38  39
ENDBRANCH  36  38
ENDBRANCH   5  34
BRANCH   8  50
ATOM     50  O   UNL     1       3.633  -4.918  -8.315  1.00  0.00    -0.245 OA
BRANCH  50  51
ATOM     51  S   UNL     1       4.720  -6.120  -8.169  1.00  0.00     0.397 S 
ATOM     52  O   UNL     1       5.330  -6.330  -9.462  1.00  0.00    -0.169 OA
ATOM     53  O   UNL     1       4.138  -7.212  -7.417  1.00  0.00    -0.169 OA
BRANCH  51  54
ATOM     54  O   UNL     1       5.853  -5.438  -7.255  1.00  0.00    -0.264 OA
ATOM     55  H   UNL     1       5.714  -5.737  -6.333  1.00  0.00     0.236 HD
ENDBRANCH  51  54
ENDBRANCH  50  51
ENDBRANCH   8  50
TORSDOF 19
ENDMDL
MODEL 37
REMARK VINA RESULT:    -6.083     14.352     17.742
REMARK INTER + INTRA:         -16.133
REMARK INTER:                 -13.338
REMARK INTRA:                  -2.794
REMARK UNBOUND:                -3.827
REMARK SMILES CC[C@@H](C)[C@@H](NC(=O)[C@@H](O)Cc1ccc(O)c(Cl)c1)C(=O)N1[C@H](C(=O)NCCCCN=C(N)N)C[C@H]2CC[C@H](OS(=O)(=O)O)C[C@@H]21
REMARK SMILES IDX 22 1 36 2 46 3 35 4 23 5 45 6 37 7 39 8 38 9 20 10 21 11
REMARK SMILES IDX 5 12 6 13 7 14 8 15 9 17 11 18 12 19 17 20 19 21 15 22 14 23
REMARK SMILES IDX 13 24 18 25 16 26 10 28 3 30 4 31 2 32 1 33 24 34 25 35
REMARK SMILES IDX 26 36 27 38 28 39 29 40 30 41 31 42 32 43 33 44 34 45 40 50
REMARK SMILES IDX 41 51 42 52 43 53 44 54
REMARK H PARENT 6 16 16 27 10 29 26 37 33 46 33 47 34 48 34 49 44 55
ROOT
ATOM      1  N   UNL     1      -1.667   3.669  11.040  1.00  0.00    -0.326 N 
ATOM      2  C   UNL     1      -3.427   2.208  11.595  1.00  0.00     0.014 C 
ATOM      3  C   UNL     1      -3.047   3.355  10.656  1.00  0.00     0.091 C 
ATOM      4  C   UNL     1      -2.684   2.561  12.874  1.00  0.00     0.041 C 
ATOM      5  C   UNL     1      -1.315   2.958  12.293  1.00  0.00     0.175 C 
ATOM      6  C   UNL     1      -3.316   2.913   9.219  1.00  0.00     0.059 C 
ATOM      7  C   UNL     1      -4.931   2.017  11.637  1.00  0.00     0.008 C 
ATOM      8  C   UNL     1      -4.503   1.935   9.082  1.00  0.00     0.143 C 
ATOM      9  C   UNL     1      -5.531   2.109  10.219  1.00  0.00     0.034 C 
ENDROOT
BRANCH   1  10
ATOM     10  C   UNL     1      -0.807   4.635  10.547  1.00  0.00     0.246 C 
ATOM     11  O   UNL     1      -1.098   5.828  10.689  1.00  0.00    -0.272 OA
BRANCH  10  12
ATOM     12  C   UNL     1       0.524   4.203   9.867  1.00  0.00     0.174 C 
BRANCH  12  13
ATOM     13  N   UNL     1       1.330   5.382   9.551  1.00  0.00    -0.342 N 
ATOM     14  C   UNL     1       2.652   5.551   9.896  1.00  0.00     0.249 C 
ATOM     15  O   UNL     1       3.315   4.709  10.488  1.00  0.00    -0.272 OA
ATOM     16  H   UNL     1       0.876   6.223   9.203  1.00  0.00     0.164 HD
BRANCH  14  17
ATOM     17  C   UNL     1       3.218   6.912   9.436  1.00  0.00     0.207 C 
BRANCH  17  18
ATOM     18  C   UNL     1       2.556   7.352   8.127  1.00  0.00     0.077 C 
BRANCH  18  19
ATOM     19  C   UNL     1       2.208   8.824   8.141  1.00  0.00    -0.043 A 
ATOM     20  C   UNL     1       1.433  10.790   9.330  1.00  0.00     0.083 A 
ATOM     21  C   UNL     1       1.800   9.444   9.332  1.00  0.00     0.028 A 
ATOM     22  C   UNL     1       1.469  11.523   8.144  1.00  0.00     0.134 A 
ATOM     23  C   UNL     1       1.871  10.921   6.957  1.00  0.00     0.048 A 
ATOM     24  C   UNL     1       2.238   9.573   6.954  1.00  0.00     0.008 A 
ATOM     25  Cl  UNL     1       0.934  11.535  10.804  1.00  0.00    -0.080 Cl
BRANCH  22  26
ATOM     26  O   UNL     1       1.108  12.842   8.091  1.00  0.00    -0.506 OA
ATOM     27  H   UNL     1       1.919  13.347   7.893  1.00  0.00     0.293 HD
ENDBRANCH  22  26
ENDBRANCH  18  19
ENDBRANCH  17  18
BRANCH  17  28
ATOM     28  O   UNL     1       4.641   6.844   9.251  1.00  0.00    -0.383 OA
ATOM     29  H   UNL     1       5.035   7.389   9.970  1.00  0.00     0.211 HD
ENDBRANCH  17  28
ENDBRANCH  14  17
ENDBRANCH  12  13
BRANCH  12  30
ATOM     30  C   UNL     1       0.297   3.292   8.630  1.00  0.00     0.018 C 
ATOM     31  C   UNL     1       1.533   2.420   8.359  1.00  0.00     0.010 C 
BRANCH  30  32
ATOM     32  C   UNL     1      -0.096   4.070   7.350  1.00  0.00     0.002 C 
ATOM     33  C   UNL     1      -0.541   3.208   6.175  1.00  0.00     0.004 C 
ENDBRANCH  30  32
ENDBRANCH  12  30
ENDBRANCH  10  12
ENDBRANCH   1  10
BRANCH   5  34
ATOM     34  C   UNL     1      -0.439   1.712  11.991  1.00  0.00     0.242 C 
ATOM     35  O   UNL     1      -0.669   0.960  11.044  1.00  0.00    -0.273 OA
ATOM     36  N   UNL     1       0.578   1.479  12.890  1.00  0.00    -0.354 N 
ATOM     37  H   UNL     1       0.643   2.068  13.721  1.00  0.00     0.163 HD
BRANCH  36  38
ATOM     38  C   UNL     1       1.615   0.497  12.647  1.00  0.00     0.116 C 
BRANCH  38  39
ATOM     39  C   UNL     1       2.542   0.413  13.857  1.00  0.00     0.023 C 
BRANCH  39  40
ATOM     40  C   UNL     1       4.000   0.208  13.460  1.00  0.00     0.026 C 
BRANCH  40  41
ATOM     41  C   UNL     1       4.249   0.703  12.035  1.00  0.00     0.146 C 
BRANCH  41  42
ATOM     42  N   UNL     1       5.682   0.755  11.775  1.00  0.00    -0.254 NA
ATOM     43  C   UNL     1       6.137   1.566  10.895  1.00  0.00     0.185 C 
ATOM     44  N   UNL     1       5.487   2.445  10.110  1.00  0.00    -0.370 N 
ATOM     45  N   UNL     1       7.460   1.596  10.667  1.00  0.00    -0.370 N 
ATOM     46  H   UNL     1       5.935   2.837   9.299  1.00  0.00     0.159 HD
ATOM     47  H   UNL     1       4.479   2.562  10.161  1.00  0.00     0.159 HD
ATOM     48  H   UNL     1       8.025   0.970  11.225  1.00  0.00     0.159 HD
ATOM     49  H   UNL     1       7.911   2.351  10.181  1.00  0.00     0.159 HD
ENDBRANCH  41  42
ENDBRANCH  40  41
ENDBRANCH  39  40
ENDBRANCH  38  39
ENDBRANCH  36  38
ENDBRANCH   5  34
BRANCH   8  50
ATOM     50  O   UNL     1      -4.032   0.587   9.098  1.00  0.00    -0.245 OA
BRANCH  50  51
ATOM     51  S   UNL     1      -3.740  -0.179   7.693  1.00  0.00     0.397 S 
ATOM     52  O   UNL     1      -2.522   0.363   7.134  1.00  0.00    -0.169 OA
ATOM     53  O   UNL     1      -4.962  -0.257   6.920  1.00  0.00    -0.169 OA
BRANCH  51  54
ATOM     54  O   UNL     1      -3.372  -1.663   8.191  1.00  0.00    -0.264 OA
ATOM     55  H   UNL     1      -4.178  -2.213   8.110  1.00  0.00     0.236 HD
ENDBRANCH  51  54
ENDBRANCH  50  51
ENDBRANCH   8  50
TORSDOF 19
ENDMDL
MODEL 38
REMARK VINA RESULT:    -6.071     12.130     16.064
REMARK INTER + INTRA:         -16.109
REMARK INTER:                 -11.823
REMARK INTRA:                  -4.286
REMARK UNBOUND:                -3.827
REMARK SMILES CC[C@@H](C)[C@@H](NC(=O)[C@@H](O)Cc1ccc(O)c(Cl)c1)C(=O)N1[C@H](C(=O)NCCCCN=C(N)N)C[C@H]2CC[C@H](OS(=O)(=O)O)C[C@@H]21
REMARK SMILES IDX 22 1 36 2 46 3 35 4 23 5 45 6 37 7 39 8 38 9 20 10 21 11
REMARK SMILES IDX 5 12 6 13 7 14 8 15 9 17 11 18 12 19 17 20 19 21 15 22 14 23
REMARK SMILES IDX 13 24 18 25 16 26 10 28 3 30 4 31 2 32 1 33 24 34 25 35
REMARK SMILES IDX 26 36 27 38 28 39 29 40 30 41 31 42 32 43 33 44 34 45 40 50
REMARK SMILES IDX 41 51 42 52 43 53 44 54
REMARK H PARENT 6 16 16 27 10 29 26 37 33 46 33 47 34 48 34 49 44 55
ROOT
ATOM      1  N   UNL     1      -2.238   2.346  10.139  1.00  0.00    -0.326 N 
ATOM      2  C   UNL     1      -1.868   3.917   8.426  1.00  0.00     0.014 C 
ATOM      3  C   UNL     1      -1.165   3.154   9.552  1.00  0.00     0.091 C 
ATOM      4  C   UNL     1      -3.254   4.163   9.002  1.00  0.00     0.041 C 
ATOM      5  C   UNL     1      -3.551   2.775   9.598  1.00  0.00     0.175 C 
ATOM      6  C   UNL     1       0.046   2.432   8.963  1.00  0.00     0.059 C 
ATOM      7  C   UNL     1      -1.033   5.097   7.967  1.00  0.00     0.008 C 
ATOM      8  C   UNL     1       0.698   3.176   7.778  1.00  0.00     0.143 C 
ATOM      9  C   UNL     1       0.452   4.697   7.844  1.00  0.00     0.034 C 
ENDROOT
BRANCH   1  10
ATOM     10  C   UNL     1      -2.203   1.467  11.208  1.00  0.00     0.246 C 
ATOM     11  O   UNL     1      -2.204   0.251  10.987  1.00  0.00    -0.272 OA
BRANCH  10  12
ATOM     12  C   UNL     1      -2.120   2.025  12.658  1.00  0.00     0.174 C 
BRANCH  12  13
ATOM     13  N   UNL     1      -2.172   3.486  12.634  1.00  0.00    -0.342 N 
ATOM     14  C   UNL     1      -3.250   4.246  13.027  1.00  0.00     0.249 C 
ATOM     15  O   UNL     1      -4.289   3.775  13.473  1.00  0.00    -0.272 OA
ATOM     16  H   UNL     1      -1.448   4.008  12.145  1.00  0.00     0.164 HD
BRANCH  14  17
ATOM     17  C   UNL     1      -3.003   5.761  12.866  1.00  0.00     0.207 C 
BRANCH  17  18
ATOM     18  C   UNL     1      -1.866   6.015  11.871  1.00  0.00     0.077 C 
BRANCH  18  19
ATOM     19  C   UNL     1      -2.186   7.154  10.930  1.00  0.00    -0.043 A 
ATOM     20  C   UNL     1      -3.811   8.480   9.710  1.00  0.00     0.083 A 
ATOM     21  C   UNL     1      -3.520   7.460  10.618  1.00  0.00     0.028 A 
ATOM     22  C   UNL     1      -2.775   9.196   9.110  1.00  0.00     0.134 A 
ATOM     23  C   UNL     1      -1.450   8.903   9.410  1.00  0.00     0.048 A 
ATOM     24  C   UNL     1      -1.156   7.882  10.316  1.00  0.00     0.008 A 
ATOM     25  Cl  UNL     1      -5.456   8.842   9.339  1.00  0.00    -0.080 Cl
BRANCH  22  26
ATOM     26  O   UNL     1      -3.011  10.197   8.206  1.00  0.00    -0.506 OA
ATOM     27  H   UNL     1      -3.847   9.976   7.755  1.00  0.00     0.293 HD
ENDBRANCH  22  26
ENDBRANCH  18  19
ENDBRANCH  17  18
BRANCH  17  28
ATOM     28  O   UNL     1      -2.678   6.369  14.126  1.00  0.00    -0.383 OA
ATOM     29  H   UNL     1      -2.304   7.254  13.913  1.00  0.00     0.211 HD
ENDBRANCH  17  28
ENDBRANCH  14  17
ENDBRANCH  12  13
BRANCH  12  30
ATOM     30  C   UNL     1      -0.890   1.489  13.438  1.00  0.00     0.018 C 
ATOM     31  C   UNL     1       0.367   1.505  12.555  1.00  0.00     0.010 C 
BRANCH  30  32
ATOM     32  C   UNL     1      -1.101   0.076  14.037  1.00  0.00     0.002 C 
ATOM     33  C   UNL     1      -0.048  -0.956  13.654  1.00  0.00     0.004 C 
ENDBRANCH  30  32
ENDBRANCH  12  30
ENDBRANCH  10  12
ENDBRANCH   1  10
BRANCH   5  34
ATOM     34  C   UNL     1      -4.050   1.782   8.514  1.00  0.00     0.242 C 
ATOM     35  O   UNL     1      -3.438   0.752   8.234  1.00  0.00    -0.273 OA
ATOM     36  N   UNL     1      -5.196   2.164   7.853  1.00  0.00    -0.354 N 
ATOM     37  H   UNL     1      -5.591   3.085   8.046  1.00  0.00     0.163 HD
BRANCH  36  38
ATOM     38  C   UNL     1      -5.916   1.267   6.973  1.00  0.00     0.116 C 
BRANCH  38  39
ATOM     39  C   UNL     1      -5.843   1.781   5.537  1.00  0.00     0.023 C 
BRANCH  39  40
ATOM     40  C   UNL     1      -4.863   0.983   4.683  1.00  0.00     0.026 C 
BRANCH  40  41
ATOM     41  C   UNL     1      -4.966  -0.511   4.991  1.00  0.00     0.146 C 
BRANCH  41  42
ATOM     42  N   UNL     1      -3.656  -1.133   4.857  1.00  0.00    -0.254 NA
ATOM     43  C   UNL     1      -3.172  -1.807   5.832  1.00  0.00     0.185 C 
ATOM     44  N   UNL     1      -3.690  -2.066   7.046  1.00  0.00    -0.370 N 
ATOM     45  N   UNL     1      -1.960  -2.369   5.690  1.00  0.00    -0.370 N 
ATOM     46  H   UNL     1      -3.104  -2.397   7.794  1.00  0.00     0.159 HD
ATOM     47  H   UNL     1      -4.608  -1.727   7.317  1.00  0.00     0.159 HD
ATOM     48  H   UNL     1      -1.503  -2.229   4.799  1.00  0.00     0.159 HD
ATOM     49  H   UNL     1      -1.622  -3.093   6.298  1.00  0.00     0.159 HD
ENDBRANCH  41  42
ENDBRANCH  40  41
ENDBRANCH  39  40
ENDBRANCH  38  39
ENDBRANCH  36  38
ENDBRANCH   5  34
BRANCH   8  50
ATOM     50  O   UNL     1       0.174   2.686   6.543  1.00  0.00    -0.245 OA
BRANCH  50  51
ATOM     51  S   UNL     1       0.647   1.230   5.993  1.00  0.00     0.397 S 
ATOM     52  O   UNL     1      -0.461   0.314   6.146  1.00  0.00    -0.169 OA
ATOM     53  O   UNL     1       1.965   0.921   6.506  1.00  0.00    -0.169 OA
BRANCH  51  54
ATOM     54  O   UNL     1       0.779   1.496   4.413  1.00  0.00    -0.264 OA
ATOM     55  H   UNL     1       0.816   0.626   3.966  1.00  0.00     0.236 HD
ENDBRANCH  51  54
ENDBRANCH  50  51
ENDBRANCH   8  50
TORSDOF 19
ENDMDL
MODEL 39
REMARK VINA RESULT:    -6.060     12.022     15.831
REMARK INTER + INTRA:         -16.086
REMARK INTER:                 -12.879
REMARK INTRA:                  -3.207
REMARK UNBOUND:                -3.827
REMARK SMILES CC[C@@H](C)[C@@H](NC(=O)[C@@H](O)Cc1ccc(O)c(Cl)c1)C(=O)N1[C@H](C(=O)NCCCCN=C(N)N)C[C@H]2CC[C@H](OS(=O)(=O)O)C[C@@H]21
REMARK SMILES IDX 22 1 36 2 46 3 35 4 23 5 45 6 37 7 39 8 38 9 20 10 21 11
REMARK SMILES IDX 5 12 6 13 7 14 8 15 9 17 11 18 12 19 17 20 19 21 15 22 14 23
REMARK SMILES IDX 13 24 18 25 16 26 10 28 3 30 4 31 2 32 1 33 24 34 25 35
REMARK SMILES IDX 26 36 27 38 28 39 29 40 30 41 31 42 32 43 33 44 34 45 40 50
REMARK SMILES IDX 41 51 42 52 43 53 44 54
REMARK H PARENT 6 16 16 27 10 29 26 37 33 46 33 47 34 48 34 49 44 55
ROOT
ATOM      1  N   UNL     1      -3.237   2.739   9.218  1.00  0.00    -0.326 N 
ATOM      2  C   UNL     1      -1.213   3.930   9.042  1.00  0.00     0.014 C 
ATOM      3  C   UNL     1      -2.067   3.115  10.018  1.00  0.00     0.091 C 
ATOM      4  C   UNL     1      -2.258   4.646   8.200  1.00  0.00     0.041 C 
ATOM      5  C   UNL     1      -3.236   3.486   7.935  1.00  0.00     0.175 C 
ATOM      6  C   UNL     1      -1.202   2.001  10.603  1.00  0.00     0.059 C 
ATOM      7  C   UNL     1      -0.171   4.744   9.784  1.00  0.00     0.008 C 
ATOM      8  C   UNL     1       0.289   2.380  10.743  1.00  0.00     0.143 C 
ATOM      9  C   UNL     1       0.487   3.901  10.897  1.00  0.00     0.034 C 
ENDROOT
BRANCH   1  10
ATOM     10  C   UNL     1      -4.359   2.011   9.574  1.00  0.00     0.246 C 
ATOM     11  O   UNL     1      -4.590   0.943   8.998  1.00  0.00    -0.272 OA
BRANCH  10  12
ATOM     12  C   UNL     1      -5.279   2.530  10.716  1.00  0.00     0.174 C 
BRANCH  12  13
ATOM     13  N   UNL     1      -6.516   1.751  10.753  1.00  0.00    -0.342 N 
ATOM     14  C   UNL     1      -6.922   0.962  11.806  1.00  0.00     0.249 C 
ATOM     15  O   UNL     1      -6.296   0.847  12.852  1.00  0.00    -0.272 OA
ATOM     16  H   UNL     1      -7.057   1.624   9.901  1.00  0.00     0.164 HD
BRANCH  14  17
ATOM     17  C   UNL     1      -8.266   0.252  11.535  1.00  0.00     0.207 C 
BRANCH  17  18
ATOM     18  C   UNL     1      -9.019   0.947  10.396  1.00  0.00     0.077 C 
BRANCH  18  19
ATOM     19  C   UNL     1      -9.634  -0.048   9.439  1.00  0.00    -0.043 A 
ATOM     20  C   UNL     1     -10.976  -2.029   9.040  1.00  0.00     0.083 A 
ATOM     21  C   UNL     1     -10.450  -1.083   9.921  1.00  0.00     0.028 A 
ATOM     22  C   UNL     1     -10.689  -1.949   7.677  1.00  0.00     0.134 A 
ATOM     23  C   UNL     1      -9.882  -0.929   7.186  1.00  0.00     0.048 A 
ATOM     24  C   UNL     1      -9.353   0.018   8.065  1.00  0.00     0.008 A 
ATOM     25  Cl  UNL     1     -11.976  -3.294   9.651  1.00  0.00    -0.080 Cl
BRANCH  22  26
ATOM     26  O   UNL     1     -11.173  -2.860   6.776  1.00  0.00    -0.506 OA
ATOM     27  H   UNL     1     -10.588  -3.638   6.824  1.00  0.00     0.293 HD
ENDBRANCH  22  26
ENDBRANCH  18  19
ENDBRANCH  17  18
BRANCH  17  28
ATOM     28  O   UNL     1      -9.089   0.237  12.712  1.00  0.00    -0.383 OA
ATOM     29  H   UNL     1     -10.019   0.283  12.393  1.00  0.00     0.211 HD
ENDBRANCH  17  28
ENDBRANCH  14  17
ENDBRANCH  12  13
BRANCH  12  30
ATOM     30  C   UNL     1      -5.544   4.058  10.626  1.00  0.00     0.018 C 
ATOM     31  C   UNL     1      -5.853   4.641  12.014  1.00  0.00     0.010 C 
BRANCH  30  32
ATOM     32  C   UNL     1      -6.665   4.437   9.628  1.00  0.00     0.002 C 
ATOM     33  C   UNL     1      -6.287   5.487   8.592  1.00  0.00     0.004 C 
ENDBRANCH  30  32
ENDBRANCH  12  30
ENDBRANCH  10  12
ENDBRANCH   1  10
BRANCH   5  34
ATOM     34  C   UNL     1      -2.748   2.581   6.772  1.00  0.00     0.242 C 
ATOM     35  O   UNL     1      -1.640   2.715   6.255  1.00  0.00    -0.273 OA
ATOM     36  N   UNL     1      -3.666   1.656   6.326  1.00  0.00    -0.354 N 
ATOM     37  H   UNL     1      -4.610   1.674   6.714  1.00  0.00     0.163 HD
BRANCH  36  38
ATOM     38  C   UNL     1      -3.310   0.597   5.404  1.00  0.00     0.116 C 
BRANCH  38  39
ATOM     39  C   UNL     1      -2.961  -0.670   6.181  1.00  0.00     0.023 C 
BRANCH  39  40
ATOM     40  C   UNL     1      -2.174  -1.670   5.340  1.00  0.00     0.026 C 
BRANCH  40  41
ATOM     41  C   UNL     1      -1.044  -0.972   4.584  1.00  0.00     0.146 C 
BRANCH  41  42
ATOM     42  N   UNL     1       0.068  -0.714   5.488  1.00  0.00    -0.254 NA
ATOM     43  C   UNL     1       0.708   0.392   5.405  1.00  0.00     0.185 C 
ATOM     44  N   UNL     1       0.528   1.436   4.575  1.00  0.00    -0.370 N 
ATOM     45  N   UNL     1       1.733   0.609   6.245  1.00  0.00    -0.370 N 
ATOM     46  H   UNL     1       1.249   2.127   4.456  1.00  0.00     0.159 HD
ATOM     47  H   UNL     1      -0.215   1.444   3.883  1.00  0.00     0.159 HD
ATOM     48  H   UNL     1       1.931  -0.126   6.911  1.00  0.00     0.159 HD
ATOM     49  H   UNL     1       2.122   1.521   6.404  1.00  0.00     0.159 HD
ENDBRANCH  41  42
ENDBRANCH  40  41
ENDBRANCH  39  40
ENDBRANCH  38  39
ENDBRANCH  36  38
ENDBRANCH   5  34
BRANCH   8  50
ATOM     50  O   UNL     1       1.016   1.942   9.595  1.00  0.00    -0.245 OA
BRANCH  50  51
ATOM     51  S   UNL     1       2.625   1.732   9.696  1.00  0.00     0.397 S 
ATOM     52  O   UNL     1       3.252   3.030   9.592  1.00  0.00    -0.169 OA
ATOM     53  O   UNL     1       3.025   0.626   8.851  1.00  0.00    -0.169 OA
BRANCH  51  54
ATOM     54  O   UNL     1       2.809   1.277  11.227  1.00  0.00    -0.264 OA
ATOM     55  H   UNL     1       2.604   2.048  11.794  1.00  0.00     0.236 HD
ENDBRANCH  51  54
ENDBRANCH  50  51
ENDBRANCH   8  50
TORSDOF 19
ENDMDL
MODEL 40
REMARK VINA RESULT:    -6.040     16.934     20.576
REMARK INTER + INTRA:         -16.047
REMARK INTER:                 -13.158
REMARK INTRA:                  -2.889
REMARK UNBOUND:                -3.827
REMARK SMILES CC[C@@H](C)[C@@H](NC(=O)[C@@H](O)Cc1ccc(O)c(Cl)c1)C(=O)N1[C@H](C(=O)NCCCCN=C(N)N)C[C@H]2CC[C@H](OS(=O)(=O)O)C[C@@H]21
REMARK SMILES IDX 22 1 36 2 46 3 35 4 23 5 45 6 37 7 39 8 38 9 20 10 21 11
REMARK SMILES IDX 5 12 6 13 7 14 8 15 9 17 11 18 12 19 17 20 19 21 15 22 14 23
REMARK SMILES IDX 13 24 18 25 16 26 10 28 3 30 4 31 2 32 1 33 24 34 25 35
REMARK SMILES IDX 26 36 27 38 28 39 29 40 30 41 31 42 32 43 33 44 34 45 40 50
REMARK SMILES IDX 41 51 42 52 43 53 44 54
REMARK H PARENT 6 16 16 27 10 29 26 37 33 46 33 47 34 48 34 49 44 55
ROOT
ATOM      1  N   UNL     1     -12.745  -1.409   7.622  1.00  0.00    -0.326 N 
ATOM      2  C   UNL     1     -11.984  -1.148   9.834  1.00  0.00     0.014 C 
ATOM      3  C   UNL     1     -12.980  -0.589   8.814  1.00  0.00     0.091 C 
ATOM      4  C   UNL     1     -10.795  -1.531   8.967  1.00  0.00     0.041 C 
ATOM      5  C   UNL     1     -11.521  -2.228   7.801  1.00  0.00     0.175 C 
ATOM      6  C   UNL     1     -14.373  -0.603   9.440  1.00  0.00     0.059 C 
ATOM      7  C   UNL     1     -11.785  -0.181  10.984  1.00  0.00     0.008 C 
ATOM      8  C   UNL     1     -14.369  -0.390  10.970  1.00  0.00     0.143 C 
ATOM      9  C   UNL     1     -13.136   0.408  11.440  1.00  0.00     0.034 C 
ENDROOT
BRANCH   1  10
ATOM     10  C   UNL     1     -13.341  -1.351   6.373  1.00  0.00     0.246 C 
ATOM     11  O   UNL     1     -14.127  -2.245   6.040  1.00  0.00    -0.272 OA
BRANCH  10  12
ATOM     12  C   UNL     1     -13.045  -0.144   5.437  1.00  0.00     0.174 C 
BRANCH  12  13
ATOM     13  N   UNL     1     -14.292   0.362   4.865  1.00  0.00    -0.342 N 
ATOM     14  C   UNL     1     -15.086   1.332   5.436  1.00  0.00     0.249 C 
ATOM     15  O   UNL     1     -14.817   1.904   6.485  1.00  0.00    -0.272 OA
ATOM     16  H   UNL     1     -14.722  -0.125   4.083  1.00  0.00     0.164 HD
BRANCH  14  17
ATOM     17  C   UNL     1     -16.347   1.637   4.599  1.00  0.00     0.207 C 
BRANCH  17  18
ATOM     18  C   UNL     1     -15.956   2.099   3.191  1.00  0.00     0.077 C 
BRANCH  18  19
ATOM     19  C   UNL     1     -16.195   1.020   2.159  1.00  0.00    -0.043 A 
ATOM     20  C   UNL     1     -17.131  -1.132   1.546  1.00  0.00     0.083 A 
ATOM     21  C   UNL     1     -16.954  -0.115   2.484  1.00  0.00     0.028 A 
ATOM     22  C   UNL     1     -16.552  -1.024   0.281  1.00  0.00     0.134 A 
ATOM     23  C   UNL     1     -15.798   0.095  -0.054  1.00  0.00     0.048 A 
ATOM     24  C   UNL     1     -15.617   1.114   0.884  1.00  0.00     0.008 A 
ATOM     25  Cl  UNL     1     -18.067  -2.519   1.964  1.00  0.00    -0.080 Cl
BRANCH  22  26
ATOM     26  O   UNL     1     -16.689  -2.000  -0.669  1.00  0.00    -0.506 OA
ATOM     27  H   UNL     1     -16.851  -2.834  -0.191  1.00  0.00     0.293 HD
ENDBRANCH  22  26
ENDBRANCH  18  19
ENDBRANCH  17  18
BRANCH  17  28
ATOM     28  O   UNL     1     -17.151   2.649   5.226  1.00  0.00    -0.383 OA
ATOM     29  H   UNL     1     -17.689   3.053   4.507  1.00  0.00     0.211 HD
ENDBRANCH  17  28
ENDBRANCH  14  17
ENDBRANCH  12  13
BRANCH  12  30
ATOM     30  C   UNL     1     -11.987  -0.475   4.350  1.00  0.00     0.018 C 
ATOM     31  C   UNL     1     -10.566  -0.214   4.874  1.00  0.00     0.010 C 
BRANCH  30  32
ATOM     32  C   UNL     1     -12.209   0.280   3.016  1.00  0.00     0.002 C 
ATOM     33  C   UNL     1     -12.236  -0.595   1.770  1.00  0.00     0.004 C 
ENDBRANCH  30  32
ENDBRANCH  12  30
ENDBRANCH  10  12
ENDBRANCH   1  10
BRANCH   5  34
ATOM     34  C   UNL     1     -11.887  -3.695   8.150  1.00  0.00     0.242 C 
ATOM     35  O   UNL     1     -11.478  -4.250   9.170  1.00  0.00    -0.273 OA
ATOM     36  N   UNL     1     -12.656  -4.346   7.212  1.00  0.00    -0.354 N 
ATOM     37  H   UNL     1     -12.862  -3.873   6.331  1.00  0.00     0.163 HD
BRANCH  36  38
ATOM     38  C   UNL     1     -13.265  -5.635   7.470  1.00  0.00     0.116 C 
BRANCH  38  39
ATOM     39  C   UNL     1     -14.233  -5.986   6.343  1.00  0.00     0.023 C 
BRANCH  39  40
ATOM     40  C   UNL     1     -15.195  -7.105   6.728  1.00  0.00     0.026 C 
BRANCH  40  41
ATOM     41  C   UNL     1     -15.858  -6.810   8.073  1.00  0.00     0.146 C 
BRANCH  41  42
ATOM     42  N   UNL     1     -17.232  -6.373   7.859  1.00  0.00    -0.254 NA
ATOM     43  C   UNL     1     -18.200  -7.143   8.190  1.00  0.00     0.185 C 
ATOM     44  N   UNL     1     -18.180  -8.371   8.740  1.00  0.00    -0.370 N 
ATOM     45  N   UNL     1     -19.459  -6.723   7.981  1.00  0.00    -0.370 N 
ATOM     46  H   UNL     1     -18.998  -8.955   8.720  1.00  0.00     0.159 HD
ATOM     47  H   UNL     1     -17.308  -8.834   8.977  1.00  0.00     0.159 HD
ATOM     48  H   UNL     1     -19.563  -5.803   7.576  1.00  0.00     0.159 HD
ATOM     49  H   UNL     1     -20.254  -7.151   8.419  1.00  0.00     0.159 HD
ENDBRANCH  41  42
ENDBRANCH  40  41
ENDBRANCH  39  40
ENDBRANCH  38  39
ENDBRANCH  36  38
ENDBRANCH   5  34
BRANCH   8  50
ATOM     50  O   UNL     1     -14.375  -1.651  11.640  1.00  0.00    -0.245 OA
BRANCH  50  51
ATOM     51  S   UNL     1     -15.495  -1.948  12.781  1.00  0.00     0.397 S 
ATOM     52  O   UNL     1     -16.206  -0.717  13.040  1.00  0.00    -0.169 OA
ATOM     53  O   UNL     1     -14.903  -2.724  13.852  1.00  0.00    -0.169 OA
BRANCH  51  54
ATOM     54  O   UNL     1     -16.530  -2.895  11.997  1.00  0.00    -0.264 OA
ATOM     55  H   UNL     1     -17.334  -2.369  11.810  1.00  0.00     0.236 HD
ENDBRANCH  51  54
ENDBRANCH  50  51
ENDBRANCH   8  50
TORSDOF 19
ENDMDL
MODEL 41
REMARK VINA RESULT:    -6.020      3.865      7.099
REMARK INTER + INTRA:         -16.005
REMARK INTER:                 -12.886
REMARK INTRA:                  -3.119
REMARK UNBOUND:                -3.827
REMARK SMILES CC[C@@H](C)[C@@H](NC(=O)[C@@H](O)Cc1ccc(O)c(Cl)c1)C(=O)N1[C@H](C(=O)NCCCCN=C(N)N)C[C@H]2CC[C@H](OS(=O)(=O)O)C[C@@H]21
REMARK SMILES IDX 22 1 36 2 46 3 35 4 23 5 45 6 37 7 39 8 38 9 20 10 21 11
REMARK SMILES IDX 5 12 6 13 7 14 8 15 9 17 11 18 12 19 17 20 19 21 15 22 14 23
REMARK SMILES IDX 13 24 18 25 16 26 10 28 3 30 4 31 2 32 1 33 24 34 25 35
REMARK SMILES IDX 26 36 27 38 28 39 29 40 30 41 31 42 32 43 33 44 34 45 40 50
REMARK SMILES IDX 41 51 42 52 43 53 44 54
REMARK H PARENT 6 16 16 27 10 29 26 37 33 46 33 47 34 48 34 49 44 55
ROOT
ATOM      1  N   UNL     1       0.895  -1.129  -8.058  1.00  0.00    -0.326 N 
ATOM      2  C   UNL     1       0.838  -3.459  -7.725  1.00  0.00     0.014 C 
ATOM      3  C   UNL     1       1.735  -2.227  -7.571  1.00  0.00     0.091 C 
ATOM      4  C   UNL     1       0.047  -3.141  -8.985  1.00  0.00     0.041 C 
ATOM      5  C   UNL     1      -0.322  -1.671  -8.712  1.00  0.00     0.175 C 
ATOM      6  C   UNL     1       2.235  -2.171  -6.128  1.00  0.00     0.059 C 
ATOM      7  C   UNL     1       1.654  -4.735  -7.662  1.00  0.00     0.008 C 
ATOM      8  C   UNL     1       2.420  -3.561  -5.481  1.00  0.00     0.143 C 
ATOM      9  C   UNL     1       2.700  -4.656  -6.530  1.00  0.00     0.034 C 
ENDROOT
BRANCH   1  10
ATOM     10  C   UNL     1       1.179   0.221  -8.175  1.00  0.00     0.246 C 
ATOM     11  O   UNL     1       1.047   0.770  -9.274  1.00  0.00    -0.272 OA
BRANCH  10  12
ATOM     12  C   UNL     1       1.614   1.026  -6.916  1.00  0.00     0.174 C 
BRANCH  12  13
ATOM     13  N   UNL     1       0.453   1.683  -6.317  1.00  0.00    -0.342 N 
ATOM     14  C   UNL     1      -0.056   1.405  -5.068  1.00  0.00     0.249 C 
ATOM     15  O   UNL     1       0.432   0.586  -4.300  1.00  0.00    -0.272 OA
ATOM     16  H   UNL     1      -0.146   2.269  -6.893  1.00  0.00     0.164 HD
BRANCH  14  17
ATOM     17  C   UNL     1      -1.299   2.255  -4.729  1.00  0.00     0.207 C 
BRANCH  17  18
ATOM     18  C   UNL     1      -2.291   2.242  -5.896  1.00  0.00     0.077 C 
BRANCH  18  19
ATOM     19  C   UNL     1      -3.723   2.167  -5.416  1.00  0.00    -0.043 A 
ATOM     20  C   UNL     1      -5.818   3.261  -4.871  1.00  0.00     0.083 A 
ATOM     21  C   UNL     1      -4.514   3.326  -5.361  1.00  0.00     0.028 A 
ATOM     22  C   UNL     1      -6.340   2.044  -4.432  1.00  0.00     0.134 A 
ATOM     23  C   UNL     1      -5.568   0.889  -4.480  1.00  0.00     0.048 A 
ATOM     24  C   UNL     1      -4.261   0.950  -4.969  1.00  0.00     0.008 A 
ATOM     25  Cl  UNL     1      -6.774   4.696  -4.812  1.00  0.00    -0.080 Cl
BRANCH  22  26
ATOM     26  O   UNL     1      -7.610   1.934  -3.933  1.00  0.00    -0.506 OA
ATOM     27  H   UNL     1      -8.026   2.810  -4.030  1.00  0.00     0.293 HD
ENDBRANCH  22  26
ENDBRANCH  18  19
ENDBRANCH  17  18
BRANCH  17  28
ATOM     28  O   UNL     1      -0.933   3.612  -4.430  1.00  0.00    -0.383 OA
ATOM     29  H   UNL     1      -1.391   3.838  -3.590  1.00  0.00     0.211 HD
ENDBRANCH  17  28
ENDBRANCH  14  17
ENDBRANCH  12  13
BRANCH  12  30
ATOM     30  C   UNL     1       2.771   2.019  -7.209  1.00  0.00     0.018 C 
ATOM     31  C   UNL     1       4.036   1.268  -7.653  1.00  0.00     0.010 C 
BRANCH  30  32
ATOM     32  C   UNL     1       3.099   2.958  -6.023  1.00  0.00     0.002 C 
ATOM     33  C   UNL     1       4.461   2.740  -5.377  1.00  0.00     0.004 C 
ENDBRANCH  30  32
ENDBRANCH  12  30
ENDBRANCH  10  12
ENDBRANCH   1  10
BRANCH   5  34
ATOM     34  C   UNL     1      -1.550  -1.555  -7.770  1.00  0.00     0.242 C 
ATOM     35  O   UNL     1      -1.436  -1.389  -6.556  1.00  0.00    -0.273 OA
ATOM     36  N   UNL     1      -2.774  -1.706  -8.384  1.00  0.00    -0.354 N 
ATOM     37  H   UNL     1      -2.801  -1.961  -9.371  1.00  0.00     0.163 HD
BRANCH  36  38
ATOM     38  C   UNL     1      -4.020  -1.415  -7.705  1.00  0.00     0.116 C 
BRANCH  38  39
ATOM     39  C   UNL     1      -5.196  -1.908  -8.546  1.00  0.00     0.023 C 
BRANCH  39  40
ATOM     40  C   UNL     1      -6.377  -2.354  -7.691  1.00  0.00     0.026 C 
BRANCH  40  41
ATOM     41  C   UNL     1      -7.519  -2.865  -8.569  1.00  0.00     0.146 C 
BRANCH  41  42
ATOM     42  N   UNL     1      -8.772  -2.246  -8.158  1.00  0.00    -0.254 NA
ATOM     43  C   UNL     1      -9.340  -1.395  -8.926  1.00  0.00     0.185 C 
ATOM     44  N   UNL     1      -8.965  -0.933 -10.133  1.00  0.00    -0.370 N 
ATOM     45  N   UNL     1     -10.492  -0.832  -8.526  1.00  0.00    -0.370 N 
ATOM     46  H   UNL     1      -9.370  -0.093 -10.510  1.00  0.00     0.159 HD
ATOM     47  H   UNL     1      -8.121  -1.264 -10.592  1.00  0.00     0.159 HD
ATOM     48  H   UNL     1     -10.850  -1.132  -7.630  1.00  0.00     0.159 HD
ATOM     49  H   UNL     1     -11.109  -0.349  -9.156  1.00  0.00     0.159 HD
ENDBRANCH  41  42
ENDBRANCH  40  41
ENDBRANCH  39  40
ENDBRANCH  38  39
ENDBRANCH  36  38
ENDBRANCH   5  34
BRANCH   8  50
ATOM     50  O   UNL     1       1.247  -3.922  -4.751  1.00  0.00    -0.245 OA
BRANCH  50  51
ATOM     51  S   UNL     1       0.936  -3.204  -3.325  1.00  0.00     0.397 S 
ATOM     52  O   UNL     1       2.117  -2.472  -2.927  1.00  0.00    -0.169 OA
ATOM     53  O   UNL     1       0.292  -4.149  -2.436  1.00  0.00    -0.169 OA
BRANCH  51  54
ATOM     54  O   UNL     1      -0.150  -2.093  -3.738  1.00  0.00    -0.264 OA
ATOM     55  H   UNL     1       0.335  -1.319  -4.091  1.00  0.00     0.236 HD
ENDBRANCH  51  54
ENDBRANCH  50  51
ENDBRANCH   8  50
TORSDOF 19
ENDMDL
MODEL 42
REMARK VINA RESULT:    -6.009     10.121     13.958
REMARK INTER + INTRA:         -15.983
REMARK INTER:                 -12.396
REMARK INTRA:                  -3.586
REMARK UNBOUND:                -3.827
REMARK SMILES CC[C@@H](C)[C@@H](NC(=O)[C@@H](O)Cc1ccc(O)c(Cl)c1)C(=O)N1[C@H](C(=O)NCCCCN=C(N)N)C[C@H]2CC[C@H](OS(=O)(=O)O)C[C@@H]21
REMARK SMILES IDX 22 1 36 2 46 3 35 4 23 5 45 6 37 7 39 8 38 9 20 10 21 11
REMARK SMILES IDX 5 12 6 13 7 14 8 15 9 17 11 18 12 19 17 20 19 21 15 22 14 23
REMARK SMILES IDX 13 24 18 25 16 26 10 28 3 30 4 31 2 32 1 33 24 34 25 35
REMARK SMILES IDX 26 36 27 38 28 39 29 40 30 41 31 42 32 43 33 44 34 45 40 50
REMARK SMILES IDX 41 51 42 52 43 53 44 54
REMARK H PARENT 6 16 16 27 10 29 26 37 33 46 33 47 34 48 34 49 44 55
ROOT
ATOM      1  N   UNL     1      -4.417   1.521   7.229  1.00  0.00    -0.326 N 
ATOM      2  C   UNL     1      -4.612   3.252   8.813  1.00  0.00     0.014 C 
ATOM      3  C   UNL     1      -4.858   1.755   8.607  1.00  0.00     0.091 C 
ATOM      4  C   UNL     1      -4.909   3.832   7.439  1.00  0.00     0.041 C 
ATOM      5  C   UNL     1      -4.171   2.816   6.548  1.00  0.00     0.175 C 
ATOM      6  C   UNL     1      -4.159   0.991   9.731  1.00  0.00     0.059 C 
ATOM      7  C   UNL     1      -5.374   3.766  10.018  1.00  0.00     0.008 C 
ATOM      8  C   UNL     1      -4.104   1.764  11.066  1.00  0.00     0.143 C 
ATOM      9  C   UNL     1      -5.259   2.778  11.197  1.00  0.00     0.034 C 
ENDROOT
BRANCH   1  10
ATOM     10  C   UNL     1      -4.419   0.355   6.482  1.00  0.00     0.246 C 
ATOM     11  O   UNL     1      -3.438  -0.394   6.533  1.00  0.00    -0.272 OA
BRANCH  10  12
ATOM     12  C   UNL     1      -5.670  -0.006   5.629  1.00  0.00     0.174 C 
BRANCH  12  13
ATOM     13  N   UNL     1      -5.312  -0.053   4.212  1.00  0.00    -0.342 N 
ATOM     14  C   UNL     1      -4.617  -1.075   3.606  1.00  0.00     0.249 C 
ATOM     15  O   UNL     1      -4.241  -2.084   4.190  1.00  0.00    -0.272 OA
ATOM     16  H   UNL     1      -5.418   0.780   3.638  1.00  0.00     0.164 HD
BRANCH  14  17
ATOM     17  C   UNL     1      -4.378  -0.824   2.102  1.00  0.00     0.207 C 
BRANCH  17  18
ATOM     18  C   UNL     1      -4.724  -2.074   1.288  1.00  0.00     0.077 C 
BRANCH  18  19
ATOM     19  C   UNL     1      -6.196  -2.411   1.375  1.00  0.00    -0.043 A 
ATOM     20  C   UNL     1      -7.974  -4.058   1.466  1.00  0.00     0.083 A 
ATOM     21  C   UNL     1      -6.614  -3.750   1.436  1.00  0.00     0.028 A 
ATOM     22  C   UNL     1      -8.923  -3.036   1.433  1.00  0.00     0.134 A 
ATOM     23  C   UNL     1      -8.524  -1.706   1.372  1.00  0.00     0.048 A 
ATOM     24  C   UNL     1      -7.163  -1.394   1.340  1.00  0.00     0.008 A 
ATOM     25  Cl  UNL     1      -8.468  -5.709   1.541  1.00  0.00    -0.080 Cl
BRANCH  22  26
ATOM     26  O   UNL     1     -10.268  -3.290   1.449  1.00  0.00    -0.506 OA
ATOM     27  H   UNL     1     -10.371  -4.245   1.621  1.00  0.00     0.293 HD
ENDBRANCH  22  26
ENDBRANCH  18  19
ENDBRANCH  17  18
BRANCH  17  28
ATOM     28  O   UNL     1      -3.013  -0.454   1.850  1.00  0.00    -0.383 OA
ATOM     29  H   UNL     1      -2.878  -0.556   0.881  1.00  0.00     0.211 HD
ENDBRANCH  17  28
ENDBRANCH  14  17
ENDBRANCH  12  13
BRANCH  12  30
ATOM     30  C   UNL     1      -6.876   0.932   5.905  1.00  0.00     0.018 C 
ATOM     31  C   UNL     1      -8.074   0.138   6.448  1.00  0.00     0.010 C 
BRANCH  30  32
ATOM     32  C   UNL     1      -7.306   1.769   4.675  1.00  0.00     0.002 C 
ATOM     33  C   UNL     1      -8.644   1.382   4.060  1.00  0.00     0.004 C 
ENDBRANCH  30  32
ENDBRANCH  12  30
ENDBRANCH  10  12
ENDBRANCH   1  10
BRANCH   5  34
ATOM     34  C   UNL     1      -2.650   3.119   6.475  1.00  0.00     0.242 C 
ATOM     35  O   UNL     1      -2.214   4.223   6.150  1.00  0.00    -0.273 OA
ATOM     36  N   UNL     1      -1.826   2.050   6.746  1.00  0.00    -0.354 N 
ATOM     37  H   UNL     1      -2.246   1.130   6.891  1.00  0.00     0.163 HD
BRANCH  36  38
ATOM     38  C   UNL     1      -0.398   2.202   6.934  1.00  0.00     0.116 C 
BRANCH  38  39
ATOM     39  C   UNL     1       0.340   1.772   5.669  1.00  0.00     0.023 C 
BRANCH  39  40
ATOM     40  C   UNL     1       1.490   0.814   5.961  1.00  0.00     0.026 C 
BRANCH  40  41
ATOM     41  C   UNL     1       1.355  -0.464   5.133  1.00  0.00     0.146 C 
BRANCH  41  42
ATOM     42  N   UNL     1       0.406  -1.367   5.772  1.00  0.00    -0.254 NA
ATOM     43  C   UNL     1      -0.647  -1.727   5.141  1.00  0.00     0.185 C 
ATOM     44  N   UNL     1      -1.070  -1.402   3.905  1.00  0.00    -0.370 N 
ATOM     45  N   UNL     1      -1.512  -2.556   5.748  1.00  0.00    -0.370 N 
ATOM     46  H   UNL     1      -2.026  -1.558   3.632  1.00  0.00     0.159 HD
ATOM     47  H   UNL     1      -0.529  -0.793   3.300  1.00  0.00     0.159 HD
ATOM     48  H   UNL     1      -1.264  -2.857   6.681  1.00  0.00     0.159 HD
ATOM     49  H   UNL     1      -2.220  -3.064   5.249  1.00  0.00     0.159 HD
ENDBRANCH  41  42
ENDBRANCH  40  41
ENDBRANCH  39  40
ENDBRANCH  38  39
ENDBRANCH  36  38
ENDBRANCH   5  34
BRANCH   8  50
ATOM     50  O   UNL     1      -2.867   2.470  11.173  1.00  0.00    -0.245 OA
BRANCH  50  51
ATOM     51  S   UNL     1      -1.503   1.652  11.513  1.00  0.00     0.397 S 
ATOM     52  O   UNL     1      -0.614   1.776  10.379  1.00  0.00    -0.169 OA
ATOM     53  O   UNL     1      -1.837   0.362  12.078  1.00  0.00    -0.169 OA
BRANCH  51  54
ATOM     54  O   UNL     1      -0.853   2.551  12.677  1.00  0.00    -0.264 OA
ATOM     55  H   UNL     1      -0.893   3.486  12.390  1.00  0.00     0.236 HD
ENDBRANCH  51  54
ENDBRANCH  50  51
ENDBRANCH   8  50
TORSDOF 19
ENDMDL
MODEL 43
REMARK VINA RESULT:    -6.005      5.424      8.674
REMARK INTER + INTRA:         -15.976
REMARK INTER:                 -12.666
REMARK INTRA:                  -3.310
REMARK UNBOUND:                -3.827
REMARK SMILES CC[C@@H](C)[C@@H](NC(=O)[C@@H](O)Cc1ccc(O)c(Cl)c1)C(=O)N1[C@H](C(=O)NCCCCN=C(N)N)C[C@H]2CC[C@H](OS(=O)(=O)O)C[C@@H]21
REMARK SMILES IDX 22 1 36 2 46 3 35 4 23 5 45 6 37 7 39 8 38 9 20 10 21 11
REMARK SMILES IDX 5 12 6 13 7 14 8 15 9 17 11 18 12 19 17 20 19 21 15 22 14 23
REMARK SMILES IDX 13 24 18 25 16 26 10 28 3 30 4 31 2 32 1 33 24 34 25 35
REMARK SMILES IDX 26 36 27 38 28 39 29 40 30 41 31 42 32 43 33 44 34 45 40 50
REMARK SMILES IDX 41 51 42 52 43 53 44 54
REMARK H PARENT 6 16 16 27 10 29 26 37 33 46 33 47 34 48 34 49 44 55
ROOT
ATOM      1  N   UNL     1      -4.130  -0.625  -5.161  1.00  0.00    -0.326 N 
ATOM      2  C   UNL     1      -3.042   1.431  -5.525  1.00  0.00     0.014 C 
ATOM      3  C   UNL     1      -4.183   0.548  -6.039  1.00  0.00     0.091 C 
ATOM      4  C   UNL     1      -1.998   0.412  -5.095  1.00  0.00     0.041 C 
ATOM      5  C   UNL     1      -2.891  -0.594  -4.346  1.00  0.00     0.175 C 
ATOM      6  C   UNL     1      -5.464   1.378  -6.062  1.00  0.00     0.059 C 
ATOM      7  C   UNL     1      -2.673   2.489  -6.546  1.00  0.00     0.008 C 
ATOM      8  C   UNL     1      -5.228   2.877  -6.348  1.00  0.00     0.143 C 
ATOM      9  C   UNL     1      -3.941   3.116  -7.163  1.00  0.00     0.034 C 
ENDROOT
BRANCH   1  10
ATOM     10  C   UNL     1      -4.909  -1.770  -5.161  1.00  0.00     0.246 C 
ATOM     11  O   UNL     1      -5.415  -2.152  -4.101  1.00  0.00    -0.272 OA
BRANCH  10  12
ATOM     12  C   UNL     1      -5.166  -2.523  -6.499  1.00  0.00     0.174 C 
BRANCH  12  13
ATOM     13  N   UNL     1      -6.603  -2.610  -6.754  1.00  0.00    -0.342 N 
ATOM     14  C   UNL     1      -7.292  -1.840  -7.664  1.00  0.00     0.249 C 
ATOM     15  O   UNL     1      -6.765  -1.004  -8.388  1.00  0.00    -0.272 OA
ATOM     16  H   UNL     1      -7.195  -3.144  -6.123  1.00  0.00     0.164 HD
BRANCH  14  17
ATOM     17  C   UNL     1      -8.803  -2.156  -7.689  1.00  0.00     0.207 C 
BRANCH  17  18
ATOM     18  C   UNL     1      -9.207  -2.731  -9.050  1.00  0.00     0.077 C 
BRANCH  18  19
ATOM     19  C   UNL     1      -8.638  -4.115  -9.267  1.00  0.00    -0.043 A 
ATOM     20  C   UNL     1      -7.548  -5.740 -10.701  1.00  0.00     0.083 A 
ATOM     21  C   UNL     1      -8.028  -4.447 -10.486  1.00  0.00     0.028 A 
ATOM     22  C   UNL     1      -7.676  -6.707  -9.704  1.00  0.00     0.134 A 
ATOM     23  C   UNL     1      -8.278  -6.392  -8.491  1.00  0.00     0.048 A 
ATOM     24  C   UNL     1      -8.761  -5.099  -8.274  1.00  0.00     0.008 A 
ATOM     25  Cl  UNL     1      -6.802  -6.128 -12.207  1.00  0.00    -0.080 Cl
BRANCH  22  26
ATOM     26  O   UNL     1      -7.231  -7.990  -9.872  1.00  0.00    -0.506 OA
ATOM     27  H   UNL     1      -7.413  -8.462  -9.038  1.00  0.00     0.293 HD
ENDBRANCH  22  26
ENDBRANCH  18  19
ENDBRANCH  17  18
BRANCH  17  28
ATOM     28  O   UNL     1      -9.583  -0.981  -7.417  1.00  0.00    -0.383 OA
ATOM     29  H   UNL     1      -9.836  -1.035  -6.468  1.00  0.00     0.211 HD
ENDBRANCH  17  28
ENDBRANCH  14  17
ENDBRANCH  12  13
BRANCH  12  30
ATOM     30  C   UNL     1      -4.470  -3.909  -6.549  1.00  0.00     0.018 C 
ATOM     31  C   UNL     1      -2.941  -3.753  -6.581  1.00  0.00     0.010 C 
BRANCH  30  32
ATOM     32  C   UNL     1      -4.937  -4.797  -7.728  1.00  0.00     0.002 C 
ATOM     33  C   UNL     1      -4.532  -4.308  -9.113  1.00  0.00     0.004 C 
ENDBRANCH  30  32
ENDBRANCH  12  30
ENDBRANCH  10  12
ENDBRANCH   1  10
BRANCH   5  34
ATOM     34  C   UNL     1      -3.195  -0.123  -2.899  1.00  0.00     0.242 C 
ATOM     35  O   UNL     1      -3.982   0.792  -2.657  1.00  0.00    -0.273 OA
ATOM     36  N   UNL     1      -2.482  -0.764  -1.912  1.00  0.00    -0.354 N 
ATOM     37  H   UNL     1      -1.757  -1.430  -2.183  1.00  0.00     0.163 HD
BRANCH  36  38
ATOM     38  C   UNL     1      -2.792  -0.605  -0.506  1.00  0.00     0.116 C 
BRANCH  38  39
ATOM     39  C   UNL     1      -1.556  -0.912   0.336  1.00  0.00     0.023 C 
BRANCH  39  40
ATOM     40  C   UNL     1      -0.276  -0.933  -0.494  1.00  0.00     0.026 C 
BRANCH  40  41
ATOM     41  C   UNL     1       0.438  -2.277  -0.356  1.00  0.00     0.146 C 
BRANCH  41  42
ATOM     42  N   UNL     1       0.704  -2.832  -1.676  1.00  0.00    -0.254 NA
ATOM     43  C   UNL     1      -0.115  -3.672  -2.187  1.00  0.00     0.185 C 
ATOM     44  N   UNL     1      -1.261  -4.174  -1.692  1.00  0.00    -0.370 N 
ATOM     45  N   UNL     1       0.151  -4.175  -3.404  1.00  0.00    -0.370 N 
ATOM     46  H   UNL     1      -1.672  -5.002  -2.089  1.00  0.00     0.159 HD
ATOM     47  H   UNL     1      -1.619  -3.891  -0.785  1.00  0.00     0.159 HD
ATOM     48  H   UNL     1       0.994  -3.842  -3.852  1.00  0.00     0.159 HD
ATOM     49  H   UNL     1      -0.541  -4.642  -3.963  1.00  0.00     0.159 HD
ENDBRANCH  41  42
ENDBRANCH  40  41
ENDBRANCH  39  40
ENDBRANCH  38  39
ENDBRANCH  36  38
ENDBRANCH   5  34
BRANCH   8  50
ATOM     50  O   UNL     1      -5.129   3.601  -5.121  1.00  0.00    -0.245 OA
BRANCH  50  51
ATOM     51  S   UNL     1      -6.103   4.878  -4.861  1.00  0.00     0.397 S 
ATOM     52  O   UNL     1      -7.422   4.377  -4.549  1.00  0.00    -0.169 OA
ATOM     53  O   UNL     1      -5.891   5.869  -5.896  1.00  0.00    -0.169 OA
BRANCH  51  54
ATOM     54  O   UNL     1      -5.521   5.468  -3.483  1.00  0.00    -0.264 OA
ATOM     55  H   UNL     1      -5.675   4.800  -2.784  1.00  0.00     0.236 HD
ENDBRANCH  51  54
ENDBRANCH  50  51
ENDBRANCH   8  50
TORSDOF 19
ENDMDL
MODEL 44
REMARK VINA RESULT:    -6.003      1.671      2.255
REMARK INTER + INTRA:         -15.971
REMARK INTER:                 -11.400
REMARK INTRA:                  -4.571
REMARK UNBOUND:                -3.827
REMARK SMILES CC[C@@H](C)[C@@H](NC(=O)[C@@H](O)Cc1ccc(O)c(Cl)c1)C(=O)N1[C@H](C(=O)NCCCCN=C(N)N)C[C@H]2CC[C@H](OS(=O)(=O)O)C[C@@H]21
REMARK SMILES IDX 22 1 36 2 46 3 35 4 23 5 45 6 37 7 39 8 38 9 20 10 21 11
REMARK SMILES IDX 5 12 6 13 7 14 8 15 9 17 11 18 12 19 17 20 19 21 15 22 14 23
REMARK SMILES IDX 13 24 18 25 16 26 10 28 3 30 4 31 2 32 1 33 24 34 25 35
REMARK SMILES IDX 26 36 27 38 28 39 29 40 30 41 31 42 32 43 33 44 34 45 40 50
REMARK SMILES IDX 41 51 42 52 43 53 44 54
REMARK H PARENT 6 16 16 27 10 29 26 37 33 46 33 47 34 48 34 49 44 55
ROOT
ATOM      1  N   UNL     1       0.594  -1.389  -4.402  1.00  0.00    -0.326 N 
ATOM      2  C   UNL     1      -0.076  -0.778  -6.575  1.00  0.00     0.014 C 
ATOM      3  C   UNL     1       0.168  -0.216  -5.172  1.00  0.00     0.091 C 
ATOM      4  C   UNL     1      -0.612  -2.172  -6.289  1.00  0.00     0.041 C 
ATOM      5  C   UNL     1       0.373  -2.624  -5.194  1.00  0.00     0.175 C 
ATOM      6  C   UNL     1       1.131   0.965  -5.285  1.00  0.00     0.059 C 
ATOM      7  C   UNL     1      -0.905   0.181  -7.407  1.00  0.00     0.008 C 
ATOM      8  C   UNL     1       0.996   1.751  -6.607  1.00  0.00     0.143 C 
ATOM      9  C   UNL     1      -0.418   1.632  -7.211  1.00  0.00     0.034 C 
ENDROOT
BRANCH   1  10
ATOM     10  C   UNL     1       0.934  -1.497  -3.064  1.00  0.00     0.246 C 
ATOM     11  O   UNL     1       2.100  -1.274  -2.720  1.00  0.00    -0.272 OA
BRANCH  10  12
ATOM     12  C   UNL     1      -0.163  -1.854  -2.021  1.00  0.00     0.174 C 
BRANCH  12  13
ATOM     13  N   UNL     1      -1.238  -0.864  -2.069  1.00  0.00    -0.342 N 
ATOM     14  C   UNL     1      -2.580  -1.158  -2.156  1.00  0.00     0.249 C 
ATOM     15  O   UNL     1      -3.029  -2.297  -2.176  1.00  0.00    -0.272 OA
ATOM     16  H   UNL     1      -1.013   0.117  -2.218  1.00  0.00     0.164 HD
BRANCH  14  17
ATOM     17  C   UNL     1      -3.465   0.106  -2.206  1.00  0.00     0.207 C 
BRANCH  17  18
ATOM     18  C   UNL     1      -2.807   1.187  -3.069  1.00  0.00     0.077 C 
BRANCH  18  19
ATOM     19  C   UNL     1      -3.643   1.524  -4.283  1.00  0.00    -0.043 A 
ATOM     20  C   UNL     1      -5.052   3.079  -5.501  1.00  0.00     0.083 A 
ATOM     21  C   UNL     1      -4.240   2.788  -4.404  1.00  0.00     0.028 A 
ATOM     22  C   UNL     1      -5.273   2.111  -6.481  1.00  0.00     0.134 A 
ATOM     23  C   UNL     1      -4.688   0.854  -6.375  1.00  0.00     0.048 A 
ATOM     24  C   UNL     1      -3.877   0.560  -5.277  1.00  0.00     0.008 A 
ATOM     25  Cl  UNL     1      -5.777   4.638  -5.631  1.00  0.00    -0.080 Cl
BRANCH  22  26
ATOM     26  O   UNL     1      -6.069   2.345  -7.569  1.00  0.00    -0.506 OA
ATOM     27  H   UNL     1      -6.759   2.972  -7.282  1.00  0.00     0.293 HD
ENDBRANCH  22  26
ENDBRANCH  18  19
ENDBRANCH  17  18
BRANCH  17  28
ATOM     28  O   UNL     1      -3.699   0.626  -0.887  1.00  0.00    -0.383 OA
ATOM     29  H   UNL     1      -2.825   0.934  -0.557  1.00  0.00     0.211 HD
ENDBRANCH  17  28
ENDBRANCH  14  17
ENDBRANCH  12  13
BRANCH  12  30
ATOM     30  C   UNL     1       0.408  -2.039  -0.589  1.00  0.00     0.018 C 
ATOM     31  C   UNL     1       0.080  -3.439  -0.046  1.00  0.00     0.010 C 
BRANCH  30  32
ATOM     32  C   UNL     1      -0.063  -0.956   0.413  1.00  0.00     0.002 C 
ATOM     33  C   UNL     1      -0.970  -1.454   1.531  1.00  0.00     0.004 C 
ENDBRANCH  30  32
ENDBRANCH  12  30
ENDBRANCH  10  12
ENDBRANCH   1  10
BRANCH   5  34
ATOM     34  C   UNL     1       1.707  -3.135  -5.801  1.00  0.00     0.242 C 
ATOM     35  O   UNL     1       2.666  -2.390  -6.003  1.00  0.00    -0.273 OA
ATOM     36  N   UNL     1       1.721  -4.468  -6.145  1.00  0.00    -0.354 N 
ATOM     37  H   UNL     1       0.857  -5.005  -6.065  1.00  0.00     0.163 HD
BRANCH  36  38
ATOM     38  C   UNL     1       2.939  -5.157  -6.519  1.00  0.00     0.116 C 
BRANCH  38  39
ATOM     39  C   UNL     1       2.808  -5.707  -7.938  1.00  0.00     0.023 C 
BRANCH  39  40
ATOM     40  C   UNL     1       1.395  -5.560  -8.492  1.00  0.00     0.026 C 
BRANCH  40  41
ATOM     41  C   UNL     1       1.380  -4.614  -9.692  1.00  0.00     0.146 C 
BRANCH  41  42
ATOM     42  N   UNL     1       1.444  -3.233  -9.232  1.00  0.00    -0.254 NA
ATOM     43  C   UNL     1       2.492  -2.536  -9.466  1.00  0.00     0.185 C 
ATOM     44  N   UNL     1       3.628  -2.868 -10.106  1.00  0.00    -0.370 N 
ATOM     45  N   UNL     1       2.533  -1.266  -9.029  1.00  0.00    -0.370 N 
ATOM     46  H   UNL     1       4.457  -2.309 -10.003  1.00  0.00     0.159 HD
ATOM     47  H   UNL     1       3.760  -3.789 -10.513  1.00  0.00     0.159 HD
ATOM     48  H   UNL     1       1.712  -0.933  -8.542  1.00  0.00     0.159 HD
ATOM     49  H   UNL     1       3.199  -0.595  -9.369  1.00  0.00     0.159 HD
ENDBRANCH  41  42
ENDBRANCH  40  41
ENDBRANCH  39  40
ENDBRANCH  38  39
ENDBRANCH  36  38
ENDBRANCH   5  34
BRANCH   8  50
ATOM     50  O   UNL     1       1.940   1.268  -7.563  1.00  0.00    -0.245 OA
BRANCH  50  51
ATOM     51  S   UNL     1       3.044   2.287  -8.187  1.00  0.00     0.397 S 
ATOM     52  O   UNL     1       2.403   3.566  -8.396  1.00  0.00    -0.169 OA
ATOM     53  O   UNL     1       3.776   1.622  -9.245  1.00  0.00    -0.169 OA
BRANCH  51  54
ATOM     54  O   UNL     1       4.046   2.496  -6.947  1.00  0.00    -0.264 OA
ATOM     55  H   UNL     1       3.576   3.023  -6.269  1.00  0.00     0.236 HD
ENDBRANCH  51  54
ENDBRANCH  50  51
ENDBRANCH   8  50
TORSDOF 19
ENDMDL
MODEL 45
REMARK VINA RESULT:    -5.977      4.825      9.719
REMARK INTER + INTRA:         -15.920
REMARK INTER:                 -13.341
REMARK INTRA:                  -2.579
REMARK UNBOUND:                -3.827
REMARK SMILES CC[C@@H](C)[C@@H](NC(=O)[C@@H](O)Cc1ccc(O)c(Cl)c1)C(=O)N1[C@H](C(=O)NCCCCN=C(N)N)C[C@H]2CC[C@H](OS(=O)(=O)O)C[C@@H]21
REMARK SMILES IDX 22 1 36 2 46 3 35 4 23 5 45 6 37 7 39 8 38 9 20 10 21 11
REMARK SMILES IDX 5 12 6 13 7 14 8 15 9 17 11 18 12 19 17 20 19 21 15 22 14 23
REMARK SMILES IDX 13 24 18 25 16 26 10 28 3 30 4 31 2 32 1 33 24 34 25 35
REMARK SMILES IDX 26 36 27 38 28 39 29 40 30 41 31 42 32 43 33 44 34 45 40 50
REMARK SMILES IDX 41 51 42 52 43 53 44 54
REMARK H PARENT 6 16 16 27 10 29 26 37 33 46 33 47 34 48 34 49 44 55
ROOT
ATOM      1  N   UNL     1      -4.421  -0.364  -3.104  1.00  0.00    -0.326 N 
ATOM      2  C   UNL     1      -3.334   1.701  -3.415  1.00  0.00     0.014 C 
ATOM      3  C   UNL     1      -4.143   0.627  -4.148  1.00  0.00     0.091 C 
ATOM      4  C   UNL     1      -2.529   0.889  -2.412  1.00  0.00     0.041 C 
ATOM      5  C   UNL     1      -3.623  -0.061  -1.890  1.00  0.00     0.175 C 
ATOM      6  C   UNL     1      -5.325   1.301  -4.840  1.00  0.00     0.059 C 
ATOM      7  C   UNL     1      -2.609   2.599  -4.398  1.00  0.00     0.008 C 
ATOM      8  C   UNL     1      -5.033   2.744  -5.306  1.00  0.00     0.143 C 
ATOM      9  C   UNL     1      -3.532   2.972  -5.577  1.00  0.00     0.034 C 
ENDROOT
BRANCH   1  10
ATOM     10  C   UNL     1      -5.103  -1.567  -3.180  1.00  0.00     0.246 C 
ATOM     11  O   UNL     1      -6.291  -1.607  -2.845  1.00  0.00    -0.272 OA
BRANCH  10  12
ATOM     12  C   UNL     1      -4.373  -2.828  -3.726  1.00  0.00     0.174 C 
BRANCH  12  13
ATOM     13  N   UNL     1      -3.008  -2.879  -3.204  1.00  0.00    -0.342 N 
ATOM     14  C   UNL     1      -2.624  -3.538  -2.057  1.00  0.00     0.249 C 
ATOM     15  O   UNL     1      -3.390  -4.185  -1.354  1.00  0.00    -0.272 OA
ATOM     16  H   UNL     1      -2.297  -2.264  -3.591  1.00  0.00     0.164 HD
BRANCH  14  17
ATOM     17  C   UNL     1      -1.116  -3.391  -1.762  1.00  0.00     0.207 C 
BRANCH  17  18
ATOM     18  C   UNL     1      -0.317  -3.341  -3.068  1.00  0.00     0.077 C 
BRANCH  18  19
ATOM     19  C   UNL     1       0.736  -2.256  -3.041  1.00  0.00    -0.043 A 
ATOM     20  C   UNL     1       1.761  -0.295  -4.034  1.00  0.00     0.083 A 
ATOM     21  C   UNL     1       0.758  -1.265  -4.034  1.00  0.00     0.028 A 
ATOM     22  C   UNL     1       2.746  -0.308  -3.046  1.00  0.00     0.134 A 
ATOM     23  C   UNL     1       2.736  -1.284  -2.056  1.00  0.00     0.048 A 
ATOM     24  C   UNL     1       1.734  -2.258  -2.054  1.00  0.00     0.008 A 
ATOM     25  Cl  UNL     1       1.772   0.915  -5.263  1.00  0.00    -0.080 Cl
BRANCH  22  26
ATOM     26  O   UNL     1       3.755   0.616  -3.011  1.00  0.00    -0.506 OA
ATOM     27  H   UNL     1       3.958   0.773  -2.070  1.00  0.00     0.293 HD
ENDBRANCH  22  26
ENDBRANCH  18  19
ENDBRANCH  17  18
BRANCH  17  28
ATOM     28  O   UNL     1      -0.640  -4.479  -0.953  1.00  0.00    -0.383 OA
ATOM     29  H   UNL     1       0.267  -4.226  -0.665  1.00  0.00     0.211 HD
ENDBRANCH  17  28
ENDBRANCH  14  17
ENDBRANCH  12  13
BRANCH  12  30
ATOM     30  C   UNL     1      -4.418  -2.925  -5.275  1.00  0.00     0.018 C 
ATOM     31  C   UNL     1      -3.137  -2.346  -5.897  1.00  0.00     0.010 C 
BRANCH  30  32
ATOM     32  C   UNL     1      -5.664  -2.253  -5.903  1.00  0.00     0.002 C 
ATOM     33  C   UNL     1      -5.425  -1.551  -7.233  1.00  0.00     0.004 C 
ENDBRANCH  30  32
ENDBRANCH  12  30
ENDBRANCH  10  12
ENDBRANCH   1  10
BRANCH   5  34
ATOM     34  C   UNL     1      -4.502   0.619  -0.808  1.00  0.00     0.242 C 
ATOM     35  O   UNL     1      -4.865   1.792  -0.897  1.00  0.00    -0.273 OA
ATOM     36  N   UNL     1      -4.801  -0.166   0.283  1.00  0.00    -0.354 N 
ATOM     37  H   UNL     1      -4.372  -1.090   0.356  1.00  0.00     0.163 HD
BRANCH  36  38
ATOM     38  C   UNL     1      -5.779   0.229   1.275  1.00  0.00     0.116 C 
BRANCH  38  39
ATOM     39  C   UNL     1      -5.269  -0.118   2.672  1.00  0.00     0.023 C 
BRANCH  39  40
ATOM     40  C   UNL     1      -3.820  -0.593   2.662  1.00  0.00     0.026 C 
BRANCH  40  41
ATOM     41  C   UNL     1      -3.157  -0.338   4.016  1.00  0.00     0.146 C 
BRANCH  41  42
ATOM     42  N   UNL     1      -3.922  -0.993   5.070  1.00  0.00    -0.254 NA
ATOM     43  C   UNL     1      -3.370  -1.906   5.777  1.00  0.00     0.185 C 
ATOM     44  N   UNL     1      -2.123  -2.408   5.724  1.00  0.00    -0.370 N 
ATOM     45  N   UNL     1      -4.093  -2.500   6.741  1.00  0.00    -0.370 N 
ATOM     46  H   UNL     1      -1.903  -3.283   6.169  1.00  0.00     0.159 HD
ATOM     47  H   UNL     1      -1.437  -2.062   5.060  1.00  0.00     0.159 HD
ATOM     48  H   UNL     1      -5.043  -2.174   6.854  1.00  0.00     0.159 HD
ATOM     49  H   UNL     1      -3.677  -3.040   7.479  1.00  0.00     0.159 HD
ENDBRANCH  41  42
ENDBRANCH  40  41
ENDBRANCH  39  40
ENDBRANCH  38  39
ENDBRANCH  36  38
ENDBRANCH   5  34
BRANCH   8  50
ATOM     50  O   UNL     1      -5.460   3.676  -4.313  1.00  0.00    -0.245 OA
BRANCH  50  51
ATOM     51  S   UNL     1      -6.312   4.989  -4.757  1.00  0.00     0.397 S 
ATOM     52  O   UNL     1      -7.707   4.730  -4.481  1.00  0.00    -0.169 OA
ATOM     53  O   UNL     1      -5.866   5.440  -6.058  1.00  0.00    -0.169 OA
BRANCH  51  54
ATOM     54  O   UNL     1      -5.845   6.076  -3.668  1.00  0.00    -0.264 OA
ATOM     55  H   UNL     1      -5.087   5.699  -3.176  1.00  0.00     0.236 HD
ENDBRANCH  51  54
ENDBRANCH  50  51
ENDBRANCH   8  50
TORSDOF 19
ENDMDL
MODEL 46
REMARK VINA RESULT:    -5.975     17.750     20.806
REMARK INTER + INTRA:         -15.914
REMARK INTER:                 -11.160
REMARK INTRA:                  -4.754
REMARK UNBOUND:                -3.827
REMARK SMILES CC[C@@H](C)[C@@H](NC(=O)[C@@H](O)Cc1ccc(O)c(Cl)c1)C(=O)N1[C@H](C(=O)NCCCCN=C(N)N)C[C@H]2CC[C@H](OS(=O)(=O)O)C[C@@H]21
REMARK SMILES IDX 22 1 36 2 46 3 35 4 23 5 45 6 37 7 39 8 38 9 20 10 21 11
REMARK SMILES IDX 5 12 6 13 7 14 8 15 9 17 11 18 12 19 17 20 19 21 15 22 14 23
REMARK SMILES IDX 13 24 18 25 16 26 10 28 3 30 4 31 2 32 1 33 24 34 25 35
REMARK SMILES IDX 26 36 27 38 28 39 29 40 30 41 31 42 32 43 33 44 34 45 40 50
REMARK SMILES IDX 41 51 42 52 43 53 44 54
REMARK H PARENT 6 16 16 27 10 29 26 37 33 46 33 47 34 48 34 49 44 55
ROOT
ATOM      1  N   UNL     1     -15.222  -5.599   8.433  1.00  0.00    -0.326 N 
ATOM      2  C   UNL     1     -14.587  -3.673   9.629  1.00  0.00     0.014 C 
ATOM      3  C   UNL     1     -14.049  -4.994   9.072  1.00  0.00     0.091 C 
ATOM      4  C   UNL     1     -16.009  -4.033  10.032  1.00  0.00     0.041 C 
ATOM      5  C   UNL     1     -16.445  -4.843   8.797  1.00  0.00     0.175 C 
ATOM      6  C   UNL     1     -12.827  -4.692   8.207  1.00  0.00     0.059 C 
ATOM      7  C   UNL     1     -13.643  -3.097  10.666  1.00  0.00     0.008 C 
ATOM      8  C   UNL     1     -12.015  -3.468   8.683  1.00  0.00     0.143 C 
ATOM      9  C   UNL     1     -12.178  -3.219  10.196  1.00  0.00     0.034 C 
ENDROOT
BRANCH   1  10
ATOM     10  C   UNL     1     -15.348  -6.811   7.777  1.00  0.00     0.246 C 
ATOM     11  O   UNL     1     -15.716  -7.804   8.414  1.00  0.00    -0.272 OA
BRANCH  10  12
ATOM     12  C   UNL     1     -15.067  -6.889   6.248  1.00  0.00     0.174 C 
BRANCH  12  13
ATOM     13  N   UNL     1     -14.708  -5.565   5.740  1.00  0.00    -0.342 N 
ATOM     14  C   UNL     1     -13.594  -5.286   4.981  1.00  0.00     0.249 C 
ATOM     15  O   UNL     1     -12.784  -6.131   4.621  1.00  0.00    -0.272 OA
ATOM     16  H   UNL     1     -15.197  -4.743   6.086  1.00  0.00     0.164 HD
BRANCH  14  17
ATOM     17  C   UNL     1     -13.484  -3.791   4.613  1.00  0.00     0.207 C 
BRANCH  17  18
ATOM     18  C   UNL     1     -13.815  -3.577   3.132  1.00  0.00     0.077 C 
BRANCH  18  19
ATOM     19  C   UNL     1     -15.083  -2.774   2.950  1.00  0.00    -0.043 A 
ATOM     20  C   UNL     1     -16.187  -0.667   2.475  1.00  0.00     0.083 A 
ATOM     21  C   UNL     1     -15.017  -1.418   2.595  1.00  0.00     0.028 A 
ATOM     22  C   UNL     1     -17.427  -1.264   2.710  1.00  0.00     0.134 A 
ATOM     23  C   UNL     1     -17.506  -2.606   3.063  1.00  0.00     0.048 A 
ATOM     24  C   UNL     1     -16.336  -3.360   3.185  1.00  0.00     0.008 A 
ATOM     25  Cl  UNL     1     -16.086   0.998   2.039  1.00  0.00    -0.080 Cl
BRANCH  22  26
ATOM     26  O   UNL     1     -18.600  -0.566   2.616  1.00  0.00    -0.506 OA
ATOM     27  H   UNL     1     -19.210  -0.953   3.272  1.00  0.00     0.293 HD
ENDBRANCH  22  26
ENDBRANCH  18  19
ENDBRANCH  17  18
BRANCH  17  28
ATOM     28  O   UNL     1     -12.166  -3.287   4.884  1.00  0.00    -0.383 OA
ATOM     29  H   UNL     1     -11.674  -4.026   5.308  1.00  0.00     0.211 HD
ENDBRANCH  17  28
ENDBRANCH  14  17
ENDBRANCH  12  13
BRANCH  12  30
ATOM     30  C   UNL     1     -16.236  -7.531   5.455  1.00  0.00     0.018 C 
ATOM     31  C   UNL     1     -15.749  -8.064   4.099  1.00  0.00     0.010 C 
BRANCH  30  32
ATOM     32  C   UNL     1     -17.444  -6.584   5.251  1.00  0.00     0.002 C 
ATOM     33  C   UNL     1     -18.695  -6.944   6.042  1.00  0.00     0.004 C 
ENDBRANCH  30  32
ENDBRANCH  12  30
ENDBRANCH  10  12
ENDBRANCH   1  10
BRANCH   5  34
ATOM     34  C   UNL     1     -16.886  -3.917   7.633  1.00  0.00     0.242 C 
ATOM     35  O   UNL     1     -16.078  -3.396   6.864  1.00  0.00    -0.273 OA
ATOM     36  N   UNL     1     -18.240  -3.677   7.555  1.00  0.00    -0.354 N 
ATOM     37  H   UNL     1     -18.846  -4.039   8.292  1.00  0.00     0.163 HD
BRANCH  36  38
ATOM     38  C   UNL     1     -18.845  -3.019   6.416  1.00  0.00     0.116 C 
BRANCH  38  39
ATOM     39  C   UNL     1     -19.199  -1.578   6.777  1.00  0.00     0.023 C 
BRANCH  39  40
ATOM     40  C   UNL     1     -18.230  -0.570   6.169  1.00  0.00     0.026 C 
BRANCH  40  41
ATOM     41  C   UNL     1     -18.943   0.745   5.855  1.00  0.00     0.146 C 
BRANCH  41  42
ATOM     42  N   UNL     1     -18.096   1.574   5.007  1.00  0.00    -0.254 NA
ATOM     43  C   UNL     1     -17.330   2.450   5.541  1.00  0.00     0.185 C 
ATOM     44  N   UNL     1     -17.150   2.768   6.836  1.00  0.00    -0.370 N 
ATOM     45  N   UNL     1     -16.560   3.208   4.742  1.00  0.00    -0.370 N 
ATOM     46  H   UNL     1     -16.707   3.633   7.095  1.00  0.00     0.159 HD
ATOM     47  H   UNL     1     -17.645   2.283   7.578  1.00  0.00     0.159 HD
ATOM     48  H   UNL     1     -16.629   3.026   3.750  1.00  0.00     0.159 HD
ATOM     49  H   UNL     1     -15.777   3.736   5.083  1.00  0.00     0.159 HD
ENDBRANCH  41  42
ENDBRANCH  40  41
ENDBRANCH  39  40
ENDBRANCH  38  39
ENDBRANCH  36  38
ENDBRANCH   5  34
BRANCH   8  50
ATOM     50  O   UNL     1     -12.436  -2.298   7.982  1.00  0.00    -0.245 OA
BRANCH  50  51
ATOM     51  S   UNL     1     -11.324  -1.236   7.453  1.00  0.00     0.397 S 
ATOM     52  O   UNL     1     -10.863  -0.468   8.588  1.00  0.00    -0.169 OA
ATOM     53  O   UNL     1     -11.801  -0.594   6.245  1.00  0.00    -0.169 OA
BRANCH  51  54
ATOM     54  O   UNL     1     -10.102  -2.201   7.052  1.00  0.00    -0.264 OA
ATOM     55  H   UNL     1      -9.393  -2.076   7.715  1.00  0.00     0.236 HD
ENDBRANCH  51  54
ENDBRANCH  50  51
ENDBRANCH   8  50
TORSDOF 19
ENDMDL
MODEL 47
REMARK VINA RESULT:    -5.972      7.387     10.616
REMARK INTER + INTRA:         -15.909
REMARK INTER:                 -11.370
REMARK INTRA:                  -4.539
REMARK UNBOUND:                -3.827
REMARK SMILES CC[C@@H](C)[C@@H](NC(=O)[C@@H](O)Cc1ccc(O)c(Cl)c1)C(=O)N1[C@H](C(=O)NCCCCN=C(N)N)C[C@H]2CC[C@H](OS(=O)(=O)O)C[C@@H]21
REMARK SMILES IDX 22 1 36 2 46 3 35 4 23 5 45 6 37 7 39 8 38 9 20 10 21 11
REMARK SMILES IDX 5 12 6 13 7 14 8 15 9 17 11 18 12 19 17 20 19 21 15 22 14 23
REMARK SMILES IDX 13 24 18 25 16 26 10 28 3 30 4 31 2 32 1 33 24 34 25 35
REMARK SMILES IDX 26 36 27 38 28 39 29 40 30 41 31 42 32 43 33 44 34 45 40 50
REMARK SMILES IDX 41 51 42 52 43 53 44 54
REMARK H PARENT 6 16 16 27 10 29 26 37 33 46 33 47 34 48 34 49 44 55
ROOT
ATOM      1  N   UNL     1      -5.180  -0.271  -1.400  1.00  0.00    -0.326 N 
ATOM      2  C   UNL     1      -5.264  -1.760  -3.221  1.00  0.00     0.014 C 
ATOM      3  C   UNL     1      -5.876  -1.481  -1.845  1.00  0.00     0.091 C 
ATOM      4  C   UNL     1      -3.822  -1.311  -3.043  1.00  0.00     0.041 C 
ATOM      5  C   UNL     1      -4.041   0.022  -2.305  1.00  0.00     0.175 C 
ATOM      6  C   UNL     1      -7.396  -1.430  -1.994  1.00  0.00     0.059 C 
ATOM      7  C   UNL     1      -5.551  -3.182  -3.664  1.00  0.00     0.008 C 
ATOM      8  C   UNL     1      -7.944  -2.357  -3.100  1.00  0.00     0.143 C 
ATOM      9  C   UNL     1      -7.015  -3.561  -3.359  1.00  0.00     0.034 C 
ENDROOT
BRANCH   1  10
ATOM     10  C   UNL     1      -5.303   0.440  -0.218  1.00  0.00     0.246 C 
ATOM     11  O   UNL     1      -5.128   1.663  -0.231  1.00  0.00    -0.272 OA
BRANCH  10  12
ATOM     12  C   UNL     1      -5.701  -0.306   1.088  1.00  0.00     0.174 C 
BRANCH  12  13
ATOM     13  N   UNL     1      -6.279   0.636   2.045  1.00  0.00    -0.342 N 
ATOM     14  C   UNL     1      -7.538   0.532   2.594  1.00  0.00     0.249 C 
ATOM     15  O   UNL     1      -8.310  -0.389   2.360  1.00  0.00    -0.272 OA
ATOM     16  H   UNL     1      -5.821   1.528   2.213  1.00  0.00     0.164 HD
BRANCH  14  17
ATOM     17  C   UNL     1      -7.865   1.693   3.557  1.00  0.00     0.207 C 
BRANCH  17  18
ATOM     18  C   UNL     1      -7.808   1.214   5.012  1.00  0.00     0.077 C 
BRANCH  18  19
ATOM     19  C   UNL     1      -6.388   0.970   5.468  1.00  0.00    -0.043 A 
ATOM     20  C   UNL     1      -4.653  -0.549   6.221  1.00  0.00     0.083 A 
ATOM     21  C   UNL     1      -5.949  -0.333   5.752  1.00  0.00     0.028 A 
ATOM     22  C   UNL     1      -3.789   0.530   6.409  1.00  0.00     0.134 A 
ATOM     23  C   UNL     1      -4.210   1.825   6.132  1.00  0.00     0.048 A 
ATOM     24  C   UNL     1      -5.508   2.046   5.664  1.00  0.00     0.008 A 
ATOM     25  Cl  UNL     1      -4.132  -2.157   6.565  1.00  0.00    -0.080 Cl
BRANCH  22  26
ATOM     26  O   UNL     1      -2.513   0.368   6.876  1.00  0.00    -0.506 OA
ATOM     27  H   UNL     1      -2.486  -0.498   7.323  1.00  0.00     0.293 HD
ENDBRANCH  22  26
ENDBRANCH  18  19
ENDBRANCH  17  18
BRANCH  17  28
ATOM     28  O   UNL     1      -9.165   2.239   3.286  1.00  0.00    -0.383 OA
ATOM     29  H   UNL     1      -9.681   1.517   2.861  1.00  0.00     0.211 HD
ENDBRANCH  17  28
ENDBRANCH  14  17
ENDBRANCH  12  13
BRANCH  12  30
ATOM     30  C   UNL     1      -4.526  -1.120   1.695  1.00  0.00     0.018 C 
ATOM     31  C   UNL     1      -5.029  -2.443   2.292  1.00  0.00     0.010 C 
BRANCH  30  32
ATOM     32  C   UNL     1      -3.707  -0.337   2.750  1.00  0.00     0.002 C 
ATOM     33  C   UNL     1      -2.486  -1.064   3.298  1.00  0.00     0.004 C 
ENDBRANCH  30  32
ENDBRANCH  12  30
ENDBRANCH  10  12
ENDBRANCH   1  10
BRANCH   5  34
ATOM     34  C   UNL     1      -4.399   1.168  -3.287  1.00  0.00     0.242 C 
ATOM     35  O   UNL     1      -5.534   1.638  -3.365  1.00  0.00    -0.273 OA
ATOM     36  N   UNL     1      -3.370   1.584  -4.102  1.00  0.00    -0.354 N 
ATOM     37  H   UNL     1      -2.485   1.075  -4.075  1.00  0.00     0.163 HD
BRANCH  36  38
ATOM     38  C   UNL     1      -3.464   2.776  -4.919  1.00  0.00     0.116 C 
BRANCH  38  39
ATOM     39  C   UNL     1      -3.339   2.404  -6.395  1.00  0.00     0.023 C 
BRANCH  39  40
ATOM     40  C   UNL     1      -4.425   3.046  -7.252  1.00  0.00     0.026 C 
BRANCH  40  41
ATOM     41  C   UNL     1      -5.780   2.982  -6.547  1.00  0.00     0.146 C 
BRANCH  41  42
ATOM     42  N   UNL     1      -6.696   2.152  -7.318  1.00  0.00    -0.254 NA
ATOM     43  C   UNL     1      -6.943   0.956  -6.933  1.00  0.00     0.185 C 
ATOM     44  N   UNL     1      -6.478   0.276  -5.869  1.00  0.00    -0.370 N 
ATOM     45  N   UNL     1      -7.787   0.205  -7.659  1.00  0.00    -0.370 N 
ATOM     46  H   UNL     1      -6.561  -0.725  -5.824  1.00  0.00     0.159 HD
ATOM     47  H   UNL     1      -5.837   0.699  -5.205  1.00  0.00     0.159 HD
ATOM     48  H   UNL     1      -8.190   0.646  -8.475  1.00  0.00     0.159 HD
ATOM     49  H   UNL     1      -8.209  -0.635  -7.306  1.00  0.00     0.159 HD
ENDBRANCH  41  42
ENDBRANCH  40  41
ENDBRANCH  39  40
ENDBRANCH  38  39
ENDBRANCH  36  38
ENDBRANCH   5  34
BRANCH   8  50
ATOM     50  O   UNL     1      -8.093  -1.630  -4.320  1.00  0.00    -0.245 OA
BRANCH  50  51
ATOM     51  S   UNL     1      -9.583  -1.337  -4.903  1.00  0.00     0.397 S 
ATOM     52  O   UNL     1     -10.541  -1.709  -3.886  1.00  0.00    -0.169 OA
ATOM     53  O   UNL     1      -9.682  -1.837  -6.258  1.00  0.00    -0.169 OA
BRANCH  51  54
ATOM     54  O   UNL     1      -9.610   0.270  -4.963  1.00  0.00    -0.264 OA
ATOM     55  H   UNL     1      -9.271   0.541  -5.841  1.00  0.00     0.236 HD
ENDBRANCH  51  54
ENDBRANCH  50  51
ENDBRANCH   8  50
TORSDOF 19
ENDMDL
MODEL 48
REMARK VINA RESULT:    -5.881     11.554     15.617
REMARK INTER + INTRA:         -15.725
REMARK INTER:                 -12.711
REMARK INTRA:                  -3.014
REMARK UNBOUND:                -3.827
REMARK SMILES CC[C@@H](C)[C@@H](NC(=O)[C@@H](O)Cc1ccc(O)c(Cl)c1)C(=O)N1[C@H](C(=O)NCCCCN=C(N)N)C[C@H]2CC[C@H](OS(=O)(=O)O)C[C@@H]21
REMARK SMILES IDX 22 1 36 2 46 3 35 4 23 5 45 6 37 7 39 8 38 9 20 10 21 11
REMARK SMILES IDX 5 12 6 13 7 14 8 15 9 17 11 18 12 19 17 20 19 21 15 22 14 23
REMARK SMILES IDX 13 24 18 25 16 26 10 28 3 30 4 31 2 32 1 33 24 34 25 35
REMARK SMILES IDX 26 36 27 38 28 39 29 40 30 41 31 42 32 43 33 44 34 45 40 50
REMARK SMILES IDX 41 51 42 52 43 53 44 54
REMARK H PARENT 6 16 16 27 10 29 26 37 33 46 33 47 34 48 34 49 44 55
ROOT
ATOM      1  N   UNL     1      -2.863   1.906   9.566  1.00  0.00    -0.326 N 
ATOM      2  C   UNL     1      -2.379   3.233   7.682  1.00  0.00     0.014 C 
ATOM      3  C   UNL     1      -1.784   2.718   8.995  1.00  0.00     0.091 C 
ATOM      4  C   UNL     1      -3.847   3.426   8.032  1.00  0.00     0.041 C 
ATOM      5  C   UNL     1      -4.117   2.120   8.802  1.00  0.00     0.175 C 
ATOM      6  C   UNL     1      -0.451   2.038   8.688  1.00  0.00     0.059 C 
ATOM      7  C   UNL     1      -1.582   4.406   7.148  1.00  0.00     0.008 C 
ATOM      8  C   UNL     1       0.300   2.656   7.489  1.00  0.00     0.143 C 
ATOM      9  C   UNL     1      -0.067   4.139   7.278  1.00  0.00     0.034 C 
ENDROOT
BRANCH   1  10
ATOM     10  C   UNL     1      -2.910   1.204  10.758  1.00  0.00     0.246 C 
ATOM     11  O   UNL     1      -2.225   0.183  10.882  1.00  0.00    -0.272 OA
BRANCH  10  12
ATOM     12  C   UNL     1      -3.788   1.737  11.927  1.00  0.00     0.174 C 
BRANCH  12  13
ATOM     13  N   UNL     1      -5.180   1.856  11.492  1.00  0.00    -0.342 N 
ATOM     14  C   UNL     1      -6.118   0.851  11.562  1.00  0.00     0.249 C 
ATOM     15  O   UNL     1      -5.895  -0.259  12.028  1.00  0.00    -0.272 OA
ATOM     16  H   UNL     1      -5.468   2.662  10.943  1.00  0.00     0.164 HD
BRANCH  14  17
ATOM     17  C   UNL     1      -7.493   1.281  11.007  1.00  0.00     0.207 C 
BRANCH  17  18
ATOM     18  C   UNL     1      -8.582   0.302  11.458  1.00  0.00     0.077 C 
BRANCH  18  19
ATOM     19  C   UNL     1      -9.891   0.549  10.742  1.00  0.00    -0.043 A 
ATOM     20  C   UNL     1     -11.531  -0.098   9.075  1.00  0.00     0.083 A 
ATOM     21  C   UNL     1     -10.347  -0.354   9.769  1.00  0.00     0.028 A 
ATOM     22  C   UNL     1     -12.262   1.059   9.346  1.00  0.00     0.134 A 
ATOM     23  C   UNL     1     -11.822   1.962  10.307  1.00  0.00     0.048 A 
ATOM     24  C   UNL     1     -10.637   1.709  11.002  1.00  0.00     0.008 A 
ATOM     25  Cl  UNL     1     -12.075  -1.219   7.883  1.00  0.00    -0.080 Cl
BRANCH  22  26
ATOM     26  O   UNL     1     -13.422   1.358   8.684  1.00  0.00    -0.506 OA
ATOM     27  H   UNL     1     -13.871   2.051   9.204  1.00  0.00     0.293 HD
ENDBRANCH  22  26
ENDBRANCH  18  19
ENDBRANCH  17  18
BRANCH  17  28
ATOM     28  O   UNL     1      -7.475   1.345   9.572  1.00  0.00    -0.383 OA
ATOM     29  H   UNL     1      -8.244   0.814   9.266  1.00  0.00     0.211 HD
ENDBRANCH  17  28
ENDBRANCH  14  17
ENDBRANCH  12  13
BRANCH  12  30
ATOM     30  C   UNL     1      -3.243   3.057  12.534  1.00  0.00     0.018 C 
ATOM     31  C   UNL     1      -3.768   4.274  11.757  1.00  0.00     0.010 C 
BRANCH  30  32
ATOM     32  C   UNL     1      -1.698   3.108  12.623  1.00  0.00     0.002 C 
ATOM     33  C   UNL     1      -1.060   4.401  12.129  1.00  0.00     0.004 C 
ENDBRANCH  30  32
ENDBRANCH  12  30
ENDBRANCH  10  12
ENDBRANCH   1  10
BRANCH   5  34
ATOM     34  C   UNL     1      -4.383   0.933   7.838  1.00  0.00     0.242 C 
ATOM     35  O   UNL     1      -5.474   0.757   7.296  1.00  0.00    -0.273 OA
ATOM     36  N   UNL     1      -3.329   0.061   7.677  1.00  0.00    -0.354 N 
ATOM     37  H   UNL     1      -2.491   0.193   8.246  1.00  0.00     0.163 HD
BRANCH  36  38
ATOM     38  C   UNL     1      -3.326  -0.970   6.660  1.00  0.00     0.116 C 
BRANCH  38  39
ATOM     39  C   UNL     1      -2.903  -0.374   5.319  1.00  0.00     0.023 C 
BRANCH  39  40
ATOM     40  C   UNL     1      -3.577  -1.062   4.137  1.00  0.00     0.026 C 
BRANCH  40  41
ATOM     41  C   UNL     1      -5.085  -0.814   4.154  1.00  0.00     0.146 C 
BRANCH  41  42
ATOM     42  N   UNL     1      -5.385   0.447   3.488  1.00  0.00    -0.254 NA
ATOM     43  C   UNL     1      -6.365   1.161   3.896  1.00  0.00     0.185 C 
ATOM     44  N   UNL     1      -7.234   0.945   4.902  1.00  0.00    -0.370 N 
ATOM     45  N   UNL     1      -6.628   2.318   3.267  1.00  0.00    -0.370 N 
ATOM     46  H   UNL     1      -8.095   1.461   4.954  1.00  0.00     0.159 HD
ATOM     47  H   UNL     1      -7.172   0.121   5.492  1.00  0.00     0.159 HD
ATOM     48  H   UNL     1      -6.014   2.561   2.501  1.00  0.00     0.159 HD
ATOM     49  H   UNL     1      -7.211   3.033   3.663  1.00  0.00     0.159 HD
ENDBRANCH  41  42
ENDBRANCH  40  41
ENDBRANCH  39  40
ENDBRANCH  38  39
ENDBRANCH  36  38
ENDBRANCH   5  34
BRANCH   8  50
ATOM     50  O   UNL     1      -0.007   1.938   6.294  1.00  0.00    -0.245 OA
BRANCH  50  51
ATOM     51  S   UNL     1       1.009   0.783   5.767  1.00  0.00     0.397 S 
ATOM     52  O   UNL     1       1.384   1.103   4.408  1.00  0.00    -0.169 OA
ATOM     53  O   UNL     1       0.490  -0.521   6.125  1.00  0.00    -0.169 OA
BRANCH  51  54
ATOM     54  O   UNL     1       2.319   1.057   6.658  1.00  0.00    -0.264 OA
ATOM     55  H   UNL     1       2.139   0.727   7.563  1.00  0.00     0.236 HD
ENDBRANCH  51  54
ENDBRANCH  50  51
ENDBRANCH   8  50
TORSDOF 19
ENDMDL
MODEL 49
REMARK VINA RESULT:    -5.871      6.653      9.812
REMARK INTER + INTRA:         -15.704
REMARK INTER:                 -12.184
REMARK INTRA:                  -3.520
REMARK UNBOUND:                -3.827
REMARK SMILES CC[C@@H](C)[C@@H](NC(=O)[C@@H](O)Cc1ccc(O)c(Cl)c1)C(=O)N1[C@H](C(=O)NCCCCN=C(N)N)C[C@H]2CC[C@H](OS(=O)(=O)O)C[C@@H]21
REMARK SMILES IDX 22 1 36 2 46 3 35 4 23 5 45 6 37 7 39 8 38 9 20 10 21 11
REMARK SMILES IDX 5 12 6 13 7 14 8 15 9 17 11 18 12 19 17 20 19 21 15 22 14 23
REMARK SMILES IDX 13 24 18 25 16 26 10 28 3 30 4 31 2 32 1 33 24 34 25 35
REMARK SMILES IDX 26 36 27 38 28 39 29 40 30 41 31 42 32 43 33 44 34 45 40 50
REMARK SMILES IDX 41 51 42 52 43 53 44 54
REMARK H PARENT 6 16 16 27 10 29 26 37 33 46 33 47 34 48 34 49 44 55
ROOT
ATOM      1  N   UNL     1      -5.311  -2.039   1.200  1.00  0.00    -0.326 N 
ATOM      2  C   UNL     1      -4.394  -0.192   2.335  1.00  0.00     0.014 C 
ATOM      3  C   UNL     1      -5.097  -1.534   2.559  1.00  0.00     0.091 C 
ATOM      4  C   UNL     1      -5.036   0.313   1.051  1.00  0.00     0.041 C 
ATOM      5  C   UNL     1      -5.010  -0.976   0.209  1.00  0.00     0.175 C 
ATOM      6  C   UNL     1      -4.249  -2.368   3.517  1.00  0.00     0.059 C 
ATOM      7  C   UNL     1      -4.455   0.667   3.583  1.00  0.00     0.008 C 
ATOM      8  C   UNL     1      -3.469  -1.527   4.551  1.00  0.00     0.143 C 
ATOM      9  C   UNL     1      -4.160  -0.179   4.840  1.00  0.00     0.034 C 
ENDROOT
BRANCH   1  10
ATOM     10  C   UNL     1      -5.921  -3.206   0.772  1.00  0.00     0.246 C 
ATOM     11  O   UNL     1      -5.221  -4.194   0.523  1.00  0.00    -0.272 OA
BRANCH  10  12
ATOM     12  C   UNL     1      -7.471  -3.263   0.657  1.00  0.00     0.174 C 
BRANCH  12  13
ATOM     13  N   UNL     1      -8.012  -1.910   0.533  1.00  0.00    -0.342 N 
ATOM     14  C   UNL     1      -8.630  -1.405  -0.589  1.00  0.00     0.249 C 
ATOM     15  O   UNL     1      -8.822  -2.052  -1.611  1.00  0.00    -0.272 OA
ATOM     16  H   UNL     1      -7.790  -1.213   1.239  1.00  0.00     0.164 HD
BRANCH  14  17
ATOM     17  C   UNL     1      -9.077   0.062  -0.413  1.00  0.00     0.207 C 
BRANCH  17  18
ATOM     18  C   UNL     1      -9.864   0.230   0.890  1.00  0.00     0.077 C 
BRANCH  18  19
ATOM     19  C   UNL     1      -9.033   0.890   1.968  1.00  0.00    -0.043 A 
ATOM     20  C   UNL     1      -8.115   0.888   4.213  1.00  0.00     0.083 A 
ATOM     21  C   UNL     1      -8.841   0.254   3.204  1.00  0.00     0.028 A 
ATOM     22  C   UNL     1      -7.580   2.158   3.996  1.00  0.00     0.134 A 
ATOM     23  C   UNL     1      -7.763   2.800   2.776  1.00  0.00     0.048 A 
ATOM     24  C   UNL     1      -8.490   2.169   1.765  1.00  0.00     0.008 A 
ATOM     25  Cl  UNL     1      -7.890   0.090   5.725  1.00  0.00    -0.080 Cl
BRANCH  22  26
ATOM     26  O   UNL     1      -6.870   2.823   4.958  1.00  0.00    -0.506 OA
ATOM     27  H   UNL     1      -7.472   2.945   5.716  1.00  0.00     0.293 HD
ENDBRANCH  22  26
ENDBRANCH  18  19
ENDBRANCH  17  18
BRANCH  17  28
ATOM     28  O   UNL     1      -9.887   0.492  -1.519  1.00  0.00    -0.383 OA
ATOM     29  H   UNL     1      -9.278   0.574  -2.287  1.00  0.00     0.211 HD
ENDBRANCH  17  28
ENDBRANCH  14  17
ENDBRANCH  12  13
BRANCH  12  30
ATOM     30  C   UNL     1      -8.130  -4.062   1.813  1.00  0.00     0.018 C 
ATOM     31  C   UNL     1      -8.501  -5.481   1.356  1.00  0.00     0.010 C 
BRANCH  30  32
ATOM     32  C   UNL     1      -9.367  -3.361   2.427  1.00  0.00     0.002 C 
ATOM     33  C   UNL     1      -9.828  -3.911   3.770  1.00  0.00     0.004 C 
ENDBRANCH  30  32
ENDBRANCH  12  30
ENDBRANCH  10  12
ENDBRANCH   1  10
BRANCH   5  34
ATOM     34  C   UNL     1      -3.619  -1.207  -0.440  1.00  0.00     0.242 C 
ATOM     35  O   UNL     1      -3.156  -0.448  -1.292  1.00  0.00    -0.273 OA
ATOM     36  N   UNL     1      -2.964  -2.348  -0.033  1.00  0.00    -0.354 N 
ATOM     37  H   UNL     1      -3.450  -2.999   0.585  1.00  0.00     0.163 HD
BRANCH  36  38
ATOM     38  C   UNL     1      -1.579  -2.606  -0.368  1.00  0.00     0.116 C 
BRANCH  38  39
ATOM     39  C   UNL     1      -1.503  -3.522  -1.587  1.00  0.00     0.023 C 
BRANCH  39  40
ATOM     40  C   UNL     1      -0.777  -2.872  -2.760  1.00  0.00     0.026 C 
BRANCH  40  41
ATOM     41  C   UNL     1       0.734  -3.075  -2.642  1.00  0.00     0.146 C 
BRANCH  41  42
ATOM     42  N   UNL     1       1.296  -3.365  -3.954  1.00  0.00    -0.254 NA
ATOM     43  C   UNL     1       2.086  -2.522  -4.505  1.00  0.00     0.185 C 
ATOM     44  N   UNL     1       2.526  -1.330  -4.061  1.00  0.00    -0.370 N 
ATOM     45  N   UNL     1       2.590  -2.806  -5.717  1.00  0.00    -0.370 N 
ATOM     46  H   UNL     1       2.943  -0.669  -4.695  1.00  0.00     0.159 HD
ATOM     47  H   UNL     1       2.254  -0.966  -3.154  1.00  0.00     0.159 HD
ATOM     48  H   UNL     1       2.315  -3.692  -6.121  1.00  0.00     0.159 HD
ATOM     49  H   UNL     1       3.383  -2.325  -6.103  1.00  0.00     0.159 HD
ENDBRANCH  41  42
ENDBRANCH  40  41
ENDBRANCH  39  40
ENDBRANCH  38  39
ENDBRANCH  36  38
ENDBRANCH   5  34
BRANCH   8  50
ATOM     50  O   UNL     1      -2.149  -1.267   4.075  1.00  0.00    -0.245 OA
BRANCH  50  51
ATOM     51  S   UNL     1      -0.889  -1.382   5.098  1.00  0.00     0.397 S 
ATOM     52  O   UNL     1      -0.751  -0.115   5.780  1.00  0.00    -0.169 OA
ATOM     53  O   UNL     1       0.229  -2.008   4.423  1.00  0.00    -0.169 OA
BRANCH  51  54
ATOM     54  O   UNL     1      -1.445  -2.414   6.199  1.00  0.00    -0.264 OA
ATOM     55  H   UNL     1      -2.095  -2.999   5.759  1.00  0.00     0.236 HD
ENDBRANCH  51  54
ENDBRANCH  50  51
ENDBRANCH   8  50
TORSDOF 19
ENDMDL
MODEL 50
REMARK VINA RESULT:    -5.838      5.069      8.320
REMARK INTER + INTRA:         -15.637
REMARK INTER:                 -10.447
REMARK INTRA:                  -5.190
REMARK UNBOUND:                -3.827
REMARK SMILES CC[C@@H](C)[C@@H](NC(=O)[C@@H](O)Cc1ccc(O)c(Cl)c1)C(=O)N1[C@H](C(=O)NCCCCN=C(N)N)C[C@H]2CC[C@H](OS(=O)(=O)O)C[C@@H]21
REMARK SMILES IDX 22 1 36 2 46 3 35 4 23 5 45 6 37 7 39 8 38 9 20 10 21 11
REMARK SMILES IDX 5 12 6 13 7 14 8 15 9 17 11 18 12 19 17 20 19 21 15 22 14 23
REMARK SMILES IDX 13 24 18 25 16 26 10 28 3 30 4 31 2 32 1 33 24 34 25 35
REMARK SMILES IDX 26 36 27 38 28 39 29 40 30 41 31 42 32 43 33 44 34 45 40 50
REMARK SMILES IDX 41 51 42 52 43 53 44 54
REMARK H PARENT 6 16 16 27 10 29 26 37 33 46 33 47 34 48 34 49 44 55
ROOT
ATOM      1  N   UNL     1      -4.033  -0.970  -2.826  1.00  0.00    -0.326 N 
ATOM      2  C   UNL     1      -2.326  -1.042  -1.207  1.00  0.00     0.014 C 
ATOM      3  C   UNL     1      -3.211  -1.931  -2.085  1.00  0.00     0.091 C 
ATOM      4  C   UNL     1      -3.248   0.120  -0.871  1.00  0.00     0.041 C 
ATOM      5  C   UNL     1      -3.862   0.390  -2.257  1.00  0.00     0.175 C 
ATOM      6  C   UNL     1      -2.309  -2.876  -2.878  1.00  0.00     0.059 C 
ATOM      7  C   UNL     1      -1.700  -1.843  -0.082  1.00  0.00     0.008 C 
ATOM      8  C   UNL     1      -1.016  -3.273  -2.133  1.00  0.00     0.143 C 
ATOM      9  C   UNL     1      -1.185  -3.202  -0.602  1.00  0.00     0.034 C 
ENDROOT
BRANCH   1  10
ATOM     10  C   UNL     1      -5.032  -1.190  -3.759  1.00  0.00     0.246 C 
ATOM     11  O   UNL     1      -4.785  -1.014  -4.957  1.00  0.00    -0.272 OA
BRANCH  10  12
ATOM     12  C   UNL     1      -6.426  -1.695  -3.286  1.00  0.00     0.174 C 
BRANCH  12  13
ATOM     13  N   UNL     1      -6.769  -1.083  -2.003  1.00  0.00    -0.342 N 
ATOM     14  C   UNL     1      -7.438   0.111  -1.851  1.00  0.00     0.249 C 
ATOM     15  O   UNL     1      -7.848   0.787  -2.786  1.00  0.00    -0.272 OA
ATOM     16  H   UNL     1      -6.359  -1.445  -1.146  1.00  0.00     0.164 HD
BRANCH  14  17
ATOM     17  C   UNL     1      -7.634   0.500  -0.370  1.00  0.00     0.207 C 
BRANCH  17  18
ATOM     18  C   UNL     1      -7.596  -0.747   0.520  1.00  0.00     0.077 C 
BRANCH  18  19
ATOM     19  C   UNL     1      -6.452  -0.696   1.508  1.00  0.00    -0.043 A 
ATOM     20  C   UNL     1      -5.283   0.422   3.316  1.00  0.00     0.083 A 
ATOM     21  C   UNL     1      -6.366   0.352   2.438  1.00  0.00     0.028 A 
ATOM     22  C   UNL     1      -4.283  -0.550   3.270  1.00  0.00     0.134 A 
ATOM     23  C   UNL     1      -4.356  -1.593   2.354  1.00  0.00     0.048 A 
ATOM     24  C   UNL     1      -5.438  -1.665   1.473  1.00  0.00     0.008 A 
ATOM     25  Cl  UNL     1      -5.194   1.717   4.451  1.00  0.00    -0.080 Cl
BRANCH  22  26
ATOM     26  O   UNL     1      -3.197  -0.517   4.103  1.00  0.00    -0.506 OA
ATOM     27  H   UNL     1      -3.456  -0.985   4.918  1.00  0.00     0.293 HD
ENDBRANCH  22  26
ENDBRANCH  18  19
ENDBRANCH  17  18
BRANCH  17  28
ATOM     28  O   UNL     1      -8.881   1.186  -0.176  1.00  0.00    -0.383 OA
ATOM     29  H   UNL     1      -9.399   1.047  -1.002  1.00  0.00     0.211 HD
ENDBRANCH  17  28
ENDBRANCH  14  17
ENDBRANCH  12  13
BRANCH  12  30
ATOM     30  C   UNL     1      -6.521  -3.244  -3.247  1.00  0.00     0.018 C 
ATOM     31  C   UNL     1      -6.287  -3.771  -1.822  1.00  0.00     0.010 C 
BRANCH  30  32
ATOM     32  C   UNL     1      -5.566  -3.951  -4.239  1.00  0.00     0.002 C 
ATOM     33  C   UNL     1      -6.178  -4.316  -5.585  1.00  0.00     0.004 C 
ENDBRANCH  30  32
ENDBRANCH  12  30
ENDBRANCH  10  12
ENDBRANCH   1  10
BRANCH   5  34
ATOM     34  C   UNL     1      -2.918   1.243  -3.146  1.00  0.00     0.242 C 
ATOM     35  O   UNL     1      -2.604   2.396  -2.853  1.00  0.00    -0.273 OA
ATOM     36  N   UNL     1      -2.501   0.636  -4.309  1.00  0.00    -0.354 N 
ATOM     37  H   UNL     1      -2.891  -0.275  -4.555  1.00  0.00     0.163 HD
BRANCH  36  38
ATOM     38  C   UNL     1      -1.457   1.195  -5.142  1.00  0.00     0.116 C 
BRANCH  38  39
ATOM     39  C   UNL     1      -1.918   1.231  -6.597  1.00  0.00     0.023 C 
BRANCH  39  40
ATOM     40  C   UNL     1      -2.587   2.551  -6.964  1.00  0.00     0.026 C 
BRANCH  40  41
ATOM     41  C   UNL     1      -4.109   2.419  -6.916  1.00  0.00     0.146 C 
BRANCH  41  42
ATOM     42  N   UNL     1      -4.609   2.941  -5.651  1.00  0.00    -0.254 NA
ATOM     43  C   UNL     1      -5.680   2.457  -5.144  1.00  0.00     0.185 C 
ATOM     44  N   UNL     1      -6.488   1.481  -5.599  1.00  0.00    -0.370 N 
ATOM     45  N   UNL     1      -6.127   2.955  -3.980  1.00  0.00    -0.370 N 
ATOM     46  H   UNL     1      -7.417   1.372  -5.231  1.00  0.00     0.159 HD
ATOM     47  H   UNL     1      -6.291   0.985  -6.463  1.00  0.00     0.159 HD
ATOM     48  H   UNL     1      -5.571   3.689  -3.564  1.00  0.00     0.159 HD
ATOM     49  H   UNL     1      -6.806   2.482  -3.410  1.00  0.00     0.159 HD
ENDBRANCH  41  42
ENDBRANCH  40  41
ENDBRANCH  39  40
ENDBRANCH  38  39
ENDBRANCH  36  38
ENDBRANCH   5  34
BRANCH   8  50
ATOM     50  O   UNL     1       0.053  -2.406  -2.512  1.00  0.00    -0.245 OA
BRANCH  50  51
ATOM     51  S   UNL     1       0.972  -2.781  -3.802  1.00  0.00     0.397 S 
ATOM     52  O   UNL     1       0.781  -1.752  -4.799  1.00  0.00    -0.169 OA
ATOM     53  O   UNL     1       0.814  -4.185  -4.119  1.00  0.00    -0.169 OA
BRANCH  51  54
ATOM     54  O   UNL     1       2.458  -2.566  -3.228  1.00  0.00    -0.264 OA
ATOM     55  H   UNL     1       3.068  -2.511  -3.993  1.00  0.00     0.236 HD
ENDBRANCH  51  54
ENDBRANCH  50  51
ENDBRANCH   8  50
TORSDOF 19
ENDMDL
