MODEL 1
REMARK VINA RESULT:    -6.056      0.000      0.000
REMARK INTER + INTRA:         -26.712
REMARK INTER:                 -18.094
REMARK INTRA:                  -8.618
REMARK UNBOUND:                -8.618
REMARK SMILES C=C1C(=O)N[C@H](C)C(=O)N[C@@H](CC(C)C)C(=O)N[C@@H](C(=O)O)[C@H](C)C(=O)N[C@@H](CCCN=C(N)N)C(=O)N[C@@H](/C=C/C(C)=C/[C@H](C)[C@H](Cc2ccccc2)OC)[C@H](C)C(=O)N[C@@H](C(=O)O)CCC(=O)N1C
REMARK SMILES IDX 39 1 38 2 37 3 36 4 28 6 27 7 25 8 26 9 23 11 24 12 19 13
REMARK SMILES IDX 18 14 16 15 17 16 11 18 10 19 8 20 9 21 12 24 13 25 14 26
REMARK SMILES IDX 15 27 20 28 21 29 22 30 29 32 30 33 31 34 32 35 33 36 34 37
REMARK SMILES IDX 35 38 57 43 58 44 59 45 60 46 61 47 62 49 66 50 67 51 68 52
REMARK SMILES IDX 69 53 70 54 71 55 2 56 1 57 3 58 4 59 5 60 6 62 7 63 63 65
REMARK SMILES IDX 64 66 65 67 40 69 41 70 42 71 44 72 43 73 45 74 46 75 47 76
REMARK SMILES IDX 55 77 56 78 48 79 49 80 50 81 54 82 51 83 53 84 52 85
REMARK H PARENT 38 5 27 10 18 17 10 22 22 31 34 39 34 40 35 41 35 42 61 48
REMARK H PARENT 5 61 65 68
REMARK Flexibility Score:  369.900
ROOT
ATOM      1  C   UNL     1     -13.865  -2.052   5.251  1.00  0.00     0.117 C 
ENDROOT
BRANCH   1   2
ATOM      2  N   UNL     1     -15.102  -1.573   5.868  1.00  0.00    -0.347 N 
ATOM      3  O   UNL     1     -14.180   0.059   7.193  1.00  0.00    -0.273 OA
ATOM      4  C   UNL     1     -15.171  -0.491   6.724  1.00  0.00     0.243 C 
ATOM      5  H   UNL     1     -15.977  -2.016   5.630  1.00  0.00     0.164 HD
BRANCH   4   6
ATOM      6  C   UNL     1     -16.613  -0.140   7.170  1.00  0.00     0.171 C 
BRANCH   6   7
ATOM      7  N   UNL     1     -16.775  -0.367   8.615  1.00  0.00    -0.344 N 
ATOM      8  C   UNL     1     -17.968  -0.834   9.123  1.00  0.00     0.226 C 
ATOM      9  O   UNL     1     -18.944  -1.058   8.417  1.00  0.00    -0.275 OA
ATOM     10  H   UNL     1     -16.013  -0.130   9.237  1.00  0.00     0.164 HD
BRANCH   8  11
ATOM     11  C   UNL     1     -17.959  -1.069  10.623  1.00  0.00     0.109 C 
ATOM     12  C   UNL     1     -19.379  -1.337  11.122  1.00  0.00     0.021 C 
BRANCH  11  13
ATOM     13  C   UNL     1     -16.932  -2.165  10.973  1.00  0.00     0.204 C 
BRANCH  13  14
ATOM     14  N   UNL     1     -15.779  -1.628  11.702  1.00  0.00    -0.340 N 
ATOM     15  C   UNL     1     -14.518  -1.547  11.152  1.00  0.00     0.243 C 
ATOM     16  O   UNL     1     -14.284  -1.866   9.988  1.00  0.00    -0.273 OA
ATOM     17  H   UNL     1     -15.871  -1.490  12.712  1.00  0.00     0.164 HD
BRANCH  15  18
ATOM     18  C   UNL     1     -13.423  -1.145  12.171  1.00  0.00     0.171 C 
BRANCH  18  19
ATOM     19  N   UNL     1     -12.920  -2.386  12.757  1.00  0.00    -0.343 N 
ATOM     20  C   UNL     1     -13.501  -2.952  13.875  1.00  0.00     0.242 CG0
ATOM     21  O   UNL     1     -14.381  -2.372  14.506  1.00  0.00    -0.273 OA
ATOM     22  H   UNL     1     -12.119  -2.844  12.338  1.00  0.00     0.164 HD
ATOM     23  G   UNL     1     -12.883  -4.300  14.300  1.00  0.00     0.000 G0
ENDBRANCH  18  19
BRANCH  18  24
ATOM     24  C   UNL     1     -12.305  -0.355  11.480  1.00  0.00     0.038 C 
BRANCH  24  25
ATOM     25  C   UNL     1     -11.071  -1.195  11.087  1.00  0.00    -0.015 C 
ATOM     26  C   UNL     1      -9.814  -0.783  11.855  1.00  0.00     0.007 C 
ATOM     27  C   UNL     1     -10.820  -1.069   9.582  1.00  0.00     0.007 C 
ENDBRANCH  24  25
ENDBRANCH  18  24
ENDBRANCH  15  18
ENDBRANCH  13  14
BRANCH  13  28
ATOM     28  C   UNL     1     -17.521  -3.294  11.825  1.00  0.00     0.327 C 
ATOM     29  O   UNL     1     -17.242  -3.543  12.988  1.00  0.00    -0.250 OA
BRANCH  28  30
ATOM     30  O   UNL     1     -18.334  -4.113  11.127  1.00  0.00    -0.480 OA
ATOM     31  H   UNL     1     -17.898  -4.989  11.180  1.00  0.00     0.296 HD
ENDBRANCH  28  30
ENDBRANCH  13  28
ENDBRANCH  11  13
ENDBRANCH   8  11
ENDBRANCH   6   7
BRANCH   6  32
ATOM     32  C   UNL     1     -16.910   1.320   6.809  1.00  0.00     0.037 C 
BRANCH  32  33
ATOM     33  C   UNL     1     -16.615   1.624   5.334  1.00  0.00     0.026 C 
BRANCH  33  34
ATOM     34  C   UNL     1     -15.646   2.794   5.159  1.00  0.00     0.146 C 
BRANCH  34  35
ATOM     35  N   UNL     1     -15.628   3.576   6.388  1.00  0.00    -0.254 NA
ATOM     36  C   UNL     1     -14.613   4.321   6.627  1.00  0.00     0.185 C 
ATOM     37  N   UNL     1     -14.588   5.050   7.754  1.00  0.00    -0.370 N 
ATOM     38  N   UNL     1     -13.505   4.502   5.887  1.00  0.00    -0.370 N 
ATOM     39  H   UNL     1     -15.395   4.976   8.361  1.00  0.00     0.159 HD
ATOM     40  H   UNL     1     -13.921   5.781   7.928  1.00  0.00     0.159 HD
ATOM     41  H   UNL     1     -12.714   5.008   6.250  1.00  0.00     0.159 HD
ATOM     42  H   UNL     1     -13.381   4.004   5.020  1.00  0.00     0.159 HD
ENDBRANCH  34  35
ENDBRANCH  33  34
ENDBRANCH  32  33
ENDBRANCH   6  32
ENDBRANCH   4   6
ENDBRANCH   1   2
BRANCH   1  43
ATOM     43  C   UNL     1     -14.117  -2.252   3.728  1.00  0.00     0.102 C 
ATOM     44  C   UNL     1     -13.611  -1.083   2.866  1.00  0.00     0.020 C 
BRANCH  43  45
ATOM     45  C   UNL     1     -15.574  -2.638   3.458  1.00  0.00     0.225 C 
ATOM     46  O   UNL     1     -16.040  -3.737   3.742  1.00  0.00    -0.275 OA
ATOM     47  N   UNL     1     -16.320  -1.699   2.782  1.00  0.00    -0.342 N 
ATOM     48  H   UNL     1     -15.973  -0.755   2.692  1.00  0.00     0.164 HD
BRANCH  47  49
ATOM     49  C   UNL     1     -17.739  -1.917   2.485  1.00  0.00     0.192 C 
BRANCH  49  50
ATOM     50  C   UNL     1     -18.150  -1.064   1.283  1.00  0.00     0.047 C 
BRANCH  50  51
ATOM     51  C   UNL     1     -16.967  -0.290   0.686  1.00  0.00     0.103 C 
BRANCH  51  52
ATOM     52  C   UNL     1     -16.864  -0.476  -0.827  1.00  0.00     0.226 C 
ATOM     53  O   UNL     1     -16.395  -1.520  -1.283  1.00  0.00    -0.275 OA
BRANCH  52  54
ATOM     54  N   UNL     1     -17.396   0.556  -1.622  1.00  0.00    -0.311 N 
ATOM     55  C   UNL     1     -16.597   1.743  -1.955  1.00  0.00     0.153 C 
BRANCH  54  56
ATOM     56  C   UNL     1     -18.704   0.489  -2.130  1.00  0.00     0.102 C 
ATOM     57  C   UNL     1     -19.721   1.277  -1.743  1.00  0.00     0.043 C 
BRANCH  56  58
ATOM     58  C   UNL     1     -19.061  -0.487  -3.226  1.00  0.00     0.268 C 
ATOM     59  O   UNL     1     -20.213  -0.739  -3.550  1.00  0.00    -0.268 OA
ATOM     60  N   UNL     1     -17.960  -1.010  -3.863  1.00  0.00    -0.339 N 
ATOM     61  H   UNL     1     -17.038  -0.759  -3.527  1.00  0.00     0.164 HD
BRANCH  60  62
ATOM     62  C   UNL     1     -18.078  -1.928  -4.995  1.00  0.00     0.168 CG0
ATOM     63  C   UNL     1     -17.590  -3.323  -4.622  1.00  0.00     0.041 C 
ATOM     64  G   UNL     1     -17.282  -1.374  -6.194  1.00  0.00     0.000 G0
ENDBRANCH  60  62
ENDBRANCH  56  58
ENDBRANCH  54  56
ENDBRANCH  52  54
ENDBRANCH  51  52
ENDBRANCH  50  51
ENDBRANCH  49  50
BRANCH  49  65
ATOM     65  C   UNL     1     -18.630  -1.565   3.687  1.00  0.00     0.326 C 
ATOM     66  O   UNL     1     -19.218  -0.506   3.850  1.00  0.00    -0.250 OA
BRANCH  65  67
ATOM     67  O   UNL     1     -18.690  -2.519   4.642  1.00  0.00    -0.480 OA
ATOM     68  H   UNL     1     -19.406  -2.206   5.237  1.00  0.00     0.296 HD
ENDBRANCH  65  67
ENDBRANCH  49  65
ENDBRANCH  47  49
ENDBRANCH  43  45
ENDBRANCH   1  43
BRANCH   1  69
ATOM     69  C   UNL     1     -13.408  -3.238   6.080  1.00  0.00    -0.001 C 
ATOM     70  C   UNL     1     -12.502  -3.239   7.074  1.00  0.00     0.001 C 
BRANCH  70  71
ATOM     71  C   UNL     1     -12.085  -4.386   7.882  1.00  0.00    -0.055 C 
ATOM     72  C   UNL     1     -12.178  -4.276   9.224  1.00  0.00    -0.018 C 
ATOM     73  C   UNL     1     -11.589  -5.611   7.159  1.00  0.00     0.044 C 
BRANCH  72  74
ATOM     74  C   UNL     1     -11.825  -5.292  10.301  1.00  0.00     0.038 C 
ATOM     75  C   UNL     1     -13.092  -5.530  11.132  1.00  0.00     0.015 C 
BRANCH  74  76
ATOM     76  C   UNL     1     -10.604  -4.762  11.109  1.00  0.00     0.128 C 
BRANCH  76  77
ATOM     77  O   UNL     1     -10.894  -4.798  12.517  1.00  0.00    -0.381 OA
ATOM     78  C   UNL     1      -9.883  -4.210  13.324  1.00  0.00     0.195 C 
ENDBRANCH  76  77
BRANCH  76  79
ATOM     79  C   UNL     1      -9.265  -5.456  10.755  1.00  0.00     0.068 C 
BRANCH  79  80
ATOM     80  C   UNL     1      -8.696  -5.231   9.375  1.00  0.00    -0.045 A 
ATOM     81  C   UNL     1      -8.526  -3.937   8.866  1.00  0.00     0.004 A 
ATOM     82  C   UNL     1      -8.352  -6.324   8.565  1.00  0.00     0.004 A 
ATOM     83  C   UNL     1      -8.012  -3.738   7.582  1.00  0.00     0.000 A 
ATOM     84  C   UNL     1      -7.838  -6.124   7.282  1.00  0.00     0.000 A 
ATOM     85  C   UNL     1      -7.667  -4.832   6.792  1.00  0.00     0.000 A 
ENDBRANCH  79  80
ENDBRANCH  76  79
ENDBRANCH  74  76
ENDBRANCH  72  74
ENDBRANCH  70  71
ENDBRANCH   1  69
TORSDOF 17
ENDMDL
MODEL 2
REMARK VINA RESULT:    -6.043      9.011     13.206
REMARK INTER + INTRA:         -26.673
REMARK INTER:                 -18.641
REMARK INTRA:                  -8.031
REMARK UNBOUND:                -8.618
REMARK SMILES C=C1C(=O)N[C@H](C)C(=O)N[C@@H](CC(C)C)C(=O)N[C@@H](C(=O)O)[C@H](C)C(=O)N[C@@H](CCCN=C(N)N)C(=O)N[C@@H](/C=C/C(C)=C/[C@H](C)[C@H](Cc2ccccc2)OC)[C@H](C)C(=O)N[C@@H](C(=O)O)CCC(=O)N1C
REMARK SMILES IDX 39 1 38 2 37 3 36 4 28 6 27 7 25 8 26 9 23 11 24 12 19 13
REMARK SMILES IDX 18 14 16 15 17 16 11 18 10 19 8 20 9 21 12 24 13 25 14 26
REMARK SMILES IDX 15 27 20 28 21 29 22 30 29 32 30 33 31 34 32 35 33 36 34 37
REMARK SMILES IDX 35 38 57 43 58 44 59 45 60 46 61 47 62 49 66 50 67 51 68 52
REMARK SMILES IDX 69 53 70 54 71 55 2 56 1 57 3 58 4 59 5 60 6 62 7 63 63 65
REMARK SMILES IDX 64 66 65 67 40 69 41 70 42 71 44 72 43 73 45 74 46 75 47 76
REMARK SMILES IDX 55 77 56 78 48 79 49 80 50 81 54 82 51 83 53 84 52 85
REMARK H PARENT 38 5 27 10 18 17 10 22 22 31 34 39 34 40 35 41 35 42 61 48
REMARK H PARENT 5 61 65 68
REMARK Flexibility Score:  369.900
ROOT
ATOM      1  C   UNL     1      -9.478  -1.530  -4.299  1.00  0.00     0.117 C 
ENDROOT
BRANCH   1   2
ATOM      2  N   UNL     1      -8.094  -1.879  -3.976  1.00  0.00    -0.347 N 
ATOM      3  O   UNL     1      -7.736  -3.361  -5.693  1.00  0.00    -0.273 OA
ATOM      4  C   UNL     1      -7.301  -2.699  -4.756  1.00  0.00     0.243 C 
ATOM      5  H   UNL     1      -7.656  -1.466  -3.167  1.00  0.00     0.164 HD
BRANCH   4   6
ATOM      6  C   UNL     1      -5.847  -2.837  -4.237  1.00  0.00     0.171 C 
BRANCH   6   7
ATOM      7  N   UNL     1      -5.544  -4.243  -3.923  1.00  0.00    -0.344 N 
ATOM      8  C   UNL     1      -6.011  -4.819  -2.761  1.00  0.00     0.226 C 
ATOM      9  O   UNL     1      -6.670  -4.199  -1.935  1.00  0.00    -0.275 OA
ATOM     10  H   UNL     1      -4.946  -4.767  -4.548  1.00  0.00     0.164 HD
BRANCH   8  11
ATOM     11  C   UNL     1      -5.661  -6.289  -2.608  1.00  0.00     0.109 C 
ATOM     12  C   UNL     1      -5.214  -6.866  -3.951  1.00  0.00     0.021 C 
BRANCH  11  13
ATOM     13  C   UNL     1      -4.650  -6.466  -1.457  1.00  0.00     0.204 C 
BRANCH  13  14
ATOM     14  N   UNL     1      -5.179  -5.983  -0.178  1.00  0.00    -0.340 N 
ATOM     15  C   UNL     1      -4.378  -5.458   0.812  1.00  0.00     0.243 C 
ATOM     16  O   UNL     1      -3.167  -5.302   0.669  1.00  0.00    -0.273 OA
ATOM     17  H   UNL     1      -6.145  -6.221   0.063  1.00  0.00     0.164 HD
BRANCH  15  18
ATOM     18  C   UNL     1      -5.126  -5.209   2.146  1.00  0.00     0.171 C 
BRANCH  18  19
ATOM     19  N   UNL     1      -4.290  -5.771   3.205  1.00  0.00    -0.343 N 
ATOM     20  C   UNL     1      -4.743  -6.781   4.032  1.00  0.00     0.242 CG0
ATOM     21  O   UNL     1      -5.911  -7.161   4.003  1.00  0.00    -0.273 OA
ATOM     22  H   UNL     1      -3.354  -5.409   3.345  1.00  0.00     0.164 HD
ATOM     23  G   UNL     1      -3.694  -7.300   5.037  1.00  0.00     0.000 G0
ENDBRANCH  18  19
BRANCH  18  24
ATOM     24  C   UNL     1      -5.370  -3.710   2.358  1.00  0.00     0.038 C 
BRANCH  24  25
ATOM     25  C   UNL     1      -6.835  -3.263   2.169  1.00  0.00    -0.015 C 
ATOM     26  C   UNL     1      -7.293  -2.284   3.250  1.00  0.00     0.007 C 
ATOM     27  C   UNL     1      -7.751  -4.490   2.163  1.00  0.00     0.007 C 
ENDBRANCH  24  25
ENDBRANCH  18  24
ENDBRANCH  15  18
ENDBRANCH  13  14
BRANCH  13  28
ATOM     28  C   UNL     1      -4.221  -7.922  -1.250  1.00  0.00     0.327 C 
ATOM     29  O   UNL     1      -4.956  -8.898  -1.244  1.00  0.00    -0.250 OA
BRANCH  28  30
ATOM     30  O   UNL     1      -2.914  -8.050  -0.944  1.00  0.00    -0.480 OA
ATOM     31  H   UNL     1      -2.786  -7.453  -0.178  1.00  0.00     0.296 HD
ENDBRANCH  28  30
ENDBRANCH  13  28
ENDBRANCH  11  13
ENDBRANCH   8  11
ENDBRANCH   6   7
BRANCH   6  32
ATOM     32  C   UNL     1      -4.882  -2.293  -5.296  1.00  0.00     0.037 C 
BRANCH  32  33
ATOM     33  C   UNL     1      -5.253  -0.872  -5.743  1.00  0.00     0.026 C 
BRANCH  33  34
ATOM     34  C   UNL     1      -4.217   0.167  -5.312  1.00  0.00     0.146 C 
BRANCH  34  35
ATOM     35  N   UNL     1      -4.835   1.485  -5.337  1.00  0.00    -0.254 NA
ATOM     36  C   UNL     1      -5.239   1.995  -4.233  1.00  0.00     0.185 C 
ATOM     37  N   UNL     1      -5.805   3.212  -4.244  1.00  0.00    -0.370 N 
ATOM     38  N   UNL     1      -5.182   1.478  -2.993  1.00  0.00    -0.370 N 
ATOM     39  H   UNL     1      -5.875   3.673  -5.142  1.00  0.00     0.159 HD
ATOM     40  H   UNL     1      -5.986   3.748  -3.413  1.00  0.00     0.159 HD
ATOM     41  H   UNL     1      -5.661   1.917  -2.223  1.00  0.00     0.159 HD
ATOM     42  H   UNL     1      -4.795   0.560  -2.837  1.00  0.00     0.159 HD
ENDBRANCH  34  35
ENDBRANCH  33  34
ENDBRANCH  32  33
ENDBRANCH   6  32
ENDBRANCH   4   6
ENDBRANCH   1   2
BRANCH   1  43
ATOM     43  C   UNL     1      -9.470  -0.491  -5.457  1.00  0.00     0.102 C 
ATOM     44  C   UNL     1      -8.850   0.860  -5.062  1.00  0.00     0.020 C 
BRANCH  43  45
ATOM     45  C   UNL     1     -10.855  -0.375  -6.100  1.00  0.00     0.225 C 
ATOM     46  O   UNL     1     -11.223  -1.082  -7.034  1.00  0.00    -0.275 OA
ATOM     47  N   UNL     1     -11.645   0.648  -5.626  1.00  0.00    -0.342 N 
ATOM     48  H   UNL     1     -11.394   1.116  -4.767  1.00  0.00     0.164 HD
BRANCH  47  49
ATOM     49  C   UNL     1     -13.008   0.857  -6.124  1.00  0.00     0.192 C 
BRANCH  49  50
ATOM     50  C   UNL     1     -13.273   2.356  -6.282  1.00  0.00     0.047 C 
BRANCH  50  51
ATOM     51  C   UNL     1     -12.031   3.203  -5.971  1.00  0.00     0.103 C 
BRANCH  51  52
ATOM     52  C   UNL     1     -11.489   3.903  -7.215  1.00  0.00     0.226 C 
ATOM     53  O   UNL     1     -12.240   4.600  -7.900  1.00  0.00    -0.275 OA
BRANCH  52  54
ATOM     54  N   UNL     1     -10.110   3.762  -7.463  1.00  0.00    -0.311 N 
ATOM     55  C   UNL     1      -9.594   2.625  -8.237  1.00  0.00     0.153 C 
BRANCH  54  56
ATOM     56  C   UNL     1      -9.181   4.701  -6.986  1.00  0.00     0.102 C 
ATOM     57  C   UNL     1      -8.653   4.701  -5.751  1.00  0.00     0.043 C 
BRANCH  56  58
ATOM     58  C   UNL     1      -8.655   5.796  -7.884  1.00  0.00     0.268 C 
ATOM     59  O   UNL     1      -7.465   6.057  -7.995  1.00  0.00    -0.268 OA
ATOM     60  N   UNL     1      -9.641   6.419  -8.610  1.00  0.00    -0.339 N 
ATOM     61  H   UNL     1     -10.606   6.151  -8.453  1.00  0.00     0.164 HD
BRANCH  60  62
ATOM     62  C   UNL     1      -9.346   7.466  -9.588  1.00  0.00     0.168 CG0
ATOM     63  C   UNL     1      -9.963   7.140 -10.942  1.00  0.00     0.041 C 
ATOM     64  G   UNL     1      -7.818   7.641  -9.711  1.00  0.00     0.000 G0
ENDBRANCH  60  62
ENDBRANCH  56  58
ENDBRANCH  54  56
ENDBRANCH  52  54
ENDBRANCH  51  52
ENDBRANCH  50  51
ENDBRANCH  49  50
BRANCH  49  65
ATOM     65  C   UNL     1     -14.056   0.252  -5.177  1.00  0.00     0.326 C 
ATOM     66  O   UNL     1     -14.214   0.556  -4.003  1.00  0.00    -0.250 OA
BRANCH  65  67
ATOM     67  O   UNL     1     -14.804  -0.734  -5.720  1.00  0.00    -0.480 OA
ATOM     68  H   UNL     1     -15.545  -0.839  -5.085  1.00  0.00     0.296 HD
ENDBRANCH  65  67
ENDBRANCH  49  65
ENDBRANCH  47  49
ENDBRANCH  43  45
ENDBRANCH   1  43
BRANCH   1  69
ATOM     69  C   UNL     1     -10.138  -1.159  -2.984  1.00  0.00    -0.001 C 
ATOM     70  C   UNL     1     -10.063  -1.821  -1.816  1.00  0.00     0.001 C 
BRANCH  70  71
ATOM     71  C   UNL     1     -10.688  -1.440  -0.547  1.00  0.00    -0.055 C 
ATOM     72  C   UNL     1     -11.766  -0.630  -0.597  1.00  0.00    -0.018 C 
ATOM     73  C   UNL     1     -10.089  -1.987   0.723  1.00  0.00     0.044 C 
BRANCH  72  74
ATOM     74  C   UNL     1     -12.611  -0.080   0.544  1.00  0.00     0.038 C 
ATOM     75  C   UNL     1     -13.964  -0.798   0.492  1.00  0.00     0.015 C 
BRANCH  74  76
ATOM     76  C   UNL     1     -12.688   1.470   0.408  1.00  0.00     0.128 C 
BRANCH  76  77
ATOM     77  O   UNL     1     -14.012   1.926   0.733  1.00  0.00    -0.381 OA
ATOM     78  C   UNL     1     -14.045   2.870   1.795  1.00  0.00     0.195 C 
ENDBRANCH  76  77
BRANCH  76  79
ATOM     79  C   UNL     1     -11.584   2.226   1.189  1.00  0.00     0.068 C 
BRANCH  79  80
ATOM     80  C   UNL     1     -10.147   1.843   0.932  1.00  0.00    -0.045 A 
ATOM     81  C   UNL     1      -9.610   1.883  -0.362  1.00  0.00     0.004 A 
ATOM     82  C   UNL     1      -9.329   1.412   1.988  1.00  0.00     0.004 A 
ATOM     83  C   UNL     1      -8.283   1.514  -0.594  1.00  0.00     0.000 A 
ATOM     84  C   UNL     1      -8.003   1.042   1.754  1.00  0.00     0.000 A 
ATOM     85  C   UNL     1      -7.480   1.095   0.464  1.00  0.00     0.000 A 
ENDBRANCH  79  80
ENDBRANCH  76  79
ENDBRANCH  74  76
ENDBRANCH  72  74
ENDBRANCH  70  71
ENDBRANCH   1  69
TORSDOF 17
ENDMDL
MODEL 3
REMARK VINA RESULT:    -5.778      6.663     10.876
REMARK INTER + INTRA:         -25.880
REMARK INTER:                 -18.812
REMARK INTRA:                  -7.068
REMARK UNBOUND:                -8.618
REMARK SMILES C=C1C(=O)N[C@H](C)C(=O)N[C@@H](CC(C)C)C(=O)N[C@@H](C(=O)O)[C@H](C)C(=O)N[C@@H](CCCN=C(N)N)C(=O)N[C@@H](/C=C/C(C)=C/[C@H](C)[C@H](Cc2ccccc2)OC)[C@H](C)C(=O)N[C@@H](C(=O)O)CCC(=O)N1C
REMARK SMILES IDX 39 1 38 2 37 3 36 4 28 6 27 7 25 8 26 9 23 11 24 12 19 13
REMARK SMILES IDX 18 14 16 15 17 16 11 18 10 19 8 20 9 21 12 24 13 25 14 26
REMARK SMILES IDX 15 27 20 28 21 29 22 30 29 32 30 33 31 34 32 35 33 36 34 37
REMARK SMILES IDX 35 38 57 43 58 44 59 45 60 46 61 47 62 49 66 50 67 51 68 52
REMARK SMILES IDX 69 53 70 54 71 55 2 56 1 57 3 58 4 59 5 60 6 62 7 63 63 65
REMARK SMILES IDX 64 66 65 67 40 69 41 70 42 71 44 72 43 73 45 74 46 75 47 76
REMARK SMILES IDX 55 77 56 78 48 79 49 80 50 81 54 82 51 83 53 84 52 85
REMARK H PARENT 38 5 27 10 18 17 10 22 22 31 34 39 34 40 35 41 35 42 61 48
REMARK H PARENT 5 61 65 68
REMARK Flexibility Score:  369.900
ROOT
ATOM      1  C   UNL     1      -7.979  -4.078   4.947  1.00  0.00     0.117 C 
ENDROOT
BRANCH   1   2
ATOM      2  N   UNL     1      -8.857  -3.819   6.089  1.00  0.00    -0.347 N 
ATOM      3  O   UNL     1      -9.488  -5.987   6.499  1.00  0.00    -0.273 OA
ATOM      4  C   UNL     1      -9.472  -4.807   6.833  1.00  0.00     0.243 C 
ATOM      5  H   UNL     1      -8.997  -2.869   6.399  1.00  0.00     0.164 HD
BRANCH   4   6
ATOM      6  C   UNL     1     -10.279  -4.268   8.041  1.00  0.00     0.171 C 
BRANCH   6   7
ATOM      7  N   UNL     1      -9.369  -3.787   9.093  1.00  0.00    -0.344 N 
ATOM      8  C   UNL     1      -9.396  -4.343  10.354  1.00  0.00     0.226 C 
ATOM      9  O   UNL     1     -10.178  -5.233  10.666  1.00  0.00    -0.275 OA
ATOM     10  H   UNL     1      -8.755  -3.007   8.893  1.00  0.00     0.164 HD
BRANCH   8  11
ATOM     11  C   UNL     1      -8.361  -3.776  11.310  1.00  0.00     0.109 C 
ATOM     12  C   UNL     1      -7.205  -3.156  10.526  1.00  0.00     0.021 C 
BRANCH  11  13
ATOM     13  C   UNL     1      -9.044  -2.829  12.316  1.00  0.00     0.204 C 
BRANCH  13  14
ATOM     14  N   UNL     1     -10.445  -3.191  12.551  1.00  0.00    -0.340 N 
ATOM     15  C   UNL     1     -11.379  -2.296  13.028  1.00  0.00     0.243 C 
ATOM     16  O   UNL     1     -11.116  -1.113  13.234  1.00  0.00    -0.273 OA
ATOM     17  H   UNL     1     -10.692  -4.184  12.546  1.00  0.00     0.164 HD
BRANCH  15  18
ATOM     18  C   UNL     1     -12.733  -2.952  13.394  1.00  0.00     0.171 C 
BRANCH  18  19
ATOM     19  N   UNL     1     -12.798  -2.994  14.854  1.00  0.00    -0.343 N 
ATOM     20  C   UNL     1     -12.146  -3.968  15.584  1.00  0.00     0.242 CG0
ATOM     21  O   UNL     1     -11.593  -4.920  15.038  1.00  0.00    -0.273 OA
ATOM     22  H   UNL     1     -13.339  -2.294  15.348  1.00  0.00     0.164 HD
ATOM     23  G   UNL     1     -12.264  -3.803  17.114  1.00  0.00     0.000 G0
ENDBRANCH  18  19
BRANCH  18  24
ATOM     24  C   UNL     1     -13.900  -2.152  12.803  1.00  0.00     0.038 C 
BRANCH  24  25
ATOM     25  C   UNL     1     -15.049  -3.012  12.235  1.00  0.00    -0.015 C 
ATOM     26  C   UNL     1     -16.356  -2.824  13.006  1.00  0.00     0.007 C 
ATOM     27  C   UNL     1     -14.646  -4.488  12.256  1.00  0.00     0.007 C 
ENDBRANCH  24  25
ENDBRANCH  18  24
ENDBRANCH  15  18
ENDBRANCH  13  14
BRANCH  13  28
ATOM     28  C   UNL     1      -8.349  -2.795  13.681  1.00  0.00     0.327 C 
ATOM     29  O   UNL     1      -7.406  -2.085  13.994  1.00  0.00    -0.250 OA
BRANCH  28  30
ATOM     30  O   UNL     1      -8.804  -3.740  14.529  1.00  0.00    -0.480 OA
ATOM     31  H   UNL     1      -8.563  -3.402  15.417  1.00  0.00     0.296 HD
ENDBRANCH  28  30
ENDBRANCH  13  28
ENDBRANCH  11  13
ENDBRANCH   8  11
ENDBRANCH   6   7
BRANCH   6  32
ATOM     32  C   UNL     1     -11.207  -3.145   7.565  1.00  0.00     0.037 C 
BRANCH  32  33
ATOM     33  C   UNL     1     -12.573  -3.187   8.266  1.00  0.00     0.026 C 
BRANCH  33  34
ATOM     34  C   UNL     1     -12.684  -2.158   9.391  1.00  0.00     0.146 C 
BRANCH  34  35
ATOM     35  N   UNL     1     -11.382  -1.536   9.590  1.00  0.00    -0.254 NA
ATOM     36  C   UNL     1     -11.330  -0.383  10.146  1.00  0.00     0.185 C 
ATOM     37  N   UNL     1     -10.135   0.197  10.339  1.00  0.00    -0.370 N 
ATOM     38  N   UNL     1     -12.339   0.385  10.595  1.00  0.00    -0.370 N 
ATOM     39  H   UNL     1      -9.323  -0.326  10.036  1.00  0.00     0.159 HD
ATOM     40  H   UNL     1      -9.998   1.008  10.917  1.00  0.00     0.159 HD
ATOM     41  H   UNL     1     -12.180   1.335  10.887  1.00  0.00     0.159 HD
ATOM     42  H   UNL     1     -13.296   0.081  10.501  1.00  0.00     0.159 HD
ENDBRANCH  34  35
ENDBRANCH  33  34
ENDBRANCH  32  33
ENDBRANCH   6  32
ENDBRANCH   4   6
ENDBRANCH   1   2
BRANCH   1  43
ATOM     43  C   UNL     1      -6.503  -4.000   5.431  1.00  0.00     0.102 C 
ATOM     44  C   UNL     1      -6.037  -2.568   5.746  1.00  0.00     0.020 C 
BRANCH  43  45
ATOM     45  C   UNL     1      -5.572  -4.760   4.481  1.00  0.00     0.225 C 
ATOM     46  O   UNL     1      -5.519  -5.986   4.433  1.00  0.00    -0.275 OA
ATOM     47  N   UNL     1      -4.717  -3.979   3.738  1.00  0.00    -0.342 N 
ATOM     48  H   UNL     1      -4.875  -2.983   3.676  1.00  0.00     0.164 HD
BRANCH  47  49
ATOM     49  C   UNL     1      -3.795  -4.567   2.762  1.00  0.00     0.192 C 
BRANCH  49  50
ATOM     50  C   UNL     1      -4.553  -5.550   1.866  1.00  0.00     0.047 C 
BRANCH  50  51
ATOM     51  C   UNL     1      -5.612  -4.852   1.002  1.00  0.00     0.103 C 
BRANCH  51  52
ATOM     52  C   UNL     1      -6.480  -5.852   0.240  1.00  0.00     0.226 C 
ATOM     53  O   UNL     1      -7.454  -6.363   0.797  1.00  0.00    -0.275 OA
BRANCH  52  54
ATOM     54  N   UNL     1      -6.144  -6.073  -1.109  1.00  0.00    -0.311 N 
ATOM     55  C   UNL     1      -6.340  -5.024  -2.118  1.00  0.00     0.153 C 
BRANCH  54  56
ATOM     56  C   UNL     1      -5.607  -7.298  -1.538  1.00  0.00     0.102 C 
ATOM     57  C   UNL     1      -6.284  -8.238  -2.217  1.00  0.00     0.043 C 
BRANCH  56  58
ATOM     58  C   UNL     1      -4.155  -7.634  -1.295  1.00  0.00     0.268 C 
ATOM     59  O   UNL     1      -3.293  -6.786  -1.106  1.00  0.00    -0.268 OA
ATOM     60  N   UNL     1      -3.915  -8.987  -1.244  1.00  0.00    -0.339 N 
ATOM     61  H   UNL     1      -4.682  -9.625  -1.422  1.00  0.00     0.164 HD
BRANCH  60  62
ATOM     62  C   UNL     1      -2.589  -9.533  -0.957  1.00  0.00     0.168 CG0
ATOM     63  C   UNL     1      -2.601 -10.352   0.327  1.00  0.00     0.041 C 
ATOM     64  G   UNL     1      -1.566  -8.382  -0.861  1.00  0.00     0.000 G0
ENDBRANCH  60  62
ENDBRANCH  56  58
ENDBRANCH  54  56
ENDBRANCH  52  54
ENDBRANCH  51  52
ENDBRANCH  50  51
ENDBRANCH  49  50
BRANCH  49  65
ATOM     65  C   UNL     1      -2.631  -5.298   3.450  1.00  0.00     0.326 C 
ATOM     66  O   UNL     1      -1.970  -4.863   4.381  1.00  0.00    -0.250 OA
BRANCH  65  67
ATOM     67  O   UNL     1      -2.318  -6.495   2.907  1.00  0.00    -0.480 OA
ATOM     68  H   UNL     1      -1.915  -6.989   3.653  1.00  0.00     0.296 HD
ENDBRANCH  65  67
ENDBRANCH  49  65
ENDBRANCH  47  49
ENDBRANCH  43  45
ENDBRANCH   1  43
BRANCH   1  69
ATOM     69  C   UNL     1      -8.439  -3.149   3.839  1.00  0.00    -0.001 C 
ATOM     70  C   UNL     1      -8.607  -3.448   2.539  1.00  0.00     0.001 C 
BRANCH  70  71
ATOM     71  C   UNL     1      -9.072  -2.548   1.482  1.00  0.00    -0.055 C 
ATOM     72  C   UNL     1      -8.368  -2.516   0.330  1.00  0.00    -0.018 C 
ATOM     73  C   UNL     1     -10.307  -1.728   1.750  1.00  0.00     0.044 C 
BRANCH  72  74
ATOM     74  C   UNL     1      -8.613  -1.691  -0.925  1.00  0.00     0.038 C 
ATOM     75  C   UNL     1      -9.316  -2.605  -1.937  1.00  0.00     0.015 C 
BRANCH  74  76
ATOM     76  C   UNL     1      -7.256  -1.102  -1.410  1.00  0.00     0.128 C 
BRANCH  76  77
ATOM     77  O   UNL     1      -7.090  -1.346  -2.817  1.00  0.00    -0.381 OA
ATOM     78  C   UNL     1      -7.077  -0.162  -3.604  1.00  0.00     0.195 C 
ENDBRANCH  76  77
BRANCH  76  79
ATOM     79  C   UNL     1      -7.043   0.385  -1.030  1.00  0.00     0.068 C 
BRANCH  79  80
ATOM     80  C   UNL     1      -8.052   1.031  -0.111  1.00  0.00    -0.045 A 
ATOM     81  C   UNL     1      -9.197   1.655  -0.622  1.00  0.00     0.004 A 
ATOM     82  C   UNL     1      -7.840   1.040   1.276  1.00  0.00     0.004 A 
ATOM     83  C   UNL     1     -10.118   2.263   0.234  1.00  0.00     0.000 A 
ATOM     84  C   UNL     1      -8.762   1.649   2.131  1.00  0.00     0.000 A 
ATOM     85  C   UNL     1      -9.901   2.259   1.610  1.00  0.00     0.000 A 
ENDBRANCH  79  80
ENDBRANCH  76  79
ENDBRANCH  74  76
ENDBRANCH  72  74
ENDBRANCH  70  71
ENDBRANCH   1  69
TORSDOF 17
ENDMDL
MODEL 4
REMARK VINA RESULT:    -5.709      6.137     10.424
REMARK INTER + INTRA:         -25.674
REMARK INTER:                 -17.632
REMARK INTRA:                  -8.042
REMARK UNBOUND:                -8.618
REMARK SMILES C=C1C(=O)N[C@H](C)C(=O)N[C@@H](CC(C)C)C(=O)N[C@@H](C(=O)O)[C@H](C)C(=O)N[C@@H](CCCN=C(N)N)C(=O)N[C@@H](/C=C/C(C)=C/[C@H](C)[C@H](Cc2ccccc2)OC)[C@H](C)C(=O)N[C@@H](C(=O)O)CCC(=O)N1C
REMARK SMILES IDX 39 1 38 2 37 3 36 4 28 6 27 7 25 8 26 9 23 11 24 12 19 13
REMARK SMILES IDX 18 14 16 15 17 16 11 18 10 19 8 20 9 21 12 24 13 25 14 26
REMARK SMILES IDX 15 27 20 28 21 29 22 30 29 32 30 33 31 34 32 35 33 36 34 37
REMARK SMILES IDX 35 38 57 43 58 44 59 45 60 46 61 47 62 49 66 50 67 51 68 52
REMARK SMILES IDX 69 53 70 54 71 55 2 56 1 57 3 58 4 59 5 60 6 62 7 63 63 65
REMARK SMILES IDX 64 66 65 67 40 69 41 70 42 71 44 72 43 73 45 74 46 75 47 76
REMARK SMILES IDX 55 77 56 78 48 79 49 80 50 81 54 82 51 83 53 84 52 85
REMARK H PARENT 38 5 27 10 18 17 10 22 22 31 34 39 34 40 35 41 35 42 61 48
REMARK H PARENT 5 61 65 68
REMARK Flexibility Score:  369.900
ROOT
ATOM      1  C   UNL     1      -7.293  -4.596   4.176  1.00  0.00     0.117 C 
ENDROOT
BRANCH   1   2
ATOM      2  N   UNL     1      -7.960  -4.315   5.448  1.00  0.00    -0.347 N 
ATOM      3  O   UNL     1      -8.718  -6.438   5.881  1.00  0.00    -0.273 OA
ATOM      4  C   UNL     1      -8.543  -5.281   6.246  1.00  0.00     0.243 C 
ATOM      5  H   UNL     1      -7.964  -3.372   5.807  1.00  0.00     0.164 HD
BRANCH   4   6
ATOM      6  C   UNL     1      -9.104  -4.730   7.582  1.00  0.00     0.171 C 
BRANCH   6   7
ATOM      7  N   UNL     1      -8.226  -3.675   8.113  1.00  0.00    -0.344 N 
ATOM      8  C   UNL     1      -7.704  -3.768   9.385  1.00  0.00     0.226 C 
ATOM      9  O   UNL     1      -7.956  -4.704  10.134  1.00  0.00    -0.275 OA
ATOM     10  H   UNL     1      -8.049  -2.853   7.548  1.00  0.00     0.164 HD
BRANCH   8  11
ATOM     11  C   UNL     1      -6.774  -2.629   9.765  1.00  0.00     0.109 C 
ATOM     12  C   UNL     1      -6.465  -1.772   8.538  1.00  0.00     0.021 C 
BRANCH  11  13
ATOM     13  C   UNL     1      -7.359  -1.858  10.965  1.00  0.00     0.204 C 
BRANCH  13  14
ATOM     14  N   UNL     1      -8.796  -2.099  11.129  1.00  0.00    -0.340 N 
ATOM     15  C   UNL     1      -9.680  -1.115  11.515  1.00  0.00     0.243 C 
ATOM     16  O   UNL     1      -9.335   0.052  11.691  1.00  0.00    -0.273 OA
ATOM     17  H   UNL     1      -9.121  -3.069  11.146  1.00  0.00     0.164 HD
BRANCH  15  18
ATOM     18  C   UNL     1     -11.101  -1.647  11.823  1.00  0.00     0.171 C 
BRANCH  18  19
ATOM     19  N   UNL     1     -11.306  -1.486  13.261  1.00  0.00    -0.343 N 
ATOM     20  C   UNL     1     -10.735  -2.347  14.180  1.00  0.00     0.242 CG0
ATOM     21  O   UNL     1     -10.141  -3.362  13.826  1.00  0.00    -0.273 OA
ATOM     22  H   UNL     1     -11.887  -0.727  13.599  1.00  0.00     0.164 HD
ATOM     23  G   UNL     1     -10.998  -1.971  15.653  1.00  0.00     0.000 G0
ENDBRANCH  18  19
BRANCH  18  24
ATOM     24  C   UNL     1     -12.154  -0.878  11.016  1.00  0.00     0.038 C 
BRANCH  24  25
ATOM     25  C   UNL     1     -12.332  -1.363   9.562  1.00  0.00    -0.015 C 
ATOM     26  C   UNL     1     -12.341  -0.210   8.558  1.00  0.00     0.007 C 
ATOM     27  C   UNL     1     -13.633  -2.161   9.441  1.00  0.00     0.007 C 
ENDBRANCH  24  25
ENDBRANCH  18  24
ENDBRANCH  15  18
ENDBRANCH  13  14
BRANCH  13  28
ATOM     28  C   UNL     1      -6.685  -2.209  12.295  1.00  0.00     0.327 C 
ATOM     29  O   UNL     1      -5.701  -1.666  12.772  1.00  0.00    -0.250 OA
BRANCH  28  30
ATOM     30  O   UNL     1      -7.217  -3.298  12.885  1.00  0.00    -0.480 OA
ATOM     31  H   UNL     1      -6.454  -3.737  13.315  1.00  0.00     0.296 HD
ENDBRANCH  28  30
ENDBRANCH  13  28
ENDBRANCH  11  13
ENDBRANCH   8  11
ENDBRANCH   6   7
BRANCH   6  32
ATOM     32  C   UNL     1     -10.522  -4.197   7.350  1.00  0.00     0.037 C 
BRANCH  32  33
ATOM     33  C   UNL     1     -11.597  -5.212   7.763  1.00  0.00     0.026 C 
BRANCH  33  34
ATOM     34  C   UNL     1     -11.216  -5.988   9.025  1.00  0.00     0.146 C 
BRANCH  34  35
ATOM     35  N   UNL     1     -12.124  -5.611  10.100  1.00  0.00    -0.254 NA
ATOM     36  C   UNL     1     -11.629  -5.285  11.236  1.00  0.00     0.185 C 
ATOM     37  N   UNL     1     -12.456  -4.931  12.232  1.00  0.00    -0.370 N 
ATOM     38  N   UNL     1     -10.339  -5.237  11.613  1.00  0.00    -0.370 N 
ATOM     39  H   UNL     1     -13.446  -4.932  12.022  1.00  0.00     0.159 HD
ATOM     40  H   UNL     1     -12.146  -4.501  13.086  1.00  0.00     0.159 HD
ATOM     41  H   UNL     1     -10.083  -5.100  12.577  1.00  0.00     0.159 HD
ATOM     42  H   UNL     1      -9.607  -5.493  10.969  1.00  0.00     0.159 HD
ENDBRANCH  34  35
ENDBRANCH  33  34
ENDBRANCH  32  33
ENDBRANCH   6  32
ENDBRANCH   4   6
ENDBRANCH   1   2
BRANCH   1  43
ATOM     43  C   UNL     1      -5.758  -4.442   4.378  1.00  0.00     0.102 C 
ATOM     44  C   UNL     1      -5.266  -2.991   4.244  1.00  0.00     0.020 C 
BRANCH  43  45
ATOM     45  C   UNL     1      -4.987  -5.442   3.511  1.00  0.00     0.225 C 
ATOM     46  O   UNL     1      -5.256  -6.639   3.467  1.00  0.00    -0.275 OA
ATOM     47  N   UNL     1      -3.897  -4.931   2.844  1.00  0.00    -0.342 N 
ATOM     48  H   UNL     1      -3.781  -3.930   2.769  1.00  0.00     0.164 HD
BRANCH  47  49
ATOM     49  C   UNL     1      -3.086  -5.762   1.950  1.00  0.00     0.192 C 
BRANCH  49  50
ATOM     50  C   UNL     1      -3.999  -6.511   0.975  1.00  0.00     0.047 C 
BRANCH  50  51
ATOM     51  C   UNL     1      -3.872  -5.987  -0.462  1.00  0.00     0.103 C 
BRANCH  51  52
ATOM     52  C   UNL     1      -5.027  -6.451  -1.346  1.00  0.00     0.226 C 
ATOM     53  O   UNL     1      -4.829  -7.309  -2.208  1.00  0.00    -0.275 OA
BRANCH  52  54
ATOM     54  N   UNL     1      -6.293  -5.906  -1.060  1.00  0.00    -0.311 N 
ATOM     55  C   UNL     1      -7.364  -6.738  -0.495  1.00  0.00     0.153 C 
BRANCH  54  56
ATOM     56  C   UNL     1      -6.578  -4.552  -1.298  1.00  0.00     0.102 C 
ATOM     57  C   UNL     1      -6.715  -3.616  -0.344  1.00  0.00     0.043 C 
BRANCH  56  58
ATOM     58  C   UNL     1      -6.713  -4.024  -2.707  1.00  0.00     0.268 C 
ATOM     59  O   UNL     1      -7.636  -3.306  -3.068  1.00  0.00    -0.268 OA
ATOM     60  N   UNL     1      -5.662  -4.378  -3.519  1.00  0.00    -0.339 N 
ATOM     61  H   UNL     1      -4.942  -4.985  -3.147  1.00  0.00     0.164 HD
BRANCH  60  62
ATOM     62  C   UNL     1      -5.560  -3.921  -4.905  1.00  0.00     0.168 CG0
ATOM     63  C   UNL     1      -4.776  -2.618  -4.995  1.00  0.00     0.041 C 
ATOM     64  G   UNL     1      -6.974  -3.750  -5.498  1.00  0.00     0.000 G0
ENDBRANCH  60  62
ENDBRANCH  56  58
ENDBRANCH  54  56
ENDBRANCH  52  54
ENDBRANCH  51  52
ENDBRANCH  50  51
ENDBRANCH  49  50
BRANCH  49  65
ATOM     65  C   UNL     1      -2.238  -6.776   2.733  1.00  0.00     0.326 C 
ATOM     66  O   UNL     1      -2.212  -7.983   2.537  1.00  0.00    -0.250 OA
BRANCH  65  67
ATOM     67  O   UNL     1      -1.520  -6.246   3.748  1.00  0.00    -0.480 OA
ATOM     68  H   UNL     1      -2.130  -5.585   4.142  1.00  0.00     0.296 HD
ENDBRANCH  65  67
ENDBRANCH  49  65
ENDBRANCH  47  49
ENDBRANCH  43  45
ENDBRANCH   1  43
BRANCH   1  69
ATOM     69  C   UNL     1      -7.987  -3.737   3.135  1.00  0.00    -0.001 C 
ATOM     70  C   UNL     1      -8.723  -2.632   3.346  1.00  0.00     0.001 C 
BRANCH  70  71
ATOM     71  C   UNL     1      -9.369  -1.798   2.331  1.00  0.00    -0.055 C 
ATOM     72  C   UNL     1      -9.503  -0.481   2.593  1.00  0.00    -0.018 C 
ATOM     73  C   UNL     1      -9.832  -2.467   1.063  1.00  0.00     0.044 C 
BRANCH  72  74
ATOM     74  C   UNL     1     -10.122   0.614   1.735  1.00  0.00     0.038 C 
ATOM     75  C   UNL     1      -9.142   1.793   1.729  1.00  0.00     0.015 C 
BRANCH  74  76
ATOM     76  C   UNL     1     -11.539   0.944   2.290  1.00  0.00     0.128 C 
BRANCH  76  77
ATOM     77  O   UNL     1     -12.025   2.162   1.701  1.00  0.00    -0.381 OA
ATOM     78  C   UNL     1     -12.955   2.860   2.518  1.00  0.00     0.195 C 
ENDBRANCH  76  77
BRANCH  76  79
ATOM     79  C   UNL     1     -12.549  -0.224   2.173  1.00  0.00     0.068 C 
BRANCH  79  80
ATOM     80  C   UNL     1     -13.064  -0.845   3.449  1.00  0.00    -0.045 A 
ATOM     81  C   UNL     1     -14.073  -0.224   4.198  1.00  0.00     0.004 A 
ATOM     82  C   UNL     1     -12.517  -2.047   3.923  1.00  0.00     0.004 A 
ATOM     83  C   UNL     1     -14.534  -0.797   5.385  1.00  0.00     0.000 A 
ATOM     84  C   UNL     1     -12.978  -2.619   5.110  1.00  0.00     0.000 A 
ATOM     85  C   UNL     1     -13.987  -1.995   5.840  1.00  0.00     0.000 A 
ENDBRANCH  79  80
ENDBRANCH  76  79
ENDBRANCH  74  76
ENDBRANCH  72  74
ENDBRANCH  70  71
ENDBRANCH   1  69
TORSDOF 17
ENDMDL
MODEL 5
REMARK VINA RESULT:    -5.700      8.053     11.558
REMARK INTER + INTRA:         -25.648
REMARK INTER:                 -19.838
REMARK INTRA:                  -5.810
REMARK UNBOUND:                -8.618
REMARK SMILES C=C1C(=O)N[C@H](C)C(=O)N[C@@H](CC(C)C)C(=O)N[C@@H](C(=O)O)[C@H](C)C(=O)N[C@@H](CCCN=C(N)N)C(=O)N[C@@H](/C=C/C(C)=C/[C@H](C)[C@H](Cc2ccccc2)OC)[C@H](C)C(=O)N[C@@H](C(=O)O)CCC(=O)N1C
REMARK SMILES IDX 39 1 38 2 37 3 36 4 28 6 27 7 25 8 26 9 23 11 24 12 19 13
REMARK SMILES IDX 18 14 16 15 17 16 11 18 10 19 8 20 9 21 12 24 13 25 14 26
REMARK SMILES IDX 15 27 20 28 21 29 22 30 29 32 30 33 31 34 32 35 33 36 34 37
REMARK SMILES IDX 35 38 57 43 58 44 59 45 60 46 61 47 62 49 66 50 67 51 68 52
REMARK SMILES IDX 69 53 70 54 71 55 2 56 1 57 3 58 4 59 5 60 6 62 7 63 63 65
REMARK SMILES IDX 64 66 65 67 40 69 41 70 42 71 44 72 43 73 45 74 46 75 47 76
REMARK SMILES IDX 55 77 56 78 48 79 49 80 50 81 54 82 51 83 53 84 52 85
REMARK H PARENT 38 5 27 10 18 17 10 22 22 31 34 39 34 40 35 41 35 42 61 48
REMARK H PARENT 5 61 65 68
REMARK Flexibility Score:  369.900
ROOT
ATOM      1  C   UNL     1      -7.975  -5.084   1.280  1.00  0.00     0.117 C 
ENDROOT
BRANCH   1   2
ATOM      2  N   UNL     1      -7.590  -5.365   2.663  1.00  0.00    -0.347 N 
ATOM      3  O   UNL     1      -8.473  -7.479   2.811  1.00  0.00    -0.273 OA
ATOM      4  C   UNL     1      -7.791  -6.580   3.290  1.00  0.00     0.243 C 
ATOM      5  H   UNL     1      -7.104  -4.659   3.194  1.00  0.00     0.164 HD
BRANCH   4   6
ATOM      6  C   UNL     1      -7.213  -6.642   4.727  1.00  0.00     0.171 C 
BRANCH   6   7
ATOM      7  N   UNL     1      -8.236  -6.253   5.710  1.00  0.00    -0.344 N 
ATOM      8  C   UNL     1      -8.406  -4.931   6.062  1.00  0.00     0.226 C 
ATOM      9  O   UNL     1      -7.713  -4.031   5.602  1.00  0.00    -0.275 OA
ATOM     10  H   UNL     1      -8.783  -6.975   6.163  1.00  0.00     0.164 HD
BRANCH   8  11
ATOM     11  C   UNL     1      -9.537  -4.685   7.045  1.00  0.00     0.109 C 
ATOM     12  C   UNL     1     -10.531  -5.846   7.004  1.00  0.00     0.021 C 
BRANCH  11  13
ATOM     13  C   UNL     1      -8.957  -4.378   8.440  1.00  0.00     0.204 C 
BRANCH  13  14
ATOM     14  N   UNL     1     -10.008  -4.191   9.446  1.00  0.00    -0.340 N 
ATOM     15  C   UNL     1     -10.145  -3.033  10.179  1.00  0.00     0.243 C 
ATOM     16  O   UNL     1      -9.430  -2.049   9.999  1.00  0.00    -0.273 OA
ATOM     17  H   UNL     1     -10.534  -5.015   9.749  1.00  0.00     0.164 HD
BRANCH  15  18
ATOM     18  C   UNL     1     -11.187  -3.142  11.320  1.00  0.00     0.171 C 
BRANCH  18  19
ATOM     19  N   UNL     1     -11.734  -4.496  11.258  1.00  0.00    -0.343 N 
ATOM     20  C   UNL     1     -13.093  -4.729  11.167  1.00  0.00     0.242 CG0
ATOM     21  O   UNL     1     -13.910  -3.817  11.267  1.00  0.00    -0.273 OA
ATOM     22  H   UNL     1     -11.104  -5.289  11.289  1.00  0.00     0.164 HD
ATOM     23  G   UNL     1     -13.476  -6.217  11.033  1.00  0.00     0.000 G0
ENDBRANCH  18  19
BRANCH  18  24
ATOM     24  C   UNL     1     -10.534  -2.861  12.679  1.00  0.00     0.038 C 
BRANCH  24  25
ATOM     25  C   UNL     1     -11.423  -2.085  13.673  1.00  0.00    -0.015 C 
ATOM     26  C   UNL     1     -12.277  -3.011  14.539  1.00  0.00     0.007 C 
ATOM     27  C   UNL     1     -12.328  -1.117  12.907  1.00  0.00     0.007 C 
ENDBRANCH  24  25
ENDBRANCH  18  24
ENDBRANCH  15  18
ENDBRANCH  13  14
BRANCH  13  28
ATOM     28  C   UNL     1      -8.021  -5.473   8.960  1.00  0.00     0.327 C 
ATOM     29  O   UNL     1      -6.890  -5.706   8.562  1.00  0.00    -0.250 OA
BRANCH  28  30
ATOM     30  O   UNL     1      -8.607  -6.284   9.865  1.00  0.00    -0.480 OA
ATOM     31  H   UNL     1      -9.558  -6.258   9.631  1.00  0.00     0.296 HD
ENDBRANCH  28  30
ENDBRANCH  13  28
ENDBRANCH  11  13
ENDBRANCH   8  11
ENDBRANCH   6   7
BRANCH   6  32
ATOM     32  C   UNL     1      -6.701  -8.061   5.003  1.00  0.00     0.037 C 
BRANCH  32  33
ATOM     33  C   UNL     1      -5.172  -8.111   5.125  1.00  0.00     0.026 C 
BRANCH  33  34
ATOM     34  C   UNL     1      -4.487  -6.964   4.381  1.00  0.00     0.146 C 
BRANCH  34  35
ATOM     35  N   UNL     1      -3.888  -7.487   3.161  1.00  0.00    -0.254 NA
ATOM     36  C   UNL     1      -3.524  -6.662   2.251  1.00  0.00     0.185 C 
ATOM     37  N   UNL     1      -2.967  -7.133   1.125  1.00  0.00    -0.370 N 
ATOM     38  N   UNL     1      -3.616  -5.320   2.243  1.00  0.00    -0.370 N 
ATOM     39  H   UNL     1      -2.854  -8.136   1.060  1.00  0.00     0.159 HD
ATOM     40  H   UNL     1      -2.502  -6.551   0.450  1.00  0.00     0.159 HD
ATOM     41  H   UNL     1      -3.422  -4.790   1.410  1.00  0.00     0.159 HD
ATOM     42  H   UNL     1      -4.030  -4.830   3.021  1.00  0.00     0.159 HD
ENDBRANCH  34  35
ENDBRANCH  33  34
ENDBRANCH  32  33
ENDBRANCH   6  32
ENDBRANCH   4   6
ENDBRANCH   1   2
BRANCH   1  43
ATOM     43  C   UNL     1      -6.695  -4.717   0.475  1.00  0.00     0.102 C 
ATOM     44  C   UNL     1      -6.716  -3.285  -0.087  1.00  0.00     0.020 C 
BRANCH  43  45
ATOM     45  C   UNL     1      -6.375  -5.790  -0.570  1.00  0.00     0.225 C 
ATOM     46  O   UNL     1      -7.095  -6.764  -0.773  1.00  0.00    -0.275 OA
ATOM     47  N   UNL     1      -5.168  -5.648  -1.214  1.00  0.00    -0.342 N 
ATOM     48  H   UNL     1      -4.665  -4.774  -1.149  1.00  0.00     0.164 HD
BRANCH  47  49
ATOM     49  C   UNL     1      -4.745  -6.580  -2.264  1.00  0.00     0.192 C 
BRANCH  49  50
ATOM     50  C   UNL     1      -5.447  -6.228  -3.578  1.00  0.00     0.047 C 
BRANCH  50  51
ATOM     51  C   UNL     1      -5.662  -4.716  -3.736  1.00  0.00     0.103 C 
BRANCH  51  52
ATOM     52  C   UNL     1      -4.926  -4.156  -4.951  1.00  0.00     0.226 C 
ATOM     53  O   UNL     1      -3.714  -4.349  -5.072  1.00  0.00    -0.275 OA
BRANCH  52  54
ATOM     54  N   UNL     1      -5.715  -3.503  -5.916  1.00  0.00    -0.311 N 
ATOM     55  C   UNL     1      -6.338  -2.204  -5.630  1.00  0.00     0.153 C 
BRANCH  54  56
ATOM     56  C   UNL     1      -5.931  -4.063  -7.186  1.00  0.00     0.102 C 
ATOM     57  C   UNL     1      -6.958  -4.866  -7.507  1.00  0.00     0.043 C 
BRANCH  56  58
ATOM     58  C   UNL     1      -5.006  -3.749  -8.339  1.00  0.00     0.268 C 
ATOM     59  O   UNL     1      -3.865  -4.185  -8.420  1.00  0.00    -0.268 OA
ATOM     60  N   UNL     1      -5.599  -2.983  -9.314  1.00  0.00    -0.339 N 
ATOM     61  H   UNL     1      -6.545  -2.653  -9.166  1.00  0.00     0.164 HD
BRANCH  60  62
ATOM     62  C   UNL     1      -4.903  -2.615 -10.546  1.00  0.00     0.168 CG0
ATOM     63  C   UNL     1      -4.301  -1.219 -10.439  1.00  0.00     0.041 C 
ATOM     64  G   UNL     1      -5.880  -2.698 -11.736  1.00  0.00     0.000 G0
ENDBRANCH  60  62
ENDBRANCH  56  58
ENDBRANCH  54  56
ENDBRANCH  52  54
ENDBRANCH  51  52
ENDBRANCH  50  51
ENDBRANCH  49  50
BRANCH  49  65
ATOM     65  C   UNL     1      -5.065  -8.036  -1.891  1.00  0.00     0.326 C 
ATOM     66  O   UNL     1      -4.560  -8.661  -0.970  1.00  0.00    -0.250 OA
BRANCH  65  67
ATOM     67  O   UNL     1      -5.944  -8.650  -2.714  1.00  0.00    -0.480 OA
ATOM     68  H   UNL     1      -5.396  -9.317  -3.181  1.00  0.00     0.296 HD
ENDBRANCH  65  67
ENDBRANCH  49  65
ENDBRANCH  47  49
ENDBRANCH  43  45
ENDBRANCH   1  43
BRANCH   1  69
ATOM     69  C   UNL     1      -9.110  -4.079   1.351  1.00  0.00    -0.001 C 
ATOM     70  C   UNL     1      -9.373  -3.212   2.345  1.00  0.00     0.001 C 
BRANCH  70  71
ATOM     71  C   UNL     1     -10.460  -2.232   2.393  1.00  0.00    -0.055 C 
ATOM     72  C   UNL     1     -10.899  -1.724   1.222  1.00  0.00    -0.018 C 
ATOM     73  C   UNL     1     -11.016  -1.866   3.744  1.00  0.00     0.044 C 
BRANCH  72  74
ATOM     74  C   UNL     1     -12.001  -0.706   0.967  1.00  0.00     0.038 C 
ATOM     75  C   UNL     1     -13.283  -1.492   0.670  1.00  0.00     0.015 C 
BRANCH  74  76
ATOM     76  C   UNL     1     -11.543   0.252  -0.173  1.00  0.00     0.128 C 
BRANCH  76  77
ATOM     77  O   UNL     1     -11.405   1.590   0.336  1.00  0.00    -0.381 OA
ATOM     78  C   UNL     1     -12.646   2.249   0.554  1.00  0.00     0.195 C 
ENDBRANCH  76  77
BRANCH  76  79
ATOM     79  C   UNL     1     -10.284  -0.232  -0.935  1.00  0.00     0.068 C 
BRANCH  79  80
ATOM     80  C   UNL     1     -10.477  -1.206  -2.072  1.00  0.00    -0.045 A 
ATOM     81  C   UNL     1      -9.464  -2.104  -2.432  1.00  0.00     0.004 A 
ATOM     82  C   UNL     1     -11.672  -1.207  -2.808  1.00  0.00     0.004 A 
ATOM     83  C   UNL     1      -9.645  -2.993  -3.495  1.00  0.00     0.000 A 
ATOM     84  C   UNL     1     -11.851  -2.095  -3.870  1.00  0.00     0.000 A 
ATOM     85  C   UNL     1     -10.839  -2.988  -4.212  1.00  0.00     0.000 A 
ENDBRANCH  79  80
ENDBRANCH  76  79
ENDBRANCH  74  76
ENDBRANCH  72  74
ENDBRANCH  70  71
ENDBRANCH   1  69
TORSDOF 17
ENDMDL
MODEL 6
REMARK VINA RESULT:    -5.698      1.680      2.304
REMARK INTER + INTRA:         -25.641
REMARK INTER:                 -16.868
REMARK INTRA:                  -8.774
REMARK UNBOUND:                -8.618
REMARK SMILES C=C1C(=O)N[C@H](C)C(=O)N[C@@H](CC(C)C)C(=O)N[C@@H](C(=O)O)[C@H](C)C(=O)N[C@@H](CCCN=C(N)N)C(=O)N[C@@H](/C=C/C(C)=C/[C@H](C)[C@H](Cc2ccccc2)OC)[C@H](C)C(=O)N[C@@H](C(=O)O)CCC(=O)N1C
REMARK SMILES IDX 39 1 38 2 37 3 36 4 28 6 27 7 25 8 26 9 23 11 24 12 19 13
REMARK SMILES IDX 18 14 16 15 17 16 11 18 10 19 8 20 9 21 12 24 13 25 14 26
REMARK SMILES IDX 15 27 20 28 21 29 22 30 29 32 30 33 31 34 32 35 33 36 34 37
REMARK SMILES IDX 35 38 57 43 58 44 59 45 60 46 61 47 62 49 66 50 67 51 68 52
REMARK SMILES IDX 69 53 70 54 71 55 2 56 1 57 3 58 4 59 5 60 6 62 7 63 63 65
REMARK SMILES IDX 64 66 65 67 40 69 41 70 42 71 44 72 43 73 45 74 46 75 47 76
REMARK SMILES IDX 55 77 56 78 48 79 49 80 50 81 54 82 51 83 53 84 52 85
REMARK H PARENT 38 5 27 10 18 17 10 22 22 31 34 39 34 40 35 41 35 42 61 48
REMARK H PARENT 5 61 65 68
REMARK Flexibility Score:  369.900
ROOT
ATOM      1  C   UNL     1     -13.726  -2.035   5.397  1.00  0.00     0.117 C 
ENDROOT
BRANCH   1   2
ATOM      2  N   UNL     1     -15.002  -1.862   6.092  1.00  0.00    -0.347 N 
ATOM      3  O   UNL     1     -14.352  -0.196   7.530  1.00  0.00    -0.273 OA
ATOM      4  C   UNL     1     -15.239  -0.890   7.044  1.00  0.00     0.243 C 
ATOM      5  H   UNL     1     -15.785  -2.447   5.841  1.00  0.00     0.164 HD
BRANCH   4   6
ATOM      6  C   UNL     1     -16.699  -0.867   7.562  1.00  0.00     0.171 C 
BRANCH   6   7
ATOM      7  N   UNL     1     -16.724  -0.921   9.033  1.00  0.00    -0.344 N 
ATOM      8  C   UNL     1     -17.475  -1.872   9.689  1.00  0.00     0.226 C 
ATOM      9  O   UNL     1     -18.165  -2.693   9.096  1.00  0.00    -0.275 OA
ATOM     10  H   UNL     1     -16.220  -0.218   9.558  1.00  0.00     0.164 HD
BRANCH   8  11
ATOM     11  C   UNL     1     -17.353  -1.832  11.202  1.00  0.00     0.109 C 
ATOM     12  C   UNL     1     -18.709  -2.117  11.847  1.00  0.00     0.021 C 
BRANCH  11  13
ATOM     13  C   UNL     1     -16.210  -2.760  11.658  1.00  0.00     0.204 C 
BRANCH  13  14
ATOM     14  N   UNL     1     -15.062  -2.009  12.176  1.00  0.00    -0.340 N 
ATOM     15  C   UNL     1     -13.948  -1.725  11.416  1.00  0.00     0.243 C 
ATOM     16  O   UNL     1     -13.864  -2.031  10.228  1.00  0.00    -0.273 OA
ATOM     17  H   UNL     1     -15.003  -1.860  13.187  1.00  0.00     0.164 HD
BRANCH  15  18
ATOM     18  C   UNL     1     -12.784  -1.109  12.231  1.00  0.00     0.171 C 
BRANCH  18  19
ATOM     19  N   UNL     1     -11.856  -2.198  12.525  1.00  0.00    -0.343 N 
ATOM     20  C   UNL     1     -12.040  -3.040  13.605  1.00  0.00     0.242 CG0
ATOM     21  O   UNL     1     -12.914  -2.831  14.443  1.00  0.00    -0.273 OA
ATOM     22  H   UNL     1     -11.050  -2.341  11.927  1.00  0.00     0.164 HD
ATOM     23  G   UNL     1     -11.003  -4.178  13.709  1.00  0.00     0.000 G0
ENDBRANCH  18  19
BRANCH  18  24
ATOM     24  C   UNL     1     -12.102   0.012  11.436  1.00  0.00     0.038 C 
BRANCH  24  25
ATOM     25  C   UNL     1     -10.893  -0.442  10.590  1.00  0.00    -0.015 C 
ATOM     26  C   UNL     1      -9.624   0.347  10.913  1.00  0.00     0.007 C 
ATOM     27  C   UNL     1     -11.224  -0.301   9.102  1.00  0.00     0.007 C 
ENDBRANCH  24  25
ENDBRANCH  18  24
ENDBRANCH  15  18
ENDBRANCH  13  14
BRANCH  13  28
ATOM     28  C   UNL     1     -16.634  -3.749  12.748  1.00  0.00     0.327 C 
ATOM     29  O   UNL     1     -16.400  -3.653  13.943  1.00  0.00    -0.250 OA
BRANCH  28  30
ATOM     30  O   UNL     1     -17.223  -4.858  12.255  1.00  0.00    -0.480 OA
ATOM     31  H   UNL     1     -16.975  -5.564  12.887  1.00  0.00     0.296 HD
ENDBRANCH  28  30
ENDBRANCH  13  28
ENDBRANCH  11  13
ENDBRANCH   8  11
ENDBRANCH   6   7
BRANCH   6  32
ATOM     32  C   UNL     1     -17.396   0.397   7.049  1.00  0.00     0.037 C 
BRANCH  32  33
ATOM     33  C   UNL     1     -18.081   1.180   8.178  1.00  0.00     0.026 C 
BRANCH  33  34
ATOM     34  C   UNL     1     -19.591   0.940   8.224  1.00  0.00     0.146 C 
BRANCH  34  35
ATOM     35  N   UNL     1     -19.975   0.143   7.067  1.00  0.00    -0.254 NA
ATOM     36  C   UNL     1     -20.596  -0.961   7.260  1.00  0.00     0.185 C 
ATOM     37  N   UNL     1     -20.959  -1.701   6.200  1.00  0.00    -0.370 N 
ATOM     38  N   UNL     1     -20.964  -1.531   8.421  1.00  0.00    -0.370 N 
ATOM     39  H   UNL     1     -20.725  -1.332   5.287  1.00  0.00     0.159 HD
ATOM     40  H   UNL     1     -21.592  -2.480   6.257  1.00  0.00     0.159 HD
ATOM     41  H   UNL     1     -21.324  -2.471   8.448  1.00  0.00     0.159 HD
ATOM     42  H   UNL     1     -20.741  -1.093   9.300  1.00  0.00     0.159 HD
ENDBRANCH  34  35
ENDBRANCH  33  34
ENDBRANCH  32  33
ENDBRANCH   6  32
ENDBRANCH   4   6
ENDBRANCH   1   2
BRANCH   1  43
ATOM     43  C   UNL     1     -13.997  -2.070   3.865  1.00  0.00     0.102 C 
ATOM     44  C   UNL     1     -13.663  -0.748   3.154  1.00  0.00     0.020 C 
BRANCH  43  45
ATOM     45  C   UNL     1     -15.404  -2.597   3.568  1.00  0.00     0.225 C 
ATOM     46  O   UNL     1     -15.766  -3.737   3.846  1.00  0.00    -0.275 OA
ATOM     47  N   UNL     1     -16.225  -1.737   2.875  1.00  0.00    -0.342 N 
ATOM     48  H   UNL     1     -15.970  -0.763   2.789  1.00  0.00     0.164 HD
BRANCH  47  49
ATOM     49  C   UNL     1     -17.610  -2.094   2.552  1.00  0.00     0.192 C 
BRANCH  49  50
ATOM     50  C   UNL     1     -18.144  -1.152   1.469  1.00  0.00     0.047 C 
BRANCH  50  51
ATOM     51  C   UNL     1     -17.026  -0.340   0.801  1.00  0.00     0.103 C 
BRANCH  51  52
ATOM     52  C   UNL     1     -17.016  -0.518  -0.716  1.00  0.00     0.226 C 
ATOM     53  O   UNL     1     -16.418  -1.473  -1.215  1.00  0.00    -0.275 OA
BRANCH  52  54
ATOM     54  N   UNL     1     -17.775   0.404  -1.460  1.00  0.00    -0.311 N 
ATOM     55  C   UNL     1     -17.269   1.756  -1.731  1.00  0.00     0.153 C 
BRANCH  54  56
ATOM     56  C   UNL     1     -19.038   0.067  -1.976  1.00  0.00     0.102 C 
ATOM     57  C   UNL     1     -20.211   0.383  -1.403  1.00  0.00     0.043 C 
BRANCH  56  58
ATOM     58  C   UNL     1     -19.168  -0.668  -3.289  1.00  0.00     0.268 C 
ATOM     59  O   UNL     1     -20.214  -0.731  -3.921  1.00  0.00    -0.268 OA
ATOM     60  N   UNL     1     -17.980  -1.200  -3.731  1.00  0.00    -0.339 N 
ATOM     61  H   UNL     1     -17.159  -1.114  -3.143  1.00  0.00     0.164 HD
BRANCH  60  62
ATOM     62  C   UNL     1     -17.867  -1.898  -5.010  1.00  0.00     0.168 CG0
ATOM     63  C   UNL     1     -17.589  -3.382  -4.801  1.00  0.00     0.041 C 
ATOM     64  G   UNL     1     -16.753  -1.248  -5.857  1.00  0.00     0.000 G0
ENDBRANCH  60  62
ENDBRANCH  56  58
ENDBRANCH  54  56
ENDBRANCH  52  54
ENDBRANCH  51  52
ENDBRANCH  50  51
ENDBRANCH  49  50
BRANCH  49  65
ATOM     65  C   UNL     1     -18.518  -2.015   3.788  1.00  0.00     0.326 C 
ATOM     66  O   UNL     1     -18.996  -2.971   4.381  1.00  0.00    -0.250 OA
BRANCH  65  67
ATOM     67  O   UNL     1     -18.830  -0.760   4.180  1.00  0.00    -0.480 OA
ATOM     68  H   UNL     1     -19.008  -0.854   5.140  1.00  0.00     0.296 HD
ENDBRANCH  65  67
ENDBRANCH  49  65
ENDBRANCH  47  49
ENDBRANCH  43  45
ENDBRANCH   1  43
BRANCH   1  69
ATOM     69  C   UNL     1     -13.045  -3.224   6.049  1.00  0.00    -0.001 C 
ATOM     70  C   UNL     1     -12.398  -3.251   7.227  1.00  0.00     0.001 C 
BRANCH  70  71
ATOM     71  C   UNL     1     -11.763  -4.410   7.856  1.00  0.00    -0.055 C 
ATOM     72  C   UNL     1     -11.432  -4.314   9.161  1.00  0.00    -0.018 C 
ATOM     73  C   UNL     1     -11.531  -5.632   7.005  1.00  0.00     0.044 C 
BRANCH  72  74
ATOM     74  C   UNL     1     -10.774  -5.345  10.067  1.00  0.00     0.038 C 
ATOM     75  C   UNL     1     -11.830  -5.795  11.083  1.00  0.00     0.015 C 
BRANCH  74  76
ATOM     76  C   UNL     1      -9.493  -4.717  10.691  1.00  0.00     0.128 C 
BRANCH  76  77
ATOM     77  O   UNL     1      -9.523  -4.861  12.122  1.00  0.00    -0.381 OA
ATOM     78  C   UNL     1      -8.460  -4.191  12.785  1.00  0.00     0.195 C 
ENDBRANCH  76  77
BRANCH  76  79
ATOM     79  C   UNL     1      -8.171  -5.230  10.065  1.00  0.00     0.068 C 
BRANCH  79  80
ATOM     80  C   UNL     1      -8.067  -5.258   8.560  1.00  0.00    -0.045 A 
ATOM     81  C   UNL     1      -8.046  -4.071   7.815  1.00  0.00     0.004 A 
ATOM     82  C   UNL     1      -8.016  -6.483   7.877  1.00  0.00     0.004 A 
ATOM     83  C   UNL     1      -7.963  -4.106   6.421  1.00  0.00     0.000 A 
ATOM     84  C   UNL     1      -7.934  -6.517   6.483  1.00  0.00     0.000 A 
ATOM     85  C   UNL     1      -7.906  -5.329   5.756  1.00  0.00     0.000 A 
ENDBRANCH  79  80
ENDBRANCH  76  79
ENDBRANCH  74  76
ENDBRANCH  72  74
ENDBRANCH  70  71
ENDBRANCH   1  69
TORSDOF 17
ENDMDL
MODEL 7
REMARK VINA RESULT:    -5.677      9.392     13.210
REMARK INTER + INTRA:         -25.579
REMARK INTER:                 -17.203
REMARK INTRA:                  -8.376
REMARK UNBOUND:                -8.618
REMARK SMILES C=C1C(=O)N[C@H](C)C(=O)N[C@@H](CC(C)C)C(=O)N[C@@H](C(=O)O)[C@H](C)C(=O)N[C@@H](CCCN=C(N)N)C(=O)N[C@@H](/C=C/C(C)=C/[C@H](C)[C@H](Cc2ccccc2)OC)[C@H](C)C(=O)N[C@@H](C(=O)O)CCC(=O)N1C
REMARK SMILES IDX 39 1 38 2 37 3 36 4 28 6 27 7 25 8 26 9 23 11 24 12 19 13
REMARK SMILES IDX 18 14 16 15 17 16 11 18 10 19 8 20 9 21 12 24 13 25 14 26
REMARK SMILES IDX 15 27 20 28 21 29 22 30 29 32 30 33 31 34 32 35 33 36 34 37
REMARK SMILES IDX 35 38 57 43 58 44 59 45 60 46 61 47 62 49 66 50 67 51 68 52
REMARK SMILES IDX 69 53 70 54 71 55 2 56 1 57 3 58 4 59 5 60 6 62 7 63 63 65
REMARK SMILES IDX 64 66 65 67 40 69 41 70 42 71 44 72 43 73 45 74 46 75 47 76
REMARK SMILES IDX 55 77 56 78 48 79 49 80 50 81 54 82 51 83 53 84 52 85
REMARK H PARENT 38 5 27 10 18 17 10 22 22 31 34 39 34 40 35 41 35 42 61 48
REMARK H PARENT 5 61 65 68
REMARK Flexibility Score:  369.900
ROOT
ATOM      1  C   UNL     1     -10.337  -0.472  -3.795  1.00  0.00     0.117 C 
ENDROOT
BRANCH   1   2
ATOM      2  N   UNL     1      -8.941  -0.799  -3.502  1.00  0.00    -0.347 N 
ATOM      3  O   UNL     1      -8.948  -2.951  -4.301  1.00  0.00    -0.273 OA
ATOM      4  C   UNL     1      -8.332  -1.985  -3.863  1.00  0.00     0.243 C 
ATOM      5  H   UNL     1      -8.356  -0.110  -3.053  1.00  0.00     0.164 HD
BRANCH   4   6
ATOM      6  C   UNL     1      -6.824  -2.044  -3.510  1.00  0.00     0.171 C 
BRANCH   6   7
ATOM      7  N   UNL     1      -6.363  -3.440  -3.453  1.00  0.00    -0.344 N 
ATOM      8  C   UNL     1      -6.457  -4.163  -2.283  1.00  0.00     0.226 C 
ATOM      9  O   UNL     1      -6.898  -3.685  -1.245  1.00  0.00    -0.275 OA
ATOM     10  H   UNL     1      -5.931  -3.849  -4.272  1.00  0.00     0.164 HD
BRANCH   8  11
ATOM     11  C   UNL     1      -5.991  -5.604  -2.400  1.00  0.00     0.109 C 
ATOM     12  C   UNL     1      -5.214  -5.802  -3.701  1.00  0.00     0.021 C 
BRANCH  11  13
ATOM     13  C   UNL     1      -5.230  -6.011  -1.122  1.00  0.00     0.204 C 
BRANCH  13  14
ATOM     14  N   UNL     1      -6.068  -5.907   0.076  1.00  0.00    -0.340 N 
ATOM     15  C   UNL     1      -5.595  -5.438   1.282  1.00  0.00     0.243 C 
ATOM     16  O   UNL     1      -4.449  -5.015   1.423  1.00  0.00    -0.273 OA
ATOM     17  H   UNL     1      -6.977  -6.379   0.069  1.00  0.00     0.164 HD
BRANCH  15  18
ATOM     18  C   UNL     1      -6.596  -5.614   2.451  1.00  0.00     0.171 C 
BRANCH  18  19
ATOM     19  N   UNL     1      -5.800  -5.699   3.674  1.00  0.00    -0.343 N 
ATOM     20  C   UNL     1      -5.895  -6.778   4.532  1.00  0.00     0.242 CG0
ATOM     21  O   UNL     1      -6.747  -7.650   4.377  1.00  0.00    -0.273 OA
ATOM     22  H   UNL     1      -5.164  -4.945   3.907  1.00  0.00     0.164 HD
ATOM     23  G   UNL     1      -4.922  -6.728   5.728  1.00  0.00     0.000 G0
ENDBRANCH  18  19
BRANCH  18  24
ATOM     24  C   UNL     1      -7.581  -4.441   2.501  1.00  0.00     0.038 C 
BRANCH  24  25
ATOM     25  C   UNL     1      -7.408  -3.506   3.717  1.00  0.00    -0.015 C 
ATOM     26  C   UNL     1      -8.739  -3.171   4.392  1.00  0.00     0.007 C 
ATOM     27  C   UNL     1      -6.714  -2.214   3.278  1.00  0.00     0.007 C 
ENDBRANCH  24  25
ENDBRANCH  18  24
ENDBRANCH  15  18
ENDBRANCH  13  14
BRANCH  13  28
ATOM     28  C   UNL     1      -4.687  -7.442  -1.173  1.00  0.00     0.327 C 
ATOM     29  O   UNL     1      -3.511  -7.767  -1.251  1.00  0.00    -0.250 OA
BRANCH  28  30
ATOM     30  O   UNL     1      -5.658  -8.374  -1.244  1.00  0.00    -0.480 OA
ATOM     31  H   UNL     1      -5.893  -8.407  -2.194  1.00  0.00     0.296 HD
ENDBRANCH  28  30
ENDBRANCH  13  28
ENDBRANCH  11  13
ENDBRANCH   8  11
ENDBRANCH   6   7
BRANCH   6  32
ATOM     32  C   UNL     1      -6.032  -1.249  -4.554  1.00  0.00     0.037 C 
BRANCH  32  33
ATOM     33  C   UNL     1      -5.551  -2.133  -5.713  1.00  0.00     0.026 C 
BRANCH  33  34
ATOM     34  C   UNL     1      -4.296  -1.580  -6.390  1.00  0.00     0.146 C 
BRANCH  34  35
ATOM     35  N   UNL     1      -3.297  -1.299  -5.368  1.00  0.00    -0.254 NA
ATOM     36  C   UNL     1      -2.756  -0.138  -5.342  1.00  0.00     0.185 C 
ATOM     37  N   UNL     1      -1.838   0.134  -4.402  1.00  0.00    -0.370 N 
ATOM     38  N   UNL     1      -2.972   0.914  -6.152  1.00  0.00    -0.370 N 
ATOM     39  H   UNL     1      -1.627  -0.606  -3.745  1.00  0.00     0.159 HD
ATOM     40  H   UNL     1      -1.499   1.061  -4.207  1.00  0.00     0.159 HD
ATOM     41  H   UNL     1      -2.382   1.729  -6.116  1.00  0.00     0.159 HD
ATOM     42  H   UNL     1      -3.627   0.847  -6.915  1.00  0.00     0.159 HD
ENDBRANCH  34  35
ENDBRANCH  33  34
ENDBRANCH  32  33
ENDBRANCH   6  32
ENDBRANCH   4   6
ENDBRANCH   1   2
BRANCH   1  43
ATOM     43  C   UNL     1     -10.404   0.994  -4.312  1.00  0.00     0.102 C 
ATOM     44  C   UNL     1     -10.549   1.098  -5.840  1.00  0.00     0.020 C 
BRANCH  43  45
ATOM     45  C   UNL     1      -9.259   1.833  -3.738  1.00  0.00     0.225 C 
ATOM     46  O   UNL     1      -9.198   2.167  -2.558  1.00  0.00    -0.275 OA
ATOM     47  N   UNL     1      -8.333   2.277  -4.654  1.00  0.00    -0.342 N 
ATOM     48  H   UNL     1      -8.311   1.873  -5.579  1.00  0.00     0.164 HD
BRANCH  47  49
ATOM     49  C   UNL     1      -7.163   3.060  -4.243  1.00  0.00     0.192 C 
BRANCH  49  50
ATOM     50  C   UNL     1      -7.332   4.512  -4.696  1.00  0.00     0.047 C 
BRANCH  50  51
ATOM     51  C   UNL     1      -8.241   4.637  -5.926  1.00  0.00     0.103 C 
BRANCH  51  52
ATOM     52  C   UNL     1      -7.460   5.032  -7.178  1.00  0.00     0.226 C 
ATOM     53  O   UNL     1      -6.399   5.649  -7.066  1.00  0.00    -0.275 OA
BRANCH  52  54
ATOM     54  N   UNL     1      -7.980   4.587  -8.408  1.00  0.00    -0.311 N 
ATOM     55  C   UNL     1      -7.563   3.302  -8.985  1.00  0.00     0.153 C 
BRANCH  54  56
ATOM     56  C   UNL     1      -8.919   5.348  -9.124  1.00  0.00     0.102 C 
ATOM     57  C   UNL     1      -8.964   6.690  -9.146  1.00  0.00     0.043 C 
BRANCH  56  58
ATOM     58  C   UNL     1      -9.959   4.679  -9.992  1.00  0.00     0.268 C 
ATOM     59  O   UNL     1     -10.981   4.176  -9.546  1.00  0.00    -0.268 OA
ATOM     60  N   UNL     1      -9.670   4.752 -11.334  1.00  0.00    -0.339 N 
ATOM     61  H   UNL     1      -8.797   5.177 -11.622  1.00  0.00     0.164 HD
BRANCH  60  62
ATOM     62  C   UNL     1     -10.574   4.224 -12.355  1.00  0.00     0.168 CG0
ATOM     63  C   UNL     1     -10.839   5.260 -13.440  1.00  0.00     0.041 C 
ATOM     64  G   UNL     1     -11.893   3.774 -11.695  1.00  0.00     0.000 G0
ENDBRANCH  60  62
ENDBRANCH  56  58
ENDBRANCH  54  56
ENDBRANCH  52  54
ENDBRANCH  51  52
ENDBRANCH  50  51
ENDBRANCH  49  50
BRANCH  49  65
ATOM     65  C   UNL     1      -5.864   2.490  -4.834  1.00  0.00     0.326 C 
ATOM     66  O   UNL     1      -5.734   2.043  -5.965  1.00  0.00    -0.250 OA
BRANCH  65  67
ATOM     67  O   UNL     1      -4.823   2.452  -3.974  1.00  0.00    -0.480 OA
ATOM     68  H   UNL     1      -4.171   1.873  -4.425  1.00  0.00     0.296 HD
ENDBRANCH  65  67
ENDBRANCH  49  65
ENDBRANCH  47  49
ENDBRANCH  43  45
ENDBRANCH   1  43
BRANCH   1  69
ATOM     69  C   UNL     1     -11.130  -0.851  -2.558  1.00  0.00    -0.001 C 
ATOM     70  C   UNL     1     -12.020  -0.092  -1.894  1.00  0.00     0.001 C 
BRANCH  70  71
ATOM     71  C   UNL     1     -12.795  -0.476  -0.713  1.00  0.00    -0.055 C 
ATOM     72  C   UNL     1     -12.422   0.038   0.478  1.00  0.00    -0.018 C 
ATOM     73  C   UNL     1     -13.960  -1.412  -0.911  1.00  0.00     0.044 C 
BRANCH  72  74
ATOM     74  C   UNL     1     -13.034  -0.178   1.855  1.00  0.00     0.038 C 
ATOM     75  C   UNL     1     -13.497   1.192   2.364  1.00  0.00     0.015 C 
BRANCH  74  76
ATOM     76  C   UNL     1     -11.988  -0.892   2.761  1.00  0.00     0.128 C 
BRANCH  76  77
ATOM     77  O   UNL     1     -12.658  -1.734   3.715  1.00  0.00    -0.381 OA
ATOM     78  C   UNL     1     -13.905  -2.238   3.254  1.00  0.00     0.195 C 
ENDBRANCH  76  77
BRANCH  76  79
ATOM     79  C   UNL     1     -10.880  -1.639   1.976  1.00  0.00     0.068 C 
BRANCH  79  80
ATOM     80  C   UNL     1      -9.680  -0.846   1.519  1.00  0.00    -0.045 A 
ATOM     81  C   UNL     1      -9.307   0.338   2.169  1.00  0.00     0.004 A 
ATOM     82  C   UNL     1      -8.932  -1.271   0.411  1.00  0.00     0.004 A 
ATOM     83  C   UNL     1      -8.204   1.074   1.732  1.00  0.00     0.000 A 
ATOM     84  C   UNL     1      -7.829  -0.534  -0.026  1.00  0.00     0.000 A 
ATOM     85  C   UNL     1      -7.464   0.636   0.635  1.00  0.00     0.000 A 
ENDBRANCH  79  80
ENDBRANCH  76  79
ENDBRANCH  74  76
ENDBRANCH  72  74
ENDBRANCH  70  71
ENDBRANCH   1  69
TORSDOF 17
ENDMDL
MODEL 8
REMARK VINA RESULT:    -5.631     12.103     17.966
REMARK INTER + INTRA:         -25.442
REMARK INTER:                 -17.363
REMARK INTRA:                  -8.078
REMARK UNBOUND:                -8.618
REMARK SMILES C=C1C(=O)N[C@H](C)C(=O)N[C@@H](CC(C)C)C(=O)N[C@@H](C(=O)O)[C@H](C)C(=O)N[C@@H](CCCN=C(N)N)C(=O)N[C@@H](/C=C/C(C)=C/[C@H](C)[C@H](Cc2ccccc2)OC)[C@H](C)C(=O)N[C@@H](C(=O)O)CCC(=O)N1C
REMARK SMILES IDX 39 1 38 2 37 3 36 4 28 6 27 7 25 8 26 9 23 11 24 12 19 13
REMARK SMILES IDX 18 14 16 15 17 16 11 18 10 19 8 20 9 21 12 24 13 25 14 26
REMARK SMILES IDX 15 27 20 28 21 29 22 30 29 32 30 33 31 34 32 35 33 36 34 37
REMARK SMILES IDX 35 38 57 43 58 44 59 45 60 46 61 47 62 49 66 50 67 51 68 52
REMARK SMILES IDX 69 53 70 54 71 55 2 56 1 57 3 58 4 59 5 60 6 62 7 63 63 65
REMARK SMILES IDX 64 66 65 67 40 69 41 70 42 71 44 72 43 73 45 74 46 75 47 76
REMARK SMILES IDX 55 77 56 78 48 79 49 80 50 81 54 82 51 83 53 84 52 85
REMARK H PARENT 38 5 27 10 18 17 10 22 22 31 34 39 34 40 35 41 35 42 61 48
REMARK H PARENT 5 61 65 68
REMARK Flexibility Score:  369.900
ROOT
ATOM      1  C   UNL     1      -5.739   2.298  -7.242  1.00  0.00     0.117 C 
ENDROOT
BRANCH   1   2
ATOM      2  N   UNL     1      -5.991   1.126  -6.403  1.00  0.00    -0.347 N 
ATOM      3  O   UNL     1      -6.075  -0.444  -8.075  1.00  0.00    -0.273 OA
ATOM      4  C   UNL     1      -6.047  -0.169  -6.880  1.00  0.00     0.243 C 
ATOM      5  H   UNL     1      -6.082   1.242  -5.405  1.00  0.00     0.164 HD
BRANCH   4   6
ATOM      6  C   UNL     1      -6.240  -1.235  -5.772  1.00  0.00     0.171 C 
BRANCH   6   7
ATOM      7  N   UNL     1      -7.672  -1.462  -5.519  1.00  0.00    -0.344 N 
ATOM      8  C   UNL     1      -8.370  -0.651  -4.651  1.00  0.00     0.226 C 
ATOM      9  O   UNL     1      -7.842   0.269  -4.039  1.00  0.00    -0.275 OA
ATOM     10  H   UNL     1      -8.127  -2.254  -5.955  1.00  0.00     0.164 HD
BRANCH   8  11
ATOM     11  C   UNL     1      -9.848  -0.980  -4.540  1.00  0.00     0.109 C 
ATOM     12  C   UNL     1     -10.192  -2.166  -5.441  1.00  0.00     0.021 C 
BRANCH  11  13
ATOM     13  C   UNL     1     -10.233  -1.158  -3.058  1.00  0.00     0.204 C 
BRANCH  13  14
ATOM     14  N   UNL     1     -11.600  -1.664  -2.900  1.00  0.00    -0.340 N 
ATOM     15  C   UNL     1     -12.687  -0.837  -2.715  1.00  0.00     0.243 C 
ATOM     16  O   UNL     1     -12.594   0.389  -2.730  1.00  0.00    -0.273 OA
ATOM     17  H   UNL     1     -11.725  -2.665  -2.727  1.00  0.00     0.164 HD
BRANCH  15  18
ATOM     18  C   UNL     1     -13.990  -1.596  -2.365  1.00  0.00     0.171 C 
BRANCH  18  19
ATOM     19  N   UNL     1     -14.868  -0.636  -1.699  1.00  0.00    -0.343 N 
ATOM     20  C   UNL     1     -15.300  -0.822  -0.400  1.00  0.00     0.242 CG0
ATOM     21  O   UNL     1     -15.076  -1.866   0.209  1.00  0.00    -0.273 OA
ATOM     22  H   UNL     1     -15.177   0.188  -2.203  1.00  0.00     0.164 HD
ATOM     23  G   UNL     1     -16.155   0.334   0.158  1.00  0.00     0.000 G0
ENDBRANCH  18  19
BRANCH  18  24
ATOM     24  C   UNL     1     -14.640  -2.170  -3.630  1.00  0.00     0.038 C 
BRANCH  24  25
ATOM     25  C   UNL     1     -15.828  -1.348  -4.173  1.00  0.00    -0.015 C 
ATOM     26  C   UNL     1     -16.989  -2.231  -4.632  1.00  0.00     0.007 C 
ATOM     27  C   UNL     1     -15.358  -0.469  -5.335  1.00  0.00     0.007 C 
ENDBRANCH  24  25
ENDBRANCH  18  24
ENDBRANCH  15  18
ENDBRANCH  13  14
BRANCH  13  28
ATOM     28  C   UNL     1      -9.305  -2.116  -2.305  1.00  0.00     0.327 C 
ATOM     29  O   UNL     1      -9.317  -3.336  -2.372  1.00  0.00    -0.250 OA
BRANCH  28  30
ATOM     30  O   UNL     1      -8.499  -1.489  -1.424  1.00  0.00    -0.480 OA
ATOM     31  H   UNL     1      -7.665  -1.348  -1.918  1.00  0.00     0.296 HD
ENDBRANCH  28  30
ENDBRANCH  13  28
ENDBRANCH  11  13
ENDBRANCH   8  11
ENDBRANCH   6   7
BRANCH   6  32
ATOM     32  C   UNL     1      -5.545  -2.534  -6.196  1.00  0.00     0.037 C 
BRANCH  32  33
ATOM     33  C   UNL     1      -6.550  -3.648  -6.522  1.00  0.00     0.026 C 
BRANCH  33  34
ATOM     34  C   UNL     1      -6.521  -4.048  -7.997  1.00  0.00     0.146 C 
BRANCH  34  35
ATOM     35  N   UNL     1      -5.138  -4.070  -8.451  1.00  0.00    -0.254 NA
ATOM     36  C   UNL     1      -4.813  -3.361  -9.467  1.00  0.00     0.185 C 
ATOM     37  N   UNL     1      -3.540  -3.370  -9.891  1.00  0.00    -0.370 N 
ATOM     38  N   UNL     1      -5.588  -2.562 -10.222  1.00  0.00    -0.370 N 
ATOM     39  H   UNL     1      -2.891  -3.942  -9.366  1.00  0.00     0.159 HD
ATOM     40  H   UNL     1      -3.172  -2.717 -10.562  1.00  0.00     0.159 HD
ATOM     41  H   UNL     1      -5.245  -2.164 -11.081  1.00  0.00     0.159 HD
ATOM     42  H   UNL     1      -6.573  -2.471 -10.028  1.00  0.00     0.159 HD
ENDBRANCH  34  35
ENDBRANCH  33  34
ENDBRANCH  32  33
ENDBRANCH   6  32
ENDBRANCH   4   6
ENDBRANCH   1   2
BRANCH   1  43
ATOM     43  C   UNL     1      -4.806   3.271  -6.466  1.00  0.00     0.102 C 
ATOM     44  C   UNL     1      -4.282   4.434  -7.327  1.00  0.00     0.020 C 
BRANCH  43  45
ATOM     45  C   UNL     1      -3.708   2.505  -5.723  1.00  0.00     0.225 C 
ATOM     46  O   UNL     1      -3.708   2.344  -4.506  1.00  0.00    -0.275 OA
ATOM     47  N   UNL     1      -2.653   2.079  -6.498  1.00  0.00    -0.342 N 
ATOM     48  H   UNL     1      -2.739   2.084  -7.505  1.00  0.00     0.164 HD
BRANCH  47  49
ATOM     49  C   UNL     1      -1.548   1.303  -5.929  1.00  0.00     0.192 C 
BRANCH  49  50
ATOM     50  C   UNL     1      -0.589   0.880  -7.044  1.00  0.00     0.047 C 
BRANCH  50  51
ATOM     51  C   UNL     1      -1.273   0.842  -8.418  1.00  0.00     0.103 C 
BRANCH  51  52
ATOM     52  C   UNL     1      -1.175  -0.535  -9.070  1.00  0.00     0.226 C 
ATOM     53  O   UNL     1      -1.904  -1.449  -8.678  1.00  0.00    -0.275 OA
BRANCH  52  54
ATOM     54  N   UNL     1      -0.288  -0.654 -10.155  1.00  0.00    -0.311 N 
ATOM     55  C   UNL     1      -0.782  -0.943 -11.508  1.00  0.00     0.153 C 
BRANCH  54  56
ATOM     56  C   UNL     1       1.098  -0.494  -9.989  1.00  0.00     0.102 C 
ATOM     57  C   UNL     1       1.843  -1.147  -9.082  1.00  0.00     0.043 C 
BRANCH  56  58
ATOM     58  C   UNL     1       1.885   0.430 -10.888  1.00  0.00     0.268 C 
ATOM     59  O   UNL     1       2.660   0.029 -11.747  1.00  0.00    -0.268 OA
ATOM     60  N   UNL     1       1.593   1.758 -10.688  1.00  0.00    -0.339 N 
ATOM     61  H   UNL     1       0.947   2.008  -9.948  1.00  0.00     0.164 HD
BRANCH  60  62
ATOM     62  C   UNL     1       2.195   2.818 -11.494  1.00  0.00     0.168 CG0
ATOM     63  C   UNL     1       1.675   4.187 -11.073  1.00  0.00     0.041 C 
ATOM     64  G   UNL     1       1.908   2.560 -12.987  1.00  0.00     0.000 G0
ENDBRANCH  60  62
ENDBRANCH  56  58
ENDBRANCH  54  56
ENDBRANCH  52  54
ENDBRANCH  51  52
ENDBRANCH  50  51
ENDBRANCH  49  50
BRANCH  49  65
ATOM     65  C   UNL     1      -2.054   0.053  -5.192  1.00  0.00     0.326 C 
ATOM     66  O   UNL     1      -2.719  -0.845  -5.689  1.00  0.00    -0.250 OA
BRANCH  65  67
ATOM     67  O   UNL     1      -1.760   0.018  -3.874  1.00  0.00    -0.480 OA
ATOM     68  H   UNL     1      -1.272   0.856  -3.723  1.00  0.00     0.296 HD
ENDBRANCH  65  67
ENDBRANCH  49  65
ENDBRANCH  47  49
ENDBRANCH  43  45
ENDBRANCH   1  43
BRANCH   1  69
ATOM     69  C   UNL     1      -7.100   2.793  -7.697  1.00  0.00    -0.001 C 
ATOM     70  C   UNL     1      -8.249   2.783  -6.998  1.00  0.00     0.001 C 
BRANCH  70  71
ATOM     71  C   UNL     1      -9.552   3.284  -7.440  1.00  0.00    -0.055 C 
ATOM     72  C   UNL     1     -10.326   3.909  -6.528  1.00  0.00    -0.018 C 
ATOM     73  C   UNL     1      -9.933   3.073  -8.882  1.00  0.00     0.044 C 
BRANCH  72  74
ATOM     74  C   UNL     1     -11.707   4.527  -6.698  1.00  0.00     0.038 C 
ATOM     75  C   UNL     1     -11.588   6.010  -6.327  1.00  0.00     0.015 C 
BRANCH  74  76
ATOM     76  C   UNL     1     -12.726   3.719  -5.842  1.00  0.00     0.128 C 
BRANCH  76  77
ATOM     77  O   UNL     1     -13.151   4.503  -4.714  1.00  0.00    -0.381 OA
ATOM     78  C   UNL     1     -12.691   4.004  -3.466  1.00  0.00     0.195 C 
ENDBRANCH  76  77
BRANCH  76  79
ATOM     79  C   UNL     1     -13.913   3.143  -6.653  1.00  0.00     0.068 C 
BRANCH  79  80
ATOM     80  C   UNL     1     -13.660   1.928  -7.512  1.00  0.00    -0.045 A 
ATOM     81  C   UNL     1     -12.540   1.113  -7.298  1.00  0.00     0.004 A 
ATOM     82  C   UNL     1     -14.533   1.610  -8.563  1.00  0.00     0.004 A 
ATOM     83  C   UNL     1     -12.305  -0.001  -8.106  1.00  0.00     0.000 A 
ATOM     84  C   UNL     1     -14.297   0.495  -9.371  1.00  0.00     0.000 A 
ATOM     85  C   UNL     1     -13.184  -0.311  -9.142  1.00  0.00     0.000 A 
ENDBRANCH  79  80
ENDBRANCH  76  79
ENDBRANCH  74  76
ENDBRANCH  72  74
ENDBRANCH  70  71
ENDBRANCH   1  69
TORSDOF 17
ENDMDL
MODEL 9
REMARK VINA RESULT:    -5.625      7.691     11.515
REMARK INTER + INTRA:         -25.424
REMARK INTER:                 -20.422
REMARK INTRA:                  -5.002
REMARK UNBOUND:                -8.618
REMARK SMILES C=C1C(=O)N[C@H](C)C(=O)N[C@@H](CC(C)C)C(=O)N[C@@H](C(=O)O)[C@H](C)C(=O)N[C@@H](CCCN=C(N)N)C(=O)N[C@@H](/C=C/C(C)=C/[C@H](C)[C@H](Cc2ccccc2)OC)[C@H](C)C(=O)N[C@@H](C(=O)O)CCC(=O)N1C
REMARK SMILES IDX 39 1 38 2 37 3 36 4 28 6 27 7 25 8 26 9 23 11 24 12 19 13
REMARK SMILES IDX 18 14 16 15 17 16 11 18 10 19 8 20 9 21 12 24 13 25 14 26
REMARK SMILES IDX 15 27 20 28 21 29 22 30 29 32 30 33 31 34 32 35 33 36 34 37
REMARK SMILES IDX 35 38 57 43 58 44 59 45 60 46 61 47 62 49 66 50 67 51 68 52
REMARK SMILES IDX 69 53 70 54 71 55 2 56 1 57 3 58 4 59 5 60 6 62 7 63 63 65
REMARK SMILES IDX 64 66 65 67 40 69 41 70 42 71 44 72 43 73 45 74 46 75 47 76
REMARK SMILES IDX 55 77 56 78 48 79 49 80 50 81 54 82 51 83 53 84 52 85
REMARK H PARENT 38 5 27 10 18 17 10 22 22 31 34 39 34 40 35 41 35 42 61 48
REMARK H PARENT 5 61 65 68
REMARK Flexibility Score:  369.900
ROOT
ATOM      1  C   UNL     1      -9.661  -0.250   1.365  1.00  0.00     0.117 C 
ENDROOT
BRANCH   1   2
ATOM      2  N   UNL     1      -8.937  -1.522   1.348  1.00  0.00    -0.347 N 
ATOM      3  O   UNL     1      -9.619  -2.243  -0.722  1.00  0.00    -0.273 OA
ATOM      4  C   UNL     1      -8.901  -2.377   0.264  1.00  0.00     0.243 C 
ATOM      5  H   UNL     1      -8.383  -1.786   2.149  1.00  0.00     0.164 HD
BRANCH   4   6
ATOM      6  C   UNL     1      -7.992  -3.614   0.475  1.00  0.00     0.171 C 
BRANCH   6   7
ATOM      7  N   UNL     1      -6.946  -3.320   1.469  1.00  0.00    -0.344 N 
ATOM      8  C   UNL     1      -7.241  -3.303   2.815  1.00  0.00     0.226 C 
ATOM      9  O   UNL     1      -8.370  -3.504   3.246  1.00  0.00    -0.275 OA
ATOM     10  H   UNL     1      -6.017  -3.082   1.147  1.00  0.00     0.164 HD
BRANCH   8  11
ATOM     11  C   UNL     1      -6.046  -3.038   3.713  1.00  0.00     0.109 C 
ATOM     12  C   UNL     1      -6.339  -1.865   4.648  1.00  0.00     0.021 C 
BRANCH  11  13
ATOM     13  C   UNL     1      -5.627  -4.342   4.422  1.00  0.00     0.204 C 
BRANCH  13  14
ATOM     14  N   UNL     1      -6.785  -5.114   4.885  1.00  0.00    -0.340 N 
ATOM     15  C   UNL     1      -7.228  -5.087   6.190  1.00  0.00     0.243 C 
ATOM     16  O   UNL     1      -6.720  -4.365   7.046  1.00  0.00    -0.273 OA
ATOM     17  H   UNL     1      -7.154  -5.843   4.269  1.00  0.00     0.164 HD
BRANCH  15  18
ATOM     18  C   UNL     1      -8.328  -6.135   6.491  1.00  0.00     0.171 C 
BRANCH  18  19
ATOM     19  N   UNL     1      -7.729  -7.448   6.261  1.00  0.00    -0.343 N 
ATOM     20  C   UNL     1      -7.690  -8.022   5.005  1.00  0.00     0.242 CG0
ATOM     21  O   UNL     1      -8.274  -7.517   4.049  1.00  0.00    -0.273 OA
ATOM     22  H   UNL     1      -7.335  -7.959   7.044  1.00  0.00     0.164 HD
ATOM     23  G   UNL     1      -6.949  -9.374   4.945  1.00  0.00     0.000 G0
ENDBRANCH  18  19
BRANCH  18  24
ATOM     24  C   UNL     1      -8.833  -5.992   7.932  1.00  0.00     0.038 C 
BRANCH  24  25
ATOM     25  C   UNL     1     -10.261  -5.422   8.061  1.00  0.00    -0.015 C 
ATOM     26  C   UNL     1     -11.214  -5.987   7.007  1.00  0.00     0.007 C 
ATOM     27  C   UNL     1     -10.218  -3.895   7.951  1.00  0.00     0.007 C 
ENDBRANCH  24  25
ENDBRANCH  18  24
ENDBRANCH  15  18
ENDBRANCH  13  14
BRANCH  13  28
ATOM     28  C   UNL     1      -4.789  -5.269   3.536  1.00  0.00     0.327 C 
ATOM     29  O   UNL     1      -3.662  -5.048   3.122  1.00  0.00    -0.250 OA
BRANCH  28  30
ATOM     30  O   UNL     1      -5.464  -6.362   3.127  1.00  0.00    -0.480 OA
ATOM     31  H   UNL     1      -6.073  -6.026   2.437  1.00  0.00     0.296 HD
ENDBRANCH  28  30
ENDBRANCH  13  28
ENDBRANCH  11  13
ENDBRANCH   8  11
ENDBRANCH   6   7
BRANCH   6  32
ATOM     32  C   UNL     1      -8.853  -4.801   0.922  1.00  0.00     0.037 C 
BRANCH  32  33
ATOM     33  C   UNL     1      -8.313  -6.139   0.395  1.00  0.00     0.026 C 
BRANCH  33  34
ATOM     34  C   UNL     1      -7.083  -5.963  -0.496  1.00  0.00     0.146 C 
BRANCH  34  35
ATOM     35  N   UNL     1      -5.893  -6.304   0.272  1.00  0.00    -0.254 NA
ATOM     36  C   UNL     1      -4.756  -6.285  -0.317  1.00  0.00     0.185 C 
ATOM     37  N   UNL     1      -3.653  -6.593   0.383  1.00  0.00    -0.370 N 
ATOM     38  N   UNL     1      -4.472  -5.989  -1.597  1.00  0.00    -0.370 N 
ATOM     39  H   UNL     1      -3.783  -6.818   1.361  1.00  0.00     0.159 HD
ATOM     40  H   UNL     1      -2.718  -6.434   0.046  1.00  0.00     0.159 HD
ATOM     41  H   UNL     1      -3.553  -6.145  -1.977  1.00  0.00     0.159 HD
ATOM     42  H   UNL     1      -5.208  -5.754  -2.244  1.00  0.00     0.159 HD
ENDBRANCH  34  35
ENDBRANCH  33  34
ENDBRANCH  32  33
ENDBRANCH   6  32
ENDBRANCH   4   6
ENDBRANCH   1   2
BRANCH   1  43
ATOM     43  C   UNL     1      -8.624   0.910   1.370  1.00  0.00     0.102 C 
ATOM     44  C   UNL     1      -9.229   2.270   1.758  1.00  0.00     0.020 C 
BRANCH  43  45
ATOM     45  C   UNL     1      -7.821   0.936   0.066  1.00  0.00     0.225 C 
ATOM     46  O   UNL     1      -6.606   0.765   0.022  1.00  0.00    -0.275 OA
ATOM     47  N   UNL     1      -8.537   1.259  -1.064  1.00  0.00    -0.342 N 
ATOM     48  H   UNL     1      -9.547   1.246  -1.037  1.00  0.00     0.164 HD
BRANCH  47  49
ATOM     49  C   UNL     1      -7.908   1.287  -2.388  1.00  0.00     0.192 C 
BRANCH  49  50
ATOM     50  C   UNL     1      -8.691   2.225  -3.310  1.00  0.00     0.047 C 
BRANCH  50  51
ATOM     51  C   UNL     1      -7.928   2.541  -4.603  1.00  0.00     0.103 C 
BRANCH  51  52
ATOM     52  C   UNL     1      -7.397   3.973  -4.620  1.00  0.00     0.226 C 
ATOM     53  O   UNL     1      -8.085   4.885  -4.158  1.00  0.00    -0.275 OA
BRANCH  52  54
ATOM     54  N   UNL     1      -6.089   4.150  -5.108  1.00  0.00    -0.311 N 
ATOM     55  C   UNL     1      -4.980   3.321  -4.619  1.00  0.00     0.153 C 
BRANCH  54  56
ATOM     56  C   UNL     1      -5.795   5.119  -6.082  1.00  0.00     0.102 C 
ATOM     57  C   UNL     1      -4.795   6.012  -6.002  1.00  0.00     0.043 C 
BRANCH  56  58
ATOM     58  C   UNL     1      -6.593   5.197  -7.363  1.00  0.00     0.268 C 
ATOM     59  O   UNL     1      -6.314   4.551  -8.365  1.00  0.00    -0.268 OA
ATOM     60  N   UNL     1      -7.695   6.012  -7.265  1.00  0.00    -0.339 N 
ATOM     61  H   UNL     1      -7.849   6.520  -6.403  1.00  0.00     0.164 HD
BRANCH  60  62
ATOM     62  C   UNL     1      -8.639   6.181  -8.369  1.00  0.00     0.168 CG0
ATOM     63  C   UNL     1      -9.871   5.305  -8.174  1.00  0.00     0.041 C 
ATOM     64  G   UNL     1      -7.939   5.851  -9.703  1.00  0.00     0.000 G0
ENDBRANCH  60  62
ENDBRANCH  56  58
ENDBRANCH  54  56
ENDBRANCH  52  54
ENDBRANCH  51  52
ENDBRANCH  50  51
ENDBRANCH  49  50
BRANCH  49  65
ATOM     65  C   UNL     1      -7.850  -0.113  -3.017  1.00  0.00     0.326 C 
ATOM     66  O   UNL     1      -8.745  -0.641  -3.661  1.00  0.00    -0.250 OA
BRANCH  65  67
ATOM     67  O   UNL     1      -6.714  -0.799  -2.763  1.00  0.00    -0.480 OA
ATOM     68  H   UNL     1      -6.170  -0.163  -2.250  1.00  0.00     0.296 HD
ENDBRANCH  65  67
ENDBRANCH  49  65
ENDBRANCH  47  49
ENDBRANCH  43  45
ENDBRANCH   1  43
BRANCH   1  69
ATOM     69  C   UNL     1     -10.660  -0.346   2.504  1.00  0.00    -0.001 C 
ATOM     70  C   UNL     1     -11.475  -1.376   2.791  1.00  0.00     0.001 C 
BRANCH  70  71
ATOM     71  C   UNL     1     -12.420  -1.466   3.906  1.00  0.00    -0.055 C 
ATOM     72  C   UNL     1     -13.408  -0.549   3.966  1.00  0.00    -0.018 C 
ATOM     73  C   UNL     1     -12.227  -2.579   4.902  1.00  0.00     0.044 C 
BRANCH  72  74
ATOM     74  C   UNL     1     -14.521  -0.398   4.994  1.00  0.00     0.038 C 
ATOM     75  C   UNL     1     -13.864  -0.422   6.379  1.00  0.00     0.015 C 
BRANCH  74  76
ATOM     76  C   UNL     1     -15.580  -1.514   4.753  1.00  0.00     0.128 C 
BRANCH  76  77
ATOM     77  O   UNL     1     -16.693  -1.335   5.644  1.00  0.00    -0.381 OA
ATOM     78  C   UNL     1     -16.817  -2.364   6.618  1.00  0.00     0.195 C 
ENDBRANCH  76  77
BRANCH  76  79
ATOM     79  C   UNL     1     -16.014  -1.662   3.273  1.00  0.00     0.068 C 
BRANCH  79  80
ATOM     80  C   UNL     1     -17.443  -2.059   2.991  1.00  0.00    -0.045 A 
ATOM     81  C   UNL     1     -18.365  -1.131   2.491  1.00  0.00     0.004 A 
ATOM     82  C   UNL     1     -17.878  -3.367   3.256  1.00  0.00     0.004 A 
ATOM     83  C   UNL     1     -19.689  -1.504   2.246  1.00  0.00     0.000 A 
ATOM     84  C   UNL     1     -19.202  -3.738   3.012  1.00  0.00     0.000 A 
ATOM     85  C   UNL     1     -20.106  -2.807   2.506  1.00  0.00     0.000 A 
ENDBRANCH  79  80
ENDBRANCH  76  79
ENDBRANCH  74  76
ENDBRANCH  72  74
ENDBRANCH  70  71
ENDBRANCH   1  69
TORSDOF 17
ENDMDL
MODEL 10
REMARK VINA RESULT:    -5.600     11.461     17.594
REMARK INTER + INTRA:         -25.349
REMARK INTER:                 -17.134
REMARK INTRA:                  -8.215
REMARK UNBOUND:                -8.618
REMARK SMILES C=C1C(=O)N[C@H](C)C(=O)N[C@@H](CC(C)C)C(=O)N[C@@H](C(=O)O)[C@H](C)C(=O)N[C@@H](CCCN=C(N)N)C(=O)N[C@@H](/C=C/C(C)=C/[C@H](C)[C@H](Cc2ccccc2)OC)[C@H](C)C(=O)N[C@@H](C(=O)O)CCC(=O)N1C
REMARK SMILES IDX 39 1 38 2 37 3 36 4 28 6 27 7 25 8 26 9 23 11 24 12 19 13
REMARK SMILES IDX 18 14 16 15 17 16 11 18 10 19 8 20 9 21 12 24 13 25 14 26
REMARK SMILES IDX 15 27 20 28 21 29 22 30 29 32 30 33 31 34 32 35 33 36 34 37
REMARK SMILES IDX 35 38 57 43 58 44 59 45 60 46 61 47 62 49 66 50 67 51 68 52
REMARK SMILES IDX 69 53 70 54 71 55 2 56 1 57 3 58 4 59 5 60 6 62 7 63 63 65
REMARK SMILES IDX 64 66 65 67 40 69 41 70 42 71 44 72 43 73 45 74 46 75 47 76
REMARK SMILES IDX 55 77 56 78 48 79 49 80 50 81 54 82 51 83 53 84 52 85
REMARK H PARENT 38 5 27 10 18 17 10 22 22 31 34 39 34 40 35 41 35 42 61 48
REMARK H PARENT 5 61 65 68
REMARK Flexibility Score:  369.900
ROOT
ATOM      1  C   UNL     1      -6.399   3.261  -6.092  1.00  0.00     0.117 C 
ENDROOT
BRANCH   1   2
ATOM      2  N   UNL     1      -7.231   2.662  -5.048  1.00  0.00    -0.347 N 
ATOM      3  O   UNL     1      -6.036   0.722  -4.768  1.00  0.00    -0.273 OA
ATOM      4  C   UNL     1      -6.930   1.478  -4.403  1.00  0.00     0.243 C 
ATOM      5  H   UNL     1      -8.053   3.153  -4.729  1.00  0.00     0.164 HD
BRANCH   4   6
ATOM      6  C   UNL     1      -7.930   1.111  -3.277  1.00  0.00     0.171 C 
BRANCH   6   7
ATOM      7  N   UNL     1      -9.260   0.829  -3.841  1.00  0.00    -0.344 N 
ATOM      8  C   UNL     1     -10.385   1.435  -3.325  1.00  0.00     0.226 C 
ATOM      9  O   UNL     1     -10.342   2.206  -2.374  1.00  0.00    -0.275 OA
ATOM     10  H   UNL     1      -9.343   0.146  -4.583  1.00  0.00     0.164 HD
BRANCH   8  11
ATOM     11  C   UNL     1     -11.672   1.084  -4.050  1.00  0.00     0.109 C 
ATOM     12  C   UNL     1     -11.380   0.760  -5.515  1.00  0.00     0.021 C 
BRANCH  11  13
ATOM     13  C   UNL     1     -12.420  -0.022  -3.279  1.00  0.00     0.204 C 
BRANCH  13  14
ATOM     14  N   UNL     1     -13.826  -0.121  -3.681  1.00  0.00    -0.340 N 
ATOM     15  C   UNL     1     -14.860   0.375  -2.917  1.00  0.00     0.243 C 
ATOM     16  O   UNL     1     -14.671   0.991  -1.870  1.00  0.00    -0.273 OA
ATOM     17  H   UNL     1     -14.061  -0.748  -4.456  1.00  0.00     0.164 HD
BRANCH  15  18
ATOM     18  C   UNL     1     -16.262  -0.028  -3.437  1.00  0.00     0.171 C 
BRANCH  18  19
ATOM     19  N   UNL     1     -16.996   1.215  -3.667  1.00  0.00    -0.343 N 
ATOM     20  C   UNL     1     -18.084   1.573  -2.894  1.00  0.00     0.242 CG0
ATOM     21  O   UNL     1     -18.566   0.803  -2.066  1.00  0.00    -0.273 OA
ATOM     22  H   UNL     1     -16.706   1.832  -4.417  1.00  0.00     0.164 HD
ATOM     23  G   UNL     1     -18.680   2.955  -3.234  1.00  0.00     0.000 G0
ENDBRANCH  18  19
BRANCH  18  24
ATOM     24  C   UNL     1     -16.146  -0.857  -4.721  1.00  0.00     0.038 C 
BRANCH  24  25
ATOM     25  C   UNL     1     -16.700  -2.294  -4.613  1.00  0.00    -0.015 C 
ATOM     26  C   UNL     1     -17.820  -2.566  -5.617  1.00  0.00     0.007 C 
ATOM     27  C   UNL     1     -17.211  -2.543  -3.192  1.00  0.00     0.007 C 
ENDBRANCH  24  25
ENDBRANCH  18  24
ENDBRANCH  15  18
ENDBRANCH  13  14
BRANCH  13  28
ATOM     28  C   UNL     1     -11.798  -1.410  -3.459  1.00  0.00     0.327 C 
ATOM     29  O   UNL     1     -10.702  -1.769  -3.056  1.00  0.00    -0.250 OA
BRANCH  28  30
ATOM     30  O   UNL     1     -12.539  -2.225  -4.236  1.00  0.00    -0.480 OA
ATOM     31  H   UNL     1     -12.831  -2.937  -3.630  1.00  0.00     0.296 HD
ENDBRANCH  28  30
ENDBRANCH  13  28
ENDBRANCH  11  13
ENDBRANCH   8  11
ENDBRANCH   6   7
BRANCH   6  32
ATOM     32  C   UNL     1      -7.395  -0.101  -2.505  1.00  0.00     0.037 C 
BRANCH  32  33
ATOM     33  C   UNL     1      -6.947   0.270  -1.084  1.00  0.00     0.026 C 
BRANCH  33  34
ATOM     34  C   UNL     1      -8.122   0.634  -0.176  1.00  0.00     0.146 C 
BRANCH  34  35
ATOM     35  N   UNL     1      -9.083  -0.461  -0.188  1.00  0.00    -0.254 NA
ATOM     36  C   UNL     1     -10.310  -0.204   0.074  1.00  0.00     0.185 C 
ATOM     37  N   UNL     1     -11.204  -1.205   0.061  1.00  0.00    -0.370 N 
ATOM     38  N   UNL     1     -10.880   0.975   0.379  1.00  0.00    -0.370 N 
ATOM     39  H   UNL     1     -10.853  -2.125  -0.171  1.00  0.00     0.159 HD
ATOM     40  H   UNL     1     -12.199  -1.061   0.083  1.00  0.00     0.159 HD
ATOM     41  H   UNL     1     -11.832   1.025   0.703  1.00  0.00     0.159 HD
ATOM     42  H   UNL     1     -10.323   1.813   0.441  1.00  0.00     0.159 HD
ENDBRANCH  34  35
ENDBRANCH  33  34
ENDBRANCH  32  33
ENDBRANCH   6  32
ENDBRANCH   4   6
ENDBRANCH   1   2
BRANCH   1  43
ATOM     43  C   UNL     1      -5.113   3.836  -5.431  1.00  0.00     0.102 C 
ATOM     44  C   UNL     1      -5.018   5.369  -5.510  1.00  0.00     0.020 C 
BRANCH  43  45
ATOM     45  C   UNL     1      -3.863   3.109  -5.936  1.00  0.00     0.225 C 
ATOM     46  O   UNL     1      -2.722   3.509  -5.722  1.00  0.00    -0.275 OA
ATOM     47  N   UNL     1      -4.097   2.014  -6.736  1.00  0.00    -0.342 N 
ATOM     48  H   UNL     1      -5.023   1.613  -6.777  1.00  0.00     0.164 HD
BRANCH  47  49
ATOM     49  C   UNL     1      -2.997   1.200  -7.262  1.00  0.00     0.192 C 
BRANCH  49  50
ATOM     50  C   UNL     1      -3.330   0.743  -8.685  1.00  0.00     0.047 C 
BRANCH  50  51
ATOM     51  C   UNL     1      -2.159   0.005  -9.348  1.00  0.00     0.103 C 
BRANCH  51  52
ATOM     52  C   UNL     1      -1.068   0.966  -9.819  1.00  0.00     0.226 C 
ATOM     53  O   UNL     1      -1.292   1.727 -10.762  1.00  0.00    -0.275 OA
BRANCH  52  54
ATOM     54  N   UNL     1       0.126   0.971  -9.075  1.00  0.00    -0.311 N 
ATOM     55  C   UNL     1       0.515   2.141  -8.276  1.00  0.00     0.153 C 
BRANCH  54  56
ATOM     56  C   UNL     1       0.987  -0.139  -9.064  1.00  0.00     0.102 C 
ATOM     57  C   UNL     1       1.148  -0.976  -8.027  1.00  0.00     0.043 C 
BRANCH  56  58
ATOM     58  C   UNL     1       1.790  -0.509 -10.289  1.00  0.00     0.268 C 
ATOM     59  O   UNL     1       2.284   0.320 -11.042  1.00  0.00    -0.268 OA
ATOM     60  N   UNL     1       1.964  -1.865 -10.432  1.00  0.00    -0.339 N 
ATOM     61  H   UNL     1       1.514  -2.486  -9.771  1.00  0.00     0.164 HD
BRANCH  60  62
ATOM     62  C   UNL     1       2.763  -2.438 -11.514  1.00  0.00     0.168 CG0
ATOM     63  C   UNL     1       3.787  -3.428 -10.974  1.00  0.00     0.041 C 
ATOM     64  G   UNL     1       3.459  -1.306 -12.298  1.00  0.00     0.000 G0
ENDBRANCH  60  62
ENDBRANCH  56  58
ENDBRANCH  54  56
ENDBRANCH  52  54
ENDBRANCH  51  52
ENDBRANCH  50  51
ENDBRANCH  49  50
BRANCH  49  65
ATOM     65  C   UNL     1      -2.731  -0.030  -6.381  1.00  0.00     0.326 C 
ATOM     66  O   UNL     1      -1.653  -0.333  -5.890  1.00  0.00    -0.250 OA
BRANCH  65  67
ATOM     67  O   UNL     1      -3.797  -0.843  -6.211  1.00  0.00    -0.480 OA
ATOM     68  H   UNL     1      -3.807  -1.012  -5.244  1.00  0.00     0.296 HD
ENDBRANCH  65  67
ENDBRANCH  49  65
ENDBRANCH  47  49
ENDBRANCH  43  45
ENDBRANCH   1  43
BRANCH   1  69
ATOM     69  C   UNL     1      -7.304   4.197  -6.871  1.00  0.00    -0.001 C 
ATOM     70  C   UNL     1      -7.840   3.990  -8.087  1.00  0.00     0.001 C 
BRANCH  70  71
ATOM     71  C   UNL     1      -8.730   4.893  -8.821  1.00  0.00    -0.055 C 
ATOM     72  C   UNL     1      -9.687   5.537  -8.120  1.00  0.00    -0.018 C 
ATOM     73  C   UNL     1      -8.510   5.044 -10.303  1.00  0.00     0.044 C 
BRANCH  72  74
ATOM     74  C   UNL     1     -10.738   6.523  -8.608  1.00  0.00     0.038 C 
ATOM     75  C   UNL     1     -10.386   7.891  -8.011  1.00  0.00     0.015 C 
BRANCH  74  76
ATOM     76  C   UNL     1     -12.148   5.985  -8.221  1.00  0.00     0.128 C 
BRANCH  76  77
ATOM     77  O   UNL     1     -13.020   6.029  -9.363  1.00  0.00    -0.381 OA
ATOM     78  C   UNL     1     -12.342   6.260 -10.591  1.00  0.00     0.195 C 
ENDBRANCH  76  77
BRANCH  76  79
ATOM     79  C   UNL     1     -12.125   4.595  -7.538  1.00  0.00     0.068 C 
BRANCH  79  80
ATOM     80  C   UNL     1     -12.512   4.517  -6.081  1.00  0.00    -0.045 A 
ATOM     81  C   UNL     1     -13.725   3.936  -5.686  1.00  0.00     0.004 A 
ATOM     82  C   UNL     1     -11.670   5.054  -5.095  1.00  0.00     0.004 A 
ATOM     83  C   UNL     1     -14.083   3.881  -4.338  1.00  0.00     0.000 A 
ATOM     84  C   UNL     1     -12.029   4.999  -3.747  1.00  0.00     0.000 A 
ATOM     85  C   UNL     1     -13.234   4.411  -3.368  1.00  0.00     0.000 A 
ENDBRANCH  79  80
ENDBRANCH  76  79
ENDBRANCH  74  76
ENDBRANCH  72  74
ENDBRANCH  70  71
ENDBRANCH   1  69
TORSDOF 17
ENDMDL
