MODEL 1
REMARK VINA RESULT:    -7.156      0.000      0.000
REMARK INTER + INTRA:         -18.078
REMARK INTER:                 -14.477
REMARK INTRA:                  -3.601
REMARK UNBOUND:                -3.601
REMARK SMILES CC[C@@H](C)[C@@H](NC(=O)[C@@H](O)Cc1ccc(O)c(Cl)c1)C(=O)N1[C@H](C(=O)NCCCCN=C(N)N)C[C@H]2CC[C@H](OS(=O)(=O)O)C[C@@H]21
REMARK SMILES IDX 22 1 36 2 46 3 35 4 23 5 45 6 37 7 39 8 38 9 20 10 21 11
REMARK SMILES IDX 5 12 6 13 7 14 8 15 9 17 11 18 12 19 17 20 19 21 15 22 14 23
REMARK SMILES IDX 13 24 18 25 16 26 10 28 3 30 4 31 2 32 1 33 24 34 25 35
REMARK SMILES IDX 26 36 27 38 28 39 29 40 30 41 31 42 32 43 33 44 34 45 40 50
REMARK SMILES IDX 41 51 42 52 43 53 44 54
REMARK H PARENT 6 16 16 27 10 29 26 37 33 46 33 47 34 48 34 49 44 55
ROOT
ATOM      1  N   UNL     1      -5.634  -5.191  -7.596  1.00  0.00    -0.326 N 
ATOM      2  C   UNL     1      -5.884  -7.104  -6.247  1.00  0.00     0.014 C 
ATOM      3  C   UNL     1      -5.558  -5.608  -6.193  1.00  0.00     0.091 C 
ATOM      4  C   UNL     1      -5.265  -7.535  -7.567  1.00  0.00     0.041 C 
ATOM      5  C   UNL     1      -5.732  -6.383  -8.476  1.00  0.00     0.175 C 
ATOM      6  C   UNL     1      -6.499  -4.945  -5.189  1.00  0.00     0.059 C 
ATOM      7  C   UNL     1      -5.462  -7.797  -4.966  1.00  0.00     0.008 C 
ATOM      8  C   UNL     1      -6.906  -5.864  -4.017  1.00  0.00     0.143 C 
ATOM      9  C   UNL     1      -5.846  -6.948  -3.736  1.00  0.00     0.034 C 
ENDROOT
BRANCH   1  10
ATOM     10  C   UNL     1      -5.415  -3.949  -8.166  1.00  0.00     0.246 C 
ATOM     11  O   UNL     1      -6.068  -3.621  -9.163  1.00  0.00    -0.272 OA
BRANCH  10  12
ATOM     12  C   UNL     1      -4.388  -2.977  -7.516  1.00  0.00     0.174 C 
BRANCH  12  13
ATOM     13  N   UNL     1      -4.859  -1.598  -7.639  1.00  0.00    -0.342 N 
ATOM     14  C   UNL     1      -5.160  -0.769  -6.582  1.00  0.00     0.249 C 
ATOM     15  O   UNL     1      -5.039  -1.091  -5.406  1.00  0.00    -0.272 OA
ATOM     16  H   UNL     1      -5.155  -1.246  -8.546  1.00  0.00     0.164 HD
BRANCH  14  17
ATOM     17  C   UNL     1      -5.650   0.623  -7.037  1.00  0.00     0.207 C 
BRANCH  17  18
ATOM     18  C   UNL     1      -7.099   0.547  -7.527  1.00  0.00     0.077 C 
BRANCH  18  19
ATOM     19  C   UNL     1      -7.963  -0.278  -6.599  1.00  0.00    -0.043 A 
ATOM     20  C   UNL     1      -9.205  -2.309  -6.134  1.00  0.00     0.083 A 
ATOM     21  C   UNL     1      -8.367  -1.570  -6.970  1.00  0.00     0.028 A 
ATOM     22  C   UNL     1      -9.645  -1.763  -4.927  1.00  0.00     0.134 A 
ATOM     23  C   UNL     1      -9.253  -0.485  -4.548  1.00  0.00     0.048 A 
ATOM     24  C   UNL     1      -8.416   0.258  -5.384  1.00  0.00     0.008 A 
ATOM     25  Cl  UNL     1      -9.690  -3.895  -6.606  1.00  0.00    -0.080 Cl
BRANCH  22  26
ATOM     26  O   UNL     1     -10.476  -2.445  -4.080  1.00  0.00    -0.506 OA
ATOM     27  H   UNL     1     -10.027  -3.283  -3.861  1.00  0.00     0.293 HD
ENDBRANCH  22  26
ENDBRANCH  18  19
ENDBRANCH  17  18
BRANCH  17  28
ATOM     28  O   UNL     1      -4.819   1.145  -8.086  1.00  0.00    -0.383 OA
ATOM     29  H   UNL     1      -4.263   1.844  -7.671  1.00  0.00     0.211 HD
ENDBRANCH  17  28
ENDBRANCH  14  17
ENDBRANCH  12  13
BRANCH  12  30
ATOM     30  C   UNL     1      -2.950  -3.164  -8.073  1.00  0.00     0.018 C 
ATOM     31  C   UNL     1      -2.069  -1.954  -7.726  1.00  0.00     0.010 C 
BRANCH  30  32
ATOM     32  C   UNL     1      -2.904  -3.436  -9.596  1.00  0.00     0.002 C 
ATOM     33  C   UNL     1      -2.905  -2.195 -10.480  1.00  0.00     0.004 C 
ENDBRANCH  30  32
ENDBRANCH  12  30
ENDBRANCH  10  12
ENDBRANCH   1  10
BRANCH   5  34
ATOM     34  C   UNL     1      -7.192  -6.591  -8.959  1.00  0.00     0.242 C 
ATOM     35  O   UNL     1      -7.986  -7.315  -8.360  1.00  0.00    -0.273 OA
ATOM     36  N   UNL     1      -7.517  -5.951 -10.134  1.00  0.00    -0.354 N 
ATOM     37  H   UNL     1      -6.782  -5.463 -10.647  1.00  0.00     0.163 HD
BRANCH  36  38
ATOM     38  C   UNL     1      -8.881  -5.859 -10.613  1.00  0.00     0.116 C 
BRANCH  38  39
ATOM     39  C   UNL     1      -9.078  -4.545 -11.365  1.00  0.00     0.023 C 
BRANCH  39  40
ATOM     40  C   UNL     1      -9.945  -3.556 -10.594  1.00  0.00     0.026 C 
BRANCH  40  41
ATOM     41  C   UNL     1      -9.081  -2.505  -9.897  1.00  0.00     0.146 C 
BRANCH  41  42
ATOM     42  N   UNL     1      -9.103  -1.265 -10.661  1.00  0.00    -0.254 NA
ATOM     43  C   UNL     1      -8.000  -0.725 -11.023  1.00  0.00     0.185 C 
ATOM     44  N   UNL     1      -6.732  -1.123 -10.815  1.00  0.00    -0.370 N 
ATOM     45  N   UNL     1      -8.042   0.421 -11.723  1.00  0.00    -0.370 N 
ATOM     46  H   UNL     1      -5.966  -0.483 -10.940  1.00  0.00     0.159 HD
ATOM     47  H   UNL     1      -6.518  -1.979 -10.313  1.00  0.00     0.159 HD
ATOM     48  H   UNL     1      -8.961   0.786 -11.931  1.00  0.00     0.159 HD
ATOM     49  H   UNL     1      -7.255   0.773 -12.238  1.00  0.00     0.159 HD
ENDBRANCH  41  42
ENDBRANCH  40  41
ENDBRANCH  39  40
ENDBRANCH  38  39
ENDBRANCH  36  38
ENDBRANCH   5  34
BRANCH   8  50
ATOM     50  O   UNL     1      -8.147  -6.509  -4.309  1.00  0.00    -0.245 OA
BRANCH  50  51
ATOM     51  S   UNL     1      -9.387  -6.372  -3.265  1.00  0.00     0.397 S 
ATOM     52  O   UNL     1     -10.394  -5.534  -3.876  1.00  0.00    -0.169 OA
ATOM     53  O   UNL     1      -8.877  -6.101  -1.937  1.00  0.00    -0.169 OA
BRANCH  51  54
ATOM     54  O   UNL     1      -9.995  -7.860  -3.269  1.00  0.00    -0.264 OA
ATOM     55  H   UNL     1     -10.488  -7.979  -4.106  1.00  0.00     0.236 HD
ENDBRANCH  51  54
ENDBRANCH  50  51
ENDBRANCH   8  50
TORSDOF 19
ENDMDL
MODEL 2
REMARK VINA RESULT:    -7.083     13.624     17.474
REMARK INTER + INTRA:         -17.929
REMARK INTER:                 -13.674
REMARK INTRA:                  -4.256
REMARK UNBOUND:                -3.601
REMARK SMILES CC[C@@H](C)[C@@H](NC(=O)[C@@H](O)Cc1ccc(O)c(Cl)c1)C(=O)N1[C@H](C(=O)NCCCCN=C(N)N)C[C@H]2CC[C@H](OS(=O)(=O)O)C[C@@H]21
REMARK SMILES IDX 22 1 36 2 46 3 35 4 23 5 45 6 37 7 39 8 38 9 20 10 21 11
REMARK SMILES IDX 5 12 6 13 7 14 8 15 9 17 11 18 12 19 17 20 19 21 15 22 14 23
REMARK SMILES IDX 13 24 18 25 16 26 10 28 3 30 4 31 2 32 1 33 24 34 25 35
REMARK SMILES IDX 26 36 27 38 28 39 29 40 30 41 31 42 32 43 33 44 34 45 40 50
REMARK SMILES IDX 41 51 42 52 43 53 44 54
REMARK H PARENT 6 16 16 27 10 29 26 37 33 46 33 47 34 48 34 49 44 55
ROOT
ATOM      1  N   UNL     1     -13.335  -6.431   6.433  1.00  0.00    -0.326 N 
ATOM      2  C   UNL     1     -13.850  -5.956   8.680  1.00  0.00     0.014 C 
ATOM      3  C   UNL     1     -14.241  -6.855   7.504  1.00  0.00     0.091 C 
ATOM      4  C   UNL     1     -13.476  -4.651   7.994  1.00  0.00     0.041 C 
ATOM      5  C   UNL     1     -12.625  -5.190   6.829  1.00  0.00     0.175 C 
ATOM      6  C   UNL     1     -14.185  -8.309   7.968  1.00  0.00     0.059 C 
ATOM      7  C   UNL     1     -14.931  -5.953   9.743  1.00  0.00     0.008 C 
ATOM      8  C   UNL     1     -14.537  -8.499   9.459  1.00  0.00     0.143 C 
ATOM      9  C   UNL     1     -15.461  -7.382   9.983  1.00  0.00     0.034 C 
ENDROOT
BRANCH   1  10
ATOM     10  C   UNL     1     -13.235  -6.877   5.126  1.00  0.00     0.246 C 
ATOM     11  O   UNL     1     -14.097  -6.539   4.308  1.00  0.00    -0.272 OA
BRANCH  10  12
ATOM     12  C   UNL     1     -12.021  -7.755   4.705  1.00  0.00     0.174 C 
BRANCH  12  13
ATOM     13  N   UNL     1     -11.652  -8.652   5.800  1.00  0.00    -0.342 N 
ATOM     14  C   UNL     1     -11.983  -9.987   5.874  1.00  0.00     0.249 C 
ATOM     15  O   UNL     1     -12.609 -10.583   5.006  1.00  0.00    -0.272 OA
ATOM     16  H   UNL     1     -11.270  -8.267   6.660  1.00  0.00     0.164 HD
BRANCH  14  17
ATOM     17  C   UNL     1     -11.463 -10.659   7.162  1.00  0.00     0.207 C 
BRANCH  17  18
ATOM     18  C   UNL     1      -9.931 -10.671   7.179  1.00  0.00     0.077 C 
BRANCH  18  19
ATOM     19  C   UNL     1      -9.371  -9.628   8.120  1.00  0.00    -0.043 A 
ATOM     20  C   UNL     1      -7.674  -7.984   8.668  1.00  0.00     0.083 A 
ATOM     21  C   UNL     1      -8.216  -8.910   7.776  1.00  0.00     0.028 A 
ATOM     22  C   UNL     1      -8.279  -7.771   9.907  1.00  0.00     0.134 A 
ATOM     23  C   UNL     1      -9.424  -8.475  10.261  1.00  0.00     0.048 A 
ATOM     24  C   UNL     1      -9.968  -9.404   9.371  1.00  0.00     0.008 A 
ATOM     25  Cl  UNL     1      -6.253  -7.112   8.226  1.00  0.00    -0.080 Cl
BRANCH  22  26
ATOM     26  O   UNL     1      -7.778  -6.882  10.819  1.00  0.00    -0.506 OA
ATOM     27  H   UNL     1      -6.940  -6.545  10.450  1.00  0.00     0.293 HD
ENDBRANCH  22  26
ENDBRANCH  18  19
ENDBRANCH  17  18
BRANCH  17  28
ATOM     28  O   UNL     1     -11.951 -12.005   7.277  1.00  0.00    -0.383 OA
ATOM     29  H   UNL     1     -12.388 -12.210   6.419  1.00  0.00     0.211 HD
ENDBRANCH  17  28
ENDBRANCH  14  17
ENDBRANCH  12  13
BRANCH  12  30
ATOM     30  C   UNL     1     -10.819  -6.914   4.198  1.00  0.00     0.018 C 
ATOM     31  C   UNL     1     -10.828  -6.818   2.664  1.00  0.00     0.010 C 
BRANCH  30  32
ATOM     32  C   UNL     1      -9.446  -7.432   4.690  1.00  0.00     0.002 C 
ATOM     33  C   UNL     1      -8.274  -7.160   3.756  1.00  0.00     0.004 C 
ENDBRANCH  30  32
ENDBRANCH  12  30
ENDBRANCH  10  12
ENDBRANCH   1  10
BRANCH   5  34
ATOM     34  C   UNL     1     -11.173  -5.505   7.279  1.00  0.00     0.242 C 
ATOM     35  O   UNL     1     -10.861  -6.583   7.786  1.00  0.00    -0.273 OA
ATOM     36  N   UNL     1     -10.274  -4.475   7.120  1.00  0.00    -0.354 N 
ATOM     37  H   UNL     1     -10.618  -3.566   6.806  1.00  0.00     0.163 HD
BRANCH  36  38
ATOM     38  C   UNL     1      -8.847  -4.662   7.282  1.00  0.00     0.116 C 
BRANCH  38  39
ATOM     39  C   UNL     1      -8.356  -3.875   8.495  1.00  0.00     0.023 C 
BRANCH  39  40
ATOM     40  C   UNL     1      -6.917  -3.396   8.335  1.00  0.00     0.026 C 
BRANCH  40  41
ATOM     41  C   UNL     1      -6.084  -3.763   9.563  1.00  0.00     0.146 C 
BRANCH  41  42
ATOM     42  N   UNL     1      -6.379  -2.842  10.652  1.00  0.00    -0.254 NA
ATOM     43  C   UNL     1      -6.501  -3.290  11.845  1.00  0.00     0.185 C 
ATOM     44  N   UNL     1      -6.398  -4.548  12.311  1.00  0.00    -0.370 N 
ATOM     45  N   UNL     1      -6.778  -2.425  12.834  1.00  0.00    -0.370 N 
ATOM     46  H   UNL     1      -6.756  -4.789  13.219  1.00  0.00     0.159 HD
ATOM     47  H   UNL     1      -6.178  -5.327  11.698  1.00  0.00     0.159 HD
ATOM     48  H   UNL     1      -6.863  -1.453  12.570  1.00  0.00     0.159 HD
ATOM     49  H   UNL     1      -6.655  -2.652  13.805  1.00  0.00     0.159 HD
ENDBRANCH  41  42
ENDBRANCH  40  41
ENDBRANCH  39  40
ENDBRANCH  38  39
ENDBRANCH  36  38
ENDBRANCH   5  34
BRANCH   8  50
ATOM     50  O   UNL     1     -13.345  -8.509  10.246  1.00  0.00    -0.245 OA
BRANCH  50  51
ATOM     51  S   UNL     1     -13.229  -9.520  11.515  1.00  0.00     0.397 S 
ATOM     52  O   UNL     1     -14.569  -9.847  11.949  1.00  0.00    -0.169 OA
ATOM     53  O   UNL     1     -12.229  -9.028  12.439  1.00  0.00    -0.169 OA
BRANCH  51  54
ATOM     54  O   UNL     1     -12.654 -10.856  10.828  1.00  0.00    -0.264 OA
ATOM     55  H   UNL     1     -12.624 -10.705   9.861  1.00  0.00     0.236 HD
ENDBRANCH  51  54
ENDBRANCH  50  51
ENDBRANCH   8  50
TORSDOF 19
ENDMDL
MODEL 3
REMARK VINA RESULT:    -6.653     11.009     14.344
REMARK INTER + INTRA:         -17.061
REMARK INTER:                 -12.627
REMARK INTRA:                  -4.434
REMARK UNBOUND:                -3.601
REMARK SMILES CC[C@@H](C)[C@@H](NC(=O)[C@@H](O)Cc1ccc(O)c(Cl)c1)C(=O)N1[C@H](C(=O)NCCCCN=C(N)N)C[C@H]2CC[C@H](OS(=O)(=O)O)C[C@@H]21
REMARK SMILES IDX 22 1 36 2 46 3 35 4 23 5 45 6 37 7 39 8 38 9 20 10 21 11
REMARK SMILES IDX 5 12 6 13 7 14 8 15 9 17 11 18 12 19 17 20 19 21 15 22 14 23
REMARK SMILES IDX 13 24 18 25 16 26 10 28 3 30 4 31 2 32 1 33 24 34 25 35
REMARK SMILES IDX 26 36 27 38 28 39 29 40 30 41 31 42 32 43 33 44 34 45 40 50
REMARK SMILES IDX 41 51 42 52 43 53 44 54
REMARK H PARENT 6 16 16 27 10 29 26 37 33 46 33 47 34 48 34 49 44 55
ROOT
ATOM      1  N   UNL     1     -10.711  -7.289   5.218  1.00  0.00    -0.326 N 
ATOM      2  C   UNL     1     -12.794  -6.728   4.275  1.00  0.00     0.014 C 
ATOM      3  C   UNL     1     -11.506  -6.119   4.837  1.00  0.00     0.091 C 
ATOM      4  C   UNL     1     -12.984  -7.965   5.140  1.00  0.00     0.041 C 
ATOM      5  C   UNL     1     -11.545  -8.515   5.149  1.00  0.00     0.175 C 
ATOM      6  C   UNL     1     -10.931  -5.160   3.795  1.00  0.00     0.059 C 
ATOM      7  C   UNL     1     -13.899  -5.692   4.206  1.00  0.00     0.008 C 
ATOM      8  C   UNL     1     -12.005  -4.466   2.930  1.00  0.00     0.143 C 
ATOM      9  C   UNL     1     -13.357  -4.353   3.664  1.00  0.00     0.034 C 
ENDROOT
BRANCH   1  10
ATOM     10  C   UNL     1      -9.457  -7.359   5.800  1.00  0.00     0.246 C 
ATOM     11  O   UNL     1      -8.475  -7.592   5.087  1.00  0.00    -0.272 OA
BRANCH  10  12
ATOM     12  C   UNL     1      -9.305  -7.103   7.327  1.00  0.00     0.174 C 
BRANCH  12  13
ATOM     13  N   UNL     1     -10.578  -6.650   7.886  1.00  0.00    -0.342 N 
ATOM     14  C   UNL     1     -11.260  -7.274   8.907  1.00  0.00     0.249 C 
ATOM     15  O   UNL     1     -10.856  -8.275   9.485  1.00  0.00    -0.272 OA
ATOM     16  H   UNL     1     -11.111  -5.928   7.407  1.00  0.00     0.164 HD
BRANCH  14  17
ATOM     17  C   UNL     1     -12.584  -6.563   9.260  1.00  0.00     0.207 C 
BRANCH  17  18
ATOM     18  C   UNL     1     -12.951  -5.544   8.177  1.00  0.00     0.077 C 
BRANCH  18  19
ATOM     19  C   UNL     1     -14.437  -5.536   7.894  1.00  0.00    -0.043 A 
ATOM     20  C   UNL     1     -16.591  -6.651   7.931  1.00  0.00     0.083 A 
ATOM     21  C   UNL     1     -15.230  -6.641   8.239  1.00  0.00     0.028 A 
ATOM     22  C   UNL     1     -17.166  -5.560   7.278  1.00  0.00     0.134 A 
ATOM     23  C   UNL     1     -16.393  -4.459   6.930  1.00  0.00     0.048 A 
ATOM     24  C   UNL     1     -15.030  -4.448   7.235  1.00  0.00     0.008 A 
ATOM     25  Cl  UNL     1     -17.549  -8.018   8.363  1.00  0.00    -0.080 Cl
BRANCH  22  26
ATOM     26  O   UNL     1     -18.494  -5.529   6.946  1.00  0.00    -0.506 OA
ATOM     27  H   UNL     1     -18.619  -4.754   6.367  1.00  0.00     0.293 HD
ENDBRANCH  22  26
ENDBRANCH  18  19
ENDBRANCH  17  18
BRANCH  17  28
ATOM     28  O   UNL     1     -12.490  -5.897  10.530  1.00  0.00    -0.383 OA
ATOM     29  H   UNL     1     -12.585  -6.598  11.213  1.00  0.00     0.211 HD
ENDBRANCH  17  28
ENDBRANCH  14  17
ENDBRANCH  12  13
BRANCH  12  30
ATOM     30  C   UNL     1      -8.136  -6.137   7.660  1.00  0.00     0.018 C 
ATOM     31  C   UNL     1      -7.583  -6.413   9.067  1.00  0.00     0.010 C 
BRANCH  30  32
ATOM     32  C   UNL     1      -8.505  -4.641   7.518  1.00  0.00     0.002 C 
ATOM     33  C   UNL     1      -7.568  -3.819   6.642  1.00  0.00     0.004 C 
ENDBRANCH  30  32
ENDBRANCH  12  30
ENDBRANCH  10  12
ENDBRANCH   1  10
BRANCH   5  34
ATOM     34  C   UNL     1     -11.233  -9.321   3.860  1.00  0.00     0.242 C 
ATOM     35  O   UNL     1     -12.117  -9.842   3.180  1.00  0.00    -0.273 OA
ATOM     36  N   UNL     1      -9.895  -9.455   3.563  1.00  0.00    -0.354 N 
ATOM     37  H   UNL     1      -9.206  -9.104   4.229  1.00  0.00     0.163 HD
BRANCH  36  38
ATOM     38  C   UNL     1      -9.434  -9.985   2.296  1.00  0.00     0.116 C 
BRANCH  38  39
ATOM     39  C   UNL     1      -8.804  -8.868   1.466  1.00  0.00     0.023 C 
BRANCH  39  40
ATOM     40  C   UNL     1      -9.815  -7.800   1.065  1.00  0.00     0.026 C 
BRANCH  40  41
ATOM     41  C   UNL     1      -9.191  -6.802   0.089  1.00  0.00     0.146 C 
BRANCH  41  42
ATOM     42  N   UNL     1      -7.861  -6.428   0.552  1.00  0.00    -0.254 NA
ATOM     43  C   UNL     1      -7.665  -5.259   1.035  1.00  0.00     0.185 C 
ATOM     44  N   UNL     1      -8.524  -4.238   1.208  1.00  0.00    -0.370 N 
ATOM     45  N   UNL     1      -6.430  -4.932   1.452  1.00  0.00    -0.370 N 
ATOM     46  H   UNL     1      -8.186  -3.305   1.369  1.00  0.00     0.159 HD
ATOM     47  H   UNL     1      -9.505  -4.319   0.958  1.00  0.00     0.159 HD
ATOM     48  H   UNL     1      -5.723  -5.649   1.364  1.00  0.00     0.159 HD
ATOM     49  H   UNL     1      -6.248  -4.144   2.048  1.00  0.00     0.159 HD
ENDBRANCH  41  42
ENDBRANCH  40  41
ENDBRANCH  39  40
ENDBRANCH  38  39
ENDBRANCH  36  38
ENDBRANCH   5  34
BRANCH   8  50
ATOM     50  O   UNL     1     -12.206  -5.196   1.719  1.00  0.00    -0.245 OA
BRANCH  50  51
ATOM     51  S   UNL     1     -12.216  -4.405   0.297  1.00  0.00     0.397 S 
ATOM     52  O   UNL     1     -12.300  -5.388  -0.759  1.00  0.00    -0.169 OA
ATOM     53  O   UNL     1     -11.192  -3.382   0.303  1.00  0.00    -0.169 OA
BRANCH  51  54
ATOM     54  O   UNL     1     -13.648  -3.675   0.330  1.00  0.00    -0.264 OA
ATOM     55  H   UNL     1     -13.663  -3.083   1.109  1.00  0.00     0.236 HD
ENDBRANCH  51  54
ENDBRANCH  50  51
ENDBRANCH   8  50
TORSDOF 19
ENDMDL
MODEL 4
REMARK VINA RESULT:    -6.600     11.933     15.721
REMARK INTER + INTRA:         -16.954
REMARK INTER:                 -14.132
REMARK INTRA:                  -2.822
REMARK UNBOUND:                -3.601
REMARK SMILES CC[C@@H](C)[C@@H](NC(=O)[C@@H](O)Cc1ccc(O)c(Cl)c1)C(=O)N1[C@H](C(=O)NCCCCN=C(N)N)C[C@H]2CC[C@H](OS(=O)(=O)O)C[C@@H]21
REMARK SMILES IDX 22 1 36 2 46 3 35 4 23 5 45 6 37 7 39 8 38 9 20 10 21 11
REMARK SMILES IDX 5 12 6 13 7 14 8 15 9 17 11 18 12 19 17 20 19 21 15 22 14 23
REMARK SMILES IDX 13 24 18 25 16 26 10 28 3 30 4 31 2 32 1 33 24 34 25 35
REMARK SMILES IDX 26 36 27 38 28 39 29 40 30 41 31 42 32 43 33 44 34 45 40 50
REMARK SMILES IDX 41 51 42 52 43 53 44 54
REMARK H PARENT 6 16 16 27 10 29 26 37 33 46 33 47 34 48 34 49 44 55
ROOT
ATOM      1  N   UNL     1     -12.893  -7.378   7.111  1.00  0.00    -0.326 N 
ATOM      2  C   UNL     1     -13.728  -6.176   8.955  1.00  0.00     0.014 C 
ATOM      3  C   UNL     1     -14.125  -7.197   7.885  1.00  0.00     0.091 C 
ATOM      4  C   UNL     1     -12.739  -5.285   8.219  1.00  0.00     0.041 C 
ATOM      5  C   UNL     1     -11.893  -6.353   7.501  1.00  0.00     0.175 C 
ATOM      6  C   UNL     1     -14.729  -8.415   8.580  1.00  0.00     0.059 C 
ATOM      7  C   UNL     1     -14.955  -5.555   9.594  1.00  0.00     0.008 C 
ATOM      8  C   UNL     1     -15.480  -8.077   9.887  1.00  0.00     0.143 C 
ATOM      9  C   UNL     1     -16.020  -6.632   9.886  1.00  0.00     0.034 C 
ENDROOT
BRANCH   1  10
ATOM     10  C   UNL     1     -12.650  -8.170   6.002  1.00  0.00     0.246 C 
ATOM     11  O   UNL     1     -12.341  -9.355   6.167  1.00  0.00    -0.272 OA
BRANCH  10  12
ATOM     12  C   UNL     1     -12.812  -7.566   4.577  1.00  0.00     0.174 C 
BRANCH  12  13
ATOM     13  N   UNL     1     -11.621  -7.850   3.777  1.00  0.00    -0.342 N 
ATOM     14  C   UNL     1     -11.439  -8.974   3.003  1.00  0.00     0.249 C 
ATOM     15  O   UNL     1     -12.277  -9.858   2.877  1.00  0.00    -0.272 OA
ATOM     16  H   UNL     1     -10.783  -7.288   3.904  1.00  0.00     0.164 HD
BRANCH  14  17
ATOM     17  C   UNL     1     -10.069  -8.991   2.292  1.00  0.00     0.207 C 
BRANCH  17  18
ATOM     18  C   UNL     1     -10.163  -8.291   0.932  1.00  0.00     0.077 C 
BRANCH  18  19
ATOM     19  C   UNL     1      -9.167  -7.160   0.813  1.00  0.00    -0.043 A 
ATOM     20  C   UNL     1      -8.676  -4.831   0.342  1.00  0.00     0.083 A 
ATOM     21  C   UNL     1      -9.603  -5.863   0.500  1.00  0.00     0.028 A 
ATOM     22  C   UNL     1      -7.313  -5.087   0.495  1.00  0.00     0.134 A 
ATOM     23  C   UNL     1      -6.868  -6.367   0.805  1.00  0.00     0.048 A 
ATOM     24  C   UNL     1      -7.792  -7.402   0.962  1.00  0.00     0.008 A 
ATOM     25  Cl  UNL     1      -9.231  -3.244  -0.043  1.00  0.00    -0.080 Cl
BRANCH  22  26
ATOM     26  O   UNL     1      -6.367  -4.111   0.339  1.00  0.00    -0.506 OA
ATOM     27  H   UNL     1      -6.824  -3.334  -0.034  1.00  0.00     0.293 HD
ENDBRANCH  22  26
ENDBRANCH  18  19
ENDBRANCH  17  18
BRANCH  17  28
ATOM     28  O   UNL     1      -9.601 -10.337   2.104  1.00  0.00    -0.383 OA
ATOM     29  H   UNL     1     -10.384 -10.860   1.818  1.00  0.00     0.211 HD
ENDBRANCH  17  28
ENDBRANCH  14  17
ENDBRANCH  12  13
BRANCH  12  30
ATOM     30  C   UNL     1     -13.162  -6.054   4.603  1.00  0.00     0.018 C 
ATOM     31  C   UNL     1     -14.550  -5.803   3.993  1.00  0.00     0.010 C 
BRANCH  30  32
ATOM     32  C   UNL     1     -12.106  -5.160   3.908  1.00  0.00     0.002 C 
ATOM     33  C   UNL     1     -12.519  -4.597   2.554  1.00  0.00     0.004 C 
ENDBRANCH  30  32
ENDBRANCH  12  30
ENDBRANCH  10  12
ENDBRANCH   1  10
BRANCH   5  34
ATOM     34  C   UNL     1     -10.821  -6.962   8.444  1.00  0.00     0.242 C 
ATOM     35  O   UNL     1     -11.034  -7.162   9.640  1.00  0.00    -0.273 OA
ATOM     36  N   UNL     1      -9.600  -7.210   7.859  1.00  0.00    -0.354 N 
ATOM     37  H   UNL     1      -9.447  -6.911   6.895  1.00  0.00     0.163 HD
BRANCH  36  38
ATOM     38  C   UNL     1      -8.562  -7.968   8.527  1.00  0.00     0.116 C 
BRANCH  38  39
ATOM     39  C   UNL     1      -7.400  -7.048   8.892  1.00  0.00     0.023 C 
BRANCH  39  40
ATOM     40  C   UNL     1      -6.758  -6.406   7.666  1.00  0.00     0.026 C 
BRANCH  40  41
ATOM     41  C   UNL     1      -6.657  -4.891   7.838  1.00  0.00     0.146 C 
BRANCH  41  42
ATOM     42  N   UNL     1      -7.365  -4.224   6.753  1.00  0.00    -0.254 NA
ATOM     43  C   UNL     1      -8.503  -3.683   6.979  1.00  0.00     0.185 C 
ATOM     44  N   UNL     1      -9.217  -3.610   8.117  1.00  0.00    -0.370 N 
ATOM     45  N   UNL     1      -9.142  -3.077   5.964  1.00  0.00    -0.370 N 
ATOM     46  H   UNL     1     -10.194  -3.374   8.096  1.00  0.00     0.159 HD
ATOM     47  H   UNL     1      -8.874  -4.006   8.987  1.00  0.00     0.159 HD
ATOM     48  H   UNL     1      -8.668  -3.078   5.071  1.00  0.00     0.159 HD
ATOM     49  H   UNL     1      -9.904  -2.437   6.106  1.00  0.00     0.159 HD
ENDBRANCH  41  42
ENDBRANCH  40  41
ENDBRANCH  39  40
ENDBRANCH  38  39
ENDBRANCH  36  38
ENDBRANCH   5  34
BRANCH   8  50
ATOM     50  O   UNL     1     -14.609  -8.235  11.007  1.00  0.00    -0.245 OA
BRANCH  50  51
ATOM     51  S   UNL     1     -14.234  -9.729  11.528  1.00  0.00     0.397 S 
ATOM     52  O   UNL     1     -13.042 -10.158  10.831  1.00  0.00    -0.169 OA
ATOM     53  O   UNL     1     -15.429 -10.546  11.563  1.00  0.00    -0.169 OA
BRANCH  51  54
ATOM     54  O   UNL     1     -13.778  -9.452  13.045  1.00  0.00    -0.264 OA
ATOM     55  H   UNL     1     -14.535  -9.665  13.628  1.00  0.00     0.236 HD
ENDBRANCH  51  54
ENDBRANCH  50  51
ENDBRANCH   8  50
TORSDOF 19
ENDMDL
MODEL 5
REMARK VINA RESULT:    -6.533      3.512      6.061
REMARK INTER + INTRA:         -16.817
REMARK INTER:                 -13.129
REMARK INTRA:                  -3.688
REMARK UNBOUND:                -3.601
REMARK SMILES CC[C@@H](C)[C@@H](NC(=O)[C@@H](O)Cc1ccc(O)c(Cl)c1)C(=O)N1[C@H](C(=O)NCCCCN=C(N)N)C[C@H]2CC[C@H](OS(=O)(=O)O)C[C@@H]21
REMARK SMILES IDX 22 1 36 2 46 3 35 4 23 5 45 6 37 7 39 8 38 9 20 10 21 11
REMARK SMILES IDX 5 12 6 13 7 14 8 15 9 17 11 18 12 19 17 20 19 21 15 22 14 23
REMARK SMILES IDX 13 24 18 25 16 26 10 28 3 30 4 31 2 32 1 33 24 34 25 35
REMARK SMILES IDX 26 36 27 38 28 39 29 40 30 41 31 42 32 43 33 44 34 45 40 50
REMARK SMILES IDX 41 51 42 52 43 53 44 54
REMARK H PARENT 6 16 16 27 10 29 26 37 33 46 33 47 34 48 34 49 44 55
ROOT
ATOM      1  N   UNL     1      -6.628  -3.438  -9.890  1.00  0.00    -0.326 N 
ATOM      2  C   UNL     1      -7.972  -5.322  -9.458  1.00  0.00     0.014 C 
ATOM      3  C   UNL     1      -6.516  -4.853  -9.523  1.00  0.00     0.091 C 
ATOM      4  C   UNL     1      -8.635  -4.510 -10.560  1.00  0.00     0.041 C 
ATOM      5  C   UNL     1      -8.024  -3.124 -10.284  1.00  0.00     0.175 C 
ATOM      6  C   UNL     1      -5.835  -5.206  -8.202  1.00  0.00     0.059 C 
ATOM      7  C   UNL     1      -8.056  -6.835  -9.495  1.00  0.00     0.008 C 
ATOM      8  C   UNL     1      -6.384  -6.491  -7.544  1.00  0.00     0.143 C 
ATOM      9  C   UNL     1      -6.983  -7.463  -8.582  1.00  0.00     0.034 C 
ENDROOT
BRANCH   1  10
ATOM     10  C   UNL     1      -5.637  -2.498 -10.113  1.00  0.00     0.246 C 
ATOM     11  O   UNL     1      -5.608  -1.899 -11.194  1.00  0.00    -0.272 OA
BRANCH  10  12
ATOM     12  C   UNL     1      -4.610  -2.184  -8.986  1.00  0.00     0.174 C 
BRANCH  12  13
ATOM     13  N   UNL     1      -4.669  -0.764  -8.639  1.00  0.00    -0.342 N 
ATOM     14  C   UNL     1      -4.737  -0.267  -7.357  1.00  0.00     0.249 C 
ATOM     15  O   UNL     1      -4.729  -0.967  -6.352  1.00  0.00    -0.272 OA
ATOM     16  H   UNL     1      -4.841  -0.075  -9.366  1.00  0.00     0.164 HD
BRANCH  14  17
ATOM     17  C   UNL     1      -4.806   1.275  -7.320  1.00  0.00     0.207 C 
BRANCH  17  18
ATOM     18  C   UNL     1      -3.470   1.859  -6.848  1.00  0.00     0.077 C 
BRANCH  18  19
ATOM     19  C   UNL     1      -2.488   2.009  -7.988  1.00  0.00    -0.043 A 
ATOM     20  C   UNL     1      -0.228   1.837  -8.853  1.00  0.00     0.083 A 
ATOM     21  C   UNL     1      -1.142   1.651  -7.814  1.00  0.00     0.028 A 
ATOM     22  C   UNL     1      -0.651   2.381 -10.066  1.00  0.00     0.134 A 
ATOM     23  C   UNL     1      -1.981   2.739 -10.251  1.00  0.00     0.048 A 
ATOM     24  C   UNL     1      -2.898   2.556  -9.213  1.00  0.00     0.008 A 
ATOM     25  Cl  UNL     1       1.421   1.391  -8.621  1.00  0.00    -0.080 Cl
BRANCH  22  26
ATOM     26  O   UNL     1       0.210   2.592 -11.109  1.00  0.00    -0.506 OA
ATOM     27  H   UNL     1      -0.276   2.365 -11.923  1.00  0.00     0.293 HD
ENDBRANCH  22  26
ENDBRANCH  18  19
ENDBRANCH  17  18
BRANCH  17  28
ATOM     28  O   UNL     1      -5.857   1.725  -6.450  1.00  0.00    -0.383 OA
ATOM     29  H   UNL     1      -5.546   1.548  -5.533  1.00  0.00     0.211 HD
ENDBRANCH  17  28
ENDBRANCH  14  17
ENDBRANCH  12  13
BRANCH  12  30
ATOM     30  C   UNL     1      -3.171  -2.648  -9.340  1.00  0.00     0.018 C 
ATOM     31  C   UNL     1      -2.618  -3.586  -8.255  1.00  0.00     0.010 C 
BRANCH  30  32
ATOM     32  C   UNL     1      -2.185  -1.481  -9.587  1.00  0.00     0.002 C 
ATOM     33  C   UNL     1      -2.243  -0.863 -10.978  1.00  0.00     0.004 C 
ENDBRANCH  30  32
ENDBRANCH  12  30
ENDBRANCH  10  12
ENDBRANCH   1  10
BRANCH   5  34
ATOM     34  C   UNL     1      -8.767  -2.390  -9.136  1.00  0.00     0.242 C 
ATOM     35  O   UNL     1      -9.950  -2.059  -9.225  1.00  0.00    -0.273 OA
ATOM     36  N   UNL     1      -7.995  -2.089  -8.036  1.00  0.00    -0.354 N 
ATOM     37  H   UNL     1      -6.994  -2.282  -8.071  1.00  0.00     0.163 HD
BRANCH  36  38
ATOM     38  C   UNL     1      -8.569  -1.604  -6.798  1.00  0.00     0.116 C 
BRANCH  38  39
ATOM     39  C   UNL     1      -9.085  -2.780  -5.971  1.00  0.00     0.023 C 
BRANCH  39  40
ATOM     40  C   UNL     1      -9.744  -2.332  -4.670  1.00  0.00     0.026 C 
BRANCH  40  41
ATOM     41  C   UNL     1      -9.181  -3.111  -3.482  1.00  0.00     0.146 C 
BRANCH  41  42
ATOM     42  N   UNL     1      -7.935  -2.500  -3.037  1.00  0.00    -0.254 NA
ATOM     43  C   UNL     1      -7.724  -2.331  -1.786  1.00  0.00     0.185 C 
ATOM     44  N   UNL     1      -8.498  -2.637  -0.729  1.00  0.00    -0.370 N 
ATOM     45  N   UNL     1      -6.571  -1.761  -1.397  1.00  0.00    -0.370 N 
ATOM     46  H   UNL     1      -8.318  -2.230   0.173  1.00  0.00     0.159 HD
ATOM     47  H   UNL     1      -9.401  -3.088  -0.842  1.00  0.00     0.159 HD
ATOM     48  H   UNL     1      -5.926  -1.507  -2.133  1.00  0.00     0.159 HD
ATOM     49  H   UNL     1      -6.232  -1.810  -0.453  1.00  0.00     0.159 HD
ENDBRANCH  41  42
ENDBRANCH  40  41
ENDBRANCH  39  40
ENDBRANCH  38  39
ENDBRANCH  36  38
ENDBRANCH   5  34
BRANCH   8  50
ATOM     50  O   UNL     1      -7.398  -6.160  -6.595  1.00  0.00    -0.245 OA
BRANCH  50  51
ATOM     51  S   UNL     1      -7.053  -6.196  -5.006  1.00  0.00     0.397 S 
ATOM     52  O   UNL     1      -5.901  -7.049  -4.818  1.00  0.00    -0.169 OA
ATOM     53  O   UNL     1      -8.272  -6.388  -4.248  1.00  0.00    -0.169 OA
BRANCH  51  54
ATOM     54  O   UNL     1      -6.536  -4.696  -4.741  1.00  0.00    -0.264 OA
ATOM     55  H   UNL     1      -6.664  -4.500  -3.791  1.00  0.00     0.236 HD
ENDBRANCH  51  54
ENDBRANCH  50  51
ENDBRANCH   8  50
TORSDOF 19
ENDMDL
MODEL 6
REMARK VINA RESULT:    -6.463     12.634     16.457
REMARK INTER + INTRA:         -16.676
REMARK INTER:                 -11.880
REMARK INTRA:                  -4.797
REMARK UNBOUND:                -3.601
REMARK SMILES CC[C@@H](C)[C@@H](NC(=O)[C@@H](O)Cc1ccc(O)c(Cl)c1)C(=O)N1[C@H](C(=O)NCCCCN=C(N)N)C[C@H]2CC[C@H](OS(=O)(=O)O)C[C@@H]21
REMARK SMILES IDX 22 1 36 2 46 3 35 4 23 5 45 6 37 7 39 8 38 9 20 10 21 11
REMARK SMILES IDX 5 12 6 13 7 14 8 15 9 17 11 18 12 19 17 20 19 21 15 22 14 23
REMARK SMILES IDX 13 24 18 25 16 26 10 28 3 30 4 31 2 32 1 33 24 34 25 35
REMARK SMILES IDX 26 36 27 38 28 39 29 40 30 41 31 42 32 43 33 44 34 45 40 50
REMARK SMILES IDX 41 51 42 52 43 53 44 54
REMARK H PARENT 6 16 16 27 10 29 26 37 33 46 33 47 34 48 34 49 44 55
ROOT
ATOM      1  N   UNL     1     -14.189  -5.450   6.354  1.00  0.00    -0.326 N 
ATOM      2  C   UNL     1     -11.924  -6.060   6.150  1.00  0.00     0.014 C 
ATOM      3  C   UNL     1     -13.347  -6.627   6.121  1.00  0.00     0.091 C 
ATOM      4  C   UNL     1     -12.025  -4.956   7.191  1.00  0.00     0.041 C 
ATOM      5  C   UNL     1     -13.349  -4.297   6.762  1.00  0.00     0.175 C 
ATOM      6  C   UNL     1     -13.531  -7.403   4.818  1.00  0.00     0.059 C 
ATOM      7  C   UNL     1     -10.904  -7.166   6.335  1.00  0.00     0.008 C 
ATOM      8  C   UNL     1     -12.237  -8.072   4.305  1.00  0.00     0.143 C 
ATOM      9  C   UNL     1     -11.252  -8.381   5.450  1.00  0.00     0.034 C 
ENDROOT
BRANCH   1  10
ATOM     10  C   UNL     1     -15.566  -5.350   6.452  1.00  0.00     0.246 C 
ATOM     11  O   UNL     1     -16.229  -5.150   5.429  1.00  0.00    -0.272 OA
BRANCH  10  12
ATOM     12  C   UNL     1     -16.252  -5.534   7.837  1.00  0.00     0.174 C 
BRANCH  12  13
ATOM     13  N   UNL     1     -15.591  -6.605   8.583  1.00  0.00    -0.342 N 
ATOM     14  C   UNL     1     -14.901  -6.437   9.762  1.00  0.00     0.249 C 
ATOM     15  O   UNL     1     -14.786  -5.363  10.338  1.00  0.00    -0.272 OA
ATOM     16  H   UNL     1     -15.467  -7.517   8.150  1.00  0.00     0.164 HD
BRANCH  14  17
ATOM     17  C   UNL     1     -14.301  -7.756  10.294  1.00  0.00     0.207 C 
BRANCH  17  18
ATOM     18  C   UNL     1     -13.774  -8.610   9.136  1.00  0.00     0.077 C 
BRANCH  18  19
ATOM     19  C   UNL     1     -12.276  -8.802   9.216  1.00  0.00    -0.043 A 
ATOM     20  C   UNL     1     -10.303 -10.147   8.791  1.00  0.00     0.083 A 
ATOM     21  C   UNL     1     -11.679  -9.950   8.672  1.00  0.00     0.028 A 
ATOM     22  C   UNL     1      -9.517  -9.203   9.453  1.00  0.00     0.134 A 
ATOM     23  C   UNL     1     -10.095  -8.062   9.996  1.00  0.00     0.048 A 
ATOM     24  C   UNL     1     -11.473  -7.862   9.880  1.00  0.00     0.008 A 
ATOM     25  Cl  UNL     1      -9.587 -11.564   8.117  1.00  0.00    -0.080 Cl
BRANCH  22  26
ATOM     26  O   UNL     1      -8.165  -9.358   9.604  1.00  0.00    -0.506 OA
ATOM     27  H   UNL     1      -7.787  -8.462   9.675  1.00  0.00     0.293 HD
ENDBRANCH  22  26
ENDBRANCH  18  19
ENDBRANCH  17  18
BRANCH  17  28
ATOM     28  O   UNL     1     -15.278  -8.507  11.034  1.00  0.00    -0.383 OA
ATOM     29  H   UNL     1     -14.770  -9.079  11.653  1.00  0.00     0.211 HD
ENDBRANCH  17  28
ENDBRANCH  14  17
ENDBRANCH  12  13
BRANCH  12  30
ATOM     30  C   UNL     1     -17.785  -5.750   7.724  1.00  0.00     0.018 C 
ATOM     31  C   UNL     1     -18.547  -4.703   8.552  1.00  0.00     0.010 C 
BRANCH  30  32
ATOM     32  C   UNL     1     -18.243  -7.175   8.118  1.00  0.00     0.002 C 
ATOM     33  C   UNL     1     -18.908  -7.292   9.483  1.00  0.00     0.004 C 
ENDBRANCH  30  32
ENDBRANCH  12  30
ENDBRANCH  10  12
ENDBRANCH   1  10
BRANCH   5  34
ATOM     34  C   UNL     1     -13.143  -3.319   5.575  1.00  0.00     0.242 C 
ATOM     35  O   UNL     1     -13.898  -3.296   4.603  1.00  0.00    -0.273 OA
ATOM     36  N   UNL     1     -12.027  -2.518   5.664  1.00  0.00    -0.354 N 
ATOM     37  H   UNL     1     -11.375  -2.666   6.435  1.00  0.00     0.163 HD
BRANCH  36  38
ATOM     38  C   UNL     1     -11.799  -1.407   4.762  1.00  0.00     0.116 C 
BRANCH  38  39
ATOM     39  C   UNL     1     -10.620  -1.719   3.843  1.00  0.00     0.023 C 
BRANCH  39  40
ATOM     40  C   UNL     1     -11.030  -1.795   2.376  1.00  0.00     0.026 C 
BRANCH  40  41
ATOM     41  C   UNL     1     -10.641  -3.145   1.774  1.00  0.00     0.146 C 
BRANCH  41  42
ATOM     42  N   UNL     1     -11.636  -3.550   0.790  1.00  0.00    -0.254 NA
ATOM     43  C   UNL     1     -12.594  -4.325   1.139  1.00  0.00     0.185 C 
ATOM     44  N   UNL     1     -12.870  -4.873   2.337  1.00  0.00    -0.370 N 
ATOM     45  N   UNL     1     -13.498  -4.690   0.216  1.00  0.00    -0.370 N 
ATOM     46  H   UNL     1     -13.505  -5.649   2.411  1.00  0.00     0.159 HD
ATOM     47  H   UNL     1     -12.294  -4.690   3.152  1.00  0.00     0.159 HD
ATOM     48  H   UNL     1     -13.368  -4.313  -0.713  1.00  0.00     0.159 HD
ATOM     49  H   UNL     1     -14.389  -5.088   0.455  1.00  0.00     0.159 HD
ENDBRANCH  41  42
ENDBRANCH  40  41
ENDBRANCH  39  40
ENDBRANCH  38  39
ENDBRANCH  36  38
ENDBRANCH   5  34
BRANCH   8  50
ATOM     50  O   UNL     1     -11.585  -7.220   3.363  1.00  0.00    -0.245 OA
BRANCH  50  51
ATOM     51  S   UNL     1     -10.645  -7.872   2.207  1.00  0.00     0.397 S 
ATOM     52  O   UNL     1     -10.936  -9.287   2.140  1.00  0.00    -0.169 OA
ATOM     53  O   UNL     1      -9.289  -7.381   2.348  1.00  0.00    -0.169 OA
BRANCH  51  54
ATOM     54  O   UNL     1     -11.266  -7.233   0.869  1.00  0.00    -0.264 OA
ATOM     55  H   UNL     1     -10.531  -7.083   0.240  1.00  0.00     0.236 HD
ENDBRANCH  51  54
ENDBRANCH  50  51
ENDBRANCH   8  50
TORSDOF 19
ENDMDL
MODEL 7
REMARK VINA RESULT:    -6.460      3.648      6.638
REMARK INTER + INTRA:         -16.670
REMARK INTER:                 -13.212
REMARK INTRA:                  -3.458
REMARK UNBOUND:                -3.601
REMARK SMILES CC[C@@H](C)[C@@H](NC(=O)[C@@H](O)Cc1ccc(O)c(Cl)c1)C(=O)N1[C@H](C(=O)NCCCCN=C(N)N)C[C@H]2CC[C@H](OS(=O)(=O)O)C[C@@H]21
REMARK SMILES IDX 22 1 36 2 46 3 35 4 23 5 45 6 37 7 39 8 38 9 20 10 21 11
REMARK SMILES IDX 5 12 6 13 7 14 8 15 9 17 11 18 12 19 17 20 19 21 15 22 14 23
REMARK SMILES IDX 13 24 18 25 16 26 10 28 3 30 4 31 2 32 1 33 24 34 25 35
REMARK SMILES IDX 26 36 27 38 28 39 29 40 30 41 31 42 32 43 33 44 34 45 40 50
REMARK SMILES IDX 41 51 42 52 43 53 44 54
REMARK H PARENT 6 16 16 27 10 29 26 37 33 46 33 47 34 48 34 49 44 55
ROOT
ATOM      1  N   UNL     1      -7.006  -2.771  -8.979  1.00  0.00    -0.326 N 
ATOM      2  C   UNL     1      -8.539  -4.547  -8.775  1.00  0.00     0.014 C 
ATOM      3  C   UNL     1      -7.176  -4.175  -9.366  1.00  0.00     0.091 C 
ATOM      4  C   UNL     1      -9.328  -3.254  -8.915  1.00  0.00     0.041 C 
ATOM      5  C   UNL     1      -8.277  -2.239  -8.428  1.00  0.00     0.175 C 
ATOM      6  C   UNL     1      -6.144  -5.190  -8.878  1.00  0.00     0.059 C 
ATOM      7  C   UNL     1      -9.074  -5.817  -9.406  1.00  0.00     0.008 C 
ATOM      8  C   UNL     1      -6.722  -6.604  -8.654  1.00  0.00     0.143 C 
ATOM      9  C   UNL     1      -7.956  -6.872  -9.539  1.00  0.00     0.034 C 
ENDROOT
BRANCH   1  10
ATOM     10  C   UNL     1      -5.969  -1.894  -9.250  1.00  0.00     0.246 C 
ATOM     11  O   UNL     1      -6.109  -1.057 -10.147  1.00  0.00    -0.272 OA
BRANCH  10  12
ATOM     12  C   UNL     1      -4.672  -1.954  -8.393  1.00  0.00     0.174 C 
BRANCH  12  13
ATOM     13  N   UNL     1      -4.137  -0.606  -8.203  1.00  0.00    -0.342 N 
ATOM     14  C   UNL     1      -3.842  -0.037  -6.985  1.00  0.00     0.249 C 
ATOM     15  O   UNL     1      -3.971  -0.616  -5.913  1.00  0.00    -0.272 OA
ATOM     16  H   UNL     1      -4.125   0.045  -8.984  1.00  0.00     0.164 HD
BRANCH  14  17
ATOM     17  C   UNL     1      -3.310   1.406  -7.114  1.00  0.00     0.207 C 
BRANCH  17  18
ATOM     18  C   UNL     1      -1.920   1.523  -6.479  1.00  0.00     0.077 C 
BRANCH  18  19
ATOM     19  C   UNL     1      -0.819   1.385  -7.507  1.00  0.00    -0.043 A 
ATOM     20  C   UNL     1       0.899   2.388  -8.895  1.00  0.00     0.083 A 
ATOM     21  C   UNL     1      -0.083   2.510  -7.911  1.00  0.00     0.028 A 
ATOM     22  C   UNL     1       1.149   1.147  -9.481  1.00  0.00     0.134 A 
ATOM     23  C   UNL     1       0.428   0.026  -9.091  1.00  0.00     0.048 A 
ATOM     24  C   UNL     1      -0.557   0.144  -8.107  1.00  0.00     0.008 A 
ATOM     25  Cl  UNL     1       1.793   3.782  -9.378  1.00  0.00    -0.080 Cl
BRANCH  22  26
ATOM     26  O   UNL     1       2.094   0.981 -10.458  1.00  0.00    -0.506 OA
ATOM     27  H   UNL     1       2.736   0.329 -10.119  1.00  0.00     0.293 HD
ENDBRANCH  22  26
ENDBRANCH  18  19
ENDBRANCH  17  18
BRANCH  17  28
ATOM     28  O   UNL     1      -4.200   2.344  -6.489  1.00  0.00    -0.383 OA
ATOM     29  H   UNL     1      -5.027   2.330  -7.022  1.00  0.00     0.211 HD
ENDBRANCH  17  28
ENDBRANCH  14  17
ENDBRANCH  12  13
BRANCH  12  30
ATOM     30  C   UNL     1      -3.616  -2.934  -8.971  1.00  0.00     0.018 C 
ATOM     31  C   UNL     1      -2.910  -3.704  -7.844  1.00  0.00     0.010 C 
BRANCH  30  32
ATOM     32  C   UNL     1      -2.569  -2.252  -9.886  1.00  0.00     0.002 C 
ATOM     33  C   UNL     1      -2.970  -2.122 -11.350  1.00  0.00     0.004 C 
ENDBRANCH  30  32
ENDBRANCH  12  30
ENDBRANCH  10  12
ENDBRANCH   1  10
BRANCH   5  34
ATOM     34  C   UNL     1      -8.220  -2.174  -6.878  1.00  0.00     0.242 C 
ATOM     35  O   UNL     1      -8.083  -3.179  -6.182  1.00  0.00    -0.273 OA
ATOM     36  N   UNL     1      -8.387  -0.918  -6.339  1.00  0.00    -0.354 N 
ATOM     37  H   UNL     1      -8.617  -0.142  -6.961  1.00  0.00     0.163 HD
BRANCH  36  38
ATOM     38  C   UNL     1      -8.149  -0.641  -4.937  1.00  0.00     0.116 C 
BRANCH  38  39
ATOM     39  C   UNL     1      -9.466  -0.295  -4.247  1.00  0.00     0.023 C 
BRANCH  39  40
ATOM     40  C   UNL     1     -10.341  -1.522  -4.013  1.00  0.00     0.026 C 
BRANCH  40  41
ATOM     41  C   UNL     1      -9.886  -2.283  -2.767  1.00  0.00     0.146 C 
BRANCH  41  42
ATOM     42  N   UNL     1      -9.879  -3.714  -3.040  1.00  0.00    -0.254 NA
ATOM     43  C   UNL     1      -8.767  -4.314  -3.244  1.00  0.00     0.185 C 
ATOM     44  N   UNL     1      -7.511  -3.831  -3.251  1.00  0.00    -0.370 N 
ATOM     45  N   UNL     1      -8.782  -5.633  -3.498  1.00  0.00    -0.370 N 
ATOM     46  H   UNL     1      -6.761  -4.358  -3.663  1.00  0.00     0.159 HD
ATOM     47  H   UNL     1      -7.316  -2.852  -3.063  1.00  0.00     0.159 HD
ATOM     48  H   UNL     1      -9.689  -6.078  -3.502  1.00  0.00     0.159 HD
ATOM     49  H   UNL     1      -7.962  -6.209  -3.432  1.00  0.00     0.159 HD
ENDBRANCH  41  42
ENDBRANCH  40  41
ENDBRANCH  39  40
ENDBRANCH  38  39
ENDBRANCH  36  38
ENDBRANCH   5  34
BRANCH   8  50
ATOM     50  O   UNL     1      -7.099  -6.769  -7.287  1.00  0.00    -0.245 OA
BRANCH  50  51
ATOM     51  S   UNL     1      -5.954  -6.763  -6.132  1.00  0.00     0.397 S 
ATOM     52  O   UNL     1      -6.153  -5.589  -5.313  1.00  0.00    -0.169 OA
ATOM     53  O   UNL     1      -4.667  -7.070  -6.721  1.00  0.00    -0.169 OA
BRANCH  51  54
ATOM     54  O   UNL     1      -6.392  -8.013  -5.219  1.00  0.00    -0.264 OA
ATOM     55  H   UNL     1      -5.820  -8.771  -5.457  1.00  0.00     0.236 HD
ENDBRANCH  51  54
ENDBRANCH  50  51
ENDBRANCH   8  50
TORSDOF 19
ENDMDL
MODEL 8
REMARK VINA RESULT:    -6.448      9.193     12.743
REMARK INTER + INTRA:         -16.645
REMARK INTER:                 -12.392
REMARK INTRA:                  -4.252
REMARK UNBOUND:                -3.601
REMARK SMILES CC[C@@H](C)[C@@H](NC(=O)[C@@H](O)Cc1ccc(O)c(Cl)c1)C(=O)N1[C@H](C(=O)NCCCCN=C(N)N)C[C@H]2CC[C@H](OS(=O)(=O)O)C[C@@H]21
REMARK SMILES IDX 22 1 36 2 46 3 35 4 23 5 45 6 37 7 39 8 38 9 20 10 21 11
REMARK SMILES IDX 5 12 6 13 7 14 8 15 9 17 11 18 12 19 17 20 19 21 15 22 14 23
REMARK SMILES IDX 13 24 18 25 16 26 10 28 3 30 4 31 2 32 1 33 24 34 25 35
REMARK SMILES IDX 26 36 27 38 28 39 29 40 30 41 31 42 32 43 33 44 34 45 40 50
REMARK SMILES IDX 41 51 42 52 43 53 44 54
REMARK H PARENT 6 16 16 27 10 29 26 37 33 46 33 47 34 48 34 49 44 55
ROOT
ATOM      1  N   UNL     1     -12.213  -7.990   4.318  1.00  0.00    -0.326 N 
ATOM      2  C   UNL     1     -13.243  -7.096   6.237  1.00  0.00     0.014 C 
ATOM      3  C   UNL     1     -12.871  -8.416   5.557  1.00  0.00     0.091 C 
ATOM      4  C   UNL     1     -13.574  -6.193   5.059  1.00  0.00     0.041 C 
ATOM      5  C   UNL     1     -12.402  -6.531   4.119  1.00  0.00     0.175 C 
ATOM      6  C   UNL     1     -12.073  -9.262   6.547  1.00  0.00     0.059 C 
ATOM      7  C   UNL     1     -14.281  -7.317   7.319  1.00  0.00     0.008 C 
ATOM      8  C   UNL     1     -12.477  -9.041   8.021  1.00  0.00     0.143 C 
ATOM      9  C   UNL     1     -13.938  -8.567   8.156  1.00  0.00     0.034 C 
ENDROOT
BRANCH   1  10
ATOM     10  C   UNL     1     -11.681  -8.748   3.289  1.00  0.00     0.246 C 
ATOM     11  O   UNL     1     -12.241  -9.801   2.966  1.00  0.00    -0.272 OA
BRANCH  10  12
ATOM     12  C   UNL     1     -10.418  -8.239   2.536  1.00  0.00     0.174 C 
BRANCH  12  13
ATOM     13  N   UNL     1     -10.741  -7.992   1.131  1.00  0.00    -0.342 N 
ATOM     14  C   UNL     1     -10.757  -6.753   0.531  1.00  0.00     0.249 C 
ATOM     15  O   UNL     1     -10.472  -5.711   1.108  1.00  0.00    -0.272 OA
ATOM     16  H   UNL     1     -11.147  -8.735   0.569  1.00  0.00     0.164 HD
BRANCH  14  17
ATOM     17  C   UNL     1     -11.154  -6.819  -0.959  1.00  0.00     0.207 C 
BRANCH  17  18
ATOM     18  C   UNL     1     -10.107  -6.110  -1.824  1.00  0.00     0.077 C 
BRANCH  18  19
ATOM     19  C   UNL     1      -8.950  -7.021  -2.167  1.00  0.00    -0.043 A 
ATOM     20  C   UNL     1      -6.710  -7.337  -3.043  1.00  0.00     0.083 A 
ATOM     21  C   UNL     1      -7.757  -6.489  -2.681  1.00  0.00     0.028 A 
ATOM     22  C   UNL     1      -6.847  -8.718  -2.894  1.00  0.00     0.134 A 
ATOM     23  C   UNL     1      -8.022  -9.258  -2.385  1.00  0.00     0.048 A 
ATOM     24  C   UNL     1      -9.073  -8.412  -2.025  1.00  0.00     0.008 A 
ATOM     25  Cl  UNL     1      -5.253  -6.665  -3.673  1.00  0.00    -0.080 Cl
BRANCH  22  26
ATOM     26  O   UNL     1      -5.851  -9.590  -3.244  1.00  0.00    -0.506 OA
ATOM     27  H   UNL     1      -5.391  -9.197  -4.009  1.00  0.00     0.293 HD
ENDBRANCH  22  26
ENDBRANCH  18  19
ENDBRANCH  17  18
BRANCH  17  28
ATOM     28  O   UNL     1     -12.440  -6.218  -1.179  1.00  0.00    -0.383 OA
ATOM     29  H   UNL     1     -12.601  -6.268  -2.149  1.00  0.00     0.211 HD
ENDBRANCH  17  28
ENDBRANCH  14  17
ENDBRANCH  12  13
BRANCH  12  30
ATOM     30  C   UNL     1      -9.197  -9.184   2.706  1.00  0.00     0.018 C 
ATOM     31  C   UNL     1      -7.930  -8.383   3.045  1.00  0.00     0.010 C 
BRANCH  30  32
ATOM     32  C   UNL     1      -8.940 -10.093   1.480  1.00  0.00     0.002 C 
ATOM     33  C   UNL     1      -7.474 -10.346   1.152  1.00  0.00     0.004 C 
ENDBRANCH  30  32
ENDBRANCH  12  30
ENDBRANCH  10  12
ENDBRANCH   1  10
BRANCH   5  34
ATOM     34  C   UNL     1     -11.116  -5.752   4.504  1.00  0.00     0.242 C 
ATOM     35  O   UNL     1     -10.243  -6.239   5.222  1.00  0.00    -0.273 OA
ATOM     36  N   UNL     1     -11.049  -4.462   4.030  1.00  0.00    -0.354 N 
ATOM     37  H   UNL     1     -11.858  -4.075   3.541  1.00  0.00     0.163 HD
BRANCH  36  38
ATOM     38  C   UNL     1      -9.838  -3.671   4.109  1.00  0.00     0.116 C 
BRANCH  38  39
ATOM     39  C   UNL     1     -10.162  -2.201   3.851  1.00  0.00     0.023 C 
BRANCH  39  40
ATOM     40  C   UNL     1     -10.248  -1.875   2.364  1.00  0.00     0.026 C 
BRANCH  40  41
ATOM     41  C   UNL     1     -11.664  -1.443   1.985  1.00  0.00     0.146 C 
BRANCH  41  42
ATOM     42  N   UNL     1     -12.558  -2.593   2.024  1.00  0.00    -0.254 NA
ATOM     43  C   UNL     1     -12.654  -3.355   1.000  1.00  0.00     0.185 C 
ATOM     44  N   UNL     1     -12.036  -3.284  -0.193  1.00  0.00    -0.370 N 
ATOM     45  N   UNL     1     -13.487  -4.407   1.055  1.00  0.00    -0.370 N 
ATOM     46  H   UNL     1     -12.385  -3.799  -0.983  1.00  0.00     0.159 HD
ATOM     47  H   UNL     1     -11.360  -2.555  -0.401  1.00  0.00     0.159 HD
ATOM     48  H   UNL     1     -13.987  -4.539   1.924  1.00  0.00     0.159 HD
ATOM     49  H   UNL     1     -13.443  -5.170   0.403  1.00  0.00     0.159 HD
ENDBRANCH  41  42
ENDBRANCH  40  41
ENDBRANCH  39  40
ENDBRANCH  38  39
ENDBRANCH  36  38
ENDBRANCH   5  34
BRANCH   8  50
ATOM     50  O   UNL     1     -11.626  -8.063   8.621  1.00  0.00    -0.245 OA
BRANCH  50  51
ATOM     51  S   UNL     1     -10.702  -8.476   9.894  1.00  0.00     0.397 S 
ATOM     52  O   UNL     1      -9.949  -9.656   9.535  1.00  0.00    -0.169 OA
ATOM     53  O   UNL     1     -11.492  -8.418  11.107  1.00  0.00    -0.169 OA
BRANCH  51  54
ATOM     54  O   UNL     1      -9.637  -7.272   9.939  1.00  0.00    -0.264 OA
ATOM     55  H   UNL     1     -10.109  -6.447   9.706  1.00  0.00     0.236 HD
ENDBRANCH  51  54
ENDBRANCH  50  51
ENDBRANCH   8  50
TORSDOF 19
ENDMDL
MODEL 9
REMARK VINA RESULT:    -6.429      8.811     11.982
REMARK INTER + INTRA:         -16.608
REMARK INTER:                 -12.711
REMARK INTRA:                  -3.897
REMARK UNBOUND:                -3.601
REMARK SMILES CC[C@@H](C)[C@@H](NC(=O)[C@@H](O)Cc1ccc(O)c(Cl)c1)C(=O)N1[C@H](C(=O)NCCCCN=C(N)N)C[C@H]2CC[C@H](OS(=O)(=O)O)C[C@@H]21
REMARK SMILES IDX 22 1 36 2 46 3 35 4 23 5 45 6 37 7 39 8 38 9 20 10 21 11
REMARK SMILES IDX 5 12 6 13 7 14 8 15 9 17 11 18 12 19 17 20 19 21 15 22 14 23
REMARK SMILES IDX 13 24 18 25 16 26 10 28 3 30 4 31 2 32 1 33 24 34 25 35
REMARK SMILES IDX 26 36 27 38 28 39 29 40 30 41 31 42 32 43 33 44 34 45 40 50
REMARK SMILES IDX 41 51 42 52 43 53 44 54
REMARK H PARENT 6 16 16 27 10 29 26 37 33 46 33 47 34 48 34 49 44 55
ROOT
ATOM      1  N   UNL     1     -10.392  -1.118   0.251  1.00  0.00    -0.326 N 
ATOM      2  C   UNL     1     -10.752  -1.581  -2.029  1.00  0.00     0.014 C 
ATOM      3  C   UNL     1      -9.683  -1.614  -0.932  1.00  0.00     0.091 C 
ATOM      4  C   UNL     1     -11.573  -0.355  -1.659  1.00  0.00     0.041 C 
ATOM      5  C   UNL     1     -11.713  -0.568  -0.140  1.00  0.00     0.175 C 
ATOM      6  C   UNL     1      -9.086  -3.019  -0.883  1.00  0.00     0.059 C 
ATOM      7  C   UNL     1     -10.120  -1.665  -3.404  1.00  0.00     0.008 C 
ATOM      8  C   UNL     1      -9.055  -3.730  -2.253  1.00  0.00     0.143 C 
ATOM      9  C   UNL     1      -9.001  -2.727  -3.424  1.00  0.00     0.034 C 
ENDROOT
BRANCH   1  10
ATOM     10  C   UNL     1      -9.930  -0.910   1.540  1.00  0.00     0.246 C 
ATOM     11  O   UNL     1      -9.816  -1.877   2.301  1.00  0.00    -0.272 OA
BRANCH  10  12
ATOM     12  C   UNL     1      -9.524   0.524   1.987  1.00  0.00     0.174 C 
BRANCH  12  13
ATOM     13  N   UNL     1     -10.339   0.939   3.129  1.00  0.00    -0.342 N 
ATOM     14  C   UNL     1      -9.970   0.816   4.450  1.00  0.00     0.249 C 
ATOM     15  O   UNL     1      -8.893   0.364   4.817  1.00  0.00    -0.272 OA
ATOM     16  H   UNL     1     -11.315   1.185   2.988  1.00  0.00     0.164 HD
BRANCH  14  17
ATOM     17  C   UNL     1     -11.054   1.329   5.421  1.00  0.00     0.207 C 
BRANCH  17  18
ATOM     18  C   UNL     1     -10.549   2.555   6.188  1.00  0.00     0.077 C 
BRANCH  18  19
ATOM     19  C   UNL     1     -11.240   3.823   5.739  1.00  0.00    -0.043 A 
ATOM     20  C   UNL     1     -12.355   5.112   4.013  1.00  0.00     0.083 A 
ATOM     21  C   UNL     1     -11.762   3.923   4.440  1.00  0.00     0.028 A 
ATOM     22  C   UNL     1     -12.429   6.205   4.877  1.00  0.00     0.134 A 
ATOM     23  C   UNL     1     -11.916   6.120   6.166  1.00  0.00     0.048 A 
ATOM     24  C   UNL     1     -11.320   4.932   6.596  1.00  0.00     0.008 A 
ATOM     25  Cl  UNL     1     -12.991   5.215   2.413  1.00  0.00    -0.080 Cl
BRANCH  22  26
ATOM     26  O   UNL     1     -12.992   7.394   4.499  1.00  0.00    -0.506 OA
ATOM     27  H   UNL     1     -13.827   7.177   4.045  1.00  0.00     0.293 HD
ENDBRANCH  22  26
ENDBRANCH  18  19
ENDBRANCH  17  18
BRANCH  17  28
ATOM     28  O   UNL     1     -11.437   0.307   6.355  1.00  0.00    -0.383 OA
ATOM     29  H   UNL     1     -12.416   0.368   6.439  1.00  0.00     0.211 HD
ENDBRANCH  17  28
ENDBRANCH  14  17
ENDBRANCH  12  13
BRANCH  12  30
ATOM     30  C   UNL     1      -9.568   1.550   0.824  1.00  0.00     0.018 C 
ATOM     31  C   UNL     1      -8.153   1.846   0.302  1.00  0.00     0.010 C 
BRANCH  30  32
ATOM     32  C   UNL     1     -10.288   2.872   1.187  1.00  0.00     0.002 C 
ATOM     33  C   UNL     1      -9.378   4.005   1.642  1.00  0.00     0.004 C 
ENDBRANCH  30  32
ENDBRANCH  12  30
ENDBRANCH  10  12
ENDBRANCH   1  10
BRANCH   5  34
ATOM     34  C   UNL     1     -12.848  -1.573   0.194  1.00  0.00     0.242 C 
ATOM     35  O   UNL     1     -14.024  -1.357  -0.098  1.00  0.00    -0.273 OA
ATOM     36  N   UNL     1     -12.452  -2.695   0.886  1.00  0.00    -0.354 N 
ATOM     37  H   UNL     1     -11.484  -2.760   1.205  1.00  0.00     0.163 HD
BRANCH  36  38
ATOM     38  C   UNL     1     -13.330  -3.828   1.090  1.00  0.00     0.116 C 
BRANCH  38  39
ATOM     39  C   UNL     1     -13.422  -4.152   2.579  1.00  0.00     0.023 C 
BRANCH  39  40
ATOM     40  C   UNL     1     -13.876  -2.956   3.409  1.00  0.00     0.026 C 
BRANCH  40  41
ATOM     41  C   UNL     1     -13.472  -3.127   4.873  1.00  0.00     0.146 C 
BRANCH  41  42
ATOM     42  N   UNL     1     -12.235  -2.401   5.131  1.00  0.00    -0.254 NA
ATOM     43  C   UNL     1     -11.162  -3.050   5.387  1.00  0.00     0.185 C 
ATOM     44  N   UNL     1     -10.950  -4.376   5.467  1.00  0.00    -0.370 N 
ATOM     45  N   UNL     1     -10.033  -2.361   5.626  1.00  0.00    -0.370 N 
ATOM     46  H   UNL     1     -10.125  -4.738   5.914  1.00  0.00     0.159 HD
ATOM     47  H   UNL     1     -11.695  -5.045   5.301  1.00  0.00     0.159 HD
ATOM     48  H   UNL     1     -10.103  -1.354   5.577  1.00  0.00     0.159 HD
ATOM     49  H   UNL     1      -9.122  -2.784   5.598  1.00  0.00     0.159 HD
ENDBRANCH  41  42
ENDBRANCH  40  41
ENDBRANCH  39  40
ENDBRANCH  38  39
ENDBRANCH  36  38
ENDBRANCH   5  34
BRANCH   8  50
ATOM     50  O   UNL     1     -10.215  -4.546  -2.409  1.00  0.00    -0.245 OA
BRANCH  50  51
ATOM     51  S   UNL     1     -10.047  -6.112  -2.814  1.00  0.00     0.397 S 
ATOM     52  O   UNL     1     -11.229  -6.515  -3.542  1.00  0.00    -0.169 OA
ATOM     53  O   UNL     1      -9.566  -6.862  -1.672  1.00  0.00    -0.169 OA
BRANCH  51  54
ATOM     54  O   UNL     1      -8.863  -6.052  -3.901  1.00  0.00    -0.264 OA
ATOM     55  H   UNL     1      -8.120  -5.554  -3.505  1.00  0.00     0.236 HD
ENDBRANCH  51  54
ENDBRANCH  50  51
ENDBRANCH   8  50
TORSDOF 19
ENDMDL
MODEL 10
REMARK VINA RESULT:    -6.379      4.153      7.267
REMARK INTER + INTRA:         -16.506
REMARK INTER:                 -13.773
REMARK INTRA:                  -2.732
REMARK UNBOUND:                -3.601
REMARK SMILES CC[C@@H](C)[C@@H](NC(=O)[C@@H](O)Cc1ccc(O)c(Cl)c1)C(=O)N1[C@H](C(=O)NCCCCN=C(N)N)C[C@H]2CC[C@H](OS(=O)(=O)O)C[C@@H]21
REMARK SMILES IDX 22 1 36 2 46 3 35 4 23 5 45 6 37 7 39 8 38 9 20 10 21 11
REMARK SMILES IDX 5 12 6 13 7 14 8 15 9 17 11 18 12 19 17 20 19 21 15 22 14 23
REMARK SMILES IDX 13 24 18 25 16 26 10 28 3 30 4 31 2 32 1 33 24 34 25 35
REMARK SMILES IDX 26 36 27 38 28 39 29 40 30 41 31 42 32 43 33 44 34 45 40 50
REMARK SMILES IDX 41 51 42 52 43 53 44 54
REMARK H PARENT 6 16 16 27 10 29 26 37 33 46 33 47 34 48 34 49 44 55
ROOT
ATOM      1  N   UNL     1      -6.724  -3.862  -7.657  1.00  0.00    -0.326 N 
ATOM      2  C   UNL     1      -7.716  -5.843  -8.454  1.00  0.00     0.014 C 
ATOM      3  C   UNL     1      -6.393  -5.072  -8.416  1.00  0.00     0.091 C 
ATOM      4  C   UNL     1      -8.750  -4.731  -8.535  1.00  0.00     0.041 C 
ATOM      5  C   UNL     1      -8.193  -3.764  -7.474  1.00  0.00     0.175 C 
ATOM      6  C   UNL     1      -5.310  -5.998  -7.865  1.00  0.00     0.059 C 
ATOM      7  C   UNL     1      -7.689  -6.913  -9.528  1.00  0.00     0.008 C 
ATOM      8  C   UNL     1      -5.526  -7.486  -8.219  1.00  0.00     0.143 C 
ATOM      9  C   UNL     1      -6.339  -7.660  -9.518  1.00  0.00     0.034 C 
ENDROOT
BRANCH   1  10
ATOM     10  C   UNL     1      -5.928  -2.781  -7.318  1.00  0.00     0.246 C 
ATOM     11  O   UNL     1      -5.819  -2.465  -6.129  1.00  0.00    -0.272 OA
BRANCH  10  12
ATOM     12  C   UNL     1      -5.157  -2.018  -8.434  1.00  0.00     0.174 C 
BRANCH  12  13
ATOM     13  N   UNL     1      -3.957  -1.396  -7.874  1.00  0.00    -0.342 N 
ATOM     14  C   UNL     1      -2.734  -2.015  -7.744  1.00  0.00     0.249 C 
ATOM     15  O   UNL     1      -2.507  -3.161  -8.113  1.00  0.00    -0.272 OA
ATOM     16  H   UNL     1      -4.031  -0.508  -7.385  1.00  0.00     0.164 HD
BRANCH  14  17
ATOM     17  C   UNL     1      -1.669  -1.101  -7.100  1.00  0.00     0.207 C 
BRANCH  17  18
ATOM     18  C   UNL     1      -0.656  -0.637  -8.151  1.00  0.00     0.077 C 
BRANCH  18  19
ATOM     19  C   UNL     1      -0.346   0.837  -8.019  1.00  0.00    -0.043 A 
ATOM     20  C   UNL     1       1.138   2.717  -8.408  1.00  0.00     0.083 A 
ATOM     21  C   UNL     1       0.830   1.366  -8.574  1.00  0.00     0.028 A 
ATOM     22  C   UNL     1       0.277   3.545  -7.687  1.00  0.00     0.134 A 
ATOM     23  C   UNL     1      -0.891   3.035  -7.133  1.00  0.00     0.048 A 
ATOM     24  C   UNL     1      -1.201   1.683  -7.296  1.00  0.00     0.008 A 
ATOM     25  Cl  UNL     1       2.588   3.348  -9.096  1.00  0.00    -0.080 Cl
BRANCH  22  26
ATOM     26  O   UNL     1       0.542   4.874  -7.489  1.00  0.00    -0.506 OA
ATOM     27  H   UNL     1      -0.224   5.367  -7.837  1.00  0.00     0.293 HD
ENDBRANCH  22  26
ENDBRANCH  18  19
ENDBRANCH  17  18
BRANCH  17  28
ATOM     28  O   UNL     1      -0.978  -1.780  -6.039  1.00  0.00    -0.383 OA
ATOM     29  H   UNL     1      -1.673  -2.080  -5.410  1.00  0.00     0.211 HD
ENDBRANCH  17  28
ENDBRANCH  14  17
ENDBRANCH  12  13
BRANCH  12  30
ATOM     30  C   UNL     1      -6.051  -1.001  -9.193  1.00  0.00     0.018 C 
ATOM     31  C   UNL     1      -6.972  -0.249  -8.219  1.00  0.00     0.010 C 
BRANCH  30  32
ATOM     32  C   UNL     1      -6.887  -1.637 -10.331  1.00  0.00     0.002 C 
ATOM     33  C   UNL     1      -6.210  -2.781 -11.074  1.00  0.00     0.004 C 
ENDBRANCH  30  32
ENDBRANCH  12  30
ENDBRANCH  10  12
ENDBRANCH   1  10
BRANCH   5  34
ATOM     34  C   UNL     1      -8.599  -4.195  -6.039  1.00  0.00     0.242 C 
ATOM     35  O   UNL     1      -9.774  -4.262  -5.680  1.00  0.00    -0.273 OA
ATOM     36  N   UNL     1      -7.549  -4.443  -5.183  1.00  0.00    -0.354 N 
ATOM     37  H   UNL     1      -6.598  -4.254  -5.504  1.00  0.00     0.163 HD
BRANCH  36  38
ATOM     38  C   UNL     1      -7.738  -5.057  -3.886  1.00  0.00     0.116 C 
BRANCH  38  39
ATOM     39  C   UNL     1      -7.269  -6.510  -3.927  1.00  0.00     0.023 C 
BRANCH  39  40
ATOM     40  C   UNL     1      -7.886  -7.353  -2.816  1.00  0.00     0.026 C 
BRANCH  40  41
ATOM     41  C   UNL     1      -7.039  -7.280  -1.545  1.00  0.00     0.146 C 
BRANCH  41  42
ATOM     42  N   UNL     1      -7.744  -6.512  -0.527  1.00  0.00    -0.254 NA
ATOM     43  C   UNL     1      -7.337  -5.337  -0.226  1.00  0.00     0.185 C 
ATOM     44  N   UNL     1      -6.303  -4.627  -0.713  1.00  0.00    -0.370 N 
ATOM     45  N   UNL     1      -7.998  -4.647   0.719  1.00  0.00    -0.370 N 
ATOM     46  H   UNL     1      -5.953  -3.824  -0.218  1.00  0.00     0.159 HD
ATOM     47  H   UNL     1      -5.703  -4.994  -1.446  1.00  0.00     0.159 HD
ATOM     48  H   UNL     1      -8.798  -5.107   1.132  1.00  0.00     0.159 HD
ATOM     49  H   UNL     1      -7.895  -3.656   0.841  1.00  0.00     0.159 HD
ENDBRANCH  41  42
ENDBRANCH  40  41
ENDBRANCH  39  40
ENDBRANCH  38  39
ENDBRANCH  36  38
ENDBRANCH   5  34
BRANCH   8  50
ATOM     50  O   UNL     1      -6.217  -8.147  -7.159  1.00  0.00    -0.245 OA
BRANCH  50  51
ATOM     51  S   UNL     1      -5.806  -9.668  -6.758  1.00  0.00     0.397 S 
ATOM     52  O   UNL     1      -4.403  -9.846  -7.060  1.00  0.00    -0.169 OA
ATOM     53  O   UNL     1      -6.811 -10.589  -7.247  1.00  0.00    -0.169 OA
BRANCH  51  54
ATOM     54  O   UNL     1      -5.907  -9.631  -5.153  1.00  0.00    -0.264 OA
ATOM     55  H   UNL     1      -5.415  -8.843  -4.842  1.00  0.00     0.236 HD
ENDBRANCH  51  54
ENDBRANCH  50  51
ENDBRANCH   8  50
TORSDOF 19
ENDMDL
