MODEL 1
REMARK VINA RESULT:    -6.020      0.000      0.000
REMARK INTER + INTRA:         -16.616
REMARK INTER:                 -12.179
REMARK INTRA:                  -4.436
REMARK UNBOUND:                -4.436
REMARK SMILES CC[C@@H](C)[C@@H](NC(=O)[C@@H](O)Cc1ccc(O)c(Cl)c1)C(=O)N1[C@H](C(=O)NCCCCN=C(N)N)C[C@H]2CC[C@H](OS(=O)(=O)O)C[C@@H]21
REMARK SMILES IDX 22 1 36 2 46 3 35 4 23 5 45 6 37 7 39 8 38 9 20 10 21 11
REMARK SMILES IDX 5 12 6 13 7 14 8 15 9 17 11 18 12 19 17 20 19 21 15 22 14 23
REMARK SMILES IDX 13 24 18 25 16 26 10 28 3 30 4 31 2 32 1 33 24 34 25 35
REMARK SMILES IDX 26 36 27 38 28 39 29 40 30 41 31 42 32 43 33 44 34 45 40 50
REMARK SMILES IDX 41 51 42 52 43 53 44 54
REMARK H PARENT 6 16 16 27 10 29 26 37 33 46 33 47 34 48 34 49 44 55
ROOT
ATOM      1  N   UNL     1      -4.324  -2.650   9.849  1.00  0.00    -0.326 N 
ATOM      2  C   UNL     1      -2.176  -2.307   8.950  1.00  0.00     0.014 C 
ATOM      3  C   UNL     1      -3.378  -3.255   8.906  1.00  0.00     0.091 C 
ATOM      4  C   UNL     1      -2.159  -1.853  10.401  1.00  0.00     0.041 C 
ATOM      5  C   UNL     1      -3.658  -1.568  10.614  1.00  0.00     0.175 C 
ATOM      6  C   UNL     1      -3.811  -3.419   7.451  1.00  0.00     0.059 C 
ATOM      7  C   UNL     1      -0.944  -2.968   8.363  1.00  0.00     0.008 C 
ATOM      8  C   UNL     1      -2.646  -3.326   6.441  1.00  0.00     0.143 C 
ATOM      9  C   UNL     1      -1.300  -3.734   7.072  1.00  0.00     0.034 C 
ENDROOT
BRANCH   1  10
ATOM     10  C   UNL     1      -5.583  -3.076  10.238  1.00  0.00     0.246 C 
ATOM     11  O   UNL     1      -6.579  -2.504   9.782  1.00  0.00    -0.272 OA
BRANCH  10  12
ATOM     12  C   UNL     1      -5.718  -4.287  11.206  1.00  0.00     0.174 C 
BRANCH  12  13
ATOM     13  N   UNL     1      -5.430  -5.530  10.491  1.00  0.00    -0.342 N 
ATOM     14  C   UNL     1      -4.633  -6.548  10.965  1.00  0.00     0.249 C 
ATOM     15  O   UNL     1      -4.093  -6.536  12.065  1.00  0.00    -0.272 OA
ATOM     16  H   UNL     1      -5.679  -5.616   9.509  1.00  0.00     0.164 HD
BRANCH  14  17
ATOM     17  C   UNL     1      -4.509  -7.721   9.970  1.00  0.00     0.207 C 
BRANCH  17  18
ATOM     18  C   UNL     1      -4.691  -7.224   8.532  1.00  0.00     0.077 C 
BRANCH  18  19
ATOM     19  C   UNL     1      -3.483  -7.529   7.675  1.00  0.00    -0.043 A 
ATOM     20  C   UNL     1      -1.397  -8.718   7.328  1.00  0.00     0.083 A 
ATOM     21  C   UNL     1      -2.536  -8.475   8.097  1.00  0.00     0.028 A 
ATOM     22  C   UNL     1      -1.197  -8.019   6.137  1.00  0.00     0.134 A 
ATOM     23  C   UNL     1      -2.127  -7.080   5.707  1.00  0.00     0.048 A 
ATOM     24  C   UNL     1      -3.267  -6.833   6.475  1.00  0.00     0.008 A 
ATOM     25  Cl  UNL     1      -0.244  -9.883   7.864  1.00  0.00    -0.080 Cl
BRANCH  22  26
ATOM     26  O   UNL     1      -0.091  -8.216   5.355  1.00  0.00    -0.506 OA
ATOM     27  H   UNL     1       0.449  -7.407   5.424  1.00  0.00     0.293 HD
ENDBRANCH  22  26
ENDBRANCH  18  19
ENDBRANCH  17  18
BRANCH  17  28
ATOM     28  O   UNL     1      -5.482  -8.741  10.248  1.00  0.00    -0.383 OA
ATOM     29  H   UNL     1      -5.765  -8.600  11.180  1.00  0.00     0.211 HD
ENDBRANCH  17  28
ENDBRANCH  14  17
ENDBRANCH  12  13
BRANCH  12  30
ATOM     30  C   UNL     1      -7.089  -4.325  11.932  1.00  0.00     0.018 C 
ATOM     31  C   UNL     1      -6.902  -4.538  13.442  1.00  0.00     0.010 C 
BRANCH  30  32
ATOM     32  C   UNL     1      -8.065  -5.384  11.363  1.00  0.00     0.002 C 
ATOM     33  C   UNL     1      -9.095  -4.856  10.373  1.00  0.00     0.004 C 
ENDBRANCH  30  32
ENDBRANCH  12  30
ENDBRANCH  10  12
ENDBRANCH   1  10
BRANCH   5  34
ATOM     34  C   UNL     1      -4.059  -0.175  10.061  1.00  0.00     0.242 C 
ATOM     35  O   UNL     1      -4.718  -0.041   9.030  1.00  0.00    -0.273 OA
ATOM     36  N   UNL     1      -3.581   0.899  10.777  1.00  0.00    -0.354 N 
ATOM     37  H   UNL     1      -2.941   0.727  11.554  1.00  0.00     0.163 HD
BRANCH  36  38
ATOM     38  C   UNL     1      -4.032   2.254  10.533  1.00  0.00     0.116 C 
BRANCH  38  39
ATOM     39  C   UNL     1      -2.877   3.096   9.995  1.00  0.00     0.023 C 
BRANCH  39  40
ATOM     40  C   UNL     1      -2.999   3.362   8.498  1.00  0.00     0.026 C 
BRANCH  40  41
ATOM     41  C   UNL     1      -2.357   2.233   7.693  1.00  0.00     0.146 C 
BRANCH  41  42
ATOM     42  N   UNL     1      -1.217   1.693   8.423  1.00  0.00    -0.254 NA
ATOM     43  C   UNL     1      -0.477   0.805   7.874  1.00  0.00     0.185 C 
ATOM     44  N   UNL     1      -0.563   0.238   6.657  1.00  0.00    -0.370 N 
ATOM     45  N   UNL     1       0.566   0.317   8.566  1.00  0.00    -0.370 N 
ATOM     46  H   UNL     1      -0.068  -0.613   6.452  1.00  0.00     0.159 HD
ATOM     47  H   UNL     1      -1.287   0.502   5.996  1.00  0.00     0.159 HD
ATOM     48  H   UNL     1       0.708   0.698   9.492  1.00  0.00     0.159 HD
ATOM     49  H   UNL     1       1.317  -0.190   8.133  1.00  0.00     0.159 HD
ENDBRANCH  41  42
ENDBRANCH  40  41
ENDBRANCH  39  40
ENDBRANCH  38  39
ENDBRANCH  36  38
ENDBRANCH   5  34
BRANCH   8  50
ATOM     50  O   UNL     1      -2.530  -1.991   5.949  1.00  0.00    -0.245 OA
BRANCH  50  51
ATOM     51  S   UNL     1      -2.245  -1.740   4.368  1.00  0.00     0.397 S 
ATOM     52  O   UNL     1      -2.571  -0.364   4.068  1.00  0.00    -0.169 OA
ATOM     53  O   UNL     1      -2.792  -2.836   3.595  1.00  0.00    -0.169 OA
BRANCH  51  54
ATOM     54  O   UNL     1      -0.641  -1.835   4.297  1.00  0.00    -0.264 OA
ATOM     55  H   UNL     1      -0.348  -1.343   3.503  1.00  0.00     0.236 HD
ENDBRANCH  51  54
ENDBRANCH  50  51
ENDBRANCH   8  50
TORSDOF 19
ENDMDL
MODEL 2
REMARK VINA RESULT:    -5.974      1.652      2.106
REMARK INTER + INTRA:         -16.522
REMARK INTER:                 -11.437
REMARK INTRA:                  -5.085
REMARK UNBOUND:                -4.436
REMARK SMILES CC[C@@H](C)[C@@H](NC(=O)[C@@H](O)Cc1ccc(O)c(Cl)c1)C(=O)N1[C@H](C(=O)NCCCCN=C(N)N)C[C@H]2CC[C@H](OS(=O)(=O)O)C[C@@H]21
REMARK SMILES IDX 22 1 36 2 46 3 35 4 23 5 45 6 37 7 39 8 38 9 20 10 21 11
REMARK SMILES IDX 5 12 6 13 7 14 8 15 9 17 11 18 12 19 17 20 19 21 15 22 14 23
REMARK SMILES IDX 13 24 18 25 16 26 10 28 3 30 4 31 2 32 1 33 24 34 25 35
REMARK SMILES IDX 26 36 27 38 28 39 29 40 30 41 31 42 32 43 33 44 34 45 40 50
REMARK SMILES IDX 41 51 42 52 43 53 44 54
REMARK H PARENT 6 16 16 27 10 29 26 37 33 46 33 47 34 48 34 49 44 55
ROOT
ATOM      1  N   UNL     1      -4.709  -2.016   9.511  1.00  0.00    -0.326 N 
ATOM      2  C   UNL     1      -2.409  -2.430   9.229  1.00  0.00     0.014 C 
ATOM      3  C   UNL     1      -3.797  -2.980   8.888  1.00  0.00     0.091 C 
ATOM      4  C   UNL     1      -2.616  -1.832  10.612  1.00  0.00     0.041 C 
ATOM      5  C   UNL     1      -3.950  -1.096  10.394  1.00  0.00     0.175 C 
ATOM      6  C   UNL     1      -3.879  -3.181   7.376  1.00  0.00     0.059 C 
ATOM      7  C   UNL     1      -1.342  -3.488   9.028  1.00  0.00     0.008 C 
ATOM      8  C   UNL     1      -2.530  -3.554   6.724  1.00  0.00     0.143 C 
ATOM      9  C   UNL     1      -1.585  -4.263   7.716  1.00  0.00     0.034 C 
ENDROOT
BRANCH   1  10
ATOM     10  C   UNL     1      -6.093  -2.003   9.553  1.00  0.00     0.246 C 
ATOM     11  O   UNL     1      -6.715  -1.390   8.679  1.00  0.00    -0.272 OA
BRANCH  10  12
ATOM     12  C   UNL     1      -6.834  -2.793  10.670  1.00  0.00     0.174 C 
BRANCH  12  13
ATOM     13  N   UNL     1      -6.822  -4.223  10.362  1.00  0.00    -0.342 N 
ATOM     14  C   UNL     1      -6.611  -5.227  11.280  1.00  0.00     0.249 C 
ATOM     15  O   UNL     1      -6.435  -5.032  12.476  1.00  0.00    -0.272 OA
ATOM     16  H   UNL     1      -6.798  -4.529   9.393  1.00  0.00     0.164 HD
BRANCH  14  17
ATOM     17  C   UNL     1      -6.641  -6.632  10.642  1.00  0.00     0.207 C 
BRANCH  17  18
ATOM     18  C   UNL     1      -6.388  -6.542   9.134  1.00  0.00     0.077 C 
BRANCH  18  19
ATOM     19  C   UNL     1      -5.042  -7.117   8.754  1.00  0.00    -0.043 A 
ATOM     20  C   UNL     1      -3.239  -7.367   7.150  1.00  0.00     0.083 A 
ATOM     21  C   UNL     1      -4.458  -6.795   7.519  1.00  0.00     0.028 A 
ATOM     22  C   UNL     1      -2.600  -8.262   8.009  1.00  0.00     0.134 A 
ATOM     23  C   UNL     1      -3.167  -8.589   9.235  1.00  0.00     0.048 A 
ATOM     24  C   UNL     1      -4.388  -8.020   9.606  1.00  0.00     0.008 A 
ATOM     25  Cl  UNL     1      -2.537  -6.960   5.629  1.00  0.00    -0.080 Cl
BRANCH  22  26
ATOM     26  O   UNL     1      -1.409  -8.855   7.687  1.00  0.00    -0.506 OA
ATOM     27  H   UNL     1      -1.102  -8.437   6.862  1.00  0.00     0.293 HD
ENDBRANCH  22  26
ENDBRANCH  18  19
ENDBRANCH  17  18
BRANCH  17  28
ATOM     28  O   UNL     1      -7.902  -7.280  10.876  1.00  0.00    -0.383 OA
ATOM     29  H   UNL     1      -8.187  -7.004  11.776  1.00  0.00     0.211 HD
ENDBRANCH  17  28
ENDBRANCH  14  17
ENDBRANCH  12  13
BRANCH  12  30
ATOM     30  C   UNL     1      -8.266  -2.256  10.935  1.00  0.00     0.018 C 
ATOM     31  C   UNL     1      -8.549  -2.174  12.444  1.00  0.00     0.010 C 
BRANCH  30  32
ATOM     32  C   UNL     1      -9.377  -3.073  10.230  1.00  0.00     0.002 C 
ATOM     33  C   UNL     1     -10.034  -2.386   9.040  1.00  0.00     0.004 C 
ENDBRANCH  30  32
ENDBRANCH  12  30
ENDBRANCH  10  12
ENDBRANCH   1  10
BRANCH   5  34
ATOM     34  C   UNL     1      -3.739   0.278   9.704  1.00  0.00     0.242 C 
ATOM     35  O   UNL     1      -4.105   0.498   8.549  1.00  0.00    -0.273 OA
ATOM     36  N   UNL     1      -3.066   1.214  10.457  1.00  0.00    -0.354 N 
ATOM     37  H   UNL     1      -2.683   0.935  11.360  1.00  0.00     0.163 HD
BRANCH  36  38
ATOM     38  C   UNL     1      -2.973   2.604  10.059  1.00  0.00     0.116 C 
BRANCH  38  39
ATOM     39  C   UNL     1      -1.506   3.017   9.961  1.00  0.00     0.023 C 
BRANCH  39  40
ATOM     40  C   UNL     1      -1.222   3.868   8.728  1.00  0.00     0.026 C 
BRANCH  40  41
ATOM     41  C   UNL     1      -0.505   3.047   7.656  1.00  0.00     0.146 C 
BRANCH  41  42
ATOM     42  N   UNL     1      -1.483   2.468   6.743  1.00  0.00    -0.254 NA
ATOM     43  C   UNL     1      -1.643   1.199   6.710  1.00  0.00     0.185 C 
ATOM     44  N   UNL     1      -1.031   0.230   7.415  1.00  0.00    -0.370 N 
ATOM     45  N   UNL     1      -2.546   0.685   5.859  1.00  0.00    -0.370 N 
ATOM     46  H   UNL     1      -1.078  -0.729   7.116  1.00  0.00     0.159 HD
ATOM     47  H   UNL     1      -0.328   0.444   8.115  1.00  0.00     0.159 HD
ATOM     48  H   UNL     1      -3.059   1.348   5.295  1.00  0.00     0.159 HD
ATOM     49  H   UNL     1      -2.896  -0.254   5.938  1.00  0.00     0.159 HD
ENDBRANCH  41  42
ENDBRANCH  40  41
ENDBRANCH  39  40
ENDBRANCH  38  39
ENDBRANCH  36  38
ENDBRANCH   5  34
BRANCH   8  50
ATOM     50  O   UNL     1      -1.878  -2.381   6.238  1.00  0.00    -0.245 OA
BRANCH  50  51
ATOM     51  S   UNL     1      -1.302  -2.354   4.717  1.00  0.00     0.397 S 
ATOM     52  O   UNL     1      -2.314  -1.771   3.866  1.00  0.00    -0.169 OA
ATOM     53  O   UNL     1      -0.691  -3.630   4.407  1.00  0.00    -0.169 OA
BRANCH  51  54
ATOM     54  O   UNL     1      -0.132  -1.256   4.821  1.00  0.00    -0.264 OA
ATOM     55  H   UNL     1       0.686  -1.717   5.099  1.00  0.00     0.236 HD
ENDBRANCH  51  54
ENDBRANCH  50  51
ENDBRANCH   8  50
TORSDOF 19
ENDMDL
MODEL 3
REMARK VINA RESULT:    -5.969      2.989      4.334
REMARK INTER + INTRA:         -16.512
REMARK INTER:                 -12.166
REMARK INTRA:                  -4.346
REMARK UNBOUND:                -4.436
REMARK SMILES CC[C@@H](C)[C@@H](NC(=O)[C@@H](O)Cc1ccc(O)c(Cl)c1)C(=O)N1[C@H](C(=O)NCCCCN=C(N)N)C[C@H]2CC[C@H](OS(=O)(=O)O)C[C@@H]21
REMARK SMILES IDX 22 1 36 2 46 3 35 4 23 5 45 6 37 7 39 8 38 9 20 10 21 11
REMARK SMILES IDX 5 12 6 13 7 14 8 15 9 17 11 18 12 19 17 20 19 21 15 22 14 23
REMARK SMILES IDX 13 24 18 25 16 26 10 28 3 30 4 31 2 32 1 33 24 34 25 35
REMARK SMILES IDX 26 36 27 38 28 39 29 40 30 41 31 42 32 43 33 44 34 45 40 50
REMARK SMILES IDX 41 51 42 52 43 53 44 54
REMARK H PARENT 6 16 16 27 10 29 26 37 33 46 33 47 34 48 34 49 44 55
ROOT
ATOM      1  N   UNL     1      -4.156  -2.301   9.212  1.00  0.00    -0.326 N 
ATOM      2  C   UNL     1      -2.036  -2.660  10.172  1.00  0.00     0.014 C 
ATOM      3  C   UNL     1      -3.244  -3.390   9.577  1.00  0.00     0.091 C 
ATOM      4  C   UNL     1      -2.675  -1.467  10.867  1.00  0.00     0.041 C 
ATOM      5  C   UNL     1      -3.670  -1.020   9.780  1.00  0.00     0.175 C 
ATOM      6  C   UNL     1      -2.749  -4.321   8.472  1.00  0.00     0.059 C 
ATOM      7  C   UNL     1      -1.170  -3.611  10.974  1.00  0.00     0.008 C 
ATOM      8  C   UNL     1      -1.334  -4.887   8.723  1.00  0.00     0.143 C 
ATOM      9  C   UNL     1      -0.994  -4.950  10.226  1.00  0.00     0.034 C 
ENDROOT
BRANCH   1  10
ATOM     10  C   UNL     1      -5.418  -2.353   8.647  1.00  0.00     0.246 C 
ATOM     11  O   UNL     1      -5.525  -2.399   7.417  1.00  0.00    -0.272 OA
BRANCH  10  12
ATOM     12  C   UNL     1      -6.671  -2.395   9.570  1.00  0.00     0.174 C 
BRANCH  12  13
ATOM     13  N   UNL     1      -7.074  -3.782   9.800  1.00  0.00    -0.342 N 
ATOM     14  C   UNL     1      -7.110  -4.400  11.030  1.00  0.00     0.249 C 
ATOM     15  O   UNL     1      -6.832  -3.841  12.083  1.00  0.00    -0.272 OA
ATOM     16  H   UNL     1      -7.181  -4.414   9.010  1.00  0.00     0.164 HD
BRANCH  14  17
ATOM     17  C   UNL     1      -7.561  -5.874  10.943  1.00  0.00     0.207 C 
BRANCH  17  18
ATOM     18  C   UNL     1      -7.388  -6.404   9.516  1.00  0.00     0.077 C 
BRANCH  18  19
ATOM     19  C   UNL     1      -6.094  -7.169   9.354  1.00  0.00    -0.043 A 
ATOM     20  C   UNL     1      -4.463  -8.747  10.211  1.00  0.00     0.083 A 
ATOM     21  C   UNL     1      -5.681  -8.079  10.340  1.00  0.00     0.028 A 
ATOM     22  C   UNL     1      -3.651  -8.511   9.102  1.00  0.00     0.134 A 
ATOM     23  C   UNL     1      -4.047  -7.613   8.118  1.00  0.00     0.048 A 
ATOM     24  C   UNL     1      -5.265  -6.941   8.245  1.00  0.00     0.008 A 
ATOM     25  Cl  UNL     1      -3.973  -9.861  11.433  1.00  0.00    -0.080 Cl
BRANCH  22  26
ATOM     26  O   UNL     1      -2.443  -9.134   8.938  1.00  0.00    -0.506 OA
ATOM     27  H   UNL     1      -2.150  -8.942   8.028  1.00  0.00     0.293 HD
ENDBRANCH  22  26
ENDBRANCH  18  19
ENDBRANCH  17  18
BRANCH  17  28
ATOM     28  O   UNL     1      -8.934  -6.019  11.341  1.00  0.00    -0.383 OA
ATOM     29  H   UNL     1      -9.202  -6.925  11.067  1.00  0.00     0.211 HD
ENDBRANCH  17  28
ENDBRANCH  14  17
ENDBRANCH  12  13
BRANCH  12  30
ATOM     30  C   UNL     1      -7.837  -1.520   9.038  1.00  0.00     0.018 C 
ATOM     31  C   UNL     1      -8.118  -0.347   9.990  1.00  0.00     0.010 C 
BRANCH  30  32
ATOM     32  C   UNL     1      -9.140  -2.314   8.774  1.00  0.00     0.002 C 
ATOM     33  C   UNL     1     -10.403  -1.714   9.378  1.00  0.00     0.004 C 
ENDBRANCH  30  32
ENDBRANCH  12  30
ENDBRANCH  10  12
ENDBRANCH   1  10
BRANCH   5  34
ATOM     34  C   UNL     1      -2.977  -0.161   8.689  1.00  0.00     0.242 C 
ATOM     35  O   UNL     1      -2.195   0.748   8.965  1.00  0.00    -0.273 OA
ATOM     36  N   UNL     1      -3.341  -0.455   7.394  1.00  0.00    -0.354 N 
ATOM     37  H   UNL     1      -4.084  -1.137   7.235  1.00  0.00     0.163 HD
BRANCH  36  38
ATOM     38  C   UNL     1      -2.641   0.093   6.250  1.00  0.00     0.116 C 
BRANCH  38  39
ATOM     39  C   UNL     1      -2.638  -0.922   5.110  1.00  0.00     0.023 C 
BRANCH  39  40
ATOM     40  C   UNL     1      -1.963  -2.233   5.499  1.00  0.00     0.026 C 
BRANCH  40  41
ATOM     41  C   UNL     1      -2.273  -3.327   4.476  1.00  0.00     0.146 C 
BRANCH  41  42
ATOM     42  N   UNL     1      -2.297  -4.626   5.135  1.00  0.00    -0.254 NA
ATOM     43  C   UNL     1      -1.620  -5.596   4.647  1.00  0.00     0.185 C 
ATOM     44  N   UNL     1      -0.832  -5.639   3.557  1.00  0.00    -0.370 N 
ATOM     45  N   UNL     1      -1.658  -6.787   5.267  1.00  0.00    -0.370 N 
ATOM     46  H   UNL     1      -0.560  -6.520   3.155  1.00  0.00     0.159 HD
ATOM     47  H   UNL     1      -0.679  -4.820   2.977  1.00  0.00     0.159 HD
ATOM     48  H   UNL     1      -2.223  -6.838   6.104  1.00  0.00     0.159 HD
ATOM     49  H   UNL     1      -0.986  -7.513   5.093  1.00  0.00     0.159 HD
ENDBRANCH  41  42
ENDBRANCH  40  41
ENDBRANCH  39  40
ENDBRANCH  38  39
ENDBRANCH  36  38
ENDBRANCH   5  34
BRANCH   8  50
ATOM     50  O   UNL     1      -0.358  -4.074   8.071  1.00  0.00    -0.245 OA
BRANCH  50  51
ATOM     51  S   UNL     1       0.935  -4.773   7.376  1.00  0.00     0.397 S 
ATOM     52  O   UNL     1       0.656  -6.185   7.233  1.00  0.00    -0.169 OA
ATOM     53  O   UNL     1       2.146  -4.299   8.015  1.00  0.00    -0.169 OA
BRANCH  51  54
ATOM     54  O   UNL     1       0.888  -4.164   5.889  1.00  0.00    -0.264 OA
ATOM     55  H   UNL     1       1.106  -3.212   5.950  1.00  0.00     0.236 HD
ENDBRANCH  51  54
ENDBRANCH  50  51
ENDBRANCH   8  50
TORSDOF 19
ENDMDL
MODEL 4
REMARK VINA RESULT:    -5.815      3.085      5.688
REMARK INTER + INTRA:         -16.200
REMARK INTER:                 -10.694
REMARK INTRA:                  -5.506
REMARK UNBOUND:                -4.436
REMARK SMILES CC[C@@H](C)[C@@H](NC(=O)[C@@H](O)Cc1ccc(O)c(Cl)c1)C(=O)N1[C@H](C(=O)NCCCCN=C(N)N)C[C@H]2CC[C@H](OS(=O)(=O)O)C[C@@H]21
REMARK SMILES IDX 22 1 36 2 46 3 35 4 23 5 45 6 37 7 39 8 38 9 20 10 21 11
REMARK SMILES IDX 5 12 6 13 7 14 8 15 9 17 11 18 12 19 17 20 19 21 15 22 14 23
REMARK SMILES IDX 13 24 18 25 16 26 10 28 3 30 4 31 2 32 1 33 24 34 25 35
REMARK SMILES IDX 26 36 27 38 28 39 29 40 30 41 31 42 32 43 33 44 34 45 40 50
REMARK SMILES IDX 41 51 42 52 43 53 44 54
REMARK H PARENT 6 16 16 27 10 29 26 37 33 46 33 47 34 48 34 49 44 55
ROOT
ATOM      1  N   UNL     1      -4.183  -4.404  10.062  1.00  0.00    -0.326 N 
ATOM      2  C   UNL     1      -5.535  -5.945   8.904  1.00  0.00     0.014 C 
ATOM      3  C   UNL     1      -5.215  -5.416  10.305  1.00  0.00     0.091 C 
ATOM      4  C   UNL     1      -4.184  -5.882   8.206  1.00  0.00     0.041 C 
ATOM      5  C   UNL     1      -3.709  -4.489   8.658  1.00  0.00     0.175 C 
ATOM      6  C   UNL     1      -6.521  -4.975  10.964  1.00  0.00     0.059 C 
ATOM      7  C   UNL     1      -6.271  -7.268   8.979  1.00  0.00     0.008 C 
ATOM      8  C   UNL     1      -7.749  -5.802  10.524  1.00  0.00     0.143 C 
ATOM      9  C   UNL     1      -7.358  -7.224  10.074  1.00  0.00     0.034 C 
ENDROOT
BRANCH   1  10
ATOM     10  C   UNL     1      -3.497  -3.602  10.958  1.00  0.00     0.246 C 
ATOM     11  O   UNL     1      -3.981  -2.512  11.282  1.00  0.00    -0.272 OA
BRANCH  10  12
ATOM     12  C   UNL     1      -2.159  -4.108  11.570  1.00  0.00     0.174 C 
BRANCH  12  13
ATOM     13  N   UNL     1      -1.128  -4.167  10.534  1.00  0.00    -0.342 N 
ATOM     14  C   UNL     1      -0.304  -3.122  10.178  1.00  0.00     0.249 C 
ATOM     15  O   UNL     1      -0.326  -2.023  10.717  1.00  0.00    -0.272 OA
ATOM     16  H   UNL     1      -1.098  -4.959   9.897  1.00  0.00     0.164 HD
BRANCH  14  17
ATOM     17  C   UNL     1       0.668  -3.492   9.038  1.00  0.00     0.207 C 
BRANCH  17  18
ATOM     18  C   UNL     1       0.618  -4.998   8.759  1.00  0.00     0.077 C 
BRANCH  18  19
ATOM     19  C   UNL     1       0.025  -5.298   7.401  1.00  0.00    -0.043 A 
ATOM     20  C   UNL     1      -0.437  -4.633   5.114  1.00  0.00     0.083 A 
ATOM     21  C   UNL     1       0.154  -4.375   6.351  1.00  0.00     0.028 A 
ATOM     22  C   UNL     1      -1.161  -5.810   4.918  1.00  0.00     0.134 A 
ATOM     23  C   UNL     1      -1.297  -6.732   5.948  1.00  0.00     0.048 A 
ATOM     24  C   UNL     1      -0.708  -6.476   7.189  1.00  0.00     0.008 A 
ATOM     25  Cl  UNL     1      -0.267  -3.486   3.837  1.00  0.00    -0.080 Cl
BRANCH  22  26
ATOM     26  O   UNL     1      -1.767  -6.101   3.726  1.00  0.00    -0.506 OA
ATOM     27  H   UNL     1      -2.120  -7.007   3.805  1.00  0.00     0.293 HD
ENDBRANCH  22  26
ENDBRANCH  18  19
ENDBRANCH  17  18
BRANCH  17  28
ATOM     28  O   UNL     1       2.015  -3.112   9.363  1.00  0.00    -0.383 OA
ATOM     29  H   UNL     1       2.107  -3.241  10.335  1.00  0.00     0.211 HD
ENDBRANCH  17  28
ENDBRANCH  14  17
ENDBRANCH  12  13
BRANCH  12  30
ATOM     30  C   UNL     1      -2.315  -5.454  12.327  1.00  0.00     0.018 C 
ATOM     31  C   UNL     1      -1.973  -5.287  13.815  1.00  0.00     0.010 C 
BRANCH  30  32
ATOM     32  C   UNL     1      -1.485  -6.610  11.717  1.00  0.00     0.002 C 
ATOM     33  C   UNL     1      -2.271  -7.595  10.862  1.00  0.00     0.004 C 
ENDBRANCH  30  32
ENDBRANCH  12  30
ENDBRANCH  10  12
ENDBRANCH   1  10
BRANCH   5  34
ATOM     34  C   UNL     1      -4.338  -3.363   7.795  1.00  0.00     0.242 C 
ATOM     35  O   UNL     1      -5.363  -2.769   8.133  1.00  0.00    -0.273 OA
ATOM     36  N   UNL     1      -3.700  -3.113   6.601  1.00  0.00    -0.354 N 
ATOM     37  H   UNL     1      -2.927  -3.719   6.321  1.00  0.00     0.163 HD
BRANCH  36  38
ATOM     38  C   UNL     1      -4.017  -1.964   5.780  1.00  0.00     0.116 C 
BRANCH  38  39
ATOM     39  C   UNL     1      -2.738  -1.391   5.174  1.00  0.00     0.023 C 
BRANCH  39  40
ATOM     40  C   UNL     1      -1.767  -0.885   6.235  1.00  0.00     0.026 C 
BRANCH  40  41
ATOM     41  C   UNL     1      -2.364   0.298   6.997  1.00  0.00     0.146 C 
BRANCH  41  42
ATOM     42  N   UNL     1      -1.971   0.230   8.398  1.00  0.00    -0.254 NA
ATOM     43  C   UNL     1      -2.862   0.034   9.297  1.00  0.00     0.185 C 
ATOM     44  N   UNL     1      -4.191  -0.135   9.175  1.00  0.00    -0.370 N 
ATOM     45  N   UNL     1      -2.480  -0.021  10.583  1.00  0.00    -0.370 N 
ATOM     46  H   UNL     1      -4.796  -0.036   9.972  1.00  0.00     0.159 HD
ATOM     47  H   UNL     1      -4.648  -0.136   8.268  1.00  0.00     0.159 HD
ATOM     48  H   UNL     1      -1.491   0.088  10.762  1.00  0.00     0.159 HD
ATOM     49  H   UNL     1      -3.063  -0.401  11.308  1.00  0.00     0.159 HD
ENDBRANCH  41  42
ENDBRANCH  40  41
ENDBRANCH  39  40
ENDBRANCH  38  39
ENDBRANCH  36  38
ENDBRANCH   5  34
BRANCH   8  50
ATOM     50  O   UNL     1      -8.417  -5.151   9.443  1.00  0.00    -0.245 OA
BRANCH  50  51
ATOM     51  S   UNL     1      -9.350  -3.853   9.741  1.00  0.00     0.397 S 
ATOM     52  O   UNL     1      -8.797  -2.730   9.019  1.00  0.00    -0.169 OA
ATOM     53  O   UNL     1      -9.640  -3.777  11.157  1.00  0.00    -0.169 OA
BRANCH  51  54
ATOM     54  O   UNL     1     -10.712  -4.237   8.976  1.00  0.00    -0.264 OA
ATOM     55  H   UNL     1     -10.651  -3.886   8.064  1.00  0.00     0.236 HD
ENDBRANCH  51  54
ENDBRANCH  50  51
ENDBRANCH   8  50
TORSDOF 19
ENDMDL
MODEL 5
REMARK VINA RESULT:    -5.790      4.129      8.689
REMARK INTER + INTRA:         -16.150
REMARK INTER:                 -13.748
REMARK INTRA:                  -2.402
REMARK UNBOUND:                -4.436
REMARK SMILES CC[C@@H](C)[C@@H](NC(=O)[C@@H](O)Cc1ccc(O)c(Cl)c1)C(=O)N1[C@H](C(=O)NCCCCN=C(N)N)C[C@H]2CC[C@H](OS(=O)(=O)O)C[C@@H]21
REMARK SMILES IDX 22 1 36 2 46 3 35 4 23 5 45 6 37 7 39 8 38 9 20 10 21 11
REMARK SMILES IDX 5 12 6 13 7 14 8 15 9 17 11 18 12 19 17 20 19 21 15 22 14 23
REMARK SMILES IDX 13 24 18 25 16 26 10 28 3 30 4 31 2 32 1 33 24 34 25 35
REMARK SMILES IDX 26 36 27 38 28 39 29 40 30 41 31 42 32 43 33 44 34 45 40 50
REMARK SMILES IDX 41 51 42 52 43 53 44 54
REMARK H PARENT 6 16 16 27 10 29 26 37 33 46 33 47 34 48 34 49 44 55
ROOT
ATOM      1  N   UNL     1      -0.322  -6.639   5.607  1.00  0.00    -0.326 N 
ATOM      2  C   UNL     1       1.919  -7.323   5.836  1.00  0.00     0.014 C 
ATOM      3  C   UNL     1       1.039  -6.095   5.582  1.00  0.00     0.091 C 
ATOM      4  C   UNL     1       1.154  -8.434   5.133  1.00  0.00     0.041 C 
ATOM      5  C   UNL     1      -0.277  -8.122   5.607  1.00  0.00     0.175 C 
ATOM      6  C   UNL     1       1.408  -5.018   6.600  1.00  0.00     0.059 C 
ATOM      7  C   UNL     1       3.358  -7.049   5.445  1.00  0.00     0.008 C 
ATOM      8  C   UNL     1       2.893  -5.044   7.022  1.00  0.00     0.143 C 
ATOM      9  C   UNL     1       3.796  -5.650   5.928  1.00  0.00     0.034 C 
ENDROOT
BRANCH   1  10
ATOM     10  C   UNL     1      -1.536  -6.000   5.418  1.00  0.00     0.246 C 
ATOM     11  O   UNL     1      -2.515  -6.664   5.061  1.00  0.00    -0.272 OA
BRANCH  10  12
ATOM     12  C   UNL     1      -1.652  -4.474   5.701  1.00  0.00     0.174 C 
BRANCH  12  13
ATOM     13  N   UNL     1      -2.872  -4.199   6.459  1.00  0.00    -0.342 N 
ATOM     14  C   UNL     1      -2.949  -3.374   7.559  1.00  0.00     0.249 C 
ATOM     15  O   UNL     1      -1.997  -2.750   8.012  1.00  0.00    -0.272 OA
ATOM     16  H   UNL     1      -3.703  -4.763   6.299  1.00  0.00     0.164 HD
BRANCH  14  17
ATOM     17  C   UNL     1      -4.373  -3.302   8.151  1.00  0.00     0.207 C 
BRANCH  17  18
ATOM     18  C   UNL     1      -4.835  -4.690   8.605  1.00  0.00     0.077 C 
BRANCH  18  19
ATOM     19  C   UNL     1      -6.230  -4.655   9.187  1.00  0.00    -0.043 A 
ATOM     20  C   UNL     1      -7.751  -4.017  10.966  1.00  0.00     0.083 A 
ATOM     21  C   UNL     1      -6.472  -4.005  10.407  1.00  0.00     0.028 A 
ATOM     22  C   UNL     1      -8.792  -4.678  10.313  1.00  0.00     0.134 A 
ATOM     23  C   UNL     1      -8.566  -5.326   9.105  1.00  0.00     0.048 A 
ATOM     24  C   UNL     1      -7.287  -5.317   8.543  1.00  0.00     0.008 A 
ATOM     25  Cl  UNL     1      -8.029  -3.212  12.466  1.00  0.00    -0.080 Cl
BRANCH  22  26
ATOM     26  O   UNL     1     -10.059  -4.726  10.827  1.00  0.00    -0.506 OA
ATOM     27  H   UNL     1     -10.515  -3.918  10.527  1.00  0.00     0.293 HD
ENDBRANCH  22  26
ENDBRANCH  18  19
ENDBRANCH  17  18
BRANCH  17  28
ATOM     28  O   UNL     1      -5.306  -2.779   7.191  1.00  0.00    -0.383 OA
ATOM     29  H   UNL     1      -5.552  -1.882   7.512  1.00  0.00     0.211 HD
ENDBRANCH  17  28
ENDBRANCH  14  17
ENDBRANCH  12  13
BRANCH  12  30
ATOM     30  C   UNL     1      -1.550  -3.616   4.411  1.00  0.00     0.018 C 
ATOM     31  C   UNL     1      -0.271  -2.764   4.421  1.00  0.00     0.010 C 
BRANCH  30  32
ATOM     32  C   UNL     1      -2.786  -2.717   4.164  1.00  0.00     0.002 C 
ATOM     33  C   UNL     1      -2.581  -1.235   4.447  1.00  0.00     0.004 C 
ENDBRANCH  30  32
ENDBRANCH  12  30
ENDBRANCH  10  12
ENDBRANCH   1  10
BRANCH   5  34
ATOM     34  C   UNL     1      -0.543  -8.680   7.030  1.00  0.00     0.242 C 
ATOM     35  O   UNL     1      -0.768  -9.872   7.238  1.00  0.00    -0.273 OA
ATOM     36  N   UNL     1      -0.562  -7.739   8.035  1.00  0.00    -0.354 N 
ATOM     37  H   UNL     1      -0.488  -6.752   7.785  1.00  0.00     0.163 HD
BRANCH  36  38
ATOM     38  C   UNL     1      -0.580  -8.103   9.436  1.00  0.00     0.116 C 
BRANCH  38  39
ATOM     39  C   UNL     1      -1.923  -7.721  10.054  1.00  0.00     0.023 C 
BRANCH  39  40
ATOM     40  C   UNL     1      -3.037  -8.691   9.673  1.00  0.00     0.026 C 
BRANCH  40  41
ATOM     41  C   UNL     1      -3.837  -9.109  10.907  1.00  0.00     0.146 C 
BRANCH  41  42
ATOM     42  N   UNL     1      -5.098  -9.712  10.496  1.00  0.00    -0.254 NA
ATOM     43  C   UNL     1      -6.160  -8.999  10.465  1.00  0.00     0.185 C 
ATOM     44  N   UNL     1      -6.339  -7.699  10.763  1.00  0.00    -0.370 N 
ATOM     45  N   UNL     1      -7.313  -9.575  10.087  1.00  0.00    -0.370 N 
ATOM     46  H   UNL     1      -7.261  -7.333  10.930  1.00  0.00     0.159 HD
ATOM     47  H   UNL     1      -5.567  -7.108  11.054  1.00  0.00     0.159 HD
ATOM     48  H   UNL     1      -7.265 -10.553   9.836  1.00  0.00     0.159 HD
ATOM     49  H   UNL     1      -8.121  -9.045   9.811  1.00  0.00     0.159 HD
ENDBRANCH  41  42
ENDBRANCH  40  41
ENDBRANCH  39  40
ENDBRANCH  38  39
ENDBRANCH  36  38
ENDBRANCH   5  34
BRANCH   8  50
ATOM     50  O   UNL     1       3.050  -5.812   8.216  1.00  0.00    -0.245 OA
BRANCH  50  51
ATOM     51  S   UNL     1       3.761  -5.140   9.515  1.00  0.00     0.397 S 
ATOM     52  O   UNL     1       5.177  -5.028   9.242  1.00  0.00    -0.169 OA
ATOM     53  O   UNL     1       3.268  -5.772  10.721  1.00  0.00    -0.169 OA
BRANCH  51  54
ATOM     54  O   UNL     1       3.188  -3.638   9.472  1.00  0.00    -0.264 OA
ATOM     55  H   UNL     1       3.936  -3.028   9.634  1.00  0.00     0.236 HD
ENDBRANCH  51  54
ENDBRANCH  50  51
ENDBRANCH   8  50
TORSDOF 19
ENDMDL
MODEL 6
REMARK VINA RESULT:    -5.730      2.317      3.276
REMARK INTER + INTRA:         -16.029
REMARK INTER:                 -11.514
REMARK INTRA:                  -4.515
REMARK UNBOUND:                -4.436
REMARK SMILES CC[C@@H](C)[C@@H](NC(=O)[C@@H](O)Cc1ccc(O)c(Cl)c1)C(=O)N1[C@H](C(=O)NCCCCN=C(N)N)C[C@H]2CC[C@H](OS(=O)(=O)O)C[C@@H]21
REMARK SMILES IDX 22 1 36 2 46 3 35 4 23 5 45 6 37 7 39 8 38 9 20 10 21 11
REMARK SMILES IDX 5 12 6 13 7 14 8 15 9 17 11 18 12 19 17 20 19 21 15 22 14 23
REMARK SMILES IDX 13 24 18 25 16 26 10 28 3 30 4 31 2 32 1 33 24 34 25 35
REMARK SMILES IDX 26 36 27 38 28 39 29 40 30 41 31 42 32 43 33 44 34 45 40 50
REMARK SMILES IDX 41 51 42 52 43 53 44 54
REMARK H PARENT 6 16 16 27 10 29 26 37 33 46 33 47 34 48 34 49 44 55
ROOT
ATOM      1  N   UNL     1      -5.632  -1.542   9.817  1.00  0.00    -0.326 N 
ATOM      2  C   UNL     1      -3.695  -2.855   9.555  1.00  0.00     0.014 C 
ATOM      3  C   UNL     1      -5.030  -2.506   8.890  1.00  0.00     0.091 C 
ATOM      4  C   UNL     1      -4.036  -2.803  11.037  1.00  0.00     0.041 C 
ATOM      5  C   UNL     1      -4.859  -1.503  11.082  1.00  0.00     0.175 C 
ATOM      6  C   UNL     1      -4.753  -2.056   7.457  1.00  0.00     0.059 C 
ATOM      7  C   UNL     1      -3.114  -4.127   8.970  1.00  0.00     0.008 C 
ATOM      8  C   UNL     1      -3.530  -2.747   6.815  1.00  0.00     0.143 C 
ATOM      9  C   UNL     1      -3.257  -4.133   7.433  1.00  0.00     0.034 C 
ENDROOT
BRANCH   1  10
ATOM     10  C   UNL     1      -6.853  -0.892   9.751  1.00  0.00     0.246 C 
ATOM     11  O   UNL     1      -6.924   0.196   9.170  1.00  0.00    -0.272 OA
BRANCH  10  12
ATOM     12  C   UNL     1      -8.114  -1.562  10.370  1.00  0.00     0.174 C 
BRANCH  12  13
ATOM     13  N   UNL     1      -7.952  -3.016  10.380  1.00  0.00    -0.342 N 
ATOM     14  C   UNL     1      -8.023  -3.811  11.502  1.00  0.00     0.249 C 
ATOM     15  O   UNL     1      -8.261  -3.386  12.625  1.00  0.00    -0.272 OA
ATOM     16  H   UNL     1      -7.596  -3.488   9.553  1.00  0.00     0.164 HD
BRANCH  14  17
ATOM     17  C   UNL     1      -7.792  -5.305  11.188  1.00  0.00     0.207 C 
BRANCH  17  18
ATOM     18  C   UNL     1      -7.289  -5.479   9.752  1.00  0.00     0.077 C 
BRANCH  18  19
ATOM     19  C   UNL     1      -6.055  -6.351   9.690  1.00  0.00    -0.043 A 
ATOM     20  C   UNL     1      -4.137  -7.361  10.780  1.00  0.00     0.083 A 
ATOM     21  C   UNL     1      -5.303  -6.597  10.850  1.00  0.00     0.028 A 
ATOM     22  C   UNL     1      -3.716  -7.881   9.556  1.00  0.00     0.134 A 
ATOM     23  C   UNL     1      -4.451  -7.646   8.400  1.00  0.00     0.048 A 
ATOM     24  C   UNL     1      -5.617  -6.880   8.466  1.00  0.00     0.008 A 
ATOM     25  Cl  UNL     1      -3.227  -7.652  12.216  1.00  0.00    -0.080 Cl
BRANCH  22  26
ATOM     26  O   UNL     1      -2.574  -8.627   9.437  1.00  0.00    -0.506 OA
ATOM     27  H   UNL     1      -2.856  -9.553   9.315  1.00  0.00     0.293 HD
ENDBRANCH  22  26
ENDBRANCH  18  19
ENDBRANCH  17  18
BRANCH  17  28
ATOM     28  O   UNL     1      -8.999  -6.063  11.366  1.00  0.00    -0.383 OA
ATOM     29  H   UNL     1      -9.611  -5.485  11.875  1.00  0.00     0.211 HD
ENDBRANCH  17  28
ENDBRANCH  14  17
ENDBRANCH  12  13
BRANCH  12  30
ATOM     30  C   UNL     1      -9.430  -1.118   9.678  1.00  0.00     0.018 C 
ATOM     31  C   UNL     1     -10.411  -0.524  10.701  1.00  0.00     0.010 C 
BRANCH  30  32
ATOM     32  C   UNL     1     -10.120  -2.245   8.872  1.00  0.00     0.002 C 
ATOM     33  C   UNL     1     -11.464  -1.877   8.256  1.00  0.00     0.004 C 
ENDBRANCH  30  32
ENDBRANCH  12  30
ENDBRANCH  10  12
ENDBRANCH   1  10
BRANCH   5  34
ATOM     34  C   UNL     1      -3.945  -0.249  11.129  1.00  0.00     0.242 C 
ATOM     35  O   UNL     1      -3.225   0.004  12.095  1.00  0.00    -0.273 OA
ATOM     36  N   UNL     1      -4.040   0.586  10.038  1.00  0.00    -0.354 N 
ATOM     37  H   UNL     1      -4.742   0.386   9.325  1.00  0.00     0.163 HD
BRANCH  36  38
ATOM     38  C   UNL     1      -3.113   1.676   9.816  1.00  0.00     0.116 C 
BRANCH  38  39
ATOM     39  C   UNL     1      -3.853   3.009   9.888  1.00  0.00     0.023 C 
BRANCH  39  40
ATOM     40  C   UNL     1      -2.971   4.188   9.492  1.00  0.00     0.026 C 
BRANCH  40  41
ATOM     41  C   UNL     1      -2.747   4.214   7.980  1.00  0.00     0.146 C 
BRANCH  41  42
ATOM     42  N   UNL     1      -1.332   4.023   7.688  1.00  0.00    -0.254 NA
ATOM     43  C   UNL     1      -0.956   2.997   7.021  1.00  0.00     0.185 C 
ATOM     44  N   UNL     1      -1.680   1.990   6.501  1.00  0.00    -0.370 N 
ATOM     45  N   UNL     1       0.354   2.837   6.767  1.00  0.00    -0.370 N 
ATOM     46  H   UNL     1      -1.237   1.133   6.217  1.00  0.00     0.159 HD
ATOM     47  H   UNL     1      -2.691   1.960   6.589  1.00  0.00     0.159 HD
ATOM     48  H   UNL     1       0.970   3.558   7.117  1.00  0.00     0.159 HD
ATOM     49  H   UNL     1       0.698   2.207   6.065  1.00  0.00     0.159 HD
ENDBRANCH  41  42
ENDBRANCH  40  41
ENDBRANCH  39  40
ENDBRANCH  38  39
ENDBRANCH  36  38
ENDBRANCH   5  34
BRANCH   8  50
ATOM     50  O   UNL     1      -2.366  -1.938   6.983  1.00  0.00    -0.245 OA
BRANCH  50  51
ATOM     51  S   UNL     1      -1.499  -1.499   5.679  1.00  0.00     0.397 S 
ATOM     52  O   UNL     1      -1.376  -2.651   4.815  1.00  0.00    -0.169 OA
ATOM     53  O   UNL     1      -0.340  -0.738   6.099  1.00  0.00    -0.169 OA
BRANCH  51  54
ATOM     54  O   UNL     1      -2.506  -0.494   4.929  1.00  0.00    -0.264 OA
ATOM     55  H   UNL     1      -1.992   0.291   4.651  1.00  0.00     0.236 HD
ENDBRANCH  51  54
ENDBRANCH  50  51
ENDBRANCH   8  50
TORSDOF 19
ENDMDL
MODEL 7
REMARK VINA RESULT:    -5.630      3.032      5.050
REMARK INTER + INTRA:         -15.827
REMARK INTER:                 -11.712
REMARK INTRA:                  -4.115
REMARK UNBOUND:                -4.436
REMARK SMILES CC[C@@H](C)[C@@H](NC(=O)[C@@H](O)Cc1ccc(O)c(Cl)c1)C(=O)N1[C@H](C(=O)NCCCCN=C(N)N)C[C@H]2CC[C@H](OS(=O)(=O)O)C[C@@H]21
REMARK SMILES IDX 22 1 36 2 46 3 35 4 23 5 45 6 37 7 39 8 38 9 20 10 21 11
REMARK SMILES IDX 5 12 6 13 7 14 8 15 9 17 11 18 12 19 17 20 19 21 15 22 14 23
REMARK SMILES IDX 13 24 18 25 16 26 10 28 3 30 4 31 2 32 1 33 24 34 25 35
REMARK SMILES IDX 26 36 27 38 28 39 29 40 30 41 31 42 32 43 33 44 34 45 40 50
REMARK SMILES IDX 41 51 42 52 43 53 44 54
REMARK H PARENT 6 16 16 27 10 29 26 37 33 46 33 47 34 48 34 49 44 55
ROOT
ATOM      1  N   UNL     1      -6.085  -2.308  10.103  1.00  0.00    -0.326 N 
ATOM      2  C   UNL     1      -7.984  -1.899   8.773  1.00  0.00     0.014 C 
ATOM      3  C   UNL     1      -7.456  -1.802  10.207  1.00  0.00     0.091 C 
ATOM      4  C   UNL     1      -7.301  -3.152   8.249  1.00  0.00     0.041 C 
ATOM      5  C   UNL     1      -5.870  -2.920   8.768  1.00  0.00     0.175 C 
ATOM      6  C   UNL     1      -7.665  -0.372  10.703  1.00  0.00     0.059 C 
ATOM      7  C   UNL     1      -9.497  -1.810   8.745  1.00  0.00     0.008 C 
ATOM      8  C   UNL     1      -8.912   0.317  10.108  1.00  0.00     0.143 C 
ATOM      9  C   UNL     1      -9.995  -0.701   9.696  1.00  0.00     0.034 C 
ENDROOT
BRANCH   1  10
ATOM     10  C   UNL     1      -5.123  -2.475  11.084  1.00  0.00     0.246 C 
ATOM     11  O   UNL     1      -4.372  -1.532  11.357  1.00  0.00    -0.272 OA
BRANCH  10  12
ATOM     12  C   UNL     1      -5.035  -3.827  11.851  1.00  0.00     0.174 C 
BRANCH  12  13
ATOM     13  N   UNL     1      -4.084  -4.717  11.185  1.00  0.00    -0.342 N 
ATOM     14  C   UNL     1      -2.881  -5.125  11.714  1.00  0.00     0.249 C 
ATOM     15  O   UNL     1      -2.482  -4.806  12.827  1.00  0.00    -0.272 OA
ATOM     16  H   UNL     1      -4.205  -4.936  10.199  1.00  0.00     0.164 HD
BRANCH  14  17
ATOM     17  C   UNL     1      -2.094  -6.049  10.760  1.00  0.00     0.207 C 
BRANCH  17  18
ATOM     18  C   UNL     1      -3.055  -6.846   9.872  1.00  0.00     0.077 C 
BRANCH  18  19
ATOM     19  C   UNL     1      -2.705  -6.716   8.407  1.00  0.00    -0.043 A 
ATOM     20  C   UNL     1      -1.186  -5.977   6.666  1.00  0.00     0.083 A 
ATOM     21  C   UNL     1      -1.485  -6.140   8.019  1.00  0.00     0.028 A 
ATOM     22  C   UNL     1      -2.101  -6.385   5.694  1.00  0.00     0.134 A 
ATOM     23  C   UNL     1      -3.313  -6.957   6.065  1.00  0.00     0.048 A 
ATOM     24  C   UNL     1      -3.615  -7.120   7.419  1.00  0.00     0.008 A 
ATOM     25  Cl  UNL     1       0.318  -5.267   6.209  1.00  0.00    -0.080 Cl
BRANCH  22  26
ATOM     26  O   UNL     1      -1.857  -6.236   4.356  1.00  0.00    -0.506 OA
ATOM     27  H   UNL     1      -1.275  -5.459   4.262  1.00  0.00     0.293 HD
ENDBRANCH  22  26
ENDBRANCH  18  19
ENDBRANCH  17  18
BRANCH  17  28
ATOM     28  O   UNL     1      -1.258  -6.959  11.494  1.00  0.00    -0.383 OA
ATOM     29  H   UNL     1      -1.865  -7.495  12.054  1.00  0.00     0.211 HD
ENDBRANCH  17  28
ENDBRANCH  14  17
ENDBRANCH  12  13
BRANCH  12  30
ATOM     30  C   UNL     1      -6.423  -4.491  12.057  1.00  0.00     0.018 C 
ATOM     31  C   UNL     1      -6.627  -4.884  13.528  1.00  0.00     0.010 C 
BRANCH  30  32
ATOM     32  C   UNL     1      -6.670  -5.713  11.140  1.00  0.00     0.002 C 
ATOM     33  C   UNL     1      -8.132  -6.022  10.845  1.00  0.00     0.004 C 
ENDBRANCH  30  32
ENDBRANCH  12  30
ENDBRANCH  10  12
ENDBRANCH   1  10
BRANCH   5  34
ATOM     34  C   UNL     1      -5.075  -1.960   7.844  1.00  0.00     0.242 C 
ATOM     35  O   UNL     1      -4.777  -0.815   8.185  1.00  0.00    -0.273 OA
ATOM     36  N   UNL     1      -4.775  -2.461   6.597  1.00  0.00    -0.354 N 
ATOM     37  H   UNL     1      -5.152  -3.371   6.330  1.00  0.00     0.163 HD
BRANCH  36  38
ATOM     38  C   UNL     1      -3.861  -1.792   5.694  1.00  0.00     0.116 C 
BRANCH  38  39
ATOM     39  C   UNL     1      -2.908  -2.810   5.073  1.00  0.00     0.023 C 
BRANCH  39  40
ATOM     40  C   UNL     1      -1.456  -2.346   5.109  1.00  0.00     0.026 C 
BRANCH  40  41
ATOM     41  C   UNL     1      -1.072  -1.876   6.512  1.00  0.00     0.146 C 
BRANCH  41  42
ATOM     42  N   UNL     1      -0.516  -0.530   6.445  1.00  0.00    -0.254 NA
ATOM     43  C   UNL     1      -1.019   0.398   7.169  1.00  0.00     0.185 C 
ATOM     44  N   UNL     1      -2.040   0.357   8.044  1.00  0.00    -0.370 N 
ATOM     45  N   UNL     1      -0.496   1.633   7.090  1.00  0.00    -0.370 N 
ATOM     46  H   UNL     1      -2.484   1.204   8.355  1.00  0.00     0.159 HD
ATOM     47  H   UNL     1      -2.542  -0.504   8.237  1.00  0.00     0.159 HD
ATOM     48  H   UNL     1       0.285   1.749   6.458  1.00  0.00     0.159 HD
ATOM     49  H   UNL     1      -0.669   2.342   7.780  1.00  0.00     0.159 HD
ENDBRANCH  41  42
ENDBRANCH  40  41
ENDBRANCH  39  40
ENDBRANCH  38  39
ENDBRANCH  36  38
ENDBRANCH   5  34
BRANCH   8  50
ATOM     50  O   UNL     1      -8.547   1.081   8.958  1.00  0.00    -0.245 OA
BRANCH  50  51
ATOM     51  S   UNL     1      -9.270   2.511   8.682  1.00  0.00     0.397 S 
ATOM     52  O   UNL     1     -10.386   2.284   7.792  1.00  0.00    -0.169 OA
ATOM     53  O   UNL     1      -8.266   3.517   8.401  1.00  0.00    -0.169 OA
BRANCH  51  54
ATOM     54  O   UNL     1      -9.915   2.843  10.117  1.00  0.00    -0.264 OA
ATOM     55  H   UNL     1      -9.449   3.624  10.481  1.00  0.00     0.236 HD
ENDBRANCH  51  54
ENDBRANCH  50  51
ENDBRANCH   8  50
TORSDOF 19
ENDMDL
MODEL 8
REMARK VINA RESULT:    -5.630      3.312      6.851
REMARK INTER + INTRA:         -15.826
REMARK INTER:                 -11.227
REMARK INTRA:                  -4.599
REMARK UNBOUND:                -4.436
REMARK SMILES CC[C@@H](C)[C@@H](NC(=O)[C@@H](O)Cc1ccc(O)c(Cl)c1)C(=O)N1[C@H](C(=O)NCCCCN=C(N)N)C[C@H]2CC[C@H](OS(=O)(=O)O)C[C@@H]21
REMARK SMILES IDX 22 1 36 2 46 3 35 4 23 5 45 6 37 7 39 8 38 9 20 10 21 11
REMARK SMILES IDX 5 12 6 13 7 14 8 15 9 17 11 18 12 19 17 20 19 21 15 22 14 23
REMARK SMILES IDX 13 24 18 25 16 26 10 28 3 30 4 31 2 32 1 33 24 34 25 35
REMARK SMILES IDX 26 36 27 38 28 39 29 40 30 41 31 42 32 43 33 44 34 45 40 50
REMARK SMILES IDX 41 51 42 52 43 53 44 54
REMARK H PARENT 6 16 16 27 10 29 26 37 33 46 33 47 34 48 34 49 44 55
ROOT
ATOM      1  N   UNL     1      -3.104  -3.986  10.006  1.00  0.00    -0.326 N 
ATOM      2  C   UNL     1      -4.372  -2.622   8.566  1.00  0.00     0.014 C 
ATOM      3  C   UNL     1      -3.019  -2.717   9.278  1.00  0.00     0.091 C 
ATOM      4  C   UNL     1      -5.321  -3.268   9.564  1.00  0.00     0.041 C 
ATOM      5  C   UNL     1      -4.494  -4.503   9.966  1.00  0.00     0.175 C 
ATOM      6  C   UNL     1      -1.913  -2.552   8.237  1.00  0.00     0.059 C 
ATOM      7  C   UNL     1      -4.639  -1.206   8.096  1.00  0.00     0.008 C 
ATOM      8  C   UNL     1      -2.299  -1.627   7.062  1.00  0.00     0.143 C 
ATOM      9  C   UNL     1      -3.370  -0.594   7.466  1.00  0.00     0.034 C 
ENDROOT
BRANCH   1  10
ATOM     10  C   UNL     1      -2.183  -4.592  10.843  1.00  0.00     0.246 C 
ATOM     11  O   UNL     1      -1.568  -5.586  10.441  1.00  0.00    -0.272 OA
BRANCH  10  12
ATOM     12  C   UNL     1      -1.910  -3.987  12.251  1.00  0.00     0.174 C 
BRANCH  12  13
ATOM     13  N   UNL     1      -3.136  -3.395  12.785  1.00  0.00    -0.342 N 
ATOM     14  C   UNL     1      -4.086  -4.071  13.517  1.00  0.00     0.249 C 
ATOM     15  O   UNL     1      -3.994  -5.252  13.828  1.00  0.00    -0.272 OA
ATOM     16  H   UNL     1      -3.424  -2.470  12.477  1.00  0.00     0.164 HD
BRANCH  14  17
ATOM     17  C   UNL     1      -5.275  -3.175  13.923  1.00  0.00     0.207 C 
BRANCH  17  18
ATOM     18  C   UNL     1      -6.544  -4.014  14.098  1.00  0.00     0.077 C 
BRANCH  18  19
ATOM     19  C   UNL     1      -7.311  -4.151  12.802  1.00  0.00    -0.043 A 
ATOM     20  C   UNL     1      -8.849  -3.239  11.162  1.00  0.00     0.083 A 
ATOM     21  C   UNL     1      -8.103  -3.092  12.333  1.00  0.00     0.028 A 
ATOM     22  C   UNL     1      -8.809  -4.442  10.456  1.00  0.00     0.134 A 
ATOM     23  C   UNL     1      -8.028  -5.499  10.909  1.00  0.00     0.048 A 
ATOM     24  C   UNL     1      -7.283  -5.355  12.082  1.00  0.00     0.008 A 
ATOM     25  Cl  UNL     1      -9.817  -1.927  10.602  1.00  0.00    -0.080 Cl
BRANCH  22  26
ATOM     26  O   UNL     1      -9.530  -4.637   9.309  1.00  0.00    -0.506 OA
ATOM     27  H   UNL     1      -9.212  -3.980   8.663  1.00  0.00     0.293 HD
ENDBRANCH  22  26
ENDBRANCH  18  19
ENDBRANCH  17  18
BRANCH  17  28
ATOM     28  O   UNL     1      -5.512  -2.153  12.941  1.00  0.00    -0.383 OA
ATOM     29  H   UNL     1      -5.461  -2.600  12.065  1.00  0.00     0.211 HD
ENDBRANCH  17  28
ENDBRANCH  14  17
ENDBRANCH  12  13
BRANCH  12  30
ATOM     30  C   UNL     1      -0.720  -2.989  12.254  1.00  0.00     0.018 C 
ATOM     31  C   UNL     1      -1.224  -1.538  12.190  1.00  0.00     0.010 C 
BRANCH  30  32
ATOM     32  C   UNL     1       0.309  -3.245  11.127  1.00  0.00     0.002 C 
ATOM     33  C   UNL     1       0.994  -2.002  10.576  1.00  0.00     0.004 C 
ENDBRANCH  30  32
ENDBRANCH  12  30
ENDBRANCH  10  12
ENDBRANCH   1  10
BRANCH   5  34
ATOM     34  C   UNL     1      -4.627  -5.645   8.924  1.00  0.00     0.242 C 
ATOM     35  O   UNL     1      -5.275  -5.516   7.885  1.00  0.00    -0.273 OA
ATOM     36  N   UNL     1      -4.013  -6.828   9.270  1.00  0.00    -0.354 N 
ATOM     37  H   UNL     1      -3.594  -6.911  10.197  1.00  0.00     0.163 HD
BRANCH  36  38
ATOM     38  C   UNL     1      -3.853  -7.919   8.331  1.00  0.00     0.116 C 
BRANCH  38  39
ATOM     39  C   UNL     1      -2.581  -8.700   8.657  1.00  0.00     0.023 C 
BRANCH  39  40
ATOM     40  C   UNL     1      -1.582  -8.692   7.505  1.00  0.00     0.026 C 
BRANCH  40  41
ATOM     41  C   UNL     1      -0.989  -7.297   7.312  1.00  0.00     0.146 C 
BRANCH  41  42
ATOM     42  N   UNL     1      -0.893  -6.995   5.889  1.00  0.00    -0.254 NA
ATOM     43  C   UNL     1      -1.657  -6.103   5.379  1.00  0.00     0.185 C 
ATOM     44  N   UNL     1      -2.600  -5.337   5.957  1.00  0.00    -0.370 N 
ATOM     45  N   UNL     1      -1.556  -5.843   4.065  1.00  0.00    -0.370 N 
ATOM     46  H   UNL     1      -3.286  -4.860   5.398  1.00  0.00     0.159 HD
ATOM     47  H   UNL     1      -2.798  -5.395   6.951  1.00  0.00     0.159 HD
ATOM     48  H   UNL     1      -0.862  -6.372   3.555  1.00  0.00     0.159 HD
ATOM     49  H   UNL     1      -1.937  -5.015   3.644  1.00  0.00     0.159 HD
ENDBRANCH  41  42
ENDBRANCH  40  41
ENDBRANCH  39  40
ENDBRANCH  38  39
ENDBRANCH  36  38
ENDBRANCH   5  34
BRANCH   8  50
ATOM     50  O   UNL     1      -2.804  -2.402   5.974  1.00  0.00    -0.245 OA
BRANCH  50  51
ATOM     51  S   UNL     1      -2.169  -2.209   4.489  1.00  0.00     0.397 S 
ATOM     52  O   UNL     1      -0.875  -2.853   4.469  1.00  0.00    -0.169 OA
ATOM     53  O   UNL     1      -2.341  -0.836   4.062  1.00  0.00    -0.169 OA
BRANCH  51  54
ATOM     54  O   UNL     1      -3.132  -3.131   3.590  1.00  0.00    -0.264 OA
ATOM     55  H   UNL     1      -2.805  -4.052   3.652  1.00  0.00     0.236 HD
ENDBRANCH  51  54
ENDBRANCH  50  51
ENDBRANCH   8  50
TORSDOF 19
ENDMDL
MODEL 9
REMARK VINA RESULT:    -5.466      4.170      8.443
REMARK INTER + INTRA:         -15.494
REMARK INTER:                 -11.665
REMARK INTRA:                  -3.829
REMARK UNBOUND:                -4.436
REMARK SMILES CC[C@@H](C)[C@@H](NC(=O)[C@@H](O)Cc1ccc(O)c(Cl)c1)C(=O)N1[C@H](C(=O)NCCCCN=C(N)N)C[C@H]2CC[C@H](OS(=O)(=O)O)C[C@@H]21
REMARK SMILES IDX 22 1 36 2 46 3 35 4 23 5 45 6 37 7 39 8 38 9 20 10 21 11
REMARK SMILES IDX 5 12 6 13 7 14 8 15 9 17 11 18 12 19 17 20 19 21 15 22 14 23
REMARK SMILES IDX 13 24 18 25 16 26 10 28 3 30 4 31 2 32 1 33 24 34 25 35
REMARK SMILES IDX 26 36 27 38 28 39 29 40 30 41 31 42 32 43 33 44 34 45 40 50
REMARK SMILES IDX 41 51 42 52 43 53 44 54
REMARK H PARENT 6 16 16 27 10 29 26 37 33 46 33 47 34 48 34 49 44 55
ROOT
ATOM      1  N   UNL     1      -0.498  -6.453   5.798  1.00  0.00    -0.326 N 
ATOM      2  C   UNL     1       1.651  -7.396   5.991  1.00  0.00     0.014 C 
ATOM      3  C   UNL     1       0.916  -6.095   5.653  1.00  0.00     0.091 C 
ATOM      4  C   UNL     1       0.714  -8.462   5.444  1.00  0.00     0.041 C 
ATOM      5  C   UNL     1      -0.637  -7.922   5.950  1.00  0.00     0.175 C 
ATOM      6  C   UNL     1       1.476  -4.981   6.535  1.00  0.00     0.059 C 
ATOM      7  C   UNL     1       3.087  -7.349   5.507  1.00  0.00     0.008 C 
ATOM      8  C   UNL     1       2.969  -5.158   6.887  1.00  0.00     0.143 C 
ATOM      9  C   UNL     1       3.723  -5.978   5.821  1.00  0.00     0.034 C 
ENDROOT
BRANCH   1  10
ATOM     10  C   UNL     1      -1.632  -5.684   5.601  1.00  0.00     0.246 C 
ATOM     11  O   UNL     1      -2.179  -5.693   4.493  1.00  0.00    -0.272 OA
BRANCH  10  12
ATOM     12  C   UNL     1      -2.217  -4.863   6.786  1.00  0.00     0.174 C 
BRANCH  12  13
ATOM     13  N   UNL     1      -3.559  -5.344   7.112  1.00  0.00    -0.342 N 
ATOM     14  C   UNL     1      -3.988  -5.694   8.372  1.00  0.00     0.249 C 
ATOM     15  O   UNL     1      -3.292  -5.615   9.377  1.00  0.00    -0.272 OA
ATOM     16  H   UNL     1      -4.195  -5.609   6.364  1.00  0.00     0.164 HD
BRANCH  14  17
ATOM     17  C   UNL     1      -5.453  -6.181   8.389  1.00  0.00     0.207 C 
BRANCH  17  18
ATOM     18  C   UNL     1      -6.141  -5.765   9.693  1.00  0.00     0.077 C 
BRANCH  18  19
ATOM     19  C   UNL     1      -7.151  -4.663   9.469  1.00  0.00    -0.043 A 
ATOM     20  C   UNL     1      -9.428  -3.837   9.607  1.00  0.00     0.083 A 
ATOM     21  C   UNL     1      -8.488  -4.837   9.860  1.00  0.00     0.028 A 
ATOM     22  C   UNL     1      -9.041  -2.661   8.963  1.00  0.00     0.134 A 
ATOM     23  C   UNL     1      -7.720  -2.476   8.571  1.00  0.00     0.048 A 
ATOM     24  C   UNL     1      -6.777  -3.475   8.821  1.00  0.00     0.008 A 
ATOM     25  Cl  UNL     1     -11.066  -4.070  10.094  1.00  0.00    -0.080 Cl
BRANCH  22  26
ATOM     26  O   UNL     1      -9.929  -1.658   8.684  1.00  0.00    -0.506 OA
ATOM     27  H   UNL     1      -9.399  -0.869   8.463  1.00  0.00     0.293 HD
ENDBRANCH  22  26
ENDBRANCH  18  19
ENDBRANCH  17  18
BRANCH  17  28
ATOM     28  O   UNL     1      -5.526  -7.608   8.245  1.00  0.00    -0.383 OA
ATOM     29  H   UNL     1      -6.241  -7.907   8.852  1.00  0.00     0.211 HD
ENDBRANCH  17  28
ENDBRANCH  14  17
ENDBRANCH  12  13
BRANCH  12  30
ATOM     30  C   UNL     1      -2.182  -3.332   6.529  1.00  0.00     0.018 C 
ATOM     31  C   UNL     1      -1.423  -2.607   7.651  1.00  0.00     0.010 C 
BRANCH  30  32
ATOM     32  C   UNL     1      -3.584  -2.701   6.342  1.00  0.00     0.002 C 
ATOM     33  C   UNL     1      -3.893  -1.519   7.251  1.00  0.00     0.004 C 
ENDBRANCH  30  32
ENDBRANCH  12  30
ENDBRANCH  10  12
ENDBRANCH   1  10
BRANCH   5  34
ATOM     34  C   UNL     1      -0.885  -8.301   7.434  1.00  0.00     0.242 C 
ATOM     35  O   UNL     1      -0.719  -7.500   8.354  1.00  0.00    -0.273 OA
ATOM     36  N   UNL     1      -1.250  -9.611   7.652  1.00  0.00    -0.354 N 
ATOM     37  H   UNL     1      -1.254 -10.257   6.862  1.00  0.00     0.163 HD
BRANCH  36  38
ATOM     38  C   UNL     1      -1.725 -10.078   8.937  1.00  0.00     0.116 C 
BRANCH  38  39
ATOM     39  C   UNL     1      -0.543 -10.508   9.802  1.00  0.00     0.023 C 
BRANCH  39  40
ATOM     40  C   UNL     1      -0.603  -9.917  11.207  1.00  0.00     0.026 C 
BRANCH  40  41
ATOM     41  C   UNL     1      -2.023  -9.997  11.768  1.00  0.00     0.146 C 
BRANCH  41  42
ATOM     42  N   UNL     1      -2.465  -8.671  12.180  1.00  0.00    -0.254 NA
ATOM     43  C   UNL     1      -3.596  -8.227  11.775  1.00  0.00     0.185 C 
ATOM     44  N   UNL     1      -4.519  -8.803  10.983  1.00  0.00    -0.370 N 
ATOM     45  N   UNL     1      -3.983  -7.000  12.162  1.00  0.00    -0.370 N 
ATOM     46  H   UNL     1      -5.240  -8.251  10.552  1.00  0.00     0.159 HD
ATOM     47  H   UNL     1      -4.392  -9.739  10.611  1.00  0.00     0.159 HD
ATOM     48  H   UNL     1      -3.348  -6.500  12.769  1.00  0.00     0.159 HD
ATOM     49  H   UNL     1      -4.933  -6.682  12.090  1.00  0.00     0.159 HD
ENDBRANCH  41  42
ENDBRANCH  40  41
ENDBRANCH  39  40
ENDBRANCH  38  39
ENDBRANCH  36  38
ENDBRANCH   5  34
BRANCH   8  50
ATOM     50  O   UNL     1       3.101  -5.820   8.145  1.00  0.00    -0.245 OA
BRANCH  50  51
ATOM     51  S   UNL     1       3.705  -5.009   9.420  1.00  0.00     0.397 S 
ATOM     52  O   UNL     1       4.251  -5.976  10.346  1.00  0.00    -0.169 OA
ATOM     53  O   UNL     1       2.758  -3.999   9.846  1.00  0.00    -0.169 OA
BRANCH  51  54
ATOM     54  O   UNL     1       4.971  -4.260   8.771  1.00  0.00    -0.264 OA
ATOM     55  H   UNL     1       5.659  -4.185   9.463  1.00  0.00     0.236 HD
ENDBRANCH  51  54
ENDBRANCH  50  51
ENDBRANCH   8  50
TORSDOF 19
ENDMDL
MODEL 10
REMARK VINA RESULT:    -5.457      4.455      8.383
REMARK INTER + INTRA:         -15.477
REMARK INTER:                 -10.722
REMARK INTRA:                  -4.755
REMARK UNBOUND:                -4.436
REMARK SMILES CC[C@@H](C)[C@@H](NC(=O)[C@@H](O)Cc1ccc(O)c(Cl)c1)C(=O)N1[C@H](C(=O)NCCCCN=C(N)N)C[C@H]2CC[C@H](OS(=O)(=O)O)C[C@@H]21
REMARK SMILES IDX 22 1 36 2 46 3 35 4 23 5 45 6 37 7 39 8 38 9 20 10 21 11
REMARK SMILES IDX 5 12 6 13 7 14 8 15 9 17 11 18 12 19 17 20 19 21 15 22 14 23
REMARK SMILES IDX 13 24 18 25 16 26 10 28 3 30 4 31 2 32 1 33 24 34 25 35
REMARK SMILES IDX 26 36 27 38 28 39 29 40 30 41 31 42 32 43 33 44 34 45 40 50
REMARK SMILES IDX 41 51 42 52 43 53 44 54
REMARK H PARENT 6 16 16 27 10 29 26 37 33 46 33 47 34 48 34 49 44 55
ROOT
ATOM      1  N   UNL     1      -0.345  -6.715   5.558  1.00  0.00    -0.326 N 
ATOM      2  C   UNL     1       1.630  -7.938   5.940  1.00  0.00     0.014 C 
ATOM      3  C   UNL     1       1.107  -6.612   5.381  1.00  0.00     0.091 C 
ATOM      4  C   UNL     1       0.533  -8.919   5.559  1.00  0.00     0.041 C 
ATOM      5  C   UNL     1      -0.712  -8.099   5.946  1.00  0.00     0.175 C 
ATOM      6  C   UNL     1       1.842  -5.469   6.079  1.00  0.00     0.059 C 
ATOM      7  C   UNL     1       3.052  -8.196   5.480  1.00  0.00     0.008 C 
ATOM      8  C   UNL     1       3.292  -5.817   6.481  1.00  0.00     0.143 C 
ATOM      9  C   UNL     1       3.898  -6.909   5.576  1.00  0.00     0.034 C 
ENDROOT
BRANCH   1  10
ATOM     10  C   UNL     1      -1.346  -5.821   5.219  1.00  0.00     0.246 C 
ATOM     11  O   UNL     1      -2.169  -6.140   4.354  1.00  0.00    -0.272 OA
BRANCH  10  12
ATOM     12  C   UNL     1      -1.440  -4.456   5.961  1.00  0.00     0.174 C 
BRANCH  12  13
ATOM     13  N   UNL     1      -2.266  -4.596   7.159  1.00  0.00    -0.342 N 
ATOM     14  C   UNL     1      -1.889  -4.216   8.428  1.00  0.00     0.249 C 
ATOM     15  O   UNL     1      -0.817  -3.686   8.690  1.00  0.00    -0.272 OA
ATOM     16  H   UNL     1      -3.113  -5.158   7.124  1.00  0.00     0.164 HD
BRANCH  14  17
ATOM     17  C   UNL     1      -2.975  -4.510   9.485  1.00  0.00     0.207 C 
BRANCH  17  18
ATOM     18  C   UNL     1      -4.368  -4.462   8.850  1.00  0.00     0.077 C 
BRANCH  18  19
ATOM     19  C   UNL     1      -5.202  -5.664   9.232  1.00  0.00    -0.043 A 
ATOM     20  C   UNL     1      -7.087  -6.624  10.419  1.00  0.00     0.083 A 
ATOM     21  C   UNL     1      -6.348  -5.507  10.027  1.00  0.00     0.028 A 
ATOM     22  C   UNL     1      -6.687  -7.900  10.022  1.00  0.00     0.134 A 
ATOM     23  C   UNL     1      -5.554  -8.070   9.235  1.00  0.00     0.048 A 
ATOM     24  C   UNL     1      -4.811  -6.954   8.842  1.00  0.00     0.008 A 
ATOM     25  Cl  UNL     1      -8.492  -6.411  11.396  1.00  0.00    -0.080 Cl
BRANCH  22  26
ATOM     26  O   UNL     1      -7.373  -9.026  10.391  1.00  0.00    -0.506 OA
ATOM     27  H   UNL     1      -6.885  -9.785  10.022  1.00  0.00     0.293 HD
ENDBRANCH  22  26
ENDBRANCH  18  19
ENDBRANCH  17  18
BRANCH  17  28
ATOM     28  O   UNL     1      -2.912  -3.567  10.567  1.00  0.00    -0.383 OA
ATOM     29  H   UNL     1      -3.353  -2.749  10.241  1.00  0.00     0.211 HD
ENDBRANCH  17  28
ENDBRANCH  14  17
ENDBRANCH  12  13
BRANCH  12  30
ATOM     30  C   UNL     1      -1.923  -3.304   5.039  1.00  0.00     0.018 C 
ATOM     31  C   UNL     1      -0.810  -2.875   4.071  1.00  0.00     0.010 C 
BRANCH  30  32
ATOM     32  C   UNL     1      -2.460  -2.075   5.811  1.00  0.00     0.002 C 
ATOM     33  C   UNL     1      -3.908  -1.703   5.517  1.00  0.00     0.004 C 
ENDBRANCH  30  32
ENDBRANCH  12  30
ENDBRANCH  10  12
ENDBRANCH   1  10
BRANCH   5  34
ATOM     34  C   UNL     1      -1.003  -8.185   7.468  1.00  0.00     0.242 C 
ATOM     35  O   UNL     1      -0.716  -7.275   8.245  1.00  0.00    -0.273 OA
ATOM     36  N   UNL     1      -1.554  -9.374   7.893  1.00  0.00    -0.354 N 
ATOM     37  H   UNL     1      -1.657 -10.135   7.222  1.00  0.00     0.163 HD
BRANCH  36  38
ATOM     38  C   UNL     1      -2.084  -9.546   9.230  1.00  0.00     0.116 C 
BRANCH  38  39
ATOM     39  C   UNL     1      -1.602 -10.872   9.812  1.00  0.00     0.023 C 
BRANCH  39  40
ATOM     40  C   UNL     1      -0.107 -10.868  10.111  1.00  0.00     0.026 C 
BRANCH  40  41
ATOM     41  C   UNL     1       0.217  -9.894  11.244  1.00  0.00     0.146 C 
BRANCH  41  42
ATOM     42  N   UNL     1       1.655  -9.670  11.304  1.00  0.00    -0.254 NA
ATOM     43  C   UNL     1       2.162  -8.650  10.719  1.00  0.00     0.185 C 
ATOM     44  N   UNL     1       1.567  -7.676  10.007  1.00  0.00    -0.370 N 
ATOM     45  N   UNL     1       3.491  -8.464  10.783  1.00  0.00    -0.370 N 
ATOM     46  H   UNL     1       2.106  -7.079   9.404  1.00  0.00     0.159 HD
ATOM     47  H   UNL     1       0.561  -7.655   9.870  1.00  0.00     0.159 HD
ATOM     48  H   UNL     1       4.015  -9.150  11.309  1.00  0.00     0.159 HD
ATOM     49  H   UNL     1       3.928  -7.587  10.563  1.00  0.00     0.159 HD
ENDBRANCH  41  42
ENDBRANCH  40  41
ENDBRANCH  39  40
ENDBRANCH  38  39
ENDBRANCH  36  38
ENDBRANCH   5  34
BRANCH   8  50
ATOM     50  O   UNL     1       3.329  -6.276   7.833  1.00  0.00    -0.245 OA
BRANCH  50  51
ATOM     51  S   UNL     1       4.239  -5.484   8.924  1.00  0.00     0.397 S 
ATOM     52  O   UNL     1       3.466  -5.353  10.138  1.00  0.00    -0.169 OA
ATOM     53  O   UNL     1       4.867  -4.341   8.296  1.00  0.00    -0.169 OA
BRANCH  51  54
ATOM     54  O   UNL     1       5.386  -6.563   9.250  1.00  0.00    -0.264 OA
ATOM     55  H   UNL     1       5.409  -7.206   8.512  1.00  0.00     0.236 HD
ENDBRANCH  51  54
ENDBRANCH  50  51
ENDBRANCH   8  50
TORSDOF 19
ENDMDL
