10327288
  -OEChem-01042617102D

 91 93  0     1  0  0  0  0  0999 V2000
   12.3835   -4.5221    0.0000 Cl  0  0  0  0  0  0  0  0  0  0  0  0
    3.4030    1.7187    0.0000 S   0  0  0  0  0  0  0  0  0  0  0  0
    4.2690    1.2187    0.0000 O   0  0  0  0  0  0  0  0  0  0  0  0
    9.1025    0.2572    0.0000 O   0  0  0  0  0  0  0  0  0  0  0  0
    9.8969    1.3527    0.0000 O   0  0  0  0  0  0  0  0  0  0  0  0
    2.5369    2.2187    0.0000 O   0  0  0  0  0  0  0  0  0  0  0  0
    2.9030    0.8527    0.0000 O   0  0  0  0  0  0  0  0  0  0  0  0
    3.9030    2.5847    0.0000 O   0  0  0  0  0  0  0  0  0  0  0  0
    7.5053   -2.4721    0.0000 O   0  0  0  0  0  0  0  0  0  0  0  0
   10.1506   -2.5186    0.0000 O   0  0  0  0  0  0  0  0  0  0  0  0
   11.9712   -6.4791    0.0000 O   0  0  0  0  0  0  0  0  0  0  0  0
    7.8133    1.4140    0.0000 N   0  0  0  0  0  0  0  0  0  0  0  0
    9.8969    3.0847    0.0000 N   0  0  0  0  0  0  0  0  0  0  0  0
    8.6621   -1.1829    0.0000 N   0  0  0  0  0  0  0  0  0  0  0  0
   13.8969    4.8168    0.0000 N   0  0  0  0  0  0  0  0  0  0  0  0
   15.3969    5.6828    0.0000 N   0  0  0  0  0  0  0  0  0  0  0  0
   13.8969    6.5488    0.0000 N   0  0  0  0  0  0  0  0  0  0  0  0
    6.8671    2.7187    0.0000 C   0  0  3  0  0  0  0  0  0  0  0  0
    6.8671    1.7187    0.0000 C   0  0  3  0  0  0  0  0  0  0  0  0
    7.8133    3.0234    0.0000 C   0  0  0  0  0  0  0  0  0  0  0  0
    8.3969    2.2187    0.0000 C   0  0  3  0  0  0  0  0  0  0  0  0
    6.0010    1.2187    0.0000 C   0  0  0  0  0  0  0  0  0  0  0  0
    6.0010    3.2187    0.0000 C   0  0  0  0  0  0  0  0  0  0  0  0
    5.1350    1.7187    0.0000 C   0  0  3  0  0  0  0  0  0  0  0  0
    5.1350    2.7187    0.0000 C   0  0  0  0  0  0  0  0  0  0  0  0
    8.1240    0.4634    0.0000 C   0  0  0  0  0  0  0  0  0  0  0  0
    9.3969    2.2187    0.0000 C   0  0  0  0  0  0  0  0  0  0  0  0
    7.9177   -0.5151    0.0000 C   0  0  1  0  0  0  0  0  0  0  0  0
    6.9672   -0.8257    0.0000 C   0  0  1  0  0  0  0  0  0  0  0  0
    6.7610   -1.8042    0.0000 C   0  0  0  0  0  0  0  0  0  0  0  0
   10.8969    3.0847    0.0000 C   0  0  0  0  0  0  0  0  0  0  0  0
    6.2229   -0.1579    0.0000 C   0  0  0  0  0  0  0  0  0  0  0  0
    8.4559   -2.1614    0.0000 C   0  0  0  0  0  0  0  0  0  0  0  0
   11.3969    3.9508    0.0000 C   0  0  0  0  0  0  0  0  0  0  0  0
    5.8104   -2.1149    0.0000 C   0  0  0  0  0  0  0  0  0  0  0  0
    9.2002   -2.8292    0.0000 C   0  0  3  0  0  0  0  0  0  0  0  0
   12.3969    3.9508    0.0000 C   0  0  0  0  0  0  0  0  0  0  0  0
    8.9940   -3.8077    0.0000 C   0  0  0  0  0  0  0  0  0  0  0  0
   12.8969    4.8168    0.0000 C   0  0  0  0  0  0  0  0  0  0  0  0
    9.7383   -4.4756    0.0000 C   0  0  0  0  0  0  0  0  0  0  0  0
   10.6888   -4.1649    0.0000 C   0  0  0  0  0  0  0  0  0  0  0  0
    9.5320   -5.4541    0.0000 C   0  0  0  0  0  0  0  0  0  0  0  0
   14.3969    5.6828    0.0000 C   0  0  0  0  0  0  0  0  0  0  0  0
   11.4330   -4.8328    0.0000 C   0  0  0  0  0  0  0  0  0  0  0  0
   10.2764   -6.1219    0.0000 C   0  0  0  0  0  0  0  0  0  0  0  0
   11.2269   -5.8113    0.0000 C   0  0  0  0  0  0  0  0  0  0  0  0
    6.9327    3.3352    0.0000 H   0  0  0  0  0  0  0  0  0  0  0  0
    6.9327    1.1022    0.0000 H   0  0  0  0  0  0  0  0  0  0  0  0
    8.3507    3.3327    0.0000 H   0  0  0  0  0  0  0  0  0  0  0  0
    7.5623    3.5903    0.0000 H   0  0  0  0  0  0  0  0  0  0  0  0
    8.6786    1.6664    0.0000 H   0  0  0  0  0  0  0  0  0  0  0  0
    5.6025    0.7438    0.0000 H   0  0  0  0  0  0  0  0  0  0  0  0
    6.3996    0.7438    0.0000 H   0  0  0  0  0  0  0  0  0  0  0  0
    6.3996    3.6937    0.0000 H   0  0  0  0  0  0  0  0  0  0  0  0
    5.6025    3.6937    0.0000 H   0  0  0  0  0  0  0  0  0  0  0  0
    5.1350    1.0987    0.0000 H   0  0  0  0  0  0  0  0  0  0  0  0
    4.9230    3.3013    0.0000 H   0  0  0  0  0  0  0  0  0  0  0  0
    4.5244    2.6110    0.0000 H   0  0  0  0  0  0  0  0  0  0  0  0
    7.7899   -1.1217    0.0000 H   0  0  0  0  0  0  0  0  0  0  0  0
    7.0950   -0.2190    0.0000 H   0  0  0  0  0  0  0  0  0  0  0  0
    9.5869    3.6217    0.0000 H   0  0  0  0  0  0  0  0  0  0  0  0
    9.2514   -0.9903    0.0000 H   0  0  0  0  0  0  0  0  0  0  0  0
    6.8483   -2.4180    0.0000 H   0  0  0  0  0  0  0  0  0  0  0  0
    7.3806   -1.8248    0.0000 H   0  0  0  0  0  0  0  0  0  0  0  0
   10.7892    2.4742    0.0000 H   0  0  0  0  0  0  0  0  0  0  0  0
   11.4795    2.8727    0.0000 H   0  0  0  0  0  0  0  0  0  0  0  0
    6.6370    0.3036    0.0000 H   0  0  0  0  0  0  0  0  0  0  0  0
    5.7614    0.2562    0.0000 H   0  0  0  0  0  0  0  0  0  0  0  0
    5.8088   -0.6193    0.0000 H   0  0  0  0  0  0  0  0  0  0  0  0
   11.5046    4.5613    0.0000 H   0  0  0  0  0  0  0  0  0  0  0  0
   10.8143    4.1628    0.0000 H   0  0  0  0  0  0  0  0  0  0  0  0
    5.6178   -1.5255    0.0000 H   0  0  0  0  0  0  0  0  0  0  0  0
    5.2211   -2.3074    0.0000 H   0  0  0  0  0  0  0  0  0  0  0  0
    6.0030   -2.7042    0.0000 H   0  0  0  0  0  0  0  0  0  0  0  0
    2.0000    1.9087    0.0000 H   0  0  0  0  0  0  0  0  0  0  0  0
    9.3280   -2.2226    0.0000 H   0  0  0  0  0  0  0  0  0  0  0  0
   12.2892    3.3402    0.0000 H   0  0  0  0  0  0  0  0  0  0  0  0
   12.9795    3.7387    0.0000 H   0  0  0  0  0  0  0  0  0  0  0  0
    8.4187   -3.5765    0.0000 H   0  0  0  0  0  0  0  0  0  0  0  0
    8.6663   -4.3341    0.0000 H   0  0  0  0  0  0  0  0  0  0  0  0
   13.0046    5.4274    0.0000 H   0  0  0  0  0  0  0  0  0  0  0  0
   12.3143    5.0288    0.0000 H   0  0  0  0  0  0  0  0  0  0  0  0
   10.2785   -1.9119    0.0000 H   0  0  0  0  0  0  0  0  0  0  0  0
   10.8167   -3.5582    0.0000 H   0  0  0  0  0  0  0  0  0  0  0  0
    8.9427   -5.6467    0.0000 H   0  0  0  0  0  0  0  0  0  0  0  0
   10.1485   -6.7286    0.0000 H   0  0  0  0  0  0  0  0  0  0  0  0
   15.7069    6.2197    0.0000 H   0  0  0  0  0  0  0  0  0  0  0  0
   15.7069    5.1459    0.0000 H   0  0  0  0  0  0  0  0  0  0  0  0
   14.2069    7.0858    0.0000 H   0  0  0  0  0  0  0  0  0  0  0  0
   13.2769    6.5488    0.0000 H   0  0  0  0  0  0  0  0  0  0  0  0
   11.8433   -7.0858    0.0000 H   0  0  0  0  0  0  0  0  0  0  0  0
  1 44  1  0  0  0  0
  2  3  1  0  0  0  0
  2  6  1  0  0  0  0
  2  7  2  0  0  0  0
  2  8  2  0  0  0  0
  3 24  1  0  0  0  0
  4 26  2  0  0  0  0
  5 27  2  0  0  0  0
  6 75  1  0  0  0  0
  9 33  2  0  0  0  0
 10 36  1  0  0  0  0
 10 83  1  0  0  0  0
 11 46  1  0  0  0  0
 11 91  1  0  0  0  0
 12 19  1  0  0  0  0
 12 21  1  0  0  0  0
 12 26  1  0  0  0  0
 13 27  1  0  0  0  0
 13 31  1  0  0  0  0
 13 61  1  0  0  0  0
 28 14  1  6  0  0  0
 14 33  1  0  0  0  0
 14 62  1  0  0  0  0
 15 39  1  0  0  0  0
 15 43  2  0  0  0  0
 16 43  1  0  0  0  0
 16 87  1  0  0  0  0
 16 88  1  0  0  0  0
 17 43  1  0  0  0  0
 17 89  1  0  0  0  0
 17 90  1  0  0  0  0
 18 19  1  0  0  0  0
 18 20  1  0  0  0  0
 18 23  1  0  0  0  0
 18 47  1  0  0  0  0
 19 22  1  0  0  0  0
 19 48  1  0  0  0  0
 20 21  1  0  0  0  0
 20 49  1  0  0  0  0
 20 50  1  0  0  0  0
 21 27  1  0  0  0  0
 21 51  1  0  0  0  0
 22 24  1  0  0  0  0
 22 52  1  0  0  0  0
 22 53  1  0  0  0  0
 23 25  1  0  0  0  0
 23 54  1  0  0  0  0
 23 55  1  0  0  0  0
 24 25  1  0  0  0  0
 24 56  1  0  0  0  0
 25 57  1  0  0  0  0
 25 58  1  0  0  0  0
 26 28  1  0  0  0  0
 28 29  1  0  0  0  0
 28 59  1  0  0  0  0
 29 30  1  0  0  0  0
 29 32  1  1  0  0  0
 29 60  1  0  0  0  0
 30 35  1  0  0  0  0
 30 63  1  0  0  0  0
 30 64  1  0  0  0  0
 31 34  1  0  0  0  0
 31 65  1  0  0  0  0
 31 66  1  0  0  0  0
 32 67  1  0  0  0  0
 32 68  1  0  0  0  0
 32 69  1  0  0  0  0
 33 36  1  0  0  0  0
 34 37  1  0  0  0  0
 34 70  1  0  0  0  0
 34 71  1  0  0  0  0
 35 72  1  0  0  0  0
 35 73  1  0  0  0  0
 35 74  1  0  0  0  0
 36 38  1  0  0  0  0
 36 76  1  0  0  0  0
 37 39  1  0  0  0  0
 37 77  1  0  0  0  0
 37 78  1  0  0  0  0
 38 40  1  0  0  0  0
 38 79  1  0  0  0  0
 38 80  1  0  0  0  0
 39 81  1  0  0  0  0
 39 82  1  0  0  0  0
 40 41  2  0  0  0  0
 40 42  1  0  0  0  0
 41 44  1  0  0  0  0
 41 84  1  0  0  0  0
 42 45  2  0  0  0  0
 42 85  1  0  0  0  0
 44 46  2  0  0  0  0
 45 46  1  0  0  0  0
 45 86  1  0  0  0  0
M  END
> <PUBCHEM_COMPOUND_CID>
10327288

> <PUBCHEM_COMPOUND_CANONICALIZED>
1

> <PUBCHEM_CACTVS_COMPLEXITY>
1180

> <PUBCHEM_CACTVS_HBOND_ACCEPTOR>
10

> <PUBCHEM_CACTVS_HBOND_DONOR>
7

> <PUBCHEM_CACTVS_ROTATABLE_BOND>
15

> <PUBCHEM_CACTVS_SUBSKEYS>
AAADcfB7vABEAAAAAAAAAAAAAAAAAWAAAAAwYAAAAAAAAFgBAAAAHgIQCAAADT7hmCYzBoPAAoCoAiFSNDICAAEgJUAIiIHOC4gKdjKDkzKUcAAm1hGYmAeY2aOeIAAAIAAACABAAABEAAQQAAAAAAAAAA==

> <PUBCHEM_IUPAC_OPENEYE_NAME>
[1-[(2R,3R)-2-[[3-(3-chloro-4-hydroxy-phenyl)-2-hydroxy-propanoyl]amino]-3-methyl-pentanoyl]-2-(4-guanidinobutylcarbamoyl)-2,3,3a,4,5,6,7,7a-octahydroindol-6-yl] hydrogen sulfate

> <PUBCHEM_IUPAC_CAS_NAME>
sulfuric acid [1-[(2R,3R)-2-[[3-(3-chloro-4-hydroxyphenyl)-2-hydroxy-1-oxopropyl]amino]-3-methyl-1-oxopentyl]-2-[[4-(diaminomethylideneamino)butylamino]-oxomethyl]-2,3,3a,4,5,6,7,7a-octahydroindol-6-yl] ester

> <PUBCHEM_IUPAC_NAME_MARKUP>
[1-[(2<I>R</I>,3<I>R</I>)-2-[[3-(3-chloro-4-hydroxyphenyl)-2-hydroxypropanoyl]amino]-3-methylpentanoyl]-2-[4-(diaminomethylideneamino)butylcarbamoyl]-2,3,3<I>a</I>,4,5,6,7,7<I>a</I>-octahydroindol-6-yl] hydrogen sulfate

> <PUBCHEM_IUPAC_NAME>
[1-[(2R,3R)-2-[[3-(3-chloro-4-hydroxyphenyl)-2-hydroxypropanoyl]amino]-3-methylpentanoyl]-2-[4-(diaminomethylideneamino)butylcarbamoyl]-2,3,3a,4,5,6,7,7a-octahydroindol-6-yl] hydrogen sulfate

> <PUBCHEM_IUPAC_SYSTEMATIC_NAME>
[2-[4-[bis(azanyl)methylideneamino]butylcarbamoyl]-1-[(2R,3R)-2-[[3-(3-chloranyl-4-oxidanyl-phenyl)-2-oxidanyl-propanoyl]amino]-3-methyl-pentanoyl]-2,3,3a,4,5,6,7,7a-octahydroindol-6-yl] hydrogen sulfate

> <PUBCHEM_IUPAC_TRADITIONAL_NAME>
sulfuric acid [1-[(2R,3R)-2-[[3-(3-chloro-4-hydroxy-phenyl)-2-hydroxy-propanoyl]amino]-3-methyl-pentanoyl]-2-(4-guanidinobutylcarbamoyl)-2,3,3a,4,5,6,7,7a-octahydroindol-6-yl] ester

> <PUBCHEM_IUPAC_INCHI>
InChI=1S/C29H45ClN6O9S/c1-3-16(2)25(35-27(40)24(38)13-17-6-9-23(37)20(30)12-17)28(41)36-21-15-19(45-46(42,43)44)8-7-18(21)14-22(36)26(39)33-10-4-5-11-34-29(31)32/h6,9,12,16,18-19,21-22,24-25,37-38H,3-5,7-8,10-11,13-15H2,1-2H3,(H,33,39)(H,35,40)(H4,31,32,34)(H,42,43,44)/t16-,18?,19?,21?,22?,24?,25-/m1/s1

> <PUBCHEM_IUPAC_INCHIKEY>
LNRXFFGKAKWQCV-DJKRDFIDSA-N

> <PUBCHEM_XLOGP3_AA>
1.2

> <PUBCHEM_EXACT_MASS>
688.2657259

> <PUBCHEM_MOLECULAR_FORMULA>
C29H45ClN6O9S

> <PUBCHEM_MOLECULAR_WEIGHT>
689.2

> <PUBCHEM_SMILES>
CC[C@@H](C)[C@H](C(=O)N1C2CC(CCC2CC1C(=O)NCCCCN=C(N)N)OS(=O)(=O)O)NC(=O)C(CC3=CC(=C(C=C3)O)Cl)O

> <PUBCHEM_CONNECTIVITY_SMILES>
CCC(C)C(C(=O)N1C2CC(CCC2CC1C(=O)NCCCCN=C(N)N)OS(=O)(=O)O)NC(=O)C(CC3=CC(=C(C=C3)O)Cl)O

> <PUBCHEM_CACTVS_TPSA>
255

> <PUBCHEM_MONOISOTOPIC_WEIGHT>
688.2657259

> <PUBCHEM_TOTAL_CHARGE>
0

> <PUBCHEM_HEAVY_ATOM_COUNT>
46

> <PUBCHEM_ATOM_DEF_STEREO_COUNT>
2

> <PUBCHEM_ATOM_UDEF_STEREO_COUNT>
5

> <PUBCHEM_BOND_DEF_STEREO_COUNT>
0

> <PUBCHEM_BOND_UDEF_STEREO_COUNT>
0

> <PUBCHEM_ISOTOPIC_ATOM_COUNT>
0

> <PUBCHEM_COMPONENT_COUNT>
1

> <PUBCHEM_CACTVS_TAUTO_COUNT>
-1

> <PUBCHEM_COORDINATE_TYPE>
1
5
255

> <PUBCHEM_BONDANNOTATIONS>
36  10  3
28  14  6
18  23  3
19  22  3
21  27  3
29  32  5
24  3  3
40  41  8
40  42  8
41  44  8
42  45  8
44  46  8
45  46  8

$$$$
