MODEL 1
REMARK VINA RESULT:    -7.877      0.000      0.000
REMARK INTER + INTRA:         -18.699
REMARK INTER:                 -15.936
REMARK INTRA:                  -2.763
REMARK UNBOUND:                -2.763
REMARK SMILES CC[C@@H](C)[C@@H](NC(=O)[C@@H](O)Cc1ccc(O)c(Cl)c1)C(=O)N1[C@H](C(=O)NCCCCN=C(N)N)C[C@H]2CC[C@H](OS(=O)(=O)O)C[C@@H]21
REMARK SMILES IDX 22 1 36 2 46 3 35 4 23 5 45 6 37 7 39 8 38 9 20 10 21 11
REMARK SMILES IDX 5 12 6 13 7 14 8 15 9 17 11 18 12 19 17 20 19 21 15 22 14 23
REMARK SMILES IDX 13 24 18 25 16 26 10 28 3 30 4 31 2 32 1 33 24 34 25 35
REMARK SMILES IDX 26 36 27 38 28 39 29 40 30 41 31 42 32 43 33 44 34 45 40 50
REMARK SMILES IDX 41 51 42 52 43 53 44 54
REMARK H PARENT 6 16 16 27 10 29 26 37 33 46 33 47 34 48 34 49 44 55
ROOT
ATOM      1  N   UNL     1      -5.122   1.446  -6.256  1.00  0.00    -0.326 N 
ATOM      2  C   UNL     1      -5.147   1.044  -8.576  1.00  0.00     0.014 C 
ATOM      3  C   UNL     1      -4.422   1.836  -7.484  1.00  0.00     0.091 C 
ATOM      4  C   UNL     1      -6.584   1.022  -8.076  1.00  0.00     0.041 C 
ATOM      5  C   UNL     1      -6.350   0.684  -6.592  1.00  0.00     0.175 C 
ATOM      6  C   UNL     1      -2.926   1.545  -7.589  1.00  0.00     0.059 C 
ATOM      7  C   UNL     1      -4.846   1.613  -9.948  1.00  0.00     0.008 C 
ATOM      8  C   UNL     1      -2.447   1.268  -9.030  1.00  0.00     0.143 C 
ATOM      9  C   UNL     1      -3.346   1.950 -10.081  1.00  0.00     0.034 C 
ENDROOT
BRANCH   1  10
ATOM     10  C   UNL     1      -4.918   1.856  -4.950  1.00  0.00     0.246 C 
ATOM     11  O   UNL     1      -4.501   1.041  -4.121  1.00  0.00    -0.272 OA
BRANCH  10  12
ATOM     12  C   UNL     1      -5.177   3.342  -4.564  1.00  0.00     0.174 C 
BRANCH  12  13
ATOM     13  N   UNL     1      -3.914   3.997  -4.225  1.00  0.00    -0.342 N 
ATOM     14  C   UNL     1      -3.439   5.147  -4.813  1.00  0.00     0.249 C 
ATOM     15  O   UNL     1      -4.043   5.772  -5.676  1.00  0.00    -0.272 OA
ATOM     16  H   UNL     1      -3.236   3.512  -3.643  1.00  0.00     0.164 HD
BRANCH  14  17
ATOM     17  C   UNL     1      -2.068   5.580  -4.252  1.00  0.00     0.207 C 
BRANCH  17  18
ATOM     18  C   UNL     1      -1.130   4.373  -4.139  1.00  0.00     0.077 C 
BRANCH  18  19
ATOM     19  C   UNL     1      -0.563   3.975  -5.483  1.00  0.00    -0.043 A 
ATOM     20  C   UNL     1      -0.358   4.343  -7.872  1.00  0.00     0.083 A 
ATOM     21  C   UNL     1      -0.842   4.741  -6.625  1.00  0.00     0.028 A 
ATOM     22  C   UNL     1       0.405   3.180  -7.985  1.00  0.00     0.134 A 
ATOM     23  C   UNL     1       0.690   2.412  -6.862  1.00  0.00     0.048 A 
ATOM     24  C   UNL     1       0.205   2.807  -5.613  1.00  0.00     0.008 A 
ATOM     25  Cl  UNL     1      -0.712   5.297  -9.264  1.00  0.00    -0.080 Cl
BRANCH  22  26
ATOM     26  O   UNL     1       0.893   2.744  -9.188  1.00  0.00    -0.506 OA
ATOM     27  H   UNL     1       0.191   2.898  -9.847  1.00  0.00     0.293 HD
ENDBRANCH  22  26
ENDBRANCH  18  19
ENDBRANCH  17  18
BRANCH  17  28
ATOM     28  O   UNL     1      -2.208   6.197  -2.962  1.00  0.00    -0.383 OA
ATOM     29  H   UNL     1      -3.174   6.221  -2.776  1.00  0.00     0.211 HD
ENDBRANCH  17  28
ENDBRANCH  14  17
ENDBRANCH  12  13
BRANCH  12  30
ATOM     30  C   UNL     1      -6.242   3.493  -3.444  1.00  0.00     0.018 C 
ATOM     31  C   UNL     1      -7.467   4.268  -3.955  1.00  0.00     0.010 C 
BRANCH  30  32
ATOM     32  C   UNL     1      -5.697   4.153  -2.153  1.00  0.00     0.002 C 
ATOM     33  C   UNL     1      -6.572   5.251  -1.563  1.00  0.00     0.004 C 
ENDBRANCH  30  32
ENDBRANCH  12  30
ENDBRANCH  10  12
ENDBRANCH   1  10
BRANCH   5  34
ATOM     34  C   UNL     1      -6.130  -0.837  -6.379  1.00  0.00     0.242 C 
ATOM     35  O   UNL     1      -5.146  -1.428  -6.823  1.00  0.00    -0.273 OA
ATOM     36  N   UNL     1      -7.141  -1.486  -5.706  1.00  0.00    -0.354 N 
ATOM     37  H   UNL     1      -7.986  -0.966  -5.468  1.00  0.00     0.163 HD
BRANCH  36  38
ATOM     38  C   UNL     1      -7.005  -2.849  -5.234  1.00  0.00     0.116 C 
BRANCH  38  39
ATOM     39  C   UNL     1      -8.306  -3.612  -5.469  1.00  0.00     0.023 C 
BRANCH  39  40
ATOM     40  C   UNL     1      -8.470  -4.792  -4.518  1.00  0.00     0.026 C 
BRANCH  40  41
ATOM     41  C   UNL     1      -9.337  -5.881  -5.150  1.00  0.00     0.146 C 
BRANCH  41  42
ATOM     42  N   UNL     1     -10.541  -6.077  -4.354  1.00  0.00    -0.254 NA
ATOM     43  C   UNL     1     -10.628  -7.090  -3.576  1.00  0.00     0.185 C 
ATOM     44  N   UNL     1      -9.747  -8.080  -3.342  1.00  0.00    -0.370 N 
ATOM     45  N   UNL     1     -11.748  -7.255  -2.853  1.00  0.00    -0.370 N 
ATOM     46  H   UNL     1     -10.041  -8.934  -2.899  1.00  0.00     0.159 HD
ATOM     47  H   UNL     1      -8.839  -8.104  -3.797  1.00  0.00     0.159 HD
ATOM     48  H   UNL     1     -12.461  -6.547  -2.964  1.00  0.00     0.159 HD
ATOM     49  H   UNL     1     -11.800  -7.872  -2.063  1.00  0.00     0.159 HD
ENDBRANCH  41  42
ENDBRANCH  40  41
ENDBRANCH  39  40
ENDBRANCH  38  39
ENDBRANCH  36  38
ENDBRANCH   5  34
BRANCH   8  50
ATOM     50  O   UNL     1      -2.439  -0.137  -9.282  1.00  0.00    -0.245 OA
BRANCH  50  51
ATOM     51  S   UNL     1      -1.202  -0.799 -10.105  1.00  0.00     0.397 S 
ATOM     52  O   UNL     1      -0.209   0.230 -10.322  1.00  0.00    -0.169 OA
ATOM     53  O   UNL     1      -1.716  -1.600 -11.196  1.00  0.00    -0.169 OA
BRANCH  51  54
ATOM     54  O   UNL     1      -0.568  -1.796  -9.013  1.00  0.00    -0.264 OA
ATOM     55  H   UNL     1      -0.834  -2.707  -9.252  1.00  0.00     0.236 HD
ENDBRANCH  51  54
ENDBRANCH  50  51
ENDBRANCH   8  50
TORSDOF 19
ENDMDL
MODEL 2
REMARK VINA RESULT:    -7.533      3.724      6.504
REMARK INTER + INTRA:         -18.004
REMARK INTER:                 -13.929
REMARK INTRA:                  -4.075
REMARK UNBOUND:                -2.763
REMARK SMILES CC[C@@H](C)[C@@H](NC(=O)[C@@H](O)Cc1ccc(O)c(Cl)c1)C(=O)N1[C@H](C(=O)NCCCCN=C(N)N)C[C@H]2CC[C@H](OS(=O)(=O)O)C[C@@H]21
REMARK SMILES IDX 22 1 36 2 46 3 35 4 23 5 45 6 37 7 39 8 38 9 20 10 21 11
REMARK SMILES IDX 5 12 6 13 7 14 8 15 9 17 11 18 12 19 17 20 19 21 15 22 14 23
REMARK SMILES IDX 13 24 18 25 16 26 10 28 3 30 4 31 2 32 1 33 24 34 25 35
REMARK SMILES IDX 26 36 27 38 28 39 29 40 30 41 31 42 32 43 33 44 34 45 40 50
REMARK SMILES IDX 41 51 42 52 43 53 44 54
REMARK H PARENT 6 16 16 27 10 29 26 37 33 46 33 47 34 48 34 49 44 55
ROOT
ATOM      1  N   UNL     1      -5.223   0.154  -7.039  1.00  0.00    -0.326 N 
ATOM      2  C   UNL     1      -6.542  -1.100  -8.533  1.00  0.00     0.014 C 
ATOM      3  C   UNL     1      -5.548  -1.235  -7.376  1.00  0.00     0.091 C 
ATOM      4  C   UNL     1      -6.034   0.131  -9.268  1.00  0.00     0.041 C 
ATOM      5  C   UNL     1      -5.762   1.068  -8.077  1.00  0.00     0.175 C 
ATOM      6  C   UNL     1      -6.179  -2.113  -6.297  1.00  0.00     0.059 C 
ATOM      7  C   UNL     1      -6.682  -2.409  -9.284  1.00  0.00     0.008 C 
ATOM      8  C   UNL     1      -7.132  -3.193  -6.854  1.00  0.00     0.143 C 
ATOM      9  C   UNL     1      -6.772  -3.594  -8.299  1.00  0.00     0.034 C 
ENDROOT
BRANCH   1  10
ATOM     10  C   UNL     1      -4.360   0.657  -6.081  1.00  0.00     0.246 C 
ATOM     11  O   UNL     1      -4.777   0.840  -4.933  1.00  0.00    -0.272 OA
BRANCH  10  12
ATOM     12  C   UNL     1      -2.876   0.937  -6.457  1.00  0.00     0.174 C 
BRANCH  12  13
ATOM     13  N   UNL     1      -2.671   2.374  -6.638  1.00  0.00    -0.342 N 
ATOM     14  C   UNL     1      -2.310   3.253  -5.641  1.00  0.00     0.249 C 
ATOM     15  O   UNL     1      -2.091   2.918  -4.484  1.00  0.00    -0.272 OA
ATOM     16  H   UNL     1      -2.966   2.820  -7.503  1.00  0.00     0.164 HD
BRANCH  14  17
ATOM     17  C   UNL     1      -2.189   4.707  -6.145  1.00  0.00     0.207 C 
BRANCH  17  18
ATOM     18  C   UNL     1      -0.722   5.062  -6.409  1.00  0.00     0.077 C 
BRANCH  18  19
ATOM     19  C   UNL     1      -0.258   4.564  -7.759  1.00  0.00    -0.043 A 
ATOM     20  C   UNL     1      -0.514   4.477 -10.170  1.00  0.00     0.083 A 
ATOM     21  C   UNL     1      -0.913   4.977  -8.930  1.00  0.00     0.028 A 
ATOM     22  C   UNL     1       0.537   3.563 -10.249  1.00  0.00     0.134 A 
ATOM     23  C   UNL     1       1.195   3.145  -9.097  1.00  0.00     0.048 A 
ATOM     24  C   UNL     1       0.796   3.642  -7.854  1.00  0.00     0.008 A 
ATOM     25  Cl  UNL     1      -1.330   4.997 -11.597  1.00  0.00    -0.080 Cl
BRANCH  22  26
ATOM     26  O   UNL     1       0.957   3.037 -11.440  1.00  0.00    -0.506 OA
ATOM     27  H   UNL     1       1.536   3.705 -11.853  1.00  0.00     0.293 HD
ENDBRANCH  22  26
ENDBRANCH  18  19
ENDBRANCH  17  18
BRANCH  17  28
ATOM     28  O   UNL     1      -2.739   5.631  -5.192  1.00  0.00    -0.383 OA
ATOM     29  H   UNL     1      -3.712   5.624  -5.337  1.00  0.00     0.211 HD
ENDBRANCH  17  28
ENDBRANCH  14  17
ENDBRANCH  12  13
BRANCH  12  30
ATOM     30  C   UNL     1      -2.401   0.112  -7.683  1.00  0.00     0.018 C 
ATOM     31  C   UNL     1      -1.492  -1.046  -7.243  1.00  0.00     0.010 C 
BRANCH  30  32
ATOM     32  C   UNL     1      -1.695   0.961  -8.768  1.00  0.00     0.002 C 
ATOM     33  C   UNL     1      -2.518   1.233 -10.020  1.00  0.00     0.004 C 
ENDBRANCH  30  32
ENDBRANCH  12  30
ENDBRANCH  10  12
ENDBRANCH   1  10
BRANCH   5  34
ATOM     34  C   UNL     1      -7.062   1.756  -7.582  1.00  0.00     0.242 C 
ATOM     35  O   UNL     1      -7.778   2.424  -8.328  1.00  0.00    -0.273 OA
ATOM     36  N   UNL     1      -7.327   1.611  -6.239  1.00  0.00    -0.354 N 
ATOM     37  H   UNL     1      -6.635   1.148  -5.649  1.00  0.00     0.163 HD
BRANCH  36  38
ATOM     38  C   UNL     1      -8.594   1.999  -5.654  1.00  0.00     0.116 C 
BRANCH  38  39
ATOM     39  C   UNL     1      -8.398   2.355  -4.182  1.00  0.00     0.023 C 
BRANCH  39  40
ATOM     40  C   UNL     1      -8.920   3.748  -3.846  1.00  0.00     0.026 C 
BRANCH  40  41
ATOM     41  C   UNL     1      -8.054   4.406  -2.771  1.00  0.00     0.146 C 
BRANCH  41  42
ATOM     42  N   UNL     1      -6.674   4.486  -3.232  1.00  0.00    -0.254 NA
ATOM     43  C   UNL     1      -5.732   4.039  -2.490  1.00  0.00     0.185 C 
ATOM     44  N   UNL     1      -5.786   3.466  -1.274  1.00  0.00    -0.370 N 
ATOM     45  N   UNL     1      -4.466   4.126  -2.930  1.00  0.00    -0.370 N 
ATOM     46  H   UNL     1      -4.960   3.387  -0.706  1.00  0.00     0.159 HD
ATOM     47  H   UNL     1      -6.669   3.309  -0.797  1.00  0.00     0.159 HD
ATOM     48  H   UNL     1      -4.337   4.539  -3.844  1.00  0.00     0.159 HD
ATOM     49  H   UNL     1      -3.712   3.597  -2.529  1.00  0.00     0.159 HD
ENDBRANCH  41  42
ENDBRANCH  40  41
ENDBRANCH  39  40
ENDBRANCH  38  39
ENDBRANCH  36  38
ENDBRANCH   5  34
BRANCH   8  50
ATOM     50  O   UNL     1      -8.477  -2.715  -6.838  1.00  0.00    -0.245 OA
BRANCH  50  51
ATOM     51  S   UNL     1      -9.697  -3.756  -6.563  1.00  0.00     0.397 S 
ATOM     52  O   UNL     1     -10.760  -3.033  -5.901  1.00  0.00    -0.169 OA
ATOM     53  O   UNL     1      -9.168  -4.992  -6.024  1.00  0.00    -0.169 OA
BRANCH  51  54
ATOM     54  O   UNL     1     -10.228  -4.051  -8.051  1.00  0.00    -0.264 OA
ATOM     55  H   UNL     1     -10.534  -3.203  -8.433  1.00  0.00     0.236 HD
ENDBRANCH  51  54
ENDBRANCH  50  51
ENDBRANCH   8  50
TORSDOF 19
ENDMDL
MODEL 3
REMARK VINA RESULT:    -7.279      4.244     10.617
REMARK INTER + INTRA:         -17.490
REMARK INTER:                 -14.535
REMARK INTRA:                  -2.955
REMARK UNBOUND:                -2.763
REMARK SMILES CC[C@@H](C)[C@@H](NC(=O)[C@@H](O)Cc1ccc(O)c(Cl)c1)C(=O)N1[C@H](C(=O)NCCCCN=C(N)N)C[C@H]2CC[C@H](OS(=O)(=O)O)C[C@@H]21
REMARK SMILES IDX 22 1 36 2 46 3 35 4 23 5 45 6 37 7 39 8 38 9 20 10 21 11
REMARK SMILES IDX 5 12 6 13 7 14 8 15 9 17 11 18 12 19 17 20 19 21 15 22 14 23
REMARK SMILES IDX 13 24 18 25 16 26 10 28 3 30 4 31 2 32 1 33 24 34 25 35
REMARK SMILES IDX 26 36 27 38 28 39 29 40 30 41 31 42 32 43 33 44 34 45 40 50
REMARK SMILES IDX 41 51 42 52 43 53 44 54
REMARK H PARENT 6 16 16 27 10 29 26 37 33 46 33 47 34 48 34 49 44 55
ROOT
ATOM      1  N   UNL     1      -7.229   0.511  -6.378  1.00  0.00    -0.326 N 
ATOM      2  C   UNL     1      -7.669   2.809  -6.640  1.00  0.00     0.014 C 
ATOM      3  C   UNL     1      -8.125   1.560  -5.881  1.00  0.00     0.091 C 
ATOM      4  C   UNL     1      -7.260   2.248  -7.993  1.00  0.00     0.041 C 
ATOM      5  C   UNL     1      -6.461   1.010  -7.545  1.00  0.00     0.175 C 
ATOM      6  C   UNL     1      -8.114   1.872  -4.385  1.00  0.00     0.059 C 
ATOM      7  C   UNL     1      -8.722   3.898  -6.573  1.00  0.00     0.008 C 
ATOM      8  C   UNL     1      -8.436   3.346  -4.056  1.00  0.00     0.143 C 
ATOM      9  C   UNL     1      -9.302   4.008  -5.147  1.00  0.00     0.034 C 
ENDROOT
BRANCH   1  10
ATOM     10  C   UNL     1      -7.180  -0.837  -6.064  1.00  0.00     0.246 C 
ATOM     11  O   UNL     1      -6.661  -1.188  -5.000  1.00  0.00    -0.272 OA
BRANCH  10  12
ATOM     12  C   UNL     1      -7.816  -1.873  -7.035  1.00  0.00     0.174 C 
BRANCH  12  13
ATOM     13  N   UNL     1      -8.759  -2.724  -6.309  1.00  0.00    -0.342 N 
ATOM     14  C   UNL     1     -10.121  -2.533  -6.262  1.00  0.00     0.249 C 
ATOM     15  O   UNL     1     -10.705  -1.634  -6.854  1.00  0.00    -0.272 OA
ATOM     16  H   UNL     1      -8.409  -3.413  -5.647  1.00  0.00     0.164 HD
BRANCH  14  17
ATOM     17  C   UNL     1     -10.841  -3.590  -5.397  1.00  0.00     0.207 C 
BRANCH  17  18
ATOM     18  C   UNL     1     -10.161  -4.955  -5.543  1.00  0.00     0.077 C 
BRANCH  18  19
ATOM     19  C   UNL     1      -9.972  -5.635  -4.206  1.00  0.00    -0.043 A 
ATOM     20  C   UNL     1      -9.865  -5.520  -1.785  1.00  0.00     0.083 A 
ATOM     21  C   UNL     1     -10.089  -4.900  -3.015  1.00  0.00     0.028 A 
ATOM     22  C   UNL     1      -9.523  -6.871  -1.736  1.00  0.00     0.134 A 
ATOM     23  C   UNL     1      -9.404  -7.611  -2.907  1.00  0.00     0.048 A 
ATOM     24  C   UNL     1      -9.625  -6.993  -4.140  1.00  0.00     0.008 A 
ATOM     25  Cl  UNL     1     -10.013  -4.600  -0.333  1.00  0.00    -0.080 Cl
BRANCH  22  26
ATOM     26  O   UNL     1      -9.283  -7.519  -0.554  1.00  0.00    -0.506 OA
ATOM     27  H   UNL     1      -8.323  -7.464  -0.394  1.00  0.00     0.293 HD
ENDBRANCH  22  26
ENDBRANCH  18  19
ENDBRANCH  17  18
BRANCH  17  28
ATOM     28  O   UNL     1     -12.225  -3.705  -5.766  1.00  0.00    -0.383 OA
ATOM     29  H   UNL     1     -12.250  -4.312  -6.541  1.00  0.00     0.211 HD
ENDBRANCH  17  28
ENDBRANCH  14  17
ENDBRANCH  12  13
BRANCH  12  30
ATOM     30  C   UNL     1      -6.755  -2.696  -7.814  1.00  0.00     0.018 C 
ATOM     31  C   UNL     1      -7.063  -2.699  -9.320  1.00  0.00     0.010 C 
BRANCH  30  32
ATOM     32  C   UNL     1      -6.594  -4.147  -7.301  1.00  0.00     0.002 C 
ATOM     33  C   UNL     1      -5.394  -4.388  -6.394  1.00  0.00     0.004 C 
ENDBRANCH  30  32
ENDBRANCH  12  30
ENDBRANCH  10  12
ENDBRANCH   1  10
BRANCH   5  34
ATOM     34  C   UNL     1      -5.013   1.383  -7.132  1.00  0.00     0.242 C 
ATOM     35  O   UNL     1      -4.174   1.768  -7.947  1.00  0.00    -0.273 OA
ATOM     36  N   UNL     1      -4.719   1.201  -5.799  1.00  0.00    -0.354 N 
ATOM     37  H   UNL     1      -5.418   0.767  -5.196  1.00  0.00     0.163 HD
BRANCH  36  38
ATOM     38  C   UNL     1      -3.495   1.697  -5.203  1.00  0.00     0.116 C 
BRANCH  38  39
ATOM     39  C   UNL     1      -3.762   3.025  -4.499  1.00  0.00     0.023 C 
BRANCH  39  40
ATOM     40  C   UNL     1      -3.621   4.220  -5.436  1.00  0.00     0.026 C 
BRANCH  40  41
ATOM     41  C   UNL     1      -2.230   4.841  -5.317  1.00  0.00     0.146 C 
BRANCH  41  42
ATOM     42  N   UNL     1      -1.315   4.182  -6.240  1.00  0.00    -0.254 NA
ATOM     43  C   UNL     1      -0.287   3.570  -5.785  1.00  0.00     0.185 C 
ATOM     44  N   UNL     1       0.134   3.411  -4.517  1.00  0.00    -0.370 N 
ATOM     45  N   UNL     1       0.546   2.973  -6.653  1.00  0.00    -0.370 N 
ATOM     46  H   UNL     1       1.078   3.123  -4.322  1.00  0.00     0.159 HD
ATOM     47  H   UNL     1      -0.387   3.789  -3.731  1.00  0.00     0.159 HD
ATOM     48  H   UNL     1       0.296   3.038  -7.630  1.00  0.00     0.159 HD
ATOM     49  H   UNL     1       1.224   2.288  -6.372  1.00  0.00     0.159 HD
ENDBRANCH  41  42
ENDBRANCH  40  41
ENDBRANCH  39  40
ENDBRANCH  38  39
ENDBRANCH  36  38
ENDBRANCH   5  34
BRANCH   8  50
ATOM     50  O   UNL     1      -7.226   4.093  -3.922  1.00  0.00    -0.245 OA
BRANCH  50  51
ATOM     51  S   UNL     1      -6.694   4.501  -2.441  1.00  0.00     0.397 S 
ATOM     52  O   UNL     1      -5.849   5.666  -2.575  1.00  0.00    -0.169 OA
ATOM     53  O   UNL     1      -6.247   3.315  -1.741  1.00  0.00    -0.169 OA
BRANCH  51  54
ATOM     54  O   UNL     1      -8.042   5.017  -1.731  1.00  0.00    -0.264 OA
ATOM     55  H   UNL     1      -8.441   5.700  -2.308  1.00  0.00     0.236 HD
ENDBRANCH  51  54
ENDBRANCH  50  51
ENDBRANCH   8  50
TORSDOF 19
ENDMDL
MODEL 4
REMARK VINA RESULT:    -7.258      2.157      2.773
REMARK INTER + INTRA:         -17.446
REMARK INTER:                 -14.124
REMARK INTRA:                  -3.323
REMARK UNBOUND:                -2.763
REMARK SMILES CC[C@@H](C)[C@@H](NC(=O)[C@@H](O)Cc1ccc(O)c(Cl)c1)C(=O)N1[C@H](C(=O)NCCCCN=C(N)N)C[C@H]2CC[C@H](OS(=O)(=O)O)C[C@@H]21
REMARK SMILES IDX 22 1 36 2 46 3 35 4 23 5 45 6 37 7 39 8 38 9 20 10 21 11
REMARK SMILES IDX 5 12 6 13 7 14 8 15 9 17 11 18 12 19 17 20 19 21 15 22 14 23
REMARK SMILES IDX 13 24 18 25 16 26 10 28 3 30 4 31 2 32 1 33 24 34 25 35
REMARK SMILES IDX 26 36 27 38 28 39 29 40 30 41 31 42 32 43 33 44 34 45 40 50
REMARK SMILES IDX 41 51 42 52 43 53 44 54
REMARK H PARENT 6 16 16 27 10 29 26 37 33 46 33 47 34 48 34 49 44 55
ROOT
ATOM      1  N   UNL     1      -5.373   1.292  -6.862  1.00  0.00    -0.326 N 
ATOM      2  C   UNL     1      -5.000   0.737  -9.120  1.00  0.00     0.014 C 
ATOM      3  C   UNL     1      -4.485   1.622  -7.981  1.00  0.00     0.091 C 
ATOM      4  C   UNL     1      -6.499   0.703  -8.866  1.00  0.00     0.041 C 
ATOM      5  C   UNL     1      -6.512   0.472  -7.344  1.00  0.00     0.175 C 
ATOM      6  C   UNL     1      -2.987   1.372  -7.814  1.00  0.00     0.059 C 
ATOM      7  C   UNL     1      -4.484   1.223 -10.460  1.00  0.00     0.008 C 
ATOM      8  C   UNL     1      -2.267   1.016  -9.133  1.00  0.00     0.143 C 
ATOM      9  C   UNL     1      -2.990   1.598 -10.364  1.00  0.00     0.034 C 
ENDROOT
BRANCH   1  10
ATOM     10  C   UNL     1      -5.401   1.794  -5.573  1.00  0.00     0.246 C 
ATOM     11  O   UNL     1      -5.236   1.021  -4.623  1.00  0.00    -0.272 OA
BRANCH  10  12
ATOM     12  C   UNL     1      -5.595   3.322  -5.348  1.00  0.00     0.174 C 
BRANCH  12  13
ATOM     13  N   UNL     1      -4.358   4.034  -5.670  1.00  0.00    -0.342 N 
ATOM     14  C   UNL     1      -3.165   3.888  -5.000  1.00  0.00     0.249 C 
ATOM     15  O   UNL     1      -2.998   3.114  -4.065  1.00  0.00    -0.272 OA
ATOM     16  H   UNL     1      -4.383   4.819  -6.316  1.00  0.00     0.164 HD
BRANCH  14  17
ATOM     17  C   UNL     1      -2.049   4.791  -5.567  1.00  0.00     0.207 C 
BRANCH  17  18
ATOM     18  C   UNL     1      -0.743   4.002  -5.711  1.00  0.00     0.077 C 
BRANCH  18  19
ATOM     19  C   UNL     1      -0.288   3.928  -7.151  1.00  0.00    -0.043 A 
ATOM     20  C   UNL     1      -0.493   4.641  -9.461  1.00  0.00     0.083 A 
ATOM     21  C   UNL     1      -0.881   4.747  -8.125  1.00  0.00     0.028 A 
ATOM     22  C   UNL     1       0.486   3.719  -9.833  1.00  0.00     0.134 A 
ATOM     23  C   UNL     1       1.082   2.902  -8.879  1.00  0.00     0.048 A 
ATOM     24  C   UNL     1       0.694   3.004  -7.541  1.00  0.00     0.008 A 
ATOM     25  Cl  UNL     1      -1.234   5.656 -10.642  1.00  0.00    -0.080 Cl
BRANCH  22  26
ATOM     26  O   UNL     1       0.892   3.572 -11.131  1.00  0.00    -0.506 OA
ATOM     27  H   UNL     1       1.741   3.093 -11.107  1.00  0.00     0.293 HD
ENDBRANCH  22  26
ENDBRANCH  18  19
ENDBRANCH  17  18
BRANCH  17  28
ATOM     28  O   UNL     1      -1.826   5.930  -4.721  1.00  0.00    -0.383 OA
ATOM     29  H   UNL     1      -0.869   5.915  -4.491  1.00  0.00     0.211 HD
ENDBRANCH  17  28
ENDBRANCH  14  17
ENDBRANCH  12  13
BRANCH  12  30
ATOM     30  C   UNL     1      -6.119   3.658  -3.926  1.00  0.00     0.018 C 
ATOM     31  C   UNL     1      -7.505   3.037  -3.694  1.00  0.00     0.010 C 
BRANCH  30  32
ATOM     32  C   UNL     1      -6.157   5.175  -3.620  1.00  0.00     0.002 C 
ATOM     33  C   UNL     1      -5.923   5.552  -2.163  1.00  0.00     0.004 C 
ENDBRANCH  30  32
ENDBRANCH  12  30
ENDBRANCH  10  12
ENDBRANCH   1  10
BRANCH   5  34
ATOM     34  C   UNL     1      -6.301  -1.025  -6.991  1.00  0.00     0.242 C 
ATOM     35  O   UNL     1      -5.512  -1.741  -7.607  1.00  0.00    -0.273 OA
ATOM     36  N   UNL     1      -7.098  -1.506  -5.976  1.00  0.00    -0.354 N 
ATOM     37  H   UNL     1      -7.817  -0.896  -5.585  1.00  0.00     0.163 HD
BRANCH  36  38
ATOM     38  C   UNL     1      -6.885  -2.806  -5.376  1.00  0.00     0.116 C 
BRANCH  38  39
ATOM     39  C   UNL     1      -7.901  -3.804  -5.928  1.00  0.00     0.023 C 
BRANCH  39  40
ATOM     40  C   UNL     1      -9.259  -3.165  -6.195  1.00  0.00     0.026 C 
BRANCH  40  41
ATOM     41  C   UNL     1      -9.668  -3.353  -7.656  1.00  0.00     0.146 C 
BRANCH  41  42
ATOM     42  N   UNL     1      -8.482  -3.375  -8.501  1.00  0.00    -0.254 NA
ATOM     43  C   UNL     1      -8.402  -2.580  -9.501  1.00  0.00     0.185 C 
ATOM     44  N   UNL     1      -9.277  -1.660  -9.948  1.00  0.00    -0.370 N 
ATOM     45  N   UNL     1      -7.302  -2.618 -10.271  1.00  0.00    -0.370 N 
ATOM     46  H   UNL     1      -9.196  -1.283 -10.876  1.00  0.00     0.159 HD
ATOM     47  H   UNL     1     -10.159  -1.490  -9.474  1.00  0.00     0.159 HD
ATOM     48  H   UNL     1      -6.587  -3.280  -9.998  1.00  0.00     0.159 HD
ATOM     49  H   UNL     1      -7.061  -1.884 -10.912  1.00  0.00     0.159 HD
ENDBRANCH  41  42
ENDBRANCH  40  41
ENDBRANCH  39  40
ENDBRANCH  38  39
ENDBRANCH  36  38
ENDBRANCH   5  34
BRANCH   8  50
ATOM     50  O   UNL     1      -2.189  -0.402  -9.281  1.00  0.00    -0.245 OA
BRANCH  50  51
ATOM     51  S   UNL     1      -1.061  -1.047 -10.260  1.00  0.00     0.397 S 
ATOM     52  O   UNL     1      -0.038  -0.049 -10.480  1.00  0.00    -0.169 OA
ATOM     53  O   UNL     1      -1.707  -1.728 -11.363  1.00  0.00    -0.169 OA
BRANCH  51  54
ATOM     54  O   UNL     1      -0.391  -2.160  -9.313  1.00  0.00    -0.264 OA
ATOM     55  H   UNL     1       0.365  -2.549  -9.799  1.00  0.00     0.236 HD
ENDBRANCH  51  54
ENDBRANCH  50  51
ENDBRANCH   8  50
TORSDOF 19
ENDMDL
MODEL 5
REMARK VINA RESULT:    -7.104      2.351      3.226
REMARK INTER + INTRA:         -17.134
REMARK INTER:                 -13.212
REMARK INTRA:                  -3.922
REMARK UNBOUND:                -2.763
REMARK SMILES CC[C@@H](C)[C@@H](NC(=O)[C@@H](O)Cc1ccc(O)c(Cl)c1)C(=O)N1[C@H](C(=O)NCCCCN=C(N)N)C[C@H]2CC[C@H](OS(=O)(=O)O)C[C@@H]21
REMARK SMILES IDX 22 1 36 2 46 3 35 4 23 5 45 6 37 7 39 8 38 9 20 10 21 11
REMARK SMILES IDX 5 12 6 13 7 14 8 15 9 17 11 18 12 19 17 20 19 21 15 22 14 23
REMARK SMILES IDX 13 24 18 25 16 26 10 28 3 30 4 31 2 32 1 33 24 34 25 35
REMARK SMILES IDX 26 36 27 38 28 39 29 40 30 41 31 42 32 43 33 44 34 45 40 50
REMARK SMILES IDX 41 51 42 52 43 53 44 54
REMARK H PARENT 6 16 16 27 10 29 26 37 33 46 33 47 34 48 34 49 44 55
ROOT
ATOM      1  N   UNL     1      -6.834   0.923  -6.031  1.00  0.00    -0.326 N 
ATOM      2  C   UNL     1      -6.279   0.563  -8.291  1.00  0.00     0.014 C 
ATOM      3  C   UNL     1      -5.938   1.429  -7.075  1.00  0.00     0.091 C 
ATOM      4  C   UNL     1      -7.773   0.332  -8.128  1.00  0.00     0.041 C 
ATOM      5  C   UNL     1      -7.836   0.003  -6.625  1.00  0.00     0.175 C 
ATOM      6  C   UNL     1      -4.431   1.353  -6.835  1.00  0.00     0.059 C 
ATOM      7  C   UNL     1      -5.759   1.194  -9.568  1.00  0.00     0.008 C 
ATOM      8  C   UNL     1      -3.605   1.172  -8.127  1.00  0.00     0.143 C 
ATOM      9  C   UNL     1      -4.330   1.739  -9.363  1.00  0.00     0.034 C 
ENDROOT
BRANCH   1  10
ATOM     10  C   UNL     1      -6.990   1.335  -4.719  1.00  0.00     0.246 C 
ATOM     11  O   UNL     1      -6.477   0.668  -3.814  1.00  0.00    -0.272 OA
BRANCH  10  12
ATOM     12  C   UNL     1      -7.770   2.647  -4.414  1.00  0.00     0.174 C 
BRANCH  12  13
ATOM     13  N   UNL     1      -6.944   3.541  -3.603  1.00  0.00    -0.342 N 
ATOM     14  C   UNL     1      -6.632   4.842  -3.929  1.00  0.00     0.249 C 
ATOM     15  O   UNL     1      -7.041   5.409  -4.934  1.00  0.00    -0.272 OA
ATOM     16  H   UNL     1      -6.408   3.164  -2.825  1.00  0.00     0.164 HD
BRANCH  14  17
ATOM     17  C   UNL     1      -5.726   5.518  -2.878  1.00  0.00     0.207 C 
BRANCH  17  18
ATOM     18  C   UNL     1      -4.545   4.608  -2.524  1.00  0.00     0.077 C 
BRANCH  18  19
ATOM     19  C   UNL     1      -3.327   4.916  -3.365  1.00  0.00    -0.043 A 
ATOM     20  C   UNL     1      -1.765   4.290  -5.112  1.00  0.00     0.083 A 
ATOM     21  C   UNL     1      -2.918   4.027  -4.371  1.00  0.00     0.028 A 
ATOM     22  C   UNL     1      -1.015   5.437  -4.853  1.00  0.00     0.134 A 
ATOM     23  C   UNL     1      -1.408   6.326  -3.860  1.00  0.00     0.048 A 
ATOM     24  C   UNL     1      -2.561   6.065  -3.115  1.00  0.00     0.008 A 
ATOM     25  Cl  UNL     1      -1.278   3.185  -6.344  1.00  0.00    -0.080 Cl
BRANCH  22  26
ATOM     26  O   UNL     1       0.128   5.731  -5.546  1.00  0.00    -0.506 OA
ATOM     27  H   UNL     1       0.095   6.684  -5.750  1.00  0.00     0.293 HD
ENDBRANCH  22  26
ENDBRANCH  18  19
ENDBRANCH  17  18
BRANCH  17  28
ATOM     28  O   UNL     1      -6.462   5.830  -1.685  1.00  0.00    -0.383 OA
ATOM     29  H   UNL     1      -6.599   6.805  -1.696  1.00  0.00     0.211 HD
ENDBRANCH  17  28
ENDBRANCH  14  17
ENDBRANCH  12  13
BRANCH  12  30
ATOM     30  C   UNL     1      -9.161   2.384  -3.776  1.00  0.00     0.018 C 
ATOM     31  C   UNL     1     -10.279   2.998  -4.633  1.00  0.00     0.010 C 
BRANCH  30  32
ATOM     32  C   UNL     1      -9.277   2.880  -2.314  1.00  0.00     0.002 C 
ATOM     33  C   UNL     1     -10.418   2.271  -1.510  1.00  0.00     0.004 C 
ENDBRANCH  30  32
ENDBRANCH  12  30
ENDBRANCH  10  12
ENDBRANCH   1  10
BRANCH   5  34
ATOM     34  C   UNL     1      -7.458  -1.476  -6.346  1.00  0.00     0.242 C 
ATOM     35  O   UNL     1      -6.446  -1.790  -5.720  1.00  0.00    -0.273 OA
ATOM     36  N   UNL     1      -8.307  -2.411  -6.896  1.00  0.00    -0.354 N 
ATOM     37  H   UNL     1      -9.061  -2.091  -7.506  1.00  0.00     0.163 HD
BRANCH  36  38
ATOM     38  C   UNL     1      -8.230  -3.817  -6.560  1.00  0.00     0.116 C 
BRANCH  38  39
ATOM     39  C   UNL     1      -9.629  -4.429  -6.570  1.00  0.00     0.023 C 
BRANCH  39  40
ATOM     40  C   UNL     1     -10.601  -3.679  -5.666  1.00  0.00     0.026 C 
BRANCH  40  41
ATOM     41  C   UNL     1     -10.228  -3.866  -4.196  1.00  0.00     0.146 C 
BRANCH  41  42
ATOM     42  N   UNL     1     -10.007  -2.567  -3.574  1.00  0.00    -0.254 NA
ATOM     43  C   UNL     1      -8.839  -2.258  -3.151  1.00  0.00     0.185 C 
ATOM     44  N   UNL     1      -7.694  -2.963  -3.179  1.00  0.00    -0.370 N 
ATOM     45  N   UNL     1      -8.658  -1.057  -2.577  1.00  0.00    -0.370 N 
ATOM     46  H   UNL     1      -6.916  -2.701  -2.598  1.00  0.00     0.159 HD
ATOM     47  H   UNL     1      -7.649  -3.890  -3.591  1.00  0.00     0.159 HD
ATOM     48  H   UNL     1      -9.470  -0.458  -2.524  1.00  0.00     0.159 HD
ATOM     49  H   UNL     1      -7.749  -0.651  -2.440  1.00  0.00     0.159 HD
ENDBRANCH  41  42
ENDBRANCH  40  41
ENDBRANCH  39  40
ENDBRANCH  38  39
ENDBRANCH  36  38
ENDBRANCH   5  34
BRANCH   8  50
ATOM     50  O   UNL     1      -3.343  -0.214  -8.351  1.00  0.00    -0.245 OA
BRANCH  50  51
ATOM     51  S   UNL     1      -1.807  -0.746  -8.386  1.00  0.00     0.397 S 
ATOM     52  O   UNL     1      -0.937   0.406  -8.459  1.00  0.00    -0.169 OA
ATOM     53  O   UNL     1      -1.693  -1.843  -9.325  1.00  0.00    -0.169 OA
BRANCH  51  54
ATOM     54  O   UNL     1      -1.623  -1.340  -6.904  1.00  0.00    -0.264 OA
ATOM     55  H   UNL     1      -0.851  -1.943  -6.917  1.00  0.00     0.236 HD
ENDBRANCH  51  54
ENDBRANCH  50  51
ENDBRANCH   8  50
TORSDOF 19
ENDMDL
MODEL 6
REMARK VINA RESULT:    -7.097      4.775      7.200
REMARK INTER + INTRA:         -17.121
REMARK INTER:                 -13.915
REMARK INTRA:                  -3.206
REMARK UNBOUND:                -2.763
REMARK SMILES CC[C@@H](C)[C@@H](NC(=O)[C@@H](O)Cc1ccc(O)c(Cl)c1)C(=O)N1[C@H](C(=O)NCCCCN=C(N)N)C[C@H]2CC[C@H](OS(=O)(=O)O)C[C@@H]21
REMARK SMILES IDX 22 1 36 2 46 3 35 4 23 5 45 6 37 7 39 8 38 9 20 10 21 11
REMARK SMILES IDX 5 12 6 13 7 14 8 15 9 17 11 18 12 19 17 20 19 21 15 22 14 23
REMARK SMILES IDX 13 24 18 25 16 26 10 28 3 30 4 31 2 32 1 33 24 34 25 35
REMARK SMILES IDX 26 36 27 38 28 39 29 40 30 41 31 42 32 43 33 44 34 45 40 50
REMARK SMILES IDX 41 51 42 52 43 53 44 54
REMARK H PARENT 6 16 16 27 10 29 26 37 33 46 33 47 34 48 34 49 44 55
ROOT
ATOM      1  N   UNL     1      -9.380  -1.662  -4.828  1.00  0.00    -0.326 N 
ATOM      2  C   UNL     1     -10.200  -3.679  -5.724  1.00  0.00     0.014 C 
ATOM      3  C   UNL     1      -9.096  -3.100  -4.834  1.00  0.00     0.091 C 
ATOM      4  C   UNL     1     -10.404  -2.583  -6.759  1.00  0.00     0.041 C 
ATOM      5  C   UNL     1     -10.411  -1.344  -5.846  1.00  0.00     0.175 C 
ATOM      6  C   UNL     1      -9.108  -3.847  -3.502  1.00  0.00     0.059 C 
ATOM      7  C   UNL     1      -9.847  -5.080  -6.184  1.00  0.00     0.008 C 
ATOM      8  C   UNL     1      -9.549  -5.322  -3.620  1.00  0.00     0.143 C 
ATOM      9  C   UNL     1      -9.258  -5.903  -5.018  1.00  0.00     0.034 C 
ENDROOT
BRANCH   1  10
ATOM     10  C   UNL     1      -8.703  -0.627  -4.206  1.00  0.00     0.246 C 
ATOM     11  O   UNL     1      -8.241  -0.805  -3.074  1.00  0.00    -0.272 OA
BRANCH  10  12
ATOM     12  C   UNL     1      -8.504   0.721  -4.958  1.00  0.00     0.174 C 
BRANCH  12  13
ATOM     13  N   UNL     1      -7.099   1.123  -4.897  1.00  0.00    -0.342 N 
ATOM     14  C   UNL     1      -6.095   0.608  -5.687  1.00  0.00     0.249 C 
ATOM     15  O   UNL     1      -6.276  -0.234  -6.558  1.00  0.00    -0.272 OA
ATOM     16  H   UNL     1      -6.771   1.694  -4.123  1.00  0.00     0.164 HD
BRANCH  14  17
ATOM     17  C   UNL     1      -4.715   1.223  -5.371  1.00  0.00     0.207 C 
BRANCH  17  18
ATOM     18  C   UNL     1      -4.565   2.584  -6.058  1.00  0.00     0.077 C 
BRANCH  18  19
ATOM     19  C   UNL     1      -3.306   3.299  -5.621  1.00  0.00    -0.043 A 
ATOM     20  C   UNL     1      -1.242   4.447  -6.171  1.00  0.00     0.083 A 
ATOM     21  C   UNL     1      -2.427   3.832  -6.576  1.00  0.00     0.028 A 
ATOM     22  C   UNL     1      -0.928   4.533  -4.814  1.00  0.00     0.134 A 
ATOM     23  C   UNL     1      -1.790   4.010  -3.858  1.00  0.00     0.048 A 
ATOM     24  C   UNL     1      -2.976   3.392  -4.260  1.00  0.00     0.008 A 
ATOM     25  Cl  UNL     1      -0.173   5.096  -7.359  1.00  0.00    -0.080 Cl
BRANCH  22  26
ATOM     26  O   UNL     1       0.227   5.118  -4.370  1.00  0.00    -0.506 OA
ATOM     27  H   UNL     1       0.864   4.396  -4.213  1.00  0.00     0.293 HD
ENDBRANCH  22  26
ENDBRANCH  18  19
ENDBRANCH  17  18
BRANCH  17  28
ATOM     28  O   UNL     1      -3.652   0.355  -5.797  1.00  0.00    -0.383 OA
ATOM     29  H   UNL     1      -2.878   0.938  -5.971  1.00  0.00     0.211 HD
ENDBRANCH  17  28
ENDBRANCH  14  17
ENDBRANCH  12  13
BRANCH  12  30
ATOM     30  C   UNL     1      -9.461   1.836  -4.457  1.00  0.00     0.018 C 
ATOM     31  C   UNL     1      -9.659   2.912  -5.536  1.00  0.00     0.010 C 
BRANCH  30  32
ATOM     32  C   UNL     1      -9.010   2.491  -3.129  1.00  0.00     0.002 C 
ATOM     33  C   UNL     1      -9.950   2.284  -1.948  1.00  0.00     0.004 C 
ENDBRANCH  30  32
ENDBRANCH  12  30
ENDBRANCH  10  12
ENDBRANCH   1  10
BRANCH   5  34
ATOM     34  C   UNL     1     -11.796  -1.133  -5.178  1.00  0.00     0.242 C 
ATOM     35  O   UNL     1     -12.792  -0.799  -5.820  1.00  0.00    -0.273 OA
ATOM     36  N   UNL     1     -11.817  -1.292  -3.810  1.00  0.00    -0.354 N 
ATOM     37  H   UNL     1     -10.936  -1.450  -3.320  1.00  0.00     0.163 HD
BRANCH  36  38
ATOM     38  C   UNL     1     -13.053  -1.345  -3.057  1.00  0.00     0.116 C 
BRANCH  38  39
ATOM     39  C   UNL     1     -12.774  -1.066  -1.582  1.00  0.00     0.023 C 
BRANCH  39  40
ATOM     40  C   UNL     1     -11.291  -1.163  -1.242  1.00  0.00     0.026 C 
BRANCH  40  41
ATOM     41  C   UNL     1     -11.096  -1.546   0.225  1.00  0.00     0.146 C 
BRANCH  41  42
ATOM     42  N   UNL     1     -11.830  -2.771   0.517  1.00  0.00    -0.254 NA
ATOM     43  C   UNL     1     -11.222  -3.897   0.482  1.00  0.00     0.185 C 
ATOM     44  N   UNL     1      -9.935  -4.178   0.207  1.00  0.00    -0.370 N 
ATOM     45  N   UNL     1     -11.918  -5.014   0.749  1.00  0.00    -0.370 N 
ATOM     46  H   UNL     1      -9.653  -5.115  -0.024  1.00  0.00     0.159 HD
ATOM     47  H   UNL     1      -9.264  -3.446  -0.005  1.00  0.00     0.159 HD
ATOM     48  H   UNL     1     -12.896  -4.890   0.976  1.00  0.00     0.159 HD
ATOM     49  H   UNL     1     -11.478  -5.889   0.973  1.00  0.00     0.159 HD
ENDBRANCH  41  42
ENDBRANCH  40  41
ENDBRANCH  39  40
ENDBRANCH  38  39
ENDBRANCH  36  38
ENDBRANCH   5  34
BRANCH   8  50
ATOM     50  O   UNL     1     -10.949  -5.437  -3.363  1.00  0.00    -0.245 OA
BRANCH  50  51
ATOM     51  S   UNL     1     -11.485  -6.580  -2.338  1.00  0.00     0.397 S 
ATOM     52  O   UNL     1     -12.859  -6.275  -2.008  1.00  0.00    -0.169 OA
ATOM     53  O   UNL     1     -10.492  -6.816  -1.310  1.00  0.00    -0.169 OA
BRANCH  51  54
ATOM     54  O   UNL     1     -11.539  -7.880  -3.283  1.00  0.00    -0.264 OA
ATOM     55  H   UNL     1     -11.505  -8.670  -2.706  1.00  0.00     0.236 HD
ENDBRANCH  51  54
ENDBRANCH  50  51
ENDBRANCH   8  50
TORSDOF 19
ENDMDL
MODEL 7
REMARK VINA RESULT:    -7.003      5.559     10.766
REMARK INTER + INTRA:         -16.931
REMARK INTER:                 -12.559
REMARK INTRA:                  -4.372
REMARK UNBOUND:                -2.763
REMARK SMILES CC[C@@H](C)[C@@H](NC(=O)[C@@H](O)Cc1ccc(O)c(Cl)c1)C(=O)N1[C@H](C(=O)NCCCCN=C(N)N)C[C@H]2CC[C@H](OS(=O)(=O)O)C[C@@H]21
REMARK SMILES IDX 22 1 36 2 46 3 35 4 23 5 45 6 37 7 39 8 38 9 20 10 21 11
REMARK SMILES IDX 5 12 6 13 7 14 8 15 9 17 11 18 12 19 17 20 19 21 15 22 14 23
REMARK SMILES IDX 13 24 18 25 16 26 10 28 3 30 4 31 2 32 1 33 24 34 25 35
REMARK SMILES IDX 26 36 27 38 28 39 29 40 30 41 31 42 32 43 33 44 34 45 40 50
REMARK SMILES IDX 41 51 42 52 43 53 44 54
REMARK H PARENT 6 16 16 27 10 29 26 37 33 46 33 47 34 48 34 49 44 55
ROOT
ATOM      1  N   UNL     1      -9.184  -4.102  -4.498  1.00  0.00    -0.326 N 
ATOM      2  C   UNL     1      -7.034  -3.723  -5.378  1.00  0.00     0.014 C 
ATOM      3  C   UNL     1      -8.289  -4.582  -5.555  1.00  0.00     0.091 C 
ATOM      4  C   UNL     1      -6.968  -3.532  -3.871  1.00  0.00     0.041 C 
ATOM      5  C   UNL     1      -8.443  -3.209  -3.572  1.00  0.00     0.175 C 
ATOM      6  C   UNL     1      -8.754  -4.464  -7.006  1.00  0.00     0.059 C 
ATOM      7  C   UNL     1      -5.851  -4.336  -6.103  1.00  0.00     0.008 C 
ATOM      8  C   UNL     1      -7.602  -4.258  -8.013  1.00  0.00     0.143 C 
ATOM      9  C   UNL     1      -6.271  -4.843  -7.498  1.00  0.00     0.034 C 
ENDROOT
BRANCH   1  10
ATOM     10  C   UNL     1     -10.458  -4.521  -4.156  1.00  0.00     0.246 C 
ATOM     11  O   UNL     1     -11.409  -4.208  -4.881  1.00  0.00    -0.272 OA
BRANCH  10  12
ATOM     12  C   UNL     1     -10.661  -5.409  -2.894  1.00  0.00     0.174 C 
BRANCH  12  13
ATOM     13  N   UNL     1     -10.430  -4.619  -1.685  1.00  0.00    -0.342 N 
ATOM     14  C   UNL     1     -11.226  -3.581  -1.255  1.00  0.00     0.249 C 
ATOM     15  O   UNL     1     -12.244  -3.219  -1.831  1.00  0.00    -0.272 OA
ATOM     16  H   UNL     1      -9.544  -4.699  -1.193  1.00  0.00     0.164 HD
BRANCH  14  17
ATOM     17  C   UNL     1     -10.708  -2.933   0.047  1.00  0.00     0.207 C 
BRANCH  17  18
ATOM     18  C   UNL     1     -11.326  -3.619   1.269  1.00  0.00     0.077 C 
BRANCH  18  19
ATOM     19  C   UNL     1     -10.602  -4.900   1.621  1.00  0.00    -0.043 A 
ATOM     20  C   UNL     1      -8.538  -6.096   2.062  1.00  0.00     0.083 A 
ATOM     21  C   UNL     1      -9.208  -4.903   1.786  1.00  0.00     0.028 A 
ATOM     22  C   UNL     1      -9.253  -7.289   2.172  1.00  0.00     0.134 A 
ATOM     23  C   UNL     1     -10.634  -7.300   2.011  1.00  0.00     0.048 A 
ATOM     24  C   UNL     1     -11.307  -6.108   1.733  1.00  0.00     0.008 A 
ATOM     25  Cl  UNL     1      -6.825  -6.080   2.261  1.00  0.00    -0.080 Cl
BRANCH  22  26
ATOM     26  O   UNL     1      -8.639  -8.484   2.431  1.00  0.00    -0.506 OA
ATOM     27  H   UNL     1      -7.796  -8.276   2.874  1.00  0.00     0.293 HD
ENDBRANCH  22  26
ENDBRANCH  18  19
ENDBRANCH  17  18
BRANCH  17  28
ATOM     28  O   UNL     1     -11.012  -1.530   0.083  1.00  0.00    -0.383 OA
ATOM     29  H   UNL     1     -10.533  -1.168   0.863  1.00  0.00     0.211 HD
ENDBRANCH  17  28
ENDBRANCH  14  17
ENDBRANCH  12  13
BRANCH  12  30
ATOM     30  C   UNL     1      -9.806  -6.704  -2.928  1.00  0.00     0.018 C 
ATOM     31  C   UNL     1     -10.602  -7.869  -3.537  1.00  0.00     0.010 C 
BRANCH  30  32
ATOM     32  C   UNL     1      -9.240  -7.112  -1.546  1.00  0.00     0.002 C 
ATOM     33  C   UNL     1      -7.745  -6.885  -1.362  1.00  0.00     0.004 C 
ENDBRANCH  30  32
ENDBRANCH  12  30
ENDBRANCH  10  12
ENDBRANCH   1  10
BRANCH   5  34
ATOM     34  C   UNL     1      -8.773  -1.720  -3.863  1.00  0.00     0.242 C 
ATOM     35  O   UNL     1      -9.522  -1.379  -4.778  1.00  0.00    -0.273 OA
ATOM     36  N   UNL     1      -8.125  -0.809  -3.060  1.00  0.00    -0.354 N 
ATOM     37  H   UNL     1      -7.424  -1.148  -2.399  1.00  0.00     0.163 HD
BRANCH  36  38
ATOM     38  C   UNL     1      -8.474   0.596  -3.047  1.00  0.00     0.116 C 
BRANCH  38  39
ATOM     39  C   UNL     1      -7.207   1.445  -3.126  1.00  0.00     0.023 C 
BRANCH  39  40
ATOM     40  C   UNL     1      -7.365   2.643  -4.056  1.00  0.00     0.026 C 
BRANCH  40  41
ATOM     41  C   UNL     1      -7.977   2.216  -5.390  1.00  0.00     0.146 C 
BRANCH  41  42
ATOM     42  N   UNL     1      -6.922   2.032  -6.379  1.00  0.00    -0.254 NA
ATOM     43  C   UNL     1      -6.752   0.884  -6.917  1.00  0.00     0.185 C 
ATOM     44  N   UNL     1      -7.418  -0.270  -6.724  1.00  0.00    -0.370 N 
ATOM     45  N   UNL     1      -5.771   0.734  -7.823  1.00  0.00    -0.370 N 
ATOM     46  H   UNL     1      -7.025  -1.145  -7.027  1.00  0.00     0.159 HD
ATOM     47  H   UNL     1      -8.201  -0.332  -6.081  1.00  0.00     0.159 HD
ATOM     48  H   UNL     1      -5.226   1.559  -8.033  1.00  0.00     0.159 HD
ATOM     49  H   UNL     1      -5.726  -0.048  -8.452  1.00  0.00     0.159 HD
ENDBRANCH  41  42
ENDBRANCH  40  41
ENDBRANCH  39  40
ENDBRANCH  38  39
ENDBRANCH  36  38
ENDBRANCH   5  34
BRANCH   8  50
ATOM     50  O   UNL     1      -7.417  -2.865  -8.267  1.00  0.00    -0.245 OA
BRANCH  50  51
ATOM     51  S   UNL     1      -7.741  -2.269  -9.745  1.00  0.00     0.397 S 
ATOM     52  O   UNL     1      -7.416  -3.288 -10.719  1.00  0.00    -0.169 OA
ATOM     53  O   UNL     1      -7.218  -0.923  -9.852  1.00  0.00    -0.169 OA
BRANCH  51  54
ATOM     54  O   UNL     1      -9.346  -2.178  -9.726  1.00  0.00    -0.264 OA
ATOM     55  H   UNL     1      -9.698  -3.048 -10.004  1.00  0.00     0.236 HD
ENDBRANCH  51  54
ENDBRANCH  50  51
ENDBRANCH   8  50
TORSDOF 19
ENDMDL
MODEL 8
REMARK VINA RESULT:    -6.942      5.140      8.608
REMARK INTER + INTRA:         -16.808
REMARK INTER:                 -13.978
REMARK INTRA:                  -2.830
REMARK UNBOUND:                -2.763
REMARK SMILES CC[C@@H](C)[C@@H](NC(=O)[C@@H](O)Cc1ccc(O)c(Cl)c1)C(=O)N1[C@H](C(=O)NCCCCN=C(N)N)C[C@H]2CC[C@H](OS(=O)(=O)O)C[C@@H]21
REMARK SMILES IDX 22 1 36 2 46 3 35 4 23 5 45 6 37 7 39 8 38 9 20 10 21 11
REMARK SMILES IDX 5 12 6 13 7 14 8 15 9 17 11 18 12 19 17 20 19 21 15 22 14 23
REMARK SMILES IDX 13 24 18 25 16 26 10 28 3 30 4 31 2 32 1 33 24 34 25 35
REMARK SMILES IDX 26 36 27 38 28 39 29 40 30 41 31 42 32 43 33 44 34 45 40 50
REMARK SMILES IDX 41 51 42 52 43 53 44 54
REMARK H PARENT 6 16 16 27 10 29 26 37 33 46 33 47 34 48 34 49 44 55
ROOT
ATOM      1  N   UNL     1      -8.626  -3.837  -4.520  1.00  0.00    -0.326 N 
ATOM      2  C   UNL     1     -10.176  -5.570  -4.148  1.00  0.00     0.014 C 
ATOM      3  C   UNL     1      -8.698  -5.202  -3.991  1.00  0.00     0.091 C 
ATOM      4  C   UNL     1     -10.564  -4.857  -5.434  1.00  0.00     0.041 C 
ATOM      5  C   UNL     1      -9.900  -3.488  -5.198  1.00  0.00     0.175 C 
ATOM      6  C   UNL     1      -8.294  -5.436  -2.536  1.00  0.00     0.059 C 
ATOM      7  C   UNL     1     -10.376  -7.069  -4.039  1.00  0.00     0.008 C 
ATOM      8  C   UNL     1      -9.055  -6.597  -1.859  1.00  0.00     0.143 C 
ATOM      9  C   UNL     1      -9.537  -7.647  -2.880  1.00  0.00     0.034 C 
ENDROOT
BRANCH   1  10
ATOM     10  C   UNL     1      -7.537  -2.993  -4.654  1.00  0.00     0.246 C 
ATOM     11  O   UNL     1      -7.286  -2.189  -3.750  1.00  0.00    -0.272 OA
BRANCH  10  12
ATOM     12  C   UNL     1      -6.632  -3.102  -5.915  1.00  0.00     0.174 C 
BRANCH  12  13
ATOM     13  N   UNL     1      -6.216  -1.769  -6.348  1.00  0.00    -0.342 N 
ATOM     14  C   UNL     1      -5.032  -1.479  -6.988  1.00  0.00     0.249 C 
ATOM     15  O   UNL     1      -4.198  -2.322  -7.294  1.00  0.00    -0.272 OA
ATOM     16  H   UNL     1      -6.729  -0.952  -6.026  1.00  0.00     0.164 HD
BRANCH  14  17
ATOM     17  C   UNL     1      -4.876   0.025  -7.300  1.00  0.00     0.207 C 
BRANCH  17  18
ATOM     18  C   UNL     1      -4.480   0.795  -6.037  1.00  0.00     0.077 C 
BRANCH  18  19
ATOM     19  C   UNL     1      -3.089   1.378  -6.147  1.00  0.00    -0.043 A 
ATOM     20  C   UNL     1      -1.436   3.018  -5.465  1.00  0.00     0.083 A 
ATOM     21  C   UNL     1      -2.703   2.450  -5.327  1.00  0.00     0.028 A 
ATOM     22  C   UNL     1      -0.550   2.522  -6.423  1.00  0.00     0.134 A 
ATOM     23  C   UNL     1      -0.919   1.462  -7.242  1.00  0.00     0.048 A 
ATOM     24  C   UNL     1      -2.187   0.892  -7.106  1.00  0.00     0.008 A 
ATOM     25  Cl  UNL     1      -0.980   4.333  -4.448  1.00  0.00    -0.080 Cl
BRANCH  22  26
ATOM     26  O   UNL     1       0.699   3.053  -6.603  1.00  0.00    -0.506 OA
ATOM     27  H   UNL     1       0.720   3.418  -7.507  1.00  0.00     0.293 HD
ENDBRANCH  22  26
ENDBRANCH  18  19
ENDBRANCH  17  18
BRANCH  17  28
ATOM     28  O   UNL     1      -6.094   0.572  -7.830  1.00  0.00    -0.383 OA
ATOM     29  H   UNL     1      -5.951   0.665  -8.799  1.00  0.00     0.211 HD
ENDBRANCH  17  28
ENDBRANCH  14  17
ENDBRANCH  12  13
BRANCH  12  30
ATOM     30  C   UNL     1      -7.293  -3.918  -7.059  1.00  0.00     0.018 C 
ATOM     31  C   UNL     1      -6.348  -5.022  -7.559  1.00  0.00     0.010 C 
BRANCH  30  32
ATOM     32  C   UNL     1      -7.770  -3.047  -8.247  1.00  0.00     0.002 C 
ATOM     33  C   UNL     1      -6.980  -3.218  -9.538  1.00  0.00     0.004 C 
ENDBRANCH  30  32
ENDBRANCH  12  30
ENDBRANCH  10  12
ENDBRANCH   1  10
BRANCH   5  34
ATOM     34  C   UNL     1     -10.772  -2.577  -4.293  1.00  0.00     0.242 C 
ATOM     35  O   UNL     1     -11.936  -2.293  -4.574  1.00  0.00    -0.273 OA
ATOM     36  N   UNL     1     -10.134  -2.069  -3.184  1.00  0.00    -0.354 N 
ATOM     37  H   UNL     1      -9.135  -2.243  -3.069  1.00  0.00     0.163 HD
BRANCH  36  38
ATOM     38  C   UNL     1     -10.848  -1.384  -2.127  1.00  0.00     0.116 C 
BRANCH  38  39
ATOM     39  C   UNL     1     -10.286   0.024  -1.949  1.00  0.00     0.023 C 
BRANCH  39  40
ATOM     40  C   UNL     1      -9.507   0.180  -0.648  1.00  0.00     0.026 C 
BRANCH  40  41
ATOM     41  C   UNL     1     -10.448   0.147   0.556  1.00  0.00     0.146 C 
BRANCH  41  42
ATOM     42  N   UNL     1      -9.891  -0.711   1.593  1.00  0.00    -0.254 NA
ATOM     43  C   UNL     1     -10.471  -1.816   1.881  1.00  0.00     0.185 C 
ATOM     44  N   UNL     1     -11.581  -2.371   1.362  1.00  0.00    -0.370 N 
ATOM     45  N   UNL     1      -9.944  -2.590   2.843  1.00  0.00    -0.370 N 
ATOM     46  H   UNL     1     -12.057  -3.114   1.845  1.00  0.00     0.159 HD
ATOM     47  H   UNL     1     -12.100  -1.924   0.612  1.00  0.00     0.159 HD
ATOM     48  H   UNL     1      -9.099  -2.248   3.281  1.00  0.00     0.159 HD
ATOM     49  H   UNL     1     -10.192  -3.556   2.961  1.00  0.00     0.159 HD
ENDBRANCH  41  42
ENDBRANCH  40  41
ENDBRANCH  39  40
ENDBRANCH  38  39
ENDBRANCH  36  38
ENDBRANCH   5  34
BRANCH   8  50
ATOM     50  O   UNL     1     -10.191  -6.093  -1.155  1.00  0.00    -0.245 OA
BRANCH  50  51
ATOM     51  S   UNL     1     -10.389  -6.461   0.416  1.00  0.00     0.397 S 
ATOM     52  O   UNL     1     -10.454  -5.223   1.160  1.00  0.00    -0.169 OA
ATOM     53  O   UNL     1      -9.476  -7.523   0.786  1.00  0.00    -0.169 OA
BRANCH  51  54
ATOM     54  O   UNL     1     -11.881  -7.061   0.434  1.00  0.00    -0.264 OA
ATOM     55  H   UNL     1     -12.428  -6.520  -0.170  1.00  0.00     0.236 HD
ENDBRANCH  51  54
ENDBRANCH  50  51
ENDBRANCH   8  50
TORSDOF 19
ENDMDL
MODEL 9
REMARK VINA RESULT:    -6.880      4.134      9.896
REMARK INTER + INTRA:         -16.682
REMARK INTER:                 -12.926
REMARK INTRA:                  -3.756
REMARK UNBOUND:                -2.763
REMARK SMILES CC[C@@H](C)[C@@H](NC(=O)[C@@H](O)Cc1ccc(O)c(Cl)c1)C(=O)N1[C@H](C(=O)NCCCCN=C(N)N)C[C@H]2CC[C@H](OS(=O)(=O)O)C[C@@H]21
REMARK SMILES IDX 22 1 36 2 46 3 35 4 23 5 45 6 37 7 39 8 38 9 20 10 21 11
REMARK SMILES IDX 5 12 6 13 7 14 8 15 9 17 11 18 12 19 17 20 19 21 15 22 14 23
REMARK SMILES IDX 13 24 18 25 16 26 10 28 3 30 4 31 2 32 1 33 24 34 25 35
REMARK SMILES IDX 26 36 27 38 28 39 29 40 30 41 31 42 32 43 33 44 34 45 40 50
REMARK SMILES IDX 41 51 42 52 43 53 44 54
REMARK H PARENT 6 16 16 27 10 29 26 37 33 46 33 47 34 48 34 49 44 55
ROOT
ATOM      1  N   UNL     1      -6.597   1.367  -5.371  1.00  0.00    -0.326 N 
ATOM      2  C   UNL     1      -6.468   3.709  -5.571  1.00  0.00     0.014 C 
ATOM      3  C   UNL     1      -6.552   2.576  -4.544  1.00  0.00     0.091 C 
ATOM      4  C   UNL     1      -7.313   3.182  -6.721  1.00  0.00     0.041 C 
ATOM      5  C   UNL     1      -6.797   1.733  -6.795  1.00  0.00     0.175 C 
ATOM      6  C   UNL     1      -5.399   2.735  -3.555  1.00  0.00     0.059 C 
ATOM      7  C   UNL     1      -6.822   5.041  -4.939  1.00  0.00     0.008 C 
ATOM      8  C   UNL     1      -4.988   4.203  -3.310  1.00  0.00     0.143 C 
ATOM      9  C   UNL     1      -6.156   5.180  -3.554  1.00  0.00     0.034 C 
ENDROOT
BRANCH   1  10
ATOM     10  C   UNL     1      -6.695   0.038  -4.995  1.00  0.00     0.246 C 
ATOM     11  O   UNL     1      -5.882  -0.776  -5.446  1.00  0.00    -0.272 OA
BRANCH  10  12
ATOM     12  C   UNL     1      -7.796  -0.394  -3.984  1.00  0.00     0.174 C 
BRANCH  12  13
ATOM     13  N   UNL     1      -8.515  -1.560  -4.497  1.00  0.00    -0.342 N 
ATOM     14  C   UNL     1      -8.161  -2.871  -4.266  1.00  0.00     0.249 C 
ATOM     15  O   UNL     1      -7.210  -3.208  -3.572  1.00  0.00    -0.272 OA
ATOM     16  H   UNL     1      -9.228  -1.438  -5.212  1.00  0.00     0.164 HD
BRANCH  14  17
ATOM     17  C   UNL     1      -9.108  -3.874  -4.958  1.00  0.00     0.207 C 
BRANCH  17  18
ATOM     18  C   UNL     1      -8.786  -5.306  -4.518  1.00  0.00     0.077 C 
BRANCH  18  19
ATOM     19  C   UNL     1      -9.462  -5.657  -3.211  1.00  0.00    -0.043 A 
ATOM     20  C   UNL     1      -9.340  -6.515  -0.945  1.00  0.00     0.083 A 
ATOM     21  C   UNL     1      -8.708  -6.145  -2.133  1.00  0.00     0.028 A 
ATOM     22  C   UNL     1     -10.726  -6.401  -0.828  1.00  0.00     0.134 A 
ATOM     23  C   UNL     1     -11.485  -5.919  -1.888  1.00  0.00     0.048 A 
ATOM     24  C   UNL     1     -10.855  -5.549  -3.078  1.00  0.00     0.008 A 
ATOM     25  Cl  UNL     1      -8.397  -7.114   0.368  1.00  0.00    -0.080 Cl
BRANCH  22  26
ATOM     26  O   UNL     1     -11.392  -6.761   0.312  1.00  0.00    -0.506 OA
ATOM     27  H   UNL     1     -12.203  -7.222   0.029  1.00  0.00     0.293 HD
ENDBRANCH  22  26
ENDBRANCH  18  19
ENDBRANCH  17  18
BRANCH  17  28
ATOM     28  O   UNL     1      -9.005  -3.780  -6.388  1.00  0.00    -0.383 OA
ATOM     29  H   UNL     1      -9.782  -3.254  -6.683  1.00  0.00     0.211 HD
ENDBRANCH  17  28
ENDBRANCH  14  17
ENDBRANCH  12  13
BRANCH  12  30
ATOM     30  C   UNL     1      -8.751   0.770  -3.603  1.00  0.00     0.018 C 
ATOM     31  C   UNL     1      -9.020   0.783  -2.091  1.00  0.00     0.010 C 
BRANCH  30  32
ATOM     32  C   UNL     1     -10.089   0.755  -4.382  1.00  0.00     0.002 C 
ATOM     33  C   UNL     1     -10.467   2.070  -5.051  1.00  0.00     0.004 C 
ENDBRANCH  30  32
ENDBRANCH  12  30
ENDBRANCH  10  12
ENDBRANCH   1  10
BRANCH   5  34
ATOM     34  C   UNL     1      -5.462   1.640  -7.580  1.00  0.00     0.242 C 
ATOM     35  O   UNL     1      -4.666   2.577  -7.637  1.00  0.00    -0.273 OA
ATOM     36  N   UNL     1      -5.258   0.455  -8.251  1.00  0.00    -0.354 N 
ATOM     37  H   UNL     1      -6.008  -0.238  -8.264  1.00  0.00     0.163 HD
BRANCH  36  38
ATOM     38  C   UNL     1      -3.984   0.115  -8.850  1.00  0.00     0.116 C 
BRANCH  38  39
ATOM     39  C   UNL     1      -3.262  -0.914  -7.984  1.00  0.00     0.023 C 
BRANCH  39  40
ATOM     40  C   UNL     1      -2.051  -0.327  -7.268  1.00  0.00     0.026 C 
BRANCH  40  41
ATOM     41  C   UNL     1      -1.544   0.920  -7.993  1.00  0.00     0.146 C 
BRANCH  41  42
ATOM     42  N   UNL     1      -0.557   1.603  -7.168  1.00  0.00    -0.254 NA
ATOM     43  C   UNL     1      -0.918   2.584  -6.430  1.00  0.00     0.185 C 
ATOM     44  N   UNL     1      -2.132   3.141  -6.264  1.00  0.00    -0.370 N 
ATOM     45  N   UNL     1       0.008   3.203  -5.680  1.00  0.00    -0.370 N 
ATOM     46  H   UNL     1      -2.225   4.052  -5.847  1.00  0.00     0.159 HD
ATOM     47  H   UNL     1      -2.951   2.787  -6.747  1.00  0.00     0.159 HD
ATOM     48  H   UNL     1       0.950   2.839  -5.740  1.00  0.00     0.159 HD
ATOM     49  H   UNL     1      -0.228   3.808  -4.914  1.00  0.00     0.159 HD
ENDBRANCH  41  42
ENDBRANCH  40  41
ENDBRANCH  39  40
ENDBRANCH  38  39
ENDBRANCH  36  38
ENDBRANCH   5  34
BRANCH   8  50
ATOM     50  O   UNL     1      -3.909   4.561  -4.174  1.00  0.00    -0.245 OA
BRANCH  50  51
ATOM     51  S   UNL     1      -2.495   5.048  -3.534  1.00  0.00     0.397 S 
ATOM     52  O   UNL     1      -2.777   5.706  -2.278  1.00  0.00    -0.169 OA
ATOM     53  O   UNL     1      -1.690   5.679  -4.559  1.00  0.00    -0.169 OA
BRANCH  51  54
ATOM     54  O   UNL     1      -1.801   3.649  -3.150  1.00  0.00    -0.264 OA
ATOM     55  H   UNL     1      -1.827   3.561  -2.176  1.00  0.00     0.236 HD
ENDBRANCH  51  54
ENDBRANCH  50  51
ENDBRANCH   8  50
TORSDOF 19
ENDMDL
MODEL 10
REMARK VINA RESULT:    -6.845      4.519      7.305
REMARK INTER + INTRA:         -16.611
REMARK INTER:                 -13.487
REMARK INTRA:                  -3.124
REMARK UNBOUND:                -2.763
REMARK SMILES CC[C@@H](C)[C@@H](NC(=O)[C@@H](O)Cc1ccc(O)c(Cl)c1)C(=O)N1[C@H](C(=O)NCCCCN=C(N)N)C[C@H]2CC[C@H](OS(=O)(=O)O)C[C@@H]21
REMARK SMILES IDX 22 1 36 2 46 3 35 4 23 5 45 6 37 7 39 8 38 9 20 10 21 11
REMARK SMILES IDX 5 12 6 13 7 14 8 15 9 17 11 18 12 19 17 20 19 21 15 22 14 23
REMARK SMILES IDX 13 24 18 25 16 26 10 28 3 30 4 31 2 32 1 33 24 34 25 35
REMARK SMILES IDX 26 36 27 38 28 39 29 40 30 41 31 42 32 43 33 44 34 45 40 50
REMARK SMILES IDX 41 51 42 52 43 53 44 54
REMARK H PARENT 6 16 16 27 10 29 26 37 33 46 33 47 34 48 34 49 44 55
ROOT
ATOM      1  N   UNL     1      -8.588  -1.803  -5.003  1.00  0.00    -0.326 N 
ATOM      2  C   UNL     1     -10.127  -3.494  -5.565  1.00  0.00     0.014 C 
ATOM      3  C   UNL     1      -8.678  -3.261  -5.126  1.00  0.00     0.091 C 
ATOM      4  C   UNL     1     -10.408  -2.286  -6.446  1.00  0.00     0.041 C 
ATOM      5  C   UNL     1      -9.800  -1.169  -5.578  1.00  0.00     0.175 C 
ATOM      6  C   UNL     1      -8.407  -4.111  -3.886  1.00  0.00     0.059 C 
ATOM      7  C   UNL     1     -10.303  -4.887  -6.136  1.00  0.00     0.008 C 
ATOM      8  C   UNL     1      -9.202  -5.434  -3.854  1.00  0.00     0.143 C 
ATOM      9  C   UNL     1      -9.563  -5.928  -5.269  1.00  0.00     0.034 C 
ENDROOT
BRANCH   1  10
ATOM     10  C   UNL     1      -7.510  -1.007  -4.655  1.00  0.00     0.246 C 
ATOM     11  O   UNL     1      -7.434  -0.570  -3.501  1.00  0.00    -0.272 OA
BRANCH  10  12
ATOM     12  C   UNL     1      -6.401  -0.715  -5.706  1.00  0.00     0.174 C 
BRANCH  12  13
ATOM     13  N   UNL     1      -6.299   0.725  -5.937  1.00  0.00    -0.342 N 
ATOM     14  C   UNL     1      -5.434   1.572  -5.281  1.00  0.00     0.249 C 
ATOM     15  O   UNL     1      -4.624   1.202  -4.440  1.00  0.00    -0.272 OA
ATOM     16  H   UNL     1      -7.010   1.198  -6.489  1.00  0.00     0.164 HD
BRANCH  14  17
ATOM     17  C   UNL     1      -5.579   3.040  -5.734  1.00  0.00     0.207 C 
BRANCH  17  18
ATOM     18  C   UNL     1      -5.222   3.993  -4.588  1.00  0.00     0.077 C 
BRANCH  18  19
ATOM     19  C   UNL     1      -3.829   4.561  -4.742  1.00  0.00    -0.043 A 
ATOM     20  C   UNL     1      -1.834   4.903  -6.079  1.00  0.00     0.083 A 
ATOM     21  C   UNL     1      -3.138   4.421  -5.956  1.00  0.00     0.028 A 
ATOM     22  C   UNL     1      -1.214   5.524  -4.994  1.00  0.00     0.134 A 
ATOM     23  C   UNL     1      -1.887   5.669  -3.787  1.00  0.00     0.048 A 
ATOM     24  C   UNL     1      -3.192   5.186  -3.660  1.00  0.00     0.008 A 
ATOM     25  Cl  UNL     1      -1.000   4.721  -7.577  1.00  0.00    -0.080 Cl
BRANCH  22  26
ATOM     26  O   UNL     1       0.066   6.003  -5.063  1.00  0.00    -0.506 OA
ATOM     27  H   UNL     1       0.290   6.335  -4.174  1.00  0.00     0.293 HD
ENDBRANCH  22  26
ENDBRANCH  18  19
ENDBRANCH  17  18
BRANCH  17  28
ATOM     28  O   UNL     1      -6.916   3.314  -6.183  1.00  0.00    -0.383 OA
ATOM     29  H   UNL     1      -6.864   4.152  -6.696  1.00  0.00     0.211 HD
ENDBRANCH  17  28
ENDBRANCH  14  17
ENDBRANCH  12  13
BRANCH  12  30
ATOM     30  C   UNL     1      -6.597  -1.514  -7.023  1.00  0.00     0.018 C 
ATOM     31  C   UNL     1      -5.490  -2.567  -7.193  1.00  0.00     0.010 C 
BRANCH  30  32
ATOM     32  C   UNL     1      -6.680  -0.621  -8.285  1.00  0.00     0.002 C 
ATOM     33  C   UNL     1      -8.072  -0.474  -8.887  1.00  0.00     0.004 C 
ENDBRANCH  30  32
ENDBRANCH  12  30
ENDBRANCH  10  12
ENDBRANCH   1  10
BRANCH   5  34
ATOM     34  C   UNL     1     -10.773  -0.723  -4.455  1.00  0.00     0.242 C 
ATOM     35  O   UNL     1     -11.986  -0.921  -4.518  1.00  0.00    -0.273 OA
ATOM     36  N   UNL     1     -10.189  -0.042  -3.410  1.00  0.00    -0.354 N 
ATOM     37  H   UNL     1      -9.199   0.197  -3.472  1.00  0.00     0.163 HD
BRANCH  36  38
ATOM     38  C   UNL     1     -10.903   0.256  -2.186  1.00  0.00     0.116 C 
BRANCH  38  39
ATOM     39  C   UNL     1     -10.460  -0.701  -1.081  1.00  0.00     0.023 C 
BRANCH  39  40
ATOM     40  C   UNL     1     -11.316  -1.961  -1.024  1.00  0.00     0.026 C 
BRANCH  40  41
ATOM     41  C   UNL     1     -11.382  -2.507   0.403  1.00  0.00     0.146 C 
BRANCH  41  42
ATOM     42  N   UNL     1     -11.486  -3.960   0.370  1.00  0.00    -0.254 NA
ATOM     43  C   UNL     1     -12.227  -4.561   1.224  1.00  0.00     0.185 C 
ATOM     44  N   UNL     1     -12.982  -4.060   2.219  1.00  0.00    -0.370 N 
ATOM     45  N   UNL     1     -12.306  -5.901   1.180  1.00  0.00    -0.370 N 
ATOM     46  H   UNL     1     -13.314  -4.654   2.959  1.00  0.00     0.159 HD
ATOM     47  H   UNL     1     -13.049  -3.061   2.386  1.00  0.00     0.159 HD
ATOM     48  H   UNL     1     -11.772  -6.358   0.453  1.00  0.00     0.159 HD
ATOM     49  H   UNL     1     -13.030  -6.419   1.645  1.00  0.00     0.159 HD
ENDBRANCH  41  42
ENDBRANCH  40  41
ENDBRANCH  39  40
ENDBRANCH  38  39
ENDBRANCH  36  38
ENDBRANCH   5  34
BRANCH   8  50
ATOM     50  O   UNL     1     -10.410  -5.262  -3.112  1.00  0.00    -0.245 OA
BRANCH  50  51
ATOM     51  S   UNL     1     -11.062  -6.533  -2.334  1.00  0.00     0.397 S 
ATOM     52  O   UNL     1     -10.339  -6.717  -1.096  1.00  0.00    -0.169 OA
ATOM     53  O   UNL     1     -11.262  -7.623  -3.266  1.00  0.00    -0.169 OA
BRANCH  51  54
ATOM     54  O   UNL     1     -12.507  -5.965  -1.917  1.00  0.00    -0.264 OA
ATOM     55  H   UNL     1     -12.371  -5.260  -1.252  1.00  0.00     0.236 HD
ENDBRANCH  51  54
ENDBRANCH  50  51
ENDBRANCH   8  50
TORSDOF 19
ENDMDL
