MODEL 1
REMARK VINA RESULT:    -6.179      0.000      0.000
REMARK INTER + INTRA:         -20.762
REMARK INTER:                 -15.390
REMARK INTRA:                  -5.372
REMARK UNBOUND:                -5.372
REMARK SMILES CCCCCCC[C@H](N)[C@H](O)C(=O)N[C@H](C)C(=O)N(C)[C@H](CC(C)C)C(=O)N[C@@H](Cc1ccc(O)cc1)C(=O)N[C@@H](Cc1ccc(O)cc1)C(=O)O
REMARK SMILES IDX 18 1 17 2 15 3 16 4 14 5 12 6 13 7 10 9 11 10 8 12 9 13 7 16
REMARK SMILES IDX 6 17 5 18 4 19 3 20 2 21 1 22 19 23 20 24 21 25 22 26 23 27
REMARK SMILES IDX 24 28 25 29 26 30 27 31 28 32 29 34 30 35 31 36 32 37 37 38
REMARK SMILES IDX 33 39 36 40 34 41 35 42 38 44 39 45 40 46 41 48 42 49 43 50
REMARK SMILES IDX 44 51 49 52 45 53 48 54 46 55 47 56 50 58 51 59 52 60
REMARK H PARENT 14 8 11 11 9 14 9 15 28 33 35 43 40 47 47 57 52 61
ROOT
ATOM      1  O   UNL     1      -3.436  -3.860   2.869  1.00  0.00    -0.272 OA
ATOM      2  C   UNL     1      -4.090  -4.791   2.377  1.00  0.00     0.245 C 
ENDROOT
BRANCH   2   3
ATOM      3  C   UNL     1      -3.370  -5.783   1.429  1.00  0.00     0.168 C 
ATOM      4  C   UNL     1      -2.585  -6.819   2.225  1.00  0.00     0.041 C 
BRANCH   3   5
ATOM      5  N   UNL     1      -4.225  -6.401   0.428  1.00  0.00    -0.342 N 
ATOM      6  C   UNL     1      -3.796  -6.613  -0.865  1.00  0.00     0.251 C 
ATOM      7  O   UNL     1      -2.695  -6.264  -1.278  1.00  0.00    -0.272 OA
ATOM      8  H   UNL     1      -5.173  -6.701   0.644  1.00  0.00     0.164 HD
BRANCH   6   9
ATOM      9  C   UNL     1      -4.810  -7.406  -1.706  1.00  0.00     0.219 C 
BRANCH   9  10
ATOM     10  O   UNL     1      -5.684  -8.210  -0.903  1.00  0.00    -0.382 OA
ATOM     11  H   UNL     1      -6.535  -7.719  -0.926  1.00  0.00     0.211 HD
ENDBRANCH   9  10
BRANCH   9  12
ATOM     12  C   UNL     1      -5.622  -6.515  -2.682  1.00  0.00     0.089 C 
BRANCH  12  13
ATOM     13  N   UNL     1      -5.473  -5.104  -2.259  1.00  0.00    -0.325 NA
ATOM     14  H   UNL     1      -5.530  -4.500  -3.081  1.00  0.00     0.119 HD
ATOM     15  H   UNL     1      -4.529  -4.966  -1.892  1.00  0.00     0.119 HD
ENDBRANCH  12  13
BRANCH  12  16
ATOM     16  C   UNL     1      -5.273  -6.661  -4.182  1.00  0.00     0.022 C 
BRANCH  16  17
ATOM     17  C   UNL     1      -4.897  -5.409  -4.986  1.00  0.00     0.002 C 
BRANCH  17  18
ATOM     18  C   UNL     1      -5.720  -5.185  -6.253  1.00  0.00     0.000 C 
BRANCH  18  19
ATOM     19  C   UNL     1      -5.073  -4.221  -7.256  1.00  0.00    -0.000 C 
BRANCH  19  20
ATOM     20  C   UNL     1      -4.947  -2.772  -6.777  1.00  0.00    -0.000 C 
BRANCH  20  21
ATOM     21  C   UNL     1      -4.908  -1.762  -7.927  1.00  0.00    -0.003 C 
ATOM     22  C   UNL     1      -5.289  -0.368  -7.453  1.00  0.00     0.004 C 
ENDBRANCH  20  21
ENDBRANCH  19  20
ENDBRANCH  18  19
ENDBRANCH  17  18
ENDBRANCH  16  17
ENDBRANCH  12  16
ENDBRANCH   9  12
ENDBRANCH   6   9
ENDBRANCH   3   5
ENDBRANCH   2   3
BRANCH   2  23
ATOM     23  N   UNL     1      -5.407  -5.001   2.772  1.00  0.00    -0.332 N 
ATOM     24  C   UNL     1      -5.873  -6.168   3.506  1.00  0.00     0.147 C 
BRANCH  23  25
ATOM     25  C   UNL     1      -6.431  -3.940   2.566  1.00  0.00     0.174 C 
BRANCH  25  26
ATOM     26  C   UNL     1      -7.685  -4.133   3.452  1.00  0.00     0.038 C 
BRANCH  26  27
ATOM     27  C   UNL     1      -8.226  -2.884   4.181  1.00  0.00    -0.015 C 
ATOM     28  C   UNL     1      -7.148  -1.824   4.404  1.00  0.00     0.007 C 
ATOM     29  C   UNL     1      -9.451  -2.270   3.507  1.00  0.00     0.007 C 
ENDBRANCH  26  27
ENDBRANCH  25  26
BRANCH  25  30
ATOM     30  C   UNL     1      -6.751  -3.793   1.061  1.00  0.00     0.243 C 
ATOM     31  O   UNL     1      -6.630  -4.733   0.276  1.00  0.00    -0.273 OA
ATOM     32  N   UNL     1      -7.169  -2.550   0.662  1.00  0.00    -0.342 N 
ATOM     33  H   UNL     1      -7.379  -1.864   1.391  1.00  0.00     0.164 HD
BRANCH  32  34
ATOM     34  C   UNL     1      -7.489  -2.220  -0.730  1.00  0.00     0.175 C 
BRANCH  34  35
ATOM     35  C   UNL     1      -8.786  -2.908  -1.182  1.00  0.00     0.070 C 
BRANCH  35  36
ATOM     36  C   UNL     1      -9.008  -2.812  -2.675  1.00  0.00    -0.045 A 
ATOM     37  C   UNL     1      -7.912  -2.838  -3.551  1.00  0.00     0.007 A 
ATOM     38  C   UNL     1     -10.299  -2.674  -3.203  1.00  0.00     0.007 A 
ATOM     39  C   UNL     1      -8.106  -2.737  -4.929  1.00  0.00     0.046 A 
ATOM     40  C   UNL     1     -10.494  -2.572  -4.582  1.00  0.00     0.046 A 
ATOM     41  C   UNL     1      -9.394  -2.605  -5.433  1.00  0.00     0.115 A 
BRANCH  41  42
ATOM     42  O   UNL     1      -9.540  -2.506  -6.785  1.00  0.00    -0.508 OA
ATOM     43  H   UNL     1      -8.677  -2.676  -7.198  1.00  0.00     0.293 HD
ENDBRANCH  41  42
ENDBRANCH  35  36
ENDBRANCH  34  35
BRANCH  34  44
ATOM     44  C   UNL     1      -7.579  -0.682  -0.848  1.00  0.00     0.243 C 
ATOM     45  O   UNL     1      -6.833   0.005  -1.541  1.00  0.00    -0.273 OA
ATOM     46  N   UNL     1      -8.504  -0.119   0.005  1.00  0.00    -0.341 N 
ATOM     47  H   UNL     1      -9.017  -0.721   0.645  1.00  0.00     0.164 HD
BRANCH  46  48
ATOM     48  C   UNL     1      -8.719   1.325   0.120  1.00  0.00     0.196 C 
BRANCH  48  49
ATOM     49  C   UNL     1     -10.196   1.691  -0.103  1.00  0.00     0.072 C 
BRANCH  49  50
ATOM     50  C   UNL     1     -11.137   0.569   0.275  1.00  0.00    -0.045 A 
ATOM     51  C   UNL     1     -11.700  -0.238  -0.724  1.00  0.00     0.007 A 
ATOM     52  C   UNL     1     -11.475   0.332   1.614  1.00  0.00     0.007 A 
ATOM     53  C   UNL     1     -12.580  -1.267  -0.387  1.00  0.00     0.046 A 
ATOM     54  C   UNL     1     -12.356  -0.698   1.951  1.00  0.00     0.046 A 
ATOM     55  C   UNL     1     -12.900  -1.490   0.946  1.00  0.00     0.115 A 
BRANCH  55  56
ATOM     56  O   UNL     1     -13.765  -2.505   1.232  1.00  0.00    -0.508 OA
ATOM     57  H   UNL     1     -13.252  -3.321   1.344  1.00  0.00     0.293 HD
ENDBRANCH  55  56
ENDBRANCH  49  50
ENDBRANCH  48  49
BRANCH  48  58
ATOM     58  C   UNL     1      -8.281   1.786   1.517  1.00  0.00     0.326 C 
ATOM     59  O   UNL     1      -8.795   2.653   2.205  1.00  0.00    -0.250 OA
BRANCH  58  60
ATOM     60  O   UNL     1      -7.206   1.111   1.997  1.00  0.00    -0.480 OA
ATOM     61  H   UNL     1      -7.302   0.219   1.598  1.00  0.00     0.296 HD
ENDBRANCH  58  60
ENDBRANCH  48  58
ENDBRANCH  46  48
ENDBRANCH  34  44
ENDBRANCH  32  34
ENDBRANCH  25  30
ENDBRANCH  23  25
ENDBRANCH   2  23
TORSDOF 28
ENDMDL
MODEL 2
REMARK VINA RESULT:    -5.945      1.701      2.390
REMARK INTER + INTRA:         -20.179
REMARK INTER:                 -15.194
REMARK INTRA:                  -4.985
REMARK UNBOUND:                -5.372
REMARK SMILES CCCCCCC[C@H](N)[C@H](O)C(=O)N[C@H](C)C(=O)N(C)[C@H](CC(C)C)C(=O)N[C@@H](Cc1ccc(O)cc1)C(=O)N[C@@H](Cc1ccc(O)cc1)C(=O)O
REMARK SMILES IDX 18 1 17 2 15 3 16 4 14 5 12 6 13 7 10 9 11 10 8 12 9 13 7 16
REMARK SMILES IDX 6 17 5 18 4 19 3 20 2 21 1 22 19 23 20 24 21 25 22 26 23 27
REMARK SMILES IDX 24 28 25 29 26 30 27 31 28 32 29 34 30 35 31 36 32 37 37 38
REMARK SMILES IDX 33 39 36 40 34 41 35 42 38 44 39 45 40 46 41 48 42 49 43 50
REMARK SMILES IDX 44 51 49 52 45 53 48 54 46 55 47 56 50 58 51 59 52 60
REMARK H PARENT 14 8 11 11 9 14 9 15 28 33 35 43 40 47 47 57 52 61
ROOT
ATOM      1  O   UNL     1      -3.420  -3.756   2.870  1.00  0.00    -0.272 OA
ATOM      2  C   UNL     1      -3.908  -4.819   2.458  1.00  0.00     0.245 C 
ENDROOT
BRANCH   2   3
ATOM      3  C   UNL     1      -2.962  -5.877   1.836  1.00  0.00     0.168 C 
ATOM      4  C   UNL     1      -2.210  -6.636   2.923  1.00  0.00     0.041 C 
BRANCH   3   5
ATOM      5  N   UNL     1      -3.595  -6.777   0.884  1.00  0.00    -0.342 N 
ATOM      6  C   UNL     1      -3.273  -6.762  -0.457  1.00  0.00     0.251 C 
ATOM      7  O   UNL     1      -2.473  -5.974  -0.951  1.00  0.00    -0.272 OA
ATOM      8  H   UNL     1      -4.299  -7.452   1.171  1.00  0.00     0.164 HD
BRANCH   6   9
ATOM      9  C   UNL     1      -3.956  -7.890  -1.245  1.00  0.00     0.219 C 
BRANCH   9  10
ATOM     10  O   UNL     1      -4.112  -9.087  -0.473  1.00  0.00    -0.382 OA
ATOM     11  H   UNL     1      -4.863  -8.880   0.125  1.00  0.00     0.211 HD
ENDBRANCH   9  10
BRANCH   9  12
ATOM     12  C   UNL     1      -5.307  -7.461  -1.875  1.00  0.00     0.089 C 
BRANCH  12  13
ATOM     13  N   UNL     1      -6.294  -7.281  -0.786  1.00  0.00    -0.325 NA
ATOM     14  H   UNL     1      -6.826  -6.425  -0.953  1.00  0.00     0.119 HD
ATOM     15  H   UNL     1      -5.794  -7.118   0.091  1.00  0.00     0.119 HD
ENDBRANCH  12  13
BRANCH  12  16
ATOM     16  C   UNL     1      -5.268  -6.200  -2.771  1.00  0.00     0.022 C 
BRANCH  16  17
ATOM     17  C   UNL     1      -5.227  -6.368  -4.296  1.00  0.00     0.002 C 
BRANCH  17  18
ATOM     18  C   UNL     1      -5.593  -5.117  -5.092  1.00  0.00     0.000 C 
BRANCH  18  19
ATOM     19  C   UNL     1      -5.531  -5.305  -6.613  1.00  0.00    -0.000 C 
BRANCH  19  20
ATOM     20  C   UNL     1      -6.617  -4.571  -7.404  1.00  0.00    -0.000 C 
BRANCH  20  21
ATOM     21  C   UNL     1      -6.054  -3.514  -8.358  1.00  0.00    -0.003 C 
ATOM     22  C   UNL     1      -4.535  -3.571  -8.414  1.00  0.00     0.004 C 
ENDBRANCH  20  21
ENDBRANCH  19  20
ENDBRANCH  18  19
ENDBRANCH  17  18
ENDBRANCH  16  17
ENDBRANCH  12  16
ENDBRANCH   9  12
ENDBRANCH   6   9
ENDBRANCH   3   5
ENDBRANCH   2   3
BRANCH   2  23
ATOM     23  N   UNL     1      -5.255  -5.093   2.668  1.00  0.00    -0.332 N 
ATOM     24  C   UNL     1      -5.765  -6.322   3.258  1.00  0.00     0.147 C 
BRANCH  23  25
ATOM     25  C   UNL     1      -6.284  -4.049   2.406  1.00  0.00     0.174 C 
BRANCH  25  26
ATOM     26  C   UNL     1      -7.605  -4.300   3.171  1.00  0.00     0.038 C 
BRANCH  26  27
ATOM     27  C   UNL     1      -8.052  -3.211   4.172  1.00  0.00    -0.015 C 
ATOM     28  C   UNL     1      -8.515  -3.798   5.505  1.00  0.00     0.007 C 
ATOM     29  C   UNL     1      -7.001  -2.127   4.398  1.00  0.00     0.007 C 
ENDBRANCH  26  27
ENDBRANCH  25  26
BRANCH  25  30
ATOM     30  C   UNL     1      -6.474  -3.860   0.884  1.00  0.00     0.243 C 
ATOM     31  O   UNL     1      -5.979  -4.634   0.066  1.00  0.00    -0.273 OA
ATOM     32  N   UNL     1      -7.221  -2.773   0.510  1.00  0.00    -0.342 N 
ATOM     33  H   UNL     1      -7.713  -2.261   1.246  1.00  0.00     0.164 HD
BRANCH  32  34
ATOM     34  C   UNL     1      -7.482  -2.422  -0.889  1.00  0.00     0.175 C 
BRANCH  34  35
ATOM     35  C   UNL     1      -8.788  -3.057  -1.390  1.00  0.00     0.070 C 
BRANCH  35  36
ATOM     36  C   UNL     1      -9.075  -2.737  -2.840  1.00  0.00    -0.045 A 
ATOM     37  C   UNL     1     -10.401  -2.612  -3.282  1.00  0.00     0.007 A 
ATOM     38  C   UNL     1      -8.032  -2.584  -3.762  1.00  0.00     0.007 A 
ATOM     39  C   UNL     1     -10.676  -2.331  -4.620  1.00  0.00     0.046 A 
ATOM     40  C   UNL     1      -8.306  -2.304  -5.103  1.00  0.00     0.046 A 
ATOM     41  C   UNL     1      -9.628  -2.178  -5.520  1.00  0.00     0.115 A 
BRANCH  41  42
ATOM     42  O   UNL     1      -9.939  -1.907  -6.819  1.00  0.00    -0.508 OA
ATOM     43  H   UNL     1     -10.891  -2.058  -6.942  1.00  0.00     0.293 HD
ENDBRANCH  41  42
ENDBRANCH  35  36
ENDBRANCH  34  35
BRANCH  34  44
ATOM     44  C   UNL     1      -7.510  -0.881  -0.998  1.00  0.00     0.243 C 
ATOM     45  O   UNL     1      -6.720  -0.218  -1.665  1.00  0.00    -0.273 OA
ATOM     46  N   UNL     1      -8.435  -0.288  -0.166  1.00  0.00    -0.341 N 
ATOM     47  H   UNL     1      -8.987  -0.874   0.456  1.00  0.00     0.164 HD
BRANCH  46  48
ATOM     48  C   UNL     1      -8.598   1.163  -0.045  1.00  0.00     0.196 C 
BRANCH  48  49
ATOM     49  C   UNL     1     -10.031   1.596  -0.397  1.00  0.00     0.072 C 
BRANCH  49  50
ATOM     50  C   UNL     1     -10.351   1.412  -1.864  1.00  0.00    -0.045 A 
ATOM     51  C   UNL     1      -9.371   1.675  -2.831  1.00  0.00     0.007 A 
ATOM     52  C   UNL     1     -11.624   0.999  -2.278  1.00  0.00     0.007 A 
ATOM     53  C   UNL     1      -9.658   1.521  -4.188  1.00  0.00     0.046 A 
ATOM     54  C   UNL     1     -11.912   0.847  -3.636  1.00  0.00     0.046 A 
ATOM     55  C   UNL     1     -10.926   1.108  -4.580  1.00  0.00     0.115 A 
BRANCH  55  56
ATOM     56  O   UNL     1     -11.166   0.972  -5.915  1.00  0.00    -0.508 OA
ATOM     57  H   UNL     1     -10.571   0.290  -6.265  1.00  0.00     0.293 HD
ENDBRANCH  55  56
ENDBRANCH  49  50
ENDBRANCH  48  49
BRANCH  48  58
ATOM     58  C   UNL     1      -8.272   1.584   1.394  1.00  0.00     0.326 C 
ATOM     59  O   UNL     1      -8.638   2.597   1.969  1.00  0.00    -0.250 OA
BRANCH  58  60
ATOM     60  O   UNL     1      -7.500   0.688   2.059  1.00  0.00    -0.480 OA
ATOM     61  H   UNL     1      -8.155   0.066   2.443  1.00  0.00     0.296 HD
ENDBRANCH  58  60
ENDBRANCH  48  58
ENDBRANCH  46  48
ENDBRANCH  34  44
ENDBRANCH  32  34
ENDBRANCH  25  30
ENDBRANCH  23  25
ENDBRANCH   2  23
TORSDOF 28
ENDMDL
MODEL 3
REMARK VINA RESULT:    -5.924      3.013      7.725
REMARK INTER + INTRA:         -20.127
REMARK INTER:                 -17.177
REMARK INTRA:                  -2.950
REMARK UNBOUND:                -5.372
REMARK SMILES CCCCCCC[C@H](N)[C@H](O)C(=O)N[C@H](C)C(=O)N(C)[C@H](CC(C)C)C(=O)N[C@@H](Cc1ccc(O)cc1)C(=O)N[C@@H](Cc1ccc(O)cc1)C(=O)O
REMARK SMILES IDX 18 1 17 2 15 3 16 4 14 5 12 6 13 7 10 9 11 10 8 12 9 13 7 16
REMARK SMILES IDX 6 17 5 18 4 19 3 20 2 21 1 22 19 23 20 24 21 25 22 26 23 27
REMARK SMILES IDX 24 28 25 29 26 30 27 31 28 32 29 34 30 35 31 36 32 37 37 38
REMARK SMILES IDX 33 39 36 40 34 41 35 42 38 44 39 45 40 46 41 48 42 49 43 50
REMARK SMILES IDX 44 51 49 52 45 53 48 54 46 55 47 56 50 58 51 59 52 60
REMARK H PARENT 14 8 11 11 9 14 9 15 28 33 35 43 40 47 47 57 52 61
ROOT
ATOM      1  O   UNL     1      -9.607   2.575  -0.744  1.00  0.00    -0.272 OA
ATOM      2  C   UNL     1      -8.962   1.526  -0.888  1.00  0.00     0.245 C 
ENDROOT
BRANCH   2   3
ATOM      3  C   UNL     1      -8.497   1.131  -2.312  1.00  0.00     0.168 C 
ATOM      4  C   UNL     1      -9.693   0.821  -3.206  1.00  0.00     0.041 C 
BRANCH   3   5
ATOM      5  N   UNL     1      -7.582   2.072  -2.939  1.00  0.00    -0.342 N 
ATOM      6  C   UNL     1      -6.629   1.665  -3.848  1.00  0.00     0.251 C 
ATOM      7  O   UNL     1      -6.451   0.493  -4.163  1.00  0.00    -0.272 OA
ATOM      8  H   UNL     1      -7.610   3.067  -2.730  1.00  0.00     0.164 HD
BRANCH   6   9
ATOM      9  C   UNL     1      -5.873   2.842  -4.485  1.00  0.00     0.219 C 
BRANCH   9  10
ATOM     10  O   UNL     1      -6.370   4.115  -4.054  1.00  0.00    -0.382 OA
ATOM     11  H   UNL     1      -7.175   4.247  -4.601  1.00  0.00     0.211 HD
ENDBRANCH   9  10
BRANCH   9  12
ATOM     12  C   UNL     1      -4.337   2.756  -4.293  1.00  0.00     0.089 C 
BRANCH  12  13
ATOM     13  N   UNL     1      -4.062   1.946  -3.084  1.00  0.00    -0.325 NA
ATOM     14  H   UNL     1      -3.393   2.442  -2.492  1.00  0.00     0.119 HD
ATOM     15  H   UNL     1      -3.584   1.086  -3.364  1.00  0.00     0.119 HD
ENDBRANCH  12  13
BRANCH  12  16
ATOM     16  C   UNL     1      -3.533   2.207  -5.495  1.00  0.00     0.022 C 
BRANCH  16  17
ATOM     17  C   UNL     1      -2.846   3.194  -6.449  1.00  0.00     0.002 C 
BRANCH  17  18
ATOM     18  C   UNL     1      -3.791   4.139  -7.188  1.00  0.00     0.000 C 
BRANCH  18  19
ATOM     19  C   UNL     1      -4.054   5.460  -6.453  1.00  0.00    -0.000 C 
BRANCH  19  20
ATOM     20  C   UNL     1      -5.377   6.147  -6.803  1.00  0.00    -0.000 C 
BRANCH  20  21
ATOM     21  C   UNL     1      -6.467   5.163  -7.237  1.00  0.00    -0.003 C 
ATOM     22  C   UNL     1      -7.761   5.885  -7.578  1.00  0.00     0.004 C 
ENDBRANCH  20  21
ENDBRANCH  19  20
ENDBRANCH  18  19
ENDBRANCH  17  18
ENDBRANCH  16  17
ENDBRANCH  12  16
ENDBRANCH   9  12
ENDBRANCH   6   9
ENDBRANCH   3   5
ENDBRANCH   2   3
BRANCH   2  23
ATOM     23  N   UNL     1      -8.566   0.794   0.226  1.00  0.00    -0.332 N 
ATOM     24  C   UNL     1      -7.763   1.323   1.319  1.00  0.00     0.147 C 
BRANCH  23  25
ATOM     25  C   UNL     1      -9.069  -0.592   0.433  1.00  0.00     0.174 C 
BRANCH  25  26
ATOM     26  C   UNL     1      -9.170  -0.980   1.927  1.00  0.00     0.038 C 
BRANCH  26  27
ATOM     27  C   UNL     1      -9.892  -2.304   2.259  1.00  0.00    -0.015 C 
ATOM     28  C   UNL     1      -8.930  -3.488   2.349  1.00  0.00     0.007 C 
ATOM     29  C   UNL     1     -10.764  -2.224   3.509  1.00  0.00     0.007 C 
ENDBRANCH  26  27
ENDBRANCH  25  26
BRANCH  25  30
ATOM     30  C   UNL     1      -8.244  -1.588  -0.414  1.00  0.00     0.243 C 
ATOM     31  O   UNL     1      -7.047  -1.781  -0.208  1.00  0.00    -0.273 OA
ATOM     32  N   UNL     1      -8.933  -2.234  -1.408  1.00  0.00    -0.342 N 
ATOM     33  H   UNL     1      -9.951  -2.128  -1.425  1.00  0.00     0.164 HD
BRANCH  32  34
ATOM     34  C   UNL     1      -8.308  -3.192  -2.325  1.00  0.00     0.175 C 
BRANCH  34  35
ATOM     35  C   UNL     1      -7.138  -2.553  -3.088  1.00  0.00     0.070 C 
BRANCH  35  36
ATOM     36  C   UNL     1      -7.011  -3.069  -4.503  1.00  0.00    -0.045 A 
ATOM     37  C   UNL     1      -5.965  -3.942  -4.841  1.00  0.00     0.007 A 
ATOM     38  C   UNL     1      -7.913  -2.670  -5.498  1.00  0.00     0.007 A 
ATOM     39  C   UNL     1      -5.832  -4.412  -6.148  1.00  0.00     0.046 A 
ATOM     40  C   UNL     1      -7.779  -3.139  -6.807  1.00  0.00     0.046 A 
ATOM     41  C   UNL     1      -6.739  -4.008  -7.119  1.00  0.00     0.115 A 
BRANCH  41  42
ATOM     42  O   UNL     1      -6.572  -4.489  -8.384  1.00  0.00    -0.508 OA
ATOM     43  H   UNL     1      -7.308  -4.168  -8.932  1.00  0.00     0.293 HD
ENDBRANCH  41  42
ENDBRANCH  35  36
ENDBRANCH  34  35
BRANCH  34  44
ATOM     44  C   UNL     1      -7.859  -4.420  -1.501  1.00  0.00     0.243 C 
ATOM     45  O   UNL     1      -8.614  -5.123  -0.836  1.00  0.00    -0.273 OA
ATOM     46  N   UNL     1      -6.491  -4.590  -1.471  1.00  0.00    -0.341 N 
ATOM     47  H   UNL     1      -5.899  -3.912  -1.944  1.00  0.00     0.164 HD
BRANCH  46  48
ATOM     48  C   UNL     1      -5.827  -5.644  -0.701  1.00  0.00     0.196 C 
BRANCH  48  49
ATOM     49  C   UNL     1      -6.210  -5.576   0.787  1.00  0.00     0.072 C 
BRANCH  49  50
ATOM     50  C   UNL     1      -5.015  -5.357   1.686  1.00  0.00    -0.045 A 
ATOM     51  C   UNL     1      -3.808  -6.021   1.420  1.00  0.00     0.007 A 
ATOM     52  C   UNL     1      -5.096  -4.512   2.800  1.00  0.00     0.007 A 
ATOM     53  C   UNL     1      -2.703  -5.837   2.250  1.00  0.00     0.046 A 
ATOM     54  C   UNL     1      -3.989  -4.328   3.632  1.00  0.00     0.046 A 
ATOM     55  C   UNL     1      -2.801  -4.992   3.349  1.00  0.00     0.115 A 
BRANCH  55  56
ATOM     56  O   UNL     1      -1.698  -4.840   4.136  1.00  0.00    -0.508 OA
ATOM     57  H   UNL     1      -1.861  -5.289   4.981  1.00  0.00     0.293 HD
ENDBRANCH  55  56
ENDBRANCH  49  50
ENDBRANCH  48  49
BRANCH  48  58
ATOM     58  C   UNL     1      -6.229  -7.010  -1.275  1.00  0.00     0.326 C 
ATOM     59  O   UNL     1      -5.762  -7.565  -2.256  1.00  0.00    -0.250 OA
BRANCH  58  60
ATOM     60  O   UNL     1      -7.205  -7.629  -0.565  1.00  0.00    -0.480 OA
ATOM     61  H   UNL     1      -7.564  -8.286  -1.199  1.00  0.00     0.296 HD
ENDBRANCH  58  60
ENDBRANCH  48  58
ENDBRANCH  46  48
ENDBRANCH  34  44
ENDBRANCH  32  34
ENDBRANCH  25  30
ENDBRANCH  23  25
ENDBRANCH   2  23
TORSDOF 28
ENDMDL
MODEL 4
REMARK VINA RESULT:    -5.886     10.077     14.382
REMARK INTER + INTRA:         -20.032
REMARK INTER:                 -15.587
REMARK INTRA:                  -4.445
REMARK UNBOUND:                -5.372
REMARK SMILES CCCCCCC[C@H](N)[C@H](O)C(=O)N[C@H](C)C(=O)N(C)[C@H](CC(C)C)C(=O)N[C@@H](Cc1ccc(O)cc1)C(=O)N[C@@H](Cc1ccc(O)cc1)C(=O)O
REMARK SMILES IDX 18 1 17 2 15 3 16 4 14 5 12 6 13 7 10 9 11 10 8 12 9 13 7 16
REMARK SMILES IDX 6 17 5 18 4 19 3 20 2 21 1 22 19 23 20 24 21 25 22 26 23 27
REMARK SMILES IDX 24 28 25 29 26 30 27 31 28 32 29 34 30 35 31 36 32 37 37 38
REMARK SMILES IDX 33 39 36 40 34 41 35 42 38 44 39 45 40 46 41 48 42 49 43 50
REMARK SMILES IDX 44 51 49 52 45 53 48 54 46 55 47 56 50 58 51 59 52 60
REMARK H PARENT 14 8 11 11 9 14 9 15 28 33 35 43 40 47 47 57 52 61
ROOT
ATOM      1  O   UNL     1     -13.045   0.396   8.213  1.00  0.00    -0.272 OA
ATOM      2  C   UNL     1     -13.530  -0.044   7.160  1.00  0.00     0.245 C 
ENDROOT
BRANCH   2   3
ATOM      3  C   UNL     1     -13.991   0.964   6.078  1.00  0.00     0.168 C 
ATOM      4  C   UNL     1     -15.041   0.337   5.166  1.00  0.00     0.041 C 
BRANCH   3   5
ATOM      5  N   UNL     1     -14.420   2.256   6.590  1.00  0.00    -0.342 N 
ATOM      6  C   UNL     1     -14.065   3.437   5.973  1.00  0.00     0.251 C 
ATOM      7  O   UNL     1     -13.339   3.494   4.987  1.00  0.00    -0.272 OA
ATOM      8  H   UNL     1     -14.997   2.338   7.423  1.00  0.00     0.164 HD
BRANCH   6   9
ATOM      9  C   UNL     1     -14.746   4.664   6.602  1.00  0.00     0.219 C 
BRANCH   9  10
ATOM     10  O   UNL     1     -14.169   5.900   6.165  1.00  0.00    -0.382 OA
ATOM     11  H   UNL     1     -14.935   6.515   6.138  1.00  0.00     0.211 HD
ENDBRANCH   9  10
BRANCH   9  12
ATOM     12  C   UNL     1     -16.285   4.674   6.404  1.00  0.00     0.089 C 
BRANCH  12  13
ATOM     13  N   UNL     1     -16.780   6.045   6.663  1.00  0.00    -0.325 NA
ATOM     14  H   UNL     1     -17.046   6.127   7.646  1.00  0.00     0.119 HD
ATOM     15  H   UNL     1     -17.646   6.188   6.139  1.00  0.00     0.119 HD
ENDBRANCH  12  13
BRANCH  12  16
ATOM     16  C   UNL     1     -16.795   4.174   5.032  1.00  0.00     0.022 C 
BRANCH  16  17
ATOM     17  C   UNL     1     -16.716   5.111   3.819  1.00  0.00     0.002 C 
BRANCH  17  18
ATOM     18  C   UNL     1     -15.606   4.783   2.823  1.00  0.00     0.000 C 
BRANCH  18  19
ATOM     19  C   UNL     1     -14.658   5.955   2.538  1.00  0.00    -0.000 C 
BRANCH  19  20
ATOM     20  C   UNL     1     -14.156   6.049   1.094  1.00  0.00    -0.000 C 
BRANCH  20  21
ATOM     21  C   UNL     1     -15.212   6.588   0.126  1.00  0.00    -0.003 C 
ATOM     22  C   UNL     1     -15.690   5.506  -0.831  1.00  0.00     0.004 C 
ENDBRANCH  20  21
ENDBRANCH  19  20
ENDBRANCH  18  19
ENDBRANCH  17  18
ENDBRANCH  16  17
ENDBRANCH  12  16
ENDBRANCH   9  12
ENDBRANCH   6   9
ENDBRANCH   3   5
ENDBRANCH   2   3
BRANCH   2  23
ATOM     23  N   UNL     1     -13.539  -1.414   6.918  1.00  0.00    -0.332 N 
ATOM     24  C   UNL     1     -12.673  -2.090   5.964  1.00  0.00     0.147 C 
BRANCH  23  25
ATOM     25  C   UNL     1     -14.384  -2.317   7.747  1.00  0.00     0.174 C 
BRANCH  25  26
ATOM     26  C   UNL     1     -15.849  -1.835   7.861  1.00  0.00     0.038 C 
BRANCH  26  27
ATOM     27  C   UNL     1     -16.898  -2.576   7.003  1.00  0.00    -0.015 C 
ATOM     28  C   UNL     1     -18.047  -1.666   6.570  1.00  0.00     0.007 C 
ATOM     29  C   UNL     1     -16.298  -3.294   5.796  1.00  0.00     0.007 C 
ENDBRANCH  26  27
ENDBRANCH  25  26
BRANCH  25  30
ATOM     30  C   UNL     1     -13.706  -2.574   9.113  1.00  0.00     0.243 C 
ATOM     31  O   UNL     1     -12.833  -3.429   9.255  1.00  0.00    -0.273 OA
ATOM     32  N   UNL     1     -14.146  -1.793  10.150  1.00  0.00    -0.342 N 
ATOM     33  H   UNL     1     -14.769  -1.012   9.924  1.00  0.00     0.164 HD
BRANCH  32  34
ATOM     34  C   UNL     1     -13.638  -1.916  11.519  1.00  0.00     0.175 C 
BRANCH  34  35
ATOM     35  C   UNL     1     -12.819  -0.680  11.924  1.00  0.00     0.070 C 
BRANCH  35  36
ATOM     36  C   UNL     1     -11.377  -0.762  11.476  1.00  0.00    -0.045 A 
ATOM     37  C   UNL     1     -10.602  -1.885  11.805  1.00  0.00     0.007 A 
ATOM     38  C   UNL     1     -10.788   0.282  10.751  1.00  0.00     0.007 A 
ATOM     39  C   UNL     1      -9.267  -1.964  11.409  1.00  0.00     0.046 A 
ATOM     40  C   UNL     1      -9.451   0.205  10.355  1.00  0.00     0.046 A 
ATOM     41  C   UNL     1      -8.702  -0.920  10.687  1.00  0.00     0.115 A 
BRANCH  41  42
ATOM     42  O   UNL     1      -7.394  -1.034  10.321  1.00  0.00    -0.508 OA
ATOM     43  H   UNL     1      -6.903  -1.422  11.064  1.00  0.00     0.293 HD
ENDBRANCH  41  42
ENDBRANCH  35  36
ENDBRANCH  34  35
BRANCH  34  44
ATOM     44  C   UNL     1     -14.843  -2.143  12.459  1.00  0.00     0.243 C 
ATOM     45  O   UNL     1     -14.871  -1.817  13.642  1.00  0.00    -0.273 OA
ATOM     46  N   UNL     1     -15.860  -2.873  11.881  1.00  0.00    -0.341 N 
ATOM     47  H   UNL     1     -15.740  -3.221  10.933  1.00  0.00     0.164 HD
BRANCH  46  48
ATOM     48  C   UNL     1     -17.074  -3.271  12.597  1.00  0.00     0.196 C 
BRANCH  48  49
ATOM     49  C   UNL     1     -18.333  -3.003  11.757  1.00  0.00     0.072 C 
BRANCH  49  50
ATOM     50  C   UNL     1     -18.532  -1.534  11.459  1.00  0.00    -0.045 A 
ATOM     51  C   UNL     1     -18.574  -0.607  12.511  1.00  0.00     0.007 A 
ATOM     52  C   UNL     1     -18.697  -1.081  10.144  1.00  0.00     0.007 A 
ATOM     53  C   UNL     1     -18.771   0.749  12.250  1.00  0.00     0.046 A 
ATOM     54  C   UNL     1     -18.895   0.277   9.883  1.00  0.00     0.046 A 
ATOM     55  C   UNL     1     -18.929   1.181  10.939  1.00  0.00     0.115 A 
BRANCH  55  56
ATOM     56  O   UNL     1     -19.120   2.514  10.726  1.00  0.00    -0.508 OA
ATOM     57  H   UNL     1     -19.439   2.913  11.551  1.00  0.00     0.293 HD
ENDBRANCH  55  56
ENDBRANCH  49  50
ENDBRANCH  48  49
BRANCH  48  58
ATOM     58  C   UNL     1     -16.987  -4.767  12.933  1.00  0.00     0.326 C 
ATOM     59  O   UNL     1     -16.118  -5.552  12.591  1.00  0.00    -0.250 OA
BRANCH  58  60
ATOM     60  O   UNL     1     -18.010  -5.207  13.709  1.00  0.00    -0.480 OA
ATOM     61  H   UNL     1     -17.805  -4.826  14.590  1.00  0.00     0.296 HD
ENDBRANCH  58  60
ENDBRANCH  48  58
ENDBRANCH  46  48
ENDBRANCH  34  44
ENDBRANCH  32  34
ENDBRANCH  25  30
ENDBRANCH  23  25
ENDBRANCH   2  23
TORSDOF 28
ENDMDL
MODEL 5
REMARK VINA RESULT:    -5.856      5.315      9.589
REMARK INTER + INTRA:         -19.959
REMARK INTER:                 -13.880
REMARK INTRA:                  -6.078
REMARK UNBOUND:                -5.372
REMARK SMILES CCCCCCC[C@H](N)[C@H](O)C(=O)N[C@H](C)C(=O)N(C)[C@H](CC(C)C)C(=O)N[C@@H](Cc1ccc(O)cc1)C(=O)N[C@@H](Cc1ccc(O)cc1)C(=O)O
REMARK SMILES IDX 18 1 17 2 15 3 16 4 14 5 12 6 13 7 10 9 11 10 8 12 9 13 7 16
REMARK SMILES IDX 6 17 5 18 4 19 3 20 2 21 1 22 19 23 20 24 21 25 22 26 23 27
REMARK SMILES IDX 24 28 25 29 26 30 27 31 28 32 29 34 30 35 31 36 32 37 37 38
REMARK SMILES IDX 33 39 36 40 34 41 35 42 38 44 39 45 40 46 41 48 42 49 43 50
REMARK SMILES IDX 44 51 49 52 45 53 48 54 46 55 47 56 50 58 51 59 52 60
REMARK H PARENT 14 8 11 11 9 14 9 15 28 33 35 43 40 47 47 57 52 61
ROOT
ATOM      1  O   UNL     1     -10.480  -2.642  -6.482  1.00  0.00    -0.272 OA
ATOM      2  C   UNL     1      -9.735  -1.725  -6.104  1.00  0.00     0.245 C 
ENDROOT
BRANCH   2   3
ATOM      3  C   UNL     1      -8.372  -2.093  -5.468  1.00  0.00     0.168 C 
ATOM      4  C   UNL     1      -8.522  -2.343  -3.971  1.00  0.00     0.041 C 
BRANCH   3   5
ATOM      5  N   UNL     1      -7.660  -3.175  -6.129  1.00  0.00    -0.342 N 
ATOM      6  C   UNL     1      -6.805  -2.945  -7.186  1.00  0.00     0.251 C 
ATOM      7  O   UNL     1      -6.611  -1.835  -7.670  1.00  0.00    -0.272 OA
ATOM      8  H   UNL     1      -7.768  -4.144  -5.838  1.00  0.00     0.164 HD
BRANCH   6   9
ATOM      9  C   UNL     1      -6.058  -4.212  -7.632  1.00  0.00     0.219 C 
BRANCH   9  10
ATOM     10  O   UNL     1      -5.849  -4.261  -9.049  1.00  0.00    -0.382 OA
ATOM     11  H   UNL     1      -6.268  -3.433  -9.372  1.00  0.00     0.211 HD
ENDBRANCH   9  10
BRANCH   9  12
ATOM     12  C   UNL     1      -4.724  -4.433  -6.871  1.00  0.00     0.089 C 
BRANCH  12  13
ATOM     13  N   UNL     1      -4.493  -3.269  -5.986  1.00  0.00    -0.325 NA
ATOM     14  H   UNL     1      -4.416  -2.424  -6.556  1.00  0.00     0.119 HD
ATOM     15  H   UNL     1      -3.581  -3.371  -5.535  1.00  0.00     0.119 HD
ENDBRANCH  12  13
BRANCH  12  16
ATOM     16  C   UNL     1      -4.615  -5.747  -6.061  1.00  0.00     0.022 C 
BRANCH  16  17
ATOM     17  C   UNL     1      -5.677  -6.059  -4.998  1.00  0.00     0.002 C 
BRANCH  17  18
ATOM     18  C   UNL     1      -5.230  -7.026  -3.904  1.00  0.00     0.000 C 
BRANCH  18  19
ATOM     19  C   UNL     1      -5.447  -6.502  -2.479  1.00  0.00    -0.000 C 
BRANCH  19  20
ATOM     20  C   UNL     1      -4.171  -6.317  -1.653  1.00  0.00    -0.000 C 
BRANCH  20  21
ATOM     21  C   UNL     1      -3.961  -7.425  -0.618  1.00  0.00    -0.003 C 
ATOM     22  C   UNL     1      -2.934  -8.442  -1.094  1.00  0.00     0.004 C 
ENDBRANCH  20  21
ENDBRANCH  19  20
ENDBRANCH  18  19
ENDBRANCH  17  18
ENDBRANCH  16  17
ENDBRANCH  12  16
ENDBRANCH   9  12
ENDBRANCH   6   9
ENDBRANCH   3   5
ENDBRANCH   2   3
BRANCH   2  23
ATOM     23  N   UNL     1     -10.075  -0.402  -6.364  1.00  0.00    -0.332 N 
ATOM     24  C   UNL     1     -11.436   0.082  -6.542  1.00  0.00     0.147 C 
BRANCH  23  25
ATOM     25  C   UNL     1      -9.030   0.658  -6.350  1.00  0.00     0.174 C 
BRANCH  25  26
ATOM     26  C   UNL     1      -9.459   1.916  -5.559  1.00  0.00     0.038 C 
BRANCH  26  27
ATOM     27  C   UNL     1      -8.862   2.093  -4.145  1.00  0.00    -0.015 C 
ATOM     28  C   UNL     1      -7.335   2.160  -4.160  1.00  0.00     0.007 C 
ATOM     29  C   UNL     1      -9.444   3.280  -3.384  1.00  0.00     0.007 C 
ENDBRANCH  26  27
ENDBRANCH  25  26
BRANCH  25  30
ATOM     30  C   UNL     1      -8.559   0.961  -7.791  1.00  0.00     0.243 C 
ATOM     31  O   UNL     1      -9.262   0.715  -8.770  1.00  0.00    -0.273 OA
ATOM     32  N   UNL     1      -7.308   1.512  -7.903  1.00  0.00    -0.342 N 
ATOM     33  H   UNL     1      -6.845   1.815  -7.042  1.00  0.00     0.164 HD
BRANCH  32  34
ATOM     34  C   UNL     1      -6.688   1.838  -9.190  1.00  0.00     0.175 C 
BRANCH  34  35
ATOM     35  C   UNL     1      -6.516   3.356  -9.358  1.00  0.00     0.070 C 
BRANCH  35  36
ATOM     36  C   UNL     1      -7.418   4.152  -8.442  1.00  0.00    -0.045 A 
ATOM     37  C   UNL     1      -6.991   4.477  -7.145  1.00  0.00     0.007 A 
ATOM     38  C   UNL     1      -8.693   4.554  -8.860  1.00  0.00     0.007 A 
ATOM     39  C   UNL     1      -7.822   5.198  -6.288  1.00  0.00     0.046 A 
ATOM     40  C   UNL     1      -9.526   5.276  -8.002  1.00  0.00     0.046 A 
ATOM     41  C   UNL     1      -9.081   5.593  -6.722  1.00  0.00     0.115 A 
BRANCH  41  42
ATOM     42  O   UNL     1      -9.863   6.294  -5.853  1.00  0.00    -0.508 OA
ATOM     43  H   UNL     1     -10.794   6.124  -6.075  1.00  0.00     0.293 HD
ENDBRANCH  41  42
ENDBRANCH  35  36
ENDBRANCH  34  35
BRANCH  34  44
ATOM     44  C   UNL     1      -5.338   1.092  -9.274  1.00  0.00     0.243 C 
ATOM     45  O   UNL     1      -5.110   0.154 -10.033  1.00  0.00    -0.273 OA
ATOM     46  N   UNL     1      -4.430   1.489  -8.315  1.00  0.00    -0.341 N 
ATOM     47  H   UNL     1      -4.707   2.190  -7.633  1.00  0.00     0.164 HD
BRANCH  46  48
ATOM     48  C   UNL     1      -3.108   0.879  -8.155  1.00  0.00     0.196 C 
BRANCH  48  49
ATOM     49  C   UNL     1      -2.122   1.848  -7.482  1.00  0.00     0.072 C 
BRANCH  49  50
ATOM     50  C   UNL     1      -2.814   3.026  -6.834  1.00  0.00    -0.045 A 
ATOM     51  C   UNL     1      -2.949   4.231  -7.538  1.00  0.00     0.007 A 
ATOM     52  C   UNL     1      -3.308   2.941  -5.526  1.00  0.00     0.007 A 
ATOM     53  C   UNL     1      -3.574   5.329  -6.946  1.00  0.00     0.046 A 
ATOM     54  C   UNL     1      -3.933   4.041  -4.932  1.00  0.00     0.046 A 
ATOM     55  C   UNL     1      -4.062   5.225  -5.649  1.00  0.00     0.115 A 
BRANCH  55  56
ATOM     56  O   UNL     1      -4.664   6.321  -5.105  1.00  0.00    -0.508 OA
ATOM     57  H   UNL     1      -5.262   6.024  -4.401  1.00  0.00     0.293 HD
ENDBRANCH  55  56
ENDBRANCH  49  50
ENDBRANCH  48  49
BRANCH  48  58
ATOM     58  C   UNL     1      -3.245  -0.391  -7.303  1.00  0.00     0.326 C 
ATOM     59  O   UNL     1      -3.115  -0.487  -6.093  1.00  0.00    -0.250 OA
BRANCH  58  60
ATOM     60  O   UNL     1      -3.558  -1.496  -8.025  1.00  0.00    -0.480 OA
ATOM     61  H   UNL     1      -3.135  -1.325  -8.894  1.00  0.00     0.296 HD
ENDBRANCH  58  60
ENDBRANCH  48  58
ENDBRANCH  46  48
ENDBRANCH  34  44
ENDBRANCH  32  34
ENDBRANCH  25  30
ENDBRANCH  23  25
ENDBRANCH   2  23
TORSDOF 28
ENDMDL
MODEL 6
REMARK VINA RESULT:    -5.838      5.394     11.614
REMARK INTER + INTRA:         -19.912
REMARK INTER:                 -14.628
REMARK INTRA:                  -5.285
REMARK UNBOUND:                -5.372
REMARK SMILES CCCCCCC[C@H](N)[C@H](O)C(=O)N[C@H](C)C(=O)N(C)[C@H](CC(C)C)C(=O)N[C@@H](Cc1ccc(O)cc1)C(=O)N[C@@H](Cc1ccc(O)cc1)C(=O)O
REMARK SMILES IDX 18 1 17 2 15 3 16 4 14 5 12 6 13 7 10 9 11 10 8 12 9 13 7 16
REMARK SMILES IDX 6 17 5 18 4 19 3 20 2 21 1 22 19 23 20 24 21 25 22 26 23 27
REMARK SMILES IDX 24 28 25 29 26 30 27 31 28 32 29 34 30 35 31 36 32 37 37 38
REMARK SMILES IDX 33 39 36 40 34 41 35 42 38 44 39 45 40 46 41 48 42 49 43 50
REMARK SMILES IDX 44 51 49 52 45 53 48 54 46 55 47 56 50 58 51 59 52 60
REMARK H PARENT 14 8 11 11 9 14 9 15 28 33 35 43 40 47 47 57 52 61
ROOT
ATOM      1  O   UNL     1      -7.314   5.972  -6.833  1.00  0.00    -0.272 OA
ATOM      2  C   UNL     1      -8.478   5.869  -7.247  1.00  0.00     0.245 C 
ENDROOT
BRANCH   2   3
ATOM      3  C   UNL     1      -9.637   5.926  -6.220  1.00  0.00     0.168 C 
ATOM      4  C   UNL     1     -10.872   6.578  -6.832  1.00  0.00     0.041 C 
BRANCH   3   5
ATOM      5  N   UNL     1      -9.954   4.657  -5.584  1.00  0.00    -0.342 N 
ATOM      6  C   UNL     1      -9.779   4.456  -4.231  1.00  0.00     0.251 C 
ATOM      7  O   UNL     1      -9.312   5.303  -3.477  1.00  0.00    -0.272 OA
ATOM      8  H   UNL     1     -10.316   3.867  -6.114  1.00  0.00     0.164 HD
BRANCH   6   9
ATOM      9  C   UNL     1     -10.312   3.094  -3.758  1.00  0.00     0.219 C 
BRANCH   9  10
ATOM     10  O   UNL     1     -11.302   2.551  -4.640  1.00  0.00    -0.382 OA
ATOM     11  H   UNL     1     -10.772   2.077  -5.318  1.00  0.00     0.211 HD
ENDBRANCH   9  10
BRANCH   9  12
ATOM     12  C   UNL     1      -9.187   2.060  -3.490  1.00  0.00     0.089 C 
BRANCH  12  13
ATOM     13  N   UNL     1      -7.902   2.788  -3.371  1.00  0.00    -0.325 NA
ATOM     14  H   UNL     1      -8.076   3.791  -3.452  1.00  0.00     0.119 HD
ATOM     15  H   UNL     1      -7.313   2.553  -4.173  1.00  0.00     0.119 HD
ENDBRANCH  12  13
BRANCH  12  16
ATOM     16  C   UNL     1      -9.391   1.138  -2.264  1.00  0.00     0.022 C 
BRANCH  16  17
ATOM     17  C   UNL     1      -8.601   1.419  -0.979  1.00  0.00     0.002 C 
BRANCH  17  18
ATOM     18  C   UNL     1      -9.389   2.130   0.119  1.00  0.00     0.000 C 
BRANCH  18  19
ATOM     19  C   UNL     1      -9.382   1.398   1.468  1.00  0.00    -0.000 C 
BRANCH  19  20
ATOM     20  C   UNL     1      -8.077   0.672   1.806  1.00  0.00    -0.000 C 
BRANCH  20  21
ATOM     21  C   UNL     1      -8.233  -0.850   1.856  1.00  0.00    -0.003 C 
ATOM     22  C   UNL     1      -7.849  -1.403   3.220  1.00  0.00     0.004 C 
ENDBRANCH  20  21
ENDBRANCH  19  20
ENDBRANCH  18  19
ENDBRANCH  17  18
ENDBRANCH  16  17
ENDBRANCH  12  16
ENDBRANCH   9  12
ENDBRANCH   6   9
ENDBRANCH   3   5
ENDBRANCH   2   3
BRANCH   2  23
ATOM     23  N   UNL     1      -8.730   5.827  -8.614  1.00  0.00    -0.332 N 
ATOM     24  C   UNL     1      -8.990   6.995  -9.442  1.00  0.00     0.147 C 
BRANCH  23  25
ATOM     25  C   UNL     1      -8.619   4.543  -9.359  1.00  0.00     0.174 C 
BRANCH  25  26
ATOM     26  C   UNL     1      -9.558   4.476 -10.586  1.00  0.00     0.038 C 
BRANCH  26  27
ATOM     27  C   UNL     1      -8.895   4.270 -11.966  1.00  0.00    -0.015 C 
ATOM     28  C   UNL     1      -9.771   4.766 -13.116  1.00  0.00     0.007 C 
ATOM     29  C   UNL     1      -7.494   4.868 -12.061  1.00  0.00     0.007 C 
ENDBRANCH  26  27
ENDBRANCH  25  26
BRANCH  25  30
ATOM     30  C   UNL     1      -8.776   3.349  -8.390  1.00  0.00     0.243 C 
ATOM     31  O   UNL     1      -9.873   2.849  -8.147  1.00  0.00    -0.273 OA
ATOM     32  N   UNL     1      -7.616   2.894  -7.817  1.00  0.00    -0.342 N 
ATOM     33  H   UNL     1      -6.733   3.266  -8.175  1.00  0.00     0.164 HD
BRANCH  32  34
ATOM     34  C   UNL     1      -7.577   1.790  -6.854  1.00  0.00     0.175 C 
BRANCH  34  35
ATOM     35  C   UNL     1      -7.623   0.428  -7.564  1.00  0.00     0.070 C 
BRANCH  35  36
ATOM     36  C   UNL     1      -8.551  -0.554  -6.884  1.00  0.00    -0.045 A 
ATOM     37  C   UNL     1      -8.150  -1.886  -6.700  1.00  0.00     0.007 A 
ATOM     38  C   UNL     1      -9.824  -0.160  -6.453  1.00  0.00     0.007 A 
ATOM     39  C   UNL     1      -9.004  -2.803  -6.086  1.00  0.00     0.046 A 
ATOM     40  C   UNL     1     -10.681  -1.078  -5.840  1.00  0.00     0.046 A 
ATOM     41  C   UNL     1     -10.261  -2.392  -5.661  1.00  0.00     0.115 A 
BRANCH  41  42
ATOM     42  O   UNL     1     -11.067  -3.319  -5.069  1.00  0.00    -0.508 OA
ATOM     43  H   UNL     1     -11.023  -4.138  -5.591  1.00  0.00     0.293 HD
ENDBRANCH  41  42
ENDBRANCH  35  36
ENDBRANCH  34  35
BRANCH  34  44
ATOM     44  C   UNL     1      -6.304   1.950  -5.994  1.00  0.00     0.243 C 
ATOM     45  O   UNL     1      -5.806   1.054  -5.317  1.00  0.00    -0.273 OA
ATOM     46  N   UNL     1      -5.834   3.245  -5.944  1.00  0.00    -0.341 N 
ATOM     47  H   UNL     1      -6.349   3.976  -6.429  1.00  0.00     0.164 HD
BRANCH  46  48
ATOM     48  C   UNL     1      -4.681   3.654  -5.139  1.00  0.00     0.196 C 
BRANCH  48  49
ATOM     49  C   UNL     1      -3.478   4.017  -6.027  1.00  0.00     0.072 C 
BRANCH  49  50
ATOM     50  C   UNL     1      -2.669   2.806  -6.434  1.00  0.00    -0.045 A 
ATOM     51  C   UNL     1      -2.511   1.738  -5.539  1.00  0.00     0.007 A 
ATOM     52  C   UNL     1      -2.052   2.740  -7.689  1.00  0.00     0.007 A 
ATOM     53  C   UNL     1      -1.756   0.622  -5.898  1.00  0.00     0.046 A 
ATOM     54  C   UNL     1      -1.294   1.623  -8.048  1.00  0.00     0.046 A 
ATOM     55  C   UNL     1      -1.154   0.572  -7.149  1.00  0.00     0.115 A 
BRANCH  55  56
ATOM     56  O   UNL     1      -0.422  -0.536  -7.460  1.00  0.00    -0.508 OA
ATOM     57  H   UNL     1      -0.596  -1.215  -6.790  1.00  0.00     0.293 HD
ENDBRANCH  55  56
ENDBRANCH  49  50
ENDBRANCH  48  49
BRANCH  48  58
ATOM     58  C   UNL     1      -5.073   4.866  -4.284  1.00  0.00     0.326 C 
ATOM     59  O   UNL     1      -4.325   5.630  -3.697  1.00  0.00    -0.250 OA
BRANCH  58  60
ATOM     60  O   UNL     1      -6.413   5.072  -4.219  1.00  0.00    -0.480 OA
ATOM     61  H   UNL     1      -6.696   4.488  -3.483  1.00  0.00     0.296 HD
ENDBRANCH  58  60
ENDBRANCH  48  58
ENDBRANCH  46  48
ENDBRANCH  34  44
ENDBRANCH  32  34
ENDBRANCH  25  30
ENDBRANCH  23  25
ENDBRANCH   2  23
TORSDOF 28
ENDMDL
MODEL 7
REMARK VINA RESULT:    -5.801      3.731      9.452
REMARK INTER + INTRA:         -19.822
REMARK INTER:                 -14.962
REMARK INTRA:                  -4.860
REMARK UNBOUND:                -5.372
REMARK SMILES CCCCCCC[C@H](N)[C@H](O)C(=O)N[C@H](C)C(=O)N(C)[C@H](CC(C)C)C(=O)N[C@@H](Cc1ccc(O)cc1)C(=O)N[C@@H](Cc1ccc(O)cc1)C(=O)O
REMARK SMILES IDX 18 1 17 2 15 3 16 4 14 5 12 6 13 7 10 9 11 10 8 12 9 13 7 16
REMARK SMILES IDX 6 17 5 18 4 19 3 20 2 21 1 22 19 23 20 24 21 25 22 26 23 27
REMARK SMILES IDX 24 28 25 29 26 30 27 31 28 32 29 34 30 35 31 36 32 37 37 38
REMARK SMILES IDX 33 39 36 40 34 41 35 42 38 44 39 45 40 46 41 48 42 49 43 50
REMARK SMILES IDX 44 51 49 52 45 53 48 54 46 55 47 56 50 58 51 59 52 60
REMARK H PARENT 14 8 11 11 9 14 9 15 28 33 35 43 40 47 47 57 52 61
ROOT
ATOM      1  O   UNL     1      -6.700   0.908  -3.080  1.00  0.00    -0.272 OA
ATOM      2  C   UNL     1      -7.515   1.798  -3.368  1.00  0.00     0.245 C 
ENDROOT
BRANCH   2   3
ATOM      3  C   UNL     1      -8.885   1.810  -2.645  1.00  0.00     0.168 C 
ATOM      4  C   UNL     1      -9.828   0.779  -3.256  1.00  0.00     0.041 C 
BRANCH   3   5
ATOM      5  N   UNL     1      -8.813   1.688  -1.198  1.00  0.00    -0.342 N 
ATOM      6  C   UNL     1      -9.728   2.303  -0.369  1.00  0.00     0.251 C 
ATOM      7  O   UNL     1     -10.633   3.022  -0.777  1.00  0.00    -0.272 OA
ATOM      8  H   UNL     1      -8.084   1.145  -0.741  1.00  0.00     0.164 HD
BRANCH   6   9
ATOM      9  C   UNL     1      -9.543   1.920   1.108  1.00  0.00     0.219 C 
BRANCH   9  10
ATOM     10  O   UNL     1     -10.783   1.623   1.761  1.00  0.00    -0.382 OA
ATOM     11  H   UNL     1     -11.440   1.645   1.031  1.00  0.00     0.211 HD
ENDBRANCH   9  10
BRANCH   9  12
ATOM     12  C   UNL     1      -8.521   0.772   1.317  1.00  0.00     0.089 C 
BRANCH  12  13
ATOM     13  N   UNL     1      -7.253   1.357   1.808  1.00  0.00    -0.325 NA
ATOM     14  H   UNL     1      -7.111   1.082   2.781  1.00  0.00     0.119 HD
ATOM     15  H   UNL     1      -7.345   2.376   1.829  1.00  0.00     0.119 HD
ENDBRANCH  12  13
BRANCH  12  16
ATOM     16  C   UNL     1      -8.974  -0.376   2.251  1.00  0.00     0.022 C 
BRANCH  16  17
ATOM     17  C   UNL     1      -7.926  -1.365   2.780  1.00  0.00     0.002 C 
BRANCH  17  18
ATOM     18  C   UNL     1      -7.202  -2.174   1.706  1.00  0.00     0.000 C 
BRANCH  18  19
ATOM     19  C   UNL     1      -6.595  -3.487   2.217  1.00  0.00    -0.000 C 
BRANCH  19  20
ATOM     20  C   UNL     1      -5.421  -3.328   3.187  1.00  0.00    -0.000 C 
BRANCH  20  21
ATOM     21  C   UNL     1      -4.236  -4.237   2.850  1.00  0.00    -0.003 C 
ATOM     22  C   UNL     1      -4.534  -5.111   1.641  1.00  0.00     0.004 C 
ENDBRANCH  20  21
ENDBRANCH  19  20
ENDBRANCH  18  19
ENDBRANCH  17  18
ENDBRANCH  16  17
ENDBRANCH  12  16
ENDBRANCH   9  12
ENDBRANCH   6   9
ENDBRANCH   3   5
ENDBRANCH   2   3
BRANCH   2  23
ATOM     23  N   UNL     1      -7.147   2.825  -4.230  1.00  0.00    -0.332 N 
ATOM     24  C   UNL     1      -8.038   3.883  -4.682  1.00  0.00     0.147 C 
BRANCH  23  25
ATOM     25  C   UNL     1      -5.728   2.977  -4.656  1.00  0.00     0.174 C 
BRANCH  25  26
ATOM     26  C   UNL     1      -5.396   4.406  -5.147  1.00  0.00     0.038 C 
BRANCH  26  27
ATOM     27  C   UNL     1      -3.910   4.724  -5.422  1.00  0.00    -0.015 C 
ATOM     28  C   UNL     1      -3.607   4.858  -6.914  1.00  0.00     0.007 C 
ATOM     29  C   UNL     1      -3.398   5.942  -4.658  1.00  0.00     0.007 C 
ENDBRANCH  26  27
ENDBRANCH  25  26
BRANCH  25  30
ATOM     30  C   UNL     1      -5.356   1.869  -5.669  1.00  0.00     0.243 C 
ATOM     31  O   UNL     1      -5.697   1.926  -6.849  1.00  0.00    -0.273 OA
ATOM     32  N   UNL     1      -4.628   0.823  -5.163  1.00  0.00    -0.342 N 
ATOM     33  H   UNL     1      -4.263   0.917  -4.211  1.00  0.00     0.164 HD
BRANCH  32  34
ATOM     34  C   UNL     1      -4.210  -0.327  -5.969  1.00  0.00     0.175 C 
BRANCH  34  35
ATOM     35  C   UNL     1      -2.680  -0.399  -6.088  1.00  0.00     0.070 C 
BRANCH  35  36
ATOM     36  C   UNL     1      -2.116   0.649  -7.020  1.00  0.00    -0.045 A 
ATOM     37  C   UNL     1      -0.959   1.358  -6.661  1.00  0.00     0.007 A 
ATOM     38  C   UNL     1      -2.746   0.944  -8.236  1.00  0.00     0.007 A 
ATOM     39  C   UNL     1      -0.439   2.336  -7.509  1.00  0.00     0.046 A 
ATOM     40  C   UNL     1      -2.227   1.925  -9.084  1.00  0.00     0.046 A 
ATOM     41  C   UNL     1      -1.076   2.612  -8.713  1.00  0.00     0.115 A 
BRANCH  41  42
ATOM     42  O   UNL     1      -0.537   3.578  -9.510  1.00  0.00    -0.508 OA
ATOM     43  H   UNL     1       0.297   3.240  -9.876  1.00  0.00     0.293 HD
ENDBRANCH  41  42
ENDBRANCH  35  36
ENDBRANCH  34  35
BRANCH  34  44
ATOM     44  C   UNL     1      -4.800  -1.602  -5.325  1.00  0.00     0.243 C 
ATOM     45  O   UNL     1      -4.176  -2.646  -5.156  1.00  0.00    -0.273 OA
ATOM     46  N   UNL     1      -6.152  -1.512  -5.068  1.00  0.00    -0.341 N 
ATOM     47  H   UNL     1      -6.650  -0.666  -5.334  1.00  0.00     0.164 HD
BRANCH  46  48
ATOM     48  C   UNL     1      -6.944  -2.617  -4.523  1.00  0.00     0.196 C 
BRANCH  48  49
ATOM     49  C   UNL     1      -7.342  -2.353  -3.061  1.00  0.00     0.072 C 
BRANCH  49  50
ATOM     50  C   UNL     1      -7.383  -3.617  -2.233  1.00  0.00    -0.045 A 
ATOM     51  C   UNL     1      -8.485  -3.873  -1.404  1.00  0.00     0.007 A 
ATOM     52  C   UNL     1      -6.324  -4.533  -2.261  1.00  0.00     0.007 A 
ATOM     53  C   UNL     1      -8.529  -5.030  -0.625  1.00  0.00     0.046 A 
ATOM     54  C   UNL     1      -6.367  -5.690  -1.480  1.00  0.00     0.046 A 
ATOM     55  C   UNL     1      -7.471  -5.929  -0.669  1.00  0.00     0.115 A 
BRANCH  55  56
ATOM     56  O   UNL     1      -7.552  -7.046   0.109  1.00  0.00    -0.508 OA
ATOM     57  H   UNL     1      -6.681  -7.204   0.509  1.00  0.00     0.293 HD
ENDBRANCH  55  56
ENDBRANCH  49  50
ENDBRANCH  48  49
BRANCH  48  58
ATOM     58  C   UNL     1      -8.207  -2.794  -5.377  1.00  0.00     0.326 C 
ATOM     59  O   UNL     1      -8.264  -3.043  -6.570  1.00  0.00    -0.250 OA
BRANCH  58  60
ATOM     60  O   UNL     1      -9.359  -2.662  -4.672  1.00  0.00    -0.480 OA
ATOM     61  H   UNL     1      -9.783  -3.543  -4.765  1.00  0.00     0.296 HD
ENDBRANCH  58  60
ENDBRANCH  48  58
ENDBRANCH  46  48
ENDBRANCH  34  44
ENDBRANCH  32  34
ENDBRANCH  25  30
ENDBRANCH  23  25
ENDBRANCH   2  23
TORSDOF 28
ENDMDL
MODEL 8
REMARK VINA RESULT:    -5.737      2.847      7.470
REMARK INTER + INTRA:         -19.662
REMARK INTER:                 -13.680
REMARK INTRA:                  -5.983
REMARK UNBOUND:                -5.372
REMARK SMILES CCCCCCC[C@H](N)[C@H](O)C(=O)N[C@H](C)C(=O)N(C)[C@H](CC(C)C)C(=O)N[C@@H](Cc1ccc(O)cc1)C(=O)N[C@@H](Cc1ccc(O)cc1)C(=O)O
REMARK SMILES IDX 18 1 17 2 15 3 16 4 14 5 12 6 13 7 10 9 11 10 8 12 9 13 7 16
REMARK SMILES IDX 6 17 5 18 4 19 3 20 2 21 1 22 19 23 20 24 21 25 22 26 23 27
REMARK SMILES IDX 24 28 25 29 26 30 27 31 28 32 29 34 30 35 31 36 32 37 37 38
REMARK SMILES IDX 33 39 36 40 34 41 35 42 38 44 39 45 40 46 41 48 42 49 43 50
REMARK SMILES IDX 44 51 49 52 45 53 48 54 46 55 47 56 50 58 51 59 52 60
REMARK H PARENT 14 8 11 11 9 14 9 15 28 33 35 43 40 47 47 57 52 61
ROOT
ATOM      1  O   UNL     1      -9.551   3.089  -4.125  1.00  0.00    -0.272 OA
ATOM      2  C   UNL     1      -9.650   1.858  -4.238  1.00  0.00     0.245 C 
ENDROOT
BRANCH   2   3
ATOM      3  C   UNL     1      -8.485   1.079  -4.898  1.00  0.00     0.168 C 
ATOM      4  C   UNL     1      -8.845   0.671  -6.322  1.00  0.00     0.041 C 
BRANCH   3   5
ATOM      5  N   UNL     1      -7.193   1.742  -4.834  1.00  0.00    -0.342 N 
ATOM      6  C   UNL     1      -6.330   1.556  -3.775  1.00  0.00     0.251 C 
ATOM      7  O   UNL     1      -6.597   0.862  -2.799  1.00  0.00    -0.272 OA
ATOM      8  H   UNL     1      -6.875   2.370  -5.569  1.00  0.00     0.164 HD
BRANCH   6   9
ATOM      9  C   UNL     1      -4.970   2.240  -3.988  1.00  0.00     0.219 C 
BRANCH   9  10
ATOM     10  O   UNL     1      -4.021   1.914  -2.965  1.00  0.00    -0.382 OA
ATOM     11  H   UNL     1      -4.325   2.440  -2.192  1.00  0.00     0.211 HD
ENDBRANCH   9  10
BRANCH   9  12
ATOM     12  C   UNL     1      -4.372   1.981  -5.396  1.00  0.00     0.089 C 
BRANCH  12  13
ATOM     13  N   UNL     1      -4.491   3.225  -6.190  1.00  0.00    -0.325 NA
ATOM     14  H   UNL     1      -5.404   3.650  -6.014  1.00  0.00     0.119 HD
ATOM     15  H   UNL     1      -4.495   2.985  -7.184  1.00  0.00     0.119 HD
ENDBRANCH  12  13
BRANCH  12  16
ATOM     16  C   UNL     1      -2.913   1.466  -5.429  1.00  0.00     0.022 C 
BRANCH  16  17
ATOM     17  C   UNL     1      -2.655  -0.035  -5.614  1.00  0.00     0.002 C 
BRANCH  17  18
ATOM     18  C   UNL     1      -3.910  -0.905  -5.654  1.00  0.00     0.000 C 
BRANCH  18  19
ATOM     19  C   UNL     1      -4.333  -1.325  -7.068  1.00  0.00    -0.000 C 
BRANCH  19  20
ATOM     20  C   UNL     1      -5.571  -0.609  -7.616  1.00  0.00    -0.000 C 
BRANCH  20  21
ATOM     21  C   UNL     1      -5.245   0.376  -8.742  1.00  0.00    -0.003 C 
ATOM     22  C   UNL     1      -5.892  -0.046 -10.052  1.00  0.00     0.004 C 
ENDBRANCH  20  21
ENDBRANCH  19  20
ENDBRANCH  18  19
ENDBRANCH  17  18
ENDBRANCH  16  17
ENDBRANCH  12  16
ENDBRANCH   9  12
ENDBRANCH   6   9
ENDBRANCH   3   5
ENDBRANCH   2   3
BRANCH   2  23
ATOM     23  N   UNL     1     -10.731   1.192  -3.669  1.00  0.00    -0.332 N 
ATOM     24  C   UNL     1     -12.038   1.056  -4.294  1.00  0.00     0.147 C 
BRANCH  23  25
ATOM     25  C   UNL     1     -10.565   0.444  -2.393  1.00  0.00     0.174 C 
BRANCH  25  26
ATOM     26  C   UNL     1      -9.660   1.179  -1.377  1.00  0.00     0.038 C 
BRANCH  26  27
ATOM     27  C   UNL     1     -10.365   2.036  -0.303  1.00  0.00    -0.015 C 
ATOM     28  C   UNL     1     -10.770   3.414  -0.828  1.00  0.00     0.007 C 
ATOM     29  C   UNL     1     -11.557   1.337   0.345  1.00  0.00     0.007 C 
ENDBRANCH  26  27
ENDBRANCH  25  26
BRANCH  25  30
ATOM     30  C   UNL     1     -10.123  -1.009  -2.682  1.00  0.00     0.243 C 
ATOM     31  O   UNL     1     -10.899  -1.845  -3.144  1.00  0.00    -0.273 OA
ATOM     32  N   UNL     1      -8.817  -1.302  -2.385  1.00  0.00    -0.342 N 
ATOM     33  H   UNL     1      -8.201  -0.523  -2.139  1.00  0.00     0.164 HD
BRANCH  32  34
ATOM     34  C   UNL     1      -8.232  -2.633  -2.568  1.00  0.00     0.175 C 
BRANCH  34  35
ATOM     35  C   UNL     1      -6.829  -2.547  -3.188  1.00  0.00     0.070 C 
BRANCH  35  36
ATOM     36  C   UNL     1      -6.759  -3.172  -4.563  1.00  0.00    -0.045 A 
ATOM     37  C   UNL     1      -5.750  -4.100  -4.861  1.00  0.00     0.007 A 
ATOM     38  C   UNL     1      -7.677  -2.819  -5.561  1.00  0.00     0.007 A 
ATOM     39  C   UNL     1      -5.668  -4.671  -6.131  1.00  0.00     0.046 A 
ATOM     40  C   UNL     1      -7.595  -3.389  -6.834  1.00  0.00     0.046 A 
ATOM     41  C   UNL     1      -6.591  -4.312  -7.107  1.00  0.00     0.115 A 
BRANCH  41  42
ATOM     42  O   UNL     1      -6.474  -4.891  -8.336  1.00  0.00    -0.508 OA
ATOM     43  H   UNL     1      -5.529  -4.963  -8.550  1.00  0.00     0.293 HD
ENDBRANCH  41  42
ENDBRANCH  35  36
ENDBRANCH  34  35
BRANCH  34  44
ATOM     44  C   UNL     1      -8.214  -3.341  -1.194  1.00  0.00     0.243 C 
ATOM     45  O   UNL     1      -9.218  -3.669  -0.569  1.00  0.00    -0.273 OA
ATOM     46  N   UNL     1      -6.950  -3.462  -0.656  1.00  0.00    -0.341 N 
ATOM     47  H   UNL     1      -6.159  -3.069  -1.160  1.00  0.00     0.164 HD
BRANCH  46  48
ATOM     48  C   UNL     1      -6.688  -4.037   0.666  1.00  0.00     0.196 C 
BRANCH  48  49
ATOM     49  C   UNL     1      -5.485  -4.994   0.632  1.00  0.00     0.072 C 
BRANCH  49  50
ATOM     50  C   UNL     1      -5.621  -6.062  -0.430  1.00  0.00    -0.045 A 
ATOM     51  C   UNL     1      -4.551  -6.325  -1.298  1.00  0.00     0.007 A 
ATOM     52  C   UNL     1      -6.811  -6.784  -0.577  1.00  0.00     0.007 A 
ATOM     53  C   UNL     1      -4.669  -7.298  -2.290  1.00  0.00     0.046 A 
ATOM     54  C   UNL     1      -6.930  -7.759  -1.571  1.00  0.00     0.046 A 
ATOM     55  C   UNL     1      -5.856  -8.008  -2.419  1.00  0.00     0.115 A 
BRANCH  55  56
ATOM     56  O   UNL     1      -5.932  -8.950  -3.402  1.00  0.00    -0.508 OA
ATOM     57  H   UNL     1      -6.073  -9.815  -2.986  1.00  0.00     0.293 HD
ENDBRANCH  55  56
ENDBRANCH  49  50
ENDBRANCH  48  49
BRANCH  48  58
ATOM     58  C   UNL     1      -6.414  -2.900   1.659  1.00  0.00     0.326 C 
ATOM     59  O   UNL     1      -5.884  -2.987   2.755  1.00  0.00    -0.250 OA
BRANCH  58  60
ATOM     60  O   UNL     1      -6.813  -1.682   1.213  1.00  0.00    -0.480 OA
ATOM     61  H   UNL     1      -5.978  -1.167   1.184  1.00  0.00     0.296 HD
ENDBRANCH  58  60
ENDBRANCH  48  58
ENDBRANCH  46  48
ENDBRANCH  34  44
ENDBRANCH  32  34
ENDBRANCH  25  30
ENDBRANCH  23  25
ENDBRANCH   2  23
TORSDOF 28
ENDMDL
MODEL 9
REMARK VINA RESULT:    -5.732      3.030      7.913
REMARK INTER + INTRA:         -19.649
REMARK INTER:                 -16.500
REMARK INTRA:                  -3.149
REMARK UNBOUND:                -5.372
REMARK SMILES CCCCCCC[C@H](N)[C@H](O)C(=O)N[C@H](C)C(=O)N(C)[C@H](CC(C)C)C(=O)N[C@@H](Cc1ccc(O)cc1)C(=O)N[C@@H](Cc1ccc(O)cc1)C(=O)O
REMARK SMILES IDX 18 1 17 2 15 3 16 4 14 5 12 6 13 7 10 9 11 10 8 12 9 13 7 16
REMARK SMILES IDX 6 17 5 18 4 19 3 20 2 21 1 22 19 23 20 24 21 25 22 26 23 27
REMARK SMILES IDX 24 28 25 29 26 30 27 31 28 32 29 34 30 35 31 36 32 37 37 38
REMARK SMILES IDX 33 39 36 40 34 41 35 42 38 44 39 45 40 46 41 48 42 49 43 50
REMARK SMILES IDX 44 51 49 52 45 53 48 54 46 55 47 56 50 58 51 59 52 60
REMARK H PARENT 14 8 11 11 9 14 9 15 28 33 35 43 40 47 47 57 52 61
ROOT
ATOM      1  O   UNL     1      -9.637   2.652  -0.635  1.00  0.00    -0.272 OA
ATOM      2  C   UNL     1      -9.052   1.573  -0.810  1.00  0.00     0.245 C 
ENDROOT
BRANCH   2   3
ATOM      3  C   UNL     1      -8.664   1.166  -2.254  1.00  0.00     0.168 C 
ATOM      4  C   UNL     1      -9.908   0.895  -3.093  1.00  0.00     0.041 C 
BRANCH   3   5
ATOM      5  N   UNL     1      -7.749   2.079  -2.921  1.00  0.00    -0.342 N 
ATOM      6  C   UNL     1      -6.704   1.623  -3.697  1.00  0.00     0.251 C 
ATOM      7  O   UNL     1      -6.443   0.435  -3.850  1.00  0.00    -0.272 OA
ATOM      8  H   UNL     1      -7.844   3.088  -2.839  1.00  0.00     0.164 HD
BRANCH   6   9
ATOM      9  C   UNL     1      -5.959   2.759  -4.416  1.00  0.00     0.219 C 
BRANCH   9  10
ATOM     10  O   UNL     1      -6.447   4.057  -4.054  1.00  0.00    -0.382 OA
ATOM     11  H   UNL     1      -7.116   3.866  -3.360  1.00  0.00     0.211 HD
ENDBRANCH   9  10
BRANCH   9  12
ATOM     12  C   UNL     1      -4.419   2.682  -4.244  1.00  0.00     0.089 C 
BRANCH  12  13
ATOM     13  N   UNL     1      -4.125   1.954  -2.988  1.00  0.00    -0.325 NA
ATOM     14  H   UNL     1      -4.557   2.447  -2.205  1.00  0.00     0.119 HD
ATOM     15  H   UNL     1      -3.119   1.996  -2.809  1.00  0.00     0.119 HD
ENDBRANCH  12  13
BRANCH  12  16
ATOM     16  C   UNL     1      -3.636   2.052  -5.420  1.00  0.00     0.022 C 
BRANCH  16  17
ATOM     17  C   UNL     1      -2.720   2.942  -6.270  1.00  0.00     0.002 C 
BRANCH  17  18
ATOM     18  C   UNL     1      -3.445   3.889  -7.223  1.00  0.00     0.000 C 
BRANCH  18  19
ATOM     19  C   UNL     1      -3.548   5.333  -6.712  1.00  0.00    -0.000 C 
BRANCH  19  20
ATOM     20  C   UNL     1      -4.974   5.867  -6.555  1.00  0.00    -0.000 C 
BRANCH  20  21
ATOM     21  C   UNL     1      -6.013   5.033  -7.310  1.00  0.00    -0.003 C 
ATOM     22  C   UNL     1      -7.403   5.637  -7.189  1.00  0.00     0.004 C 
ENDBRANCH  20  21
ENDBRANCH  19  20
ENDBRANCH  18  19
ENDBRANCH  17  18
ENDBRANCH  16  17
ENDBRANCH  12  16
ENDBRANCH   9  12
ENDBRANCH   6   9
ENDBRANCH   3   5
ENDBRANCH   2   3
BRANCH   2  23
ATOM     23  N   UNL     1      -8.649   0.815   0.284  1.00  0.00    -0.332 N 
ATOM     24  C   UNL     1      -7.870   1.326   1.402  1.00  0.00     0.147 C 
BRANCH  23  25
ATOM     25  C   UNL     1      -9.119  -0.590   0.438  1.00  0.00     0.174 C 
BRANCH  25  26
ATOM     26  C   UNL     1      -9.302  -1.004   1.917  1.00  0.00     0.038 C 
BRANCH  26  27
ATOM     27  C   UNL     1     -10.676  -1.588   2.316  1.00  0.00    -0.015 C 
ATOM     28  C   UNL     1     -10.653  -2.249   3.694  1.00  0.00     0.007 C 
ATOM     29  C   UNL     1     -11.816  -0.576   2.224  1.00  0.00     0.007 C 
ENDBRANCH  26  27
ENDBRANCH  25  26
BRANCH  25  30
ATOM     30  C   UNL     1      -8.211  -1.546  -0.367  1.00  0.00     0.243 C 
ATOM     31  O   UNL     1      -6.984  -1.459  -0.335  1.00  0.00    -0.273 OA
ATOM     32  N   UNL     1      -8.862  -2.489  -1.121  1.00  0.00    -0.342 N 
ATOM     33  H   UNL     1      -9.871  -2.589  -0.985  1.00  0.00     0.164 HD
BRANCH  32  34
ATOM     34  C   UNL     1      -8.165  -3.460  -1.968  1.00  0.00     0.175 C 
BRANCH  34  35
ATOM     35  C   UNL     1      -7.009  -2.802  -2.738  1.00  0.00     0.070 C 
BRANCH  35  36
ATOM     36  C   UNL     1      -6.979  -3.197  -4.197  1.00  0.00    -0.045 A 
ATOM     37  C   UNL     1      -6.007  -4.098  -4.660  1.00  0.00     0.007 A 
ATOM     38  C   UNL     1      -7.897  -2.658  -5.107  1.00  0.00     0.007 A 
ATOM     39  C   UNL     1      -5.963  -4.458  -6.007  1.00  0.00     0.046 A 
ATOM     40  C   UNL     1      -7.852  -3.017  -6.456  1.00  0.00     0.046 A 
ATOM     41  C   UNL     1      -6.885  -3.916  -6.894  1.00  0.00     0.115 A 
BRANCH  41  42
ATOM     42  O   UNL     1      -6.805  -4.291  -8.202  1.00  0.00    -0.508 OA
ATOM     43  H   UNL     1      -7.279  -5.133  -8.307  1.00  0.00     0.293 HD
ENDBRANCH  41  42
ENDBRANCH  35  36
ENDBRANCH  34  35
BRANCH  34  44
ATOM     44  C   UNL     1      -7.674  -4.616  -1.067  1.00  0.00     0.243 C 
ATOM     45  O   UNL     1      -8.361  -5.579  -0.738  1.00  0.00    -0.273 OA
ATOM     46  N   UNL     1      -6.415  -4.408  -0.545  1.00  0.00    -0.341 N 
ATOM     47  H   UNL     1      -5.931  -3.539  -0.754  1.00  0.00     0.164 HD
BRANCH  46  48
ATOM     48  C   UNL     1      -5.767  -5.332   0.388  1.00  0.00     0.196 C 
BRANCH  48  49
ATOM     49  C   UNL     1      -4.247  -5.386   0.159  1.00  0.00     0.072 C 
BRANCH  49  50
ATOM     50  C   UNL     1      -3.702  -6.796   0.196  1.00  0.00    -0.045 A 
ATOM     51  C   UNL     1      -3.142  -7.298   1.380  1.00  0.00     0.007 A 
ATOM     52  C   UNL     1      -3.729  -7.609  -0.944  1.00  0.00     0.007 A 
ATOM     53  C   UNL     1      -2.624  -8.592   1.423  1.00  0.00     0.046 A 
ATOM     54  C   UNL     1      -3.210  -8.905  -0.901  1.00  0.00     0.046 A 
ATOM     55  C   UNL     1      -2.662  -9.386   0.283  1.00  0.00     0.115 A 
BRANCH  55  56
ATOM     56  O   UNL     1      -2.144 -10.645   0.366  1.00  0.00    -0.508 OA
ATOM     57  H   UNL     1      -1.407 -10.632   0.997  1.00  0.00     0.293 HD
ENDBRANCH  55  56
ENDBRANCH  49  50
ENDBRANCH  48  49
BRANCH  48  58
ATOM     58  C   UNL     1      -6.055  -4.874   1.825  1.00  0.00     0.326 C 
ATOM     59  O   UNL     1      -7.095  -5.009   2.449  1.00  0.00    -0.250 OA
BRANCH  58  60
ATOM     60  O   UNL     1      -4.997  -4.272   2.423  1.00  0.00    -0.480 OA
ATOM     61  H   UNL     1      -4.254  -4.455   1.808  1.00  0.00     0.296 HD
ENDBRANCH  58  60
ENDBRANCH  48  58
ENDBRANCH  46  48
ENDBRANCH  34  44
ENDBRANCH  32  34
ENDBRANCH  25  30
ENDBRANCH  23  25
ENDBRANCH   2  23
TORSDOF 28
ENDMDL
MODEL 10
REMARK VINA RESULT:    -5.730     10.013     14.429
REMARK INTER + INTRA:         -19.644
REMARK INTER:                 -13.932
REMARK INTRA:                  -5.712
REMARK UNBOUND:                -5.372
REMARK SMILES CCCCCCC[C@H](N)[C@H](O)C(=O)N[C@H](C)C(=O)N(C)[C@H](CC(C)C)C(=O)N[C@@H](Cc1ccc(O)cc1)C(=O)N[C@@H](Cc1ccc(O)cc1)C(=O)O
REMARK SMILES IDX 18 1 17 2 15 3 16 4 14 5 12 6 13 7 10 9 11 10 8 12 9 13 7 16
REMARK SMILES IDX 6 17 5 18 4 19 3 20 2 21 1 22 19 23 20 24 21 25 22 26 23 27
REMARK SMILES IDX 24 28 25 29 26 30 27 31 28 32 29 34 30 35 31 36 32 37 37 38
REMARK SMILES IDX 33 39 36 40 34 41 35 42 38 44 39 45 40 46 41 48 42 49 43 50
REMARK SMILES IDX 44 51 49 52 45 53 48 54 46 55 47 56 50 58 51 59 52 60
REMARK H PARENT 14 8 11 11 9 14 9 15 28 33 35 43 40 47 47 57 52 61
ROOT
ATOM      1  O   UNL     1     -17.550  -2.987   7.836  1.00  0.00    -0.272 OA
ATOM      2  C   UNL     1     -18.458  -2.241   8.233  1.00  0.00     0.245 C 
ENDROOT
BRANCH   2   3
ATOM      3  C   UNL     1     -18.935  -2.371   9.701  1.00  0.00     0.168 C 
ATOM      4  C   UNL     1     -20.347  -2.944   9.764  1.00  0.00     0.041 C 
BRANCH   3   5
ATOM      5  N   UNL     1     -18.021  -3.085  10.580  1.00  0.00    -0.342 N 
ATOM      6  C   UNL     1     -17.613  -2.560  11.788  1.00  0.00     0.251 C 
ATOM      7  O   UNL     1     -17.949  -1.451  12.191  1.00  0.00    -0.272 OA
ATOM      8  H   UNL     1     -17.648  -4.000  10.336  1.00  0.00     0.164 HD
BRANCH   6   9
ATOM      9  C   UNL     1     -16.766  -3.546  12.609  1.00  0.00     0.219 C 
BRANCH   9  10
ATOM     10  O   UNL     1     -16.999  -4.911  12.244  1.00  0.00    -0.382 OA
ATOM     11  H   UNL     1     -16.174  -5.368  12.520  1.00  0.00     0.211 HD
ENDBRANCH   9  10
BRANCH   9  12
ATOM     12  C   UNL     1     -15.251  -3.218  12.579  1.00  0.00     0.089 C 
BRANCH  12  13
ATOM     13  N   UNL     1     -15.004  -2.066  13.476  1.00  0.00    -0.325 NA
ATOM     14  H   UNL     1     -15.509  -2.209  14.352  1.00  0.00     0.119 HD
ATOM     15  H   UNL     1     -15.420  -1.229  13.061  1.00  0.00     0.119 HD
ENDBRANCH  12  13
BRANCH  12  16
ATOM     16  C   UNL     1     -14.298  -4.384  12.936  1.00  0.00     0.022 C 
BRANCH  16  17
ATOM     17  C   UNL     1     -12.797  -4.102  13.089  1.00  0.00     0.002 C 
BRANCH  17  18
ATOM     18  C   UNL     1     -11.946  -4.462  11.873  1.00  0.00     0.000 C 
BRANCH  18  19
ATOM     19  C   UNL     1     -12.728  -5.150  10.746  1.00  0.00    -0.000 C 
BRANCH  19  20
ATOM     20  C   UNL     1     -11.884  -5.596   9.548  1.00  0.00    -0.000 C 
BRANCH  20  21
ATOM     21  C   UNL     1     -10.466  -5.019   9.566  1.00  0.00    -0.003 C 
ATOM     22  C   UNL     1      -9.507  -5.880   8.758  1.00  0.00     0.004 C 
ENDBRANCH  20  21
ENDBRANCH  19  20
ENDBRANCH  18  19
ENDBRANCH  17  18
ENDBRANCH  16  17
ENDBRANCH  12  16
ENDBRANCH   9  12
ENDBRANCH   6   9
ENDBRANCH   3   5
ENDBRANCH   2   3
BRANCH   2  23
ATOM     23  N   UNL     1     -18.942  -1.233   7.406  1.00  0.00    -0.332 N 
ATOM     24  C   UNL     1     -19.786  -1.454   6.242  1.00  0.00     0.147 C 
BRANCH  23  25
ATOM     25  C   UNL     1     -18.717   0.197   7.755  1.00  0.00     0.174 C 
BRANCH  25  26
ATOM     26  C   UNL     1     -20.033   0.970   8.004  1.00  0.00     0.038 C 
BRANCH  26  27
ATOM     27  C   UNL     1     -20.230   1.580   9.410  1.00  0.00    -0.015 C 
ATOM     28  C   UNL     1     -20.867   0.595  10.391  1.00  0.00     0.007 C 
ATOM     29  C   UNL     1     -18.954   2.175   9.999  1.00  0.00     0.007 C 
ENDBRANCH  26  27
ENDBRANCH  25  26
BRANCH  25  30
ATOM     30  C   UNL     1     -17.795   0.861   6.707  1.00  0.00     0.243 C 
ATOM     31  O   UNL     1     -18.201   1.738   5.946  1.00  0.00    -0.273 OA
ATOM     32  N   UNL     1     -16.502   0.404   6.679  1.00  0.00    -0.342 N 
ATOM     33  H   UNL     1     -16.205  -0.221   7.432  1.00  0.00     0.164 HD
BRANCH  32  34
ATOM     34  C   UNL     1     -15.497   0.898   5.734  1.00  0.00     0.175 C 
BRANCH  34  35
ATOM     35  C   UNL     1     -14.383   1.671   6.457  1.00  0.00     0.070 C 
BRANCH  35  36
ATOM     36  C   UNL     1     -14.251   3.097   5.972  1.00  0.00    -0.045 A 
ATOM     37  C   UNL     1     -14.371   4.161   6.879  1.00  0.00     0.007 A 
ATOM     38  C   UNL     1     -14.033   3.378   4.617  1.00  0.00     0.007 A 
ATOM     39  C   UNL     1     -14.264   5.480   6.439  1.00  0.00     0.046 A 
ATOM     40  C   UNL     1     -13.927   4.699   4.175  1.00  0.00     0.046 A 
ATOM     41  C   UNL     1     -14.043   5.739   5.091  1.00  0.00     0.115 A 
BRANCH  41  42
ATOM     42  O   UNL     1     -13.948   7.042   4.702  1.00  0.00    -0.508 OA
ATOM     43  H   UNL     1     -13.928   7.069   3.731  1.00  0.00     0.293 HD
ENDBRANCH  41  42
ENDBRANCH  35  36
ENDBRANCH  34  35
BRANCH  34  44
ATOM     44  C   UNL     1     -14.944  -0.311   4.947  1.00  0.00     0.243 C 
ATOM     45  O   UNL     1     -14.965  -0.411   3.723  1.00  0.00    -0.273 OA
ATOM     46  N   UNL     1     -14.532  -1.350   5.755  1.00  0.00    -0.341 N 
ATOM     47  H   UNL     1     -14.644  -1.266   6.762  1.00  0.00     0.164 HD
BRANCH  46  48
ATOM     48  C   UNL     1     -14.035  -2.626   5.236  1.00  0.00     0.196 C 
BRANCH  48  49
ATOM     49  C   UNL     1     -13.253  -3.400   6.310  1.00  0.00     0.072 C 
BRANCH  49  50
ATOM     50  C   UNL     1     -13.218  -2.679   7.638  1.00  0.00    -0.045 A 
ATOM     51  C   UNL     1     -12.030  -2.075   8.075  1.00  0.00     0.007 A 
ATOM     52  C   UNL     1     -14.354  -2.619   8.456  1.00  0.00     0.007 A 
ATOM     53  C   UNL     1     -11.982  -1.418   9.304  1.00  0.00     0.046 A 
ATOM     54  C   UNL     1     -14.306  -1.962   9.688  1.00  0.00     0.046 A 
ATOM     55  C   UNL     1     -13.119  -1.366  10.101  1.00  0.00     0.115 A 
BRANCH  55  56
ATOM     56  O   UNL     1     -13.031  -0.715  11.296  1.00  0.00    -0.508 OA
ATOM     57  H   UNL     1     -12.198  -0.218  11.313  1.00  0.00     0.293 HD
ENDBRANCH  55  56
ENDBRANCH  49  50
ENDBRANCH  48  49
BRANCH  48  58
ATOM     58  C   UNL     1     -15.225  -3.469   4.758  1.00  0.00     0.326 C 
ATOM     59  O   UNL     1     -15.514  -3.754   3.607  1.00  0.00    -0.250 OA
BRANCH  58  60
ATOM     60  O   UNL     1     -16.001  -3.933   5.770  1.00  0.00    -0.480 OA
ATOM     61  H   UNL     1     -15.359  -4.075   6.499  1.00  0.00     0.296 HD
ENDBRANCH  58  60
ENDBRANCH  48  58
ENDBRANCH  46  48
ENDBRANCH  34  44
ENDBRANCH  32  34
ENDBRANCH  25  30
ENDBRANCH  23  25
ENDBRANCH   2  23
TORSDOF 28
ENDMDL
MODEL 11
REMARK VINA RESULT:    -5.720      6.447     10.467
REMARK INTER + INTRA:         -19.619
REMARK INTER:                 -13.505
REMARK INTRA:                  -6.114
REMARK UNBOUND:                -5.372
REMARK SMILES CCCCCCC[C@H](N)[C@H](O)C(=O)N[C@H](C)C(=O)N(C)[C@H](CC(C)C)C(=O)N[C@@H](Cc1ccc(O)cc1)C(=O)N[C@@H](Cc1ccc(O)cc1)C(=O)O
REMARK SMILES IDX 18 1 17 2 15 3 16 4 14 5 12 6 13 7 10 9 11 10 8 12 9 13 7 16
REMARK SMILES IDX 6 17 5 18 4 19 3 20 2 21 1 22 19 23 20 24 21 25 22 26 23 27
REMARK SMILES IDX 24 28 25 29 26 30 27 31 28 32 29 34 30 35 31 36 32 37 37 38
REMARK SMILES IDX 33 39 36 40 34 41 35 42 38 44 39 45 40 46 41 48 42 49 43 50
REMARK SMILES IDX 44 51 49 52 45 53 48 54 46 55 47 56 50 58 51 59 52 60
REMARK H PARENT 14 8 11 11 9 14 9 15 28 33 35 43 40 47 47 57 52 61
ROOT
ATOM      1  O   UNL     1     -11.560  -0.947  -7.297  1.00  0.00    -0.272 OA
ATOM      2  C   UNL     1     -10.745  -0.368  -6.564  1.00  0.00     0.245 C 
ENDROOT
BRANCH   2   3
ATOM      3  C   UNL     1      -9.419  -1.090  -6.216  1.00  0.00     0.168 C 
ATOM      4  C   UNL     1      -9.652  -2.582  -6.008  1.00  0.00     0.041 C 
BRANCH   3   5
ATOM      5  N   UNL     1      -8.324  -0.836  -7.140  1.00  0.00    -0.342 N 
ATOM      6  C   UNL     1      -7.027  -0.667  -6.703  1.00  0.00     0.251 C 
ATOM      7  O   UNL     1      -6.705  -0.675  -5.519  1.00  0.00    -0.272 OA
ATOM      8  H   UNL     1      -8.474  -0.772  -8.144  1.00  0.00     0.164 HD
BRANCH   6   9
ATOM      9  C   UNL     1      -6.021  -0.554  -7.859  1.00  0.00     0.219 C 
BRANCH   9  10
ATOM     10  O   UNL     1      -6.148  -1.619  -8.809  1.00  0.00    -0.382 OA
ATOM     11  H   UNL     1      -6.785  -1.266  -9.468  1.00  0.00     0.211 HD
ENDBRANCH   9  10
BRANCH   9  12
ATOM     12  C   UNL     1      -6.061   0.824  -8.569  1.00  0.00     0.089 C 
BRANCH  12  13
ATOM     13  N   UNL     1      -6.439   1.852  -7.573  1.00  0.00    -0.325 NA
ATOM     14  H   UNL     1      -7.453   1.974  -7.584  1.00  0.00     0.119 HD
ATOM     15  H   UNL     1      -6.059   2.755  -7.868  1.00  0.00     0.119 HD
ENDBRANCH  12  13
BRANCH  12  16
ATOM     16  C   UNL     1      -4.766   1.246  -9.304  1.00  0.00     0.022 C 
BRANCH  16  17
ATOM     17  C   UNL     1      -4.874   1.976 -10.650  1.00  0.00     0.002 C 
BRANCH  17  18
ATOM     18  C   UNL     1      -6.295   2.349 -11.068  1.00  0.00     0.000 C 
BRANCH  18  19
ATOM     19  C   UNL     1      -6.697   3.784 -10.702  1.00  0.00    -0.000 C 
BRANCH  19  20
ATOM     20  C   UNL     1      -8.196   4.085 -10.801  1.00  0.00    -0.000 C 
BRANCH  20  21
ATOM     21  C   UNL     1      -8.596   4.698 -12.146  1.00  0.00    -0.003 C 
ATOM     22  C   UNL     1      -9.172   3.649 -13.084  1.00  0.00     0.004 C 
ENDBRANCH  20  21
ENDBRANCH  19  20
ENDBRANCH  18  19
ENDBRANCH  17  18
ENDBRANCH  16  17
ENDBRANCH  12  16
ENDBRANCH   9  12
ENDBRANCH   6   9
ENDBRANCH   3   5
ENDBRANCH   2   3
BRANCH   2  23
ATOM     23  N   UNL     1     -10.973   0.946  -6.171  1.00  0.00    -0.332 N 
ATOM     24  C   UNL     1     -12.285   1.572  -6.103  1.00  0.00     0.147 C 
BRANCH  23  25
ATOM     25  C   UNL     1      -9.853   1.782  -5.657  1.00  0.00     0.174 C 
BRANCH  25  26
ATOM     26  C   UNL     1     -10.162   2.424  -4.284  1.00  0.00     0.038 C 
BRANCH  26  27
ATOM     27  C   UNL     1      -9.480   1.796  -3.048  1.00  0.00    -0.015 C 
ATOM     28  C   UNL     1     -10.059   0.427  -2.694  1.00  0.00     0.007 C 
ATOM     29  C   UNL     1      -7.960   1.723  -3.165  1.00  0.00     0.007 C 
ENDBRANCH  26  27
ENDBRANCH  25  26
BRANCH  25  30
ATOM     30  C   UNL     1      -9.411   2.799  -6.734  1.00  0.00     0.243 C 
ATOM     31  O   UNL     1      -9.591   2.596  -7.933  1.00  0.00    -0.273 OA
ATOM     32  N   UNL     1      -8.802   3.934  -6.263  1.00  0.00    -0.342 N 
ATOM     33  H   UNL     1      -8.816   4.095  -5.253  1.00  0.00     0.164 HD
BRANCH  32  34
ATOM     34  C   UNL     1      -8.293   4.993  -7.139  1.00  0.00     0.175 C 
BRANCH  34  35
ATOM     35  C   UNL     1      -9.179   6.247  -7.072  1.00  0.00     0.070 C 
BRANCH  35  36
ATOM     36  C   UNL     1      -9.710   6.661  -8.426  1.00  0.00    -0.045 A 
ATOM     37  C   UNL     1     -10.953   6.183  -8.869  1.00  0.00     0.007 A 
ATOM     38  C   UNL     1      -8.966   7.503  -9.263  1.00  0.00     0.007 A 
ATOM     39  C   UNL     1     -11.444   6.548 -10.122  1.00  0.00     0.046 A 
ATOM     40  C   UNL     1      -9.457   7.868 -10.518  1.00  0.00     0.046 A 
ATOM     41  C   UNL     1     -10.694   7.388 -10.936  1.00  0.00     0.115 A 
BRANCH  41  42
ATOM     42  O   UNL     1     -11.209   7.719 -12.155  1.00  0.00    -0.508 OA
ATOM     43  H   UNL     1     -11.951   7.121 -12.344  1.00  0.00     0.293 HD
ENDBRANCH  41  42
ENDBRANCH  35  36
ENDBRANCH  34  35
BRANCH  34  44
ATOM     44  C   UNL     1      -6.834   5.295  -6.728  1.00  0.00     0.243 C 
ATOM     45  O   UNL     1      -6.157   6.207  -7.195  1.00  0.00    -0.273 OA
ATOM     46  N   UNL     1      -6.300   4.356  -5.871  1.00  0.00    -0.341 N 
ATOM     47  H   UNL     1      -6.865   3.553  -5.604  1.00  0.00     0.164 HD
BRANCH  46  48
ATOM     48  C   UNL     1      -4.915   4.393  -5.398  1.00  0.00     0.196 C 
BRANCH  48  49
ATOM     49  C   UNL     1      -3.922   4.412  -6.573  1.00  0.00     0.072 C 
BRANCH  49  50
ATOM     50  C   UNL     1      -3.084   3.156  -6.646  1.00  0.00    -0.045 A 
ATOM     51  C   UNL     1      -3.276   2.131  -5.708  1.00  0.00     0.007 A 
ATOM     52  C   UNL     1      -2.096   3.005  -7.628  1.00  0.00     0.007 A 
ATOM     53  C   UNL     1      -2.499   0.974  -5.758  1.00  0.00     0.046 A 
ATOM     54  C   UNL     1      -1.318   1.846  -7.677  1.00  0.00     0.046 A 
ATOM     55  C   UNL     1      -1.527   0.840  -6.741  1.00  0.00     0.115 A 
BRANCH  55  56
ATOM     56  O   UNL     1      -0.788  -0.306  -6.754  1.00  0.00    -0.508 OA
ATOM     57  H   UNL     1      -0.285  -0.355  -5.925  1.00  0.00     0.293 HD
ENDBRANCH  55  56
ENDBRANCH  49  50
ENDBRANCH  48  49
BRANCH  48  58
ATOM     58  C   UNL     1      -4.715   5.647  -4.535  1.00  0.00     0.326 C 
ATOM     59  O   UNL     1      -3.882   6.525  -4.689  1.00  0.00    -0.250 OA
BRANCH  58  60
ATOM     60  O   UNL     1      -5.598   5.744  -3.510  1.00  0.00    -0.480 OA
ATOM     61  H   UNL     1      -6.470   5.728  -3.960  1.00  0.00     0.296 HD
ENDBRANCH  58  60
ENDBRANCH  48  58
ENDBRANCH  46  48
ENDBRANCH  34  44
ENDBRANCH  32  34
ENDBRANCH  25  30
ENDBRANCH  23  25
ENDBRANCH   2  23
TORSDOF 28
ENDMDL
MODEL 12
REMARK VINA RESULT:    -5.677      7.276     11.522
REMARK INTER + INTRA:         -19.512
REMARK INTER:                 -15.355
REMARK INTRA:                  -4.157
REMARK UNBOUND:                -5.372
REMARK SMILES CCCCCCC[C@H](N)[C@H](O)C(=O)N[C@H](C)C(=O)N(C)[C@H](CC(C)C)C(=O)N[C@@H](Cc1ccc(O)cc1)C(=O)N[C@@H](Cc1ccc(O)cc1)C(=O)O
REMARK SMILES IDX 18 1 17 2 15 3 16 4 14 5 12 6 13 7 10 9 11 10 8 12 9 13 7 16
REMARK SMILES IDX 6 17 5 18 4 19 3 20 2 21 1 22 19 23 20 24 21 25 22 26 23 27
REMARK SMILES IDX 24 28 25 29 26 30 27 31 28 32 29 34 30 35 31 36 32 37 37 38
REMARK SMILES IDX 33 39 36 40 34 41 35 42 38 44 39 45 40 46 41 48 42 49 43 50
REMARK SMILES IDX 44 51 49 52 45 53 48 54 46 55 47 56 50 58 51 59 52 60
REMARK H PARENT 14 8 11 11 9 14 9 15 28 33 35 43 40 47 47 57 52 61
ROOT
ATOM      1  O   UNL     1     -14.217  -2.628   1.339  1.00  0.00    -0.272 OA
ATOM      2  C   UNL     1     -14.157  -1.918   2.353  1.00  0.00     0.245 C 
ENDROOT
BRANCH   2   3
ATOM      3  C   UNL     1     -12.764  -1.596   2.950  1.00  0.00     0.168 C 
ATOM      4  C   UNL     1     -12.597  -2.249   4.318  1.00  0.00     0.041 C 
BRANCH   3   5
ATOM      5  N   UNL     1     -11.641  -1.883   2.072  1.00  0.00    -0.342 N 
ATOM      6  C   UNL     1     -10.691  -0.930   1.770  1.00  0.00     0.251 C 
ATOM      7  O   UNL     1     -10.739   0.226   2.177  1.00  0.00    -0.272 OA
ATOM      8  H   UNL     1     -11.514  -2.798   1.646  1.00  0.00     0.164 HD
BRANCH   6   9
ATOM      9  C   UNL     1      -9.525  -1.495   0.943  1.00  0.00     0.219 C 
BRANCH   9  10
ATOM     10  O   UNL     1      -9.198  -0.674  -0.185  1.00  0.00    -0.382 OA
ATOM     11  H   UNL     1      -8.989  -1.324  -0.891  1.00  0.00     0.211 HD
ENDBRANCH   9  10
BRANCH   9  12
ATOM     12  C   UNL     1      -8.262  -1.791   1.793  1.00  0.00     0.089 C 
BRANCH  12  13
ATOM     13  N   UNL     1      -8.684  -2.010   3.196  1.00  0.00    -0.325 NA
ATOM     14  H   UNL     1      -8.878  -1.107   3.633  1.00  0.00     0.119 HD
ATOM     15  H   UNL     1      -7.897  -2.397   3.722  1.00  0.00     0.119 HD
ENDBRANCH  12  13
BRANCH  12  16
ATOM     16  C   UNL     1      -7.381  -2.969   1.313  1.00  0.00     0.022 C 
BRANCH  16  17
ATOM     17  C   UNL     1      -8.022  -4.350   1.120  1.00  0.00     0.002 C 
BRANCH  17  18
ATOM     18  C   UNL     1      -8.318  -4.726  -0.331  1.00  0.00     0.000 C 
BRANCH  18  19
ATOM     19  C   UNL     1      -7.297  -4.182  -1.338  1.00  0.00    -0.000 C 
BRANCH  19  20
ATOM     20  C   UNL     1      -6.267  -5.201  -1.835  1.00  0.00    -0.000 C 
BRANCH  20  21
ATOM     21  C   UNL     1      -5.991  -6.316  -0.822  1.00  0.00    -0.003 C 
ATOM     22  C   UNL     1      -4.698  -6.066  -0.062  1.00  0.00     0.004 C 
ENDBRANCH  20  21
ENDBRANCH  19  20
ENDBRANCH  18  19
ENDBRANCH  17  18
ENDBRANCH  16  17
ENDBRANCH  12  16
ENDBRANCH   9  12
ENDBRANCH   6   9
ENDBRANCH   3   5
ENDBRANCH   2   3
BRANCH   2  23
ATOM     23  N   UNL     1     -15.310  -1.328   2.859  1.00  0.00    -0.332 N 
ATOM     24  C   UNL     1     -15.556   0.106   2.897  1.00  0.00     0.147 C 
BRANCH  23  25
ATOM     25  C   UNL     1     -16.457  -2.173   3.291  1.00  0.00     0.174 C 
BRANCH  25  26
ATOM     26  C   UNL     1     -17.827  -1.495   3.054  1.00  0.00     0.038 C 
BRANCH  26  27
ATOM     27  C   UNL     1     -18.861  -2.281   2.216  1.00  0.00    -0.015 C 
ATOM     28  C   UNL     1     -19.221  -3.626   2.845  1.00  0.00     0.007 C 
ATOM     29  C   UNL     1     -20.122  -1.480   1.901  1.00  0.00     0.007 C 
ENDBRANCH  26  27
ENDBRANCH  25  26
BRANCH  25  30
ATOM     30  C   UNL     1     -16.246  -2.653   4.745  1.00  0.00     0.243 C 
ATOM     31  O   UNL     1     -15.844  -3.787   5.003  1.00  0.00    -0.273 OA
ATOM     32  N   UNL     1     -16.542  -1.737   5.722  1.00  0.00    -0.342 N 
ATOM     33  H   UNL     1     -16.733  -0.776   5.428  1.00  0.00     0.164 HD
BRANCH  32  34
ATOM     34  C   UNL     1     -16.427  -2.027   7.154  1.00  0.00     0.175 C 
BRANCH  34  35
ATOM     35  C   UNL     1     -15.192  -1.347   7.764  1.00  0.00     0.070 C 
BRANCH  35  36
ATOM     36  C   UNL     1     -14.273  -2.323   8.463  1.00  0.00    -0.045 A 
ATOM     37  C   UNL     1     -14.294  -2.429   9.862  1.00  0.00     0.007 A 
ATOM     38  C   UNL     1     -13.376  -3.115   7.734  1.00  0.00     0.007 A 
ATOM     39  C   UNL     1     -13.440  -3.316  10.517  1.00  0.00     0.046 A 
ATOM     40  C   UNL     1     -12.520  -4.003   8.389  1.00  0.00     0.046 A 
ATOM     41  C   UNL     1     -12.561  -4.097   9.776  1.00  0.00     0.115 A 
BRANCH  41  42
ATOM     42  O   UNL     1     -11.741  -4.949  10.455  1.00  0.00    -0.508 OA
ATOM     43  H   UNL     1     -11.897  -5.849  10.124  1.00  0.00     0.293 HD
ENDBRANCH  41  42
ENDBRANCH  35  36
ENDBRANCH  34  35
BRANCH  34  44
ATOM     44  C   UNL     1     -17.735  -1.572   7.840  1.00  0.00     0.243 C 
ATOM     45  O   UNL     1     -18.861  -1.881   7.462  1.00  0.00    -0.273 OA
ATOM     46  N   UNL     1     -17.533  -0.664   8.859  1.00  0.00    -0.341 N 
ATOM     47  H   UNL     1     -16.587  -0.349   9.059  1.00  0.00     0.164 HD
BRANCH  46  48
ATOM     48  C   UNL     1     -18.624  -0.041   9.611  1.00  0.00     0.196 C 
BRANCH  48  49
ATOM     49  C   UNL     1     -18.380  -0.125  11.127  1.00  0.00     0.072 C 
BRANCH  49  50
ATOM     50  C   UNL     1     -17.950  -1.505  11.570  1.00  0.00    -0.045 A 
ATOM     51  C   UNL     1     -18.684  -2.630  11.166  1.00  0.00     0.007 A 
ATOM     52  C   UNL     1     -16.836  -1.681  12.401  1.00  0.00     0.007 A 
ATOM     53  C   UNL     1     -18.305  -3.907  11.580  1.00  0.00     0.046 A 
ATOM     54  C   UNL     1     -16.457  -2.959  12.817  1.00  0.00     0.046 A 
ATOM     55  C   UNL     1     -17.195  -4.062  12.401  1.00  0.00     0.115 A 
BRANCH  55  56
ATOM     56  O   UNL     1     -16.859  -5.327  12.785  1.00  0.00    -0.508 OA
ATOM     57  H   UNL     1     -15.967  -5.520  12.455  1.00  0.00     0.293 HD
ENDBRANCH  55  56
ENDBRANCH  49  50
ENDBRANCH  48  49
BRANCH  48  58
ATOM     58  C   UNL     1     -18.743   1.430   9.190  1.00  0.00     0.326 C 
ATOM     59  O   UNL     1     -18.281   1.953   8.188  1.00  0.00    -0.250 OA
BRANCH  58  60
ATOM     60  O   UNL     1     -19.465   2.185  10.057  1.00  0.00    -0.480 OA
ATOM     61  H   UNL     1     -19.798   1.527  10.705  1.00  0.00     0.296 HD
ENDBRANCH  58  60
ENDBRANCH  48  58
ENDBRANCH  46  48
ENDBRANCH  34  44
ENDBRANCH  32  34
ENDBRANCH  25  30
ENDBRANCH  23  25
ENDBRANCH   2  23
TORSDOF 28
ENDMDL
MODEL 13
REMARK VINA RESULT:    -5.621      4.205      9.095
REMARK INTER + INTRA:         -19.373
REMARK INTER:                 -13.902
REMARK INTRA:                  -5.471
REMARK UNBOUND:                -5.372
REMARK SMILES CCCCCCC[C@H](N)[C@H](O)C(=O)N[C@H](C)C(=O)N(C)[C@H](CC(C)C)C(=O)N[C@@H](Cc1ccc(O)cc1)C(=O)N[C@@H](Cc1ccc(O)cc1)C(=O)O
REMARK SMILES IDX 18 1 17 2 15 3 16 4 14 5 12 6 13 7 10 9 11 10 8 12 9 13 7 16
REMARK SMILES IDX 6 17 5 18 4 19 3 20 2 21 1 22 19 23 20 24 21 25 22 26 23 27
REMARK SMILES IDX 24 28 25 29 26 30 27 31 28 32 29 34 30 35 31 36 32 37 37 38
REMARK SMILES IDX 33 39 36 40 34 41 35 42 38 44 39 45 40 46 41 48 42 49 43 50
REMARK SMILES IDX 44 51 49 52 45 53 48 54 46 55 47 56 50 58 51 59 52 60
REMARK H PARENT 14 8 11 11 9 14 9 15 28 33 35 43 40 47 47 57 52 61
ROOT
ATOM      1  O   UNL     1     -10.501  -0.766  -2.157  1.00  0.00    -0.272 OA
ATOM      2  C   UNL     1      -9.474  -1.179  -2.715  1.00  0.00     0.245 C 
ENDROOT
BRANCH   2   3
ATOM      3  C   UNL     1      -9.594  -1.773  -4.141  1.00  0.00     0.168 C 
ATOM      4  C   UNL     1     -10.231  -3.158  -4.100  1.00  0.00     0.041 C 
BRANCH   3   5
ATOM      5  N   UNL     1     -10.244  -0.906  -5.111  1.00  0.00    -0.342 N 
ATOM      6  C   UNL     1      -9.836  -0.850  -6.427  1.00  0.00     0.251 C 
ATOM      7  O   UNL     1      -8.882  -1.483  -6.866  1.00  0.00    -0.272 OA
ATOM      8  H   UNL     1     -11.026  -0.307  -4.856  1.00  0.00     0.164 HD
BRANCH   6   9
ATOM      9  C   UNL     1     -10.754   0.022  -7.298  1.00  0.00     0.219 C 
BRANCH   9  10
ATOM     10  O   UNL     1     -12.128  -0.051  -6.898  1.00  0.00    -0.382 OA
ATOM     11  H   UNL     1     -12.404   0.890  -6.847  1.00  0.00     0.211 HD
ENDBRANCH   9  10
BRANCH   9  12
ATOM     12  C   UNL     1     -10.285   1.497  -7.391  1.00  0.00     0.089 C 
BRANCH  12  13
ATOM     13  N   UNL     1      -8.867   1.564  -6.969  1.00  0.00    -0.325 NA
ATOM     14  H   UNL     1      -8.415   2.353  -7.435  1.00  0.00     0.119 HD
ATOM     15  H   UNL     1      -8.379   0.735  -7.314  1.00  0.00     0.119 HD
ENDBRANCH  12  13
BRANCH  12  16
ATOM     16  C   UNL     1     -10.462   2.180  -8.768  1.00  0.00     0.022 C 
BRANCH  16  17
ATOM     17  C   UNL     1      -9.615   3.414  -9.105  1.00  0.00     0.002 C 
BRANCH  17  18
ATOM     18  C   UNL     1     -10.412   4.681  -9.406  1.00  0.00     0.000 C 
BRANCH  18  19
ATOM     19  C   UNL     1      -9.677   5.981  -9.053  1.00  0.00    -0.000 C 
BRANCH  19  20
ATOM     20  C   UNL     1      -8.980   5.984  -7.690  1.00  0.00    -0.000 C 
BRANCH  20  21
ATOM     21  C   UNL     1      -9.944   6.218  -6.524  1.00  0.00    -0.003 C 
ATOM     22  C   UNL     1     -10.034   4.995  -5.625  1.00  0.00     0.004 C 
ENDBRANCH  20  21
ENDBRANCH  19  20
ENDBRANCH  18  19
ENDBRANCH  17  18
ENDBRANCH  16  17
ENDBRANCH  12  16
ENDBRANCH   9  12
ENDBRANCH   6   9
ENDBRANCH   3   5
ENDBRANCH   2   3
BRANCH   2  23
ATOM     23  N   UNL     1      -8.233  -0.995  -2.114  1.00  0.00    -0.332 N 
ATOM     24  C   UNL     1      -7.433  -2.061  -1.529  1.00  0.00     0.147 C 
BRANCH  23  25
ATOM     25  C   UNL     1      -7.572   0.338  -2.151  1.00  0.00     0.174 C 
BRANCH  25  26
ATOM     26  C   UNL     1      -8.444   1.460  -1.541  1.00  0.00     0.038 C 
BRANCH  26  27
ATOM     27  C   UNL     1      -8.729   1.379  -0.025  1.00  0.00    -0.015 C 
ATOM     28  C   UNL     1      -7.463   1.139   0.796  1.00  0.00     0.007 C 
ATOM     29  C   UNL     1      -9.498   2.584   0.513  1.00  0.00     0.007 C 
ENDBRANCH  26  27
ENDBRANCH  25  26
BRANCH  25  30
ATOM     30  C   UNL     1      -7.073   0.646  -3.581  1.00  0.00     0.243 C 
ATOM     31  O   UNL     1      -7.777   1.232  -4.403  1.00  0.00    -0.273 OA
ATOM     32  N   UNL     1      -5.804   0.217  -3.873  1.00  0.00    -0.342 N 
ATOM     33  H   UNL     1      -5.233  -0.133  -3.099  1.00  0.00     0.164 HD
BRANCH  32  34
ATOM     34  C   UNL     1      -5.178   0.398  -5.185  1.00  0.00     0.175 C 
BRANCH  34  35
ATOM     35  C   UNL     1      -4.008   1.391  -5.114  1.00  0.00     0.070 C 
BRANCH  35  36
ATOM     36  C   UNL     1      -4.381   2.771  -5.610  1.00  0.00    -0.045 A 
ATOM     37  C   UNL     1      -5.466   2.932  -6.485  1.00  0.00     0.007 A 
ATOM     38  C   UNL     1      -3.643   3.897  -5.224  1.00  0.00     0.007 A 
ATOM     39  C   UNL     1      -5.809   4.199  -6.958  1.00  0.00     0.046 A 
ATOM     40  C   UNL     1      -3.985   5.166  -5.698  1.00  0.00     0.046 A 
ATOM     41  C   UNL     1      -5.067   5.305  -6.561  1.00  0.00     0.115 A 
BRANCH  41  42
ATOM     42  O   UNL     1      -5.434   6.524  -7.048  1.00  0.00    -0.508 OA
ATOM     43  H   UNL     1      -5.431   7.160  -6.313  1.00  0.00     0.293 HD
ENDBRANCH  41  42
ENDBRANCH  35  36
ENDBRANCH  34  35
BRANCH  34  44
ATOM     44  C   UNL     1      -4.727  -0.989  -5.696  1.00  0.00     0.243 C 
ATOM     45  O   UNL     1      -3.647  -1.508  -5.431  1.00  0.00    -0.273 OA
ATOM     46  N   UNL     1      -5.605  -1.553  -6.598  1.00  0.00    -0.341 N 
ATOM     47  H   UNL     1      -6.432  -1.031  -6.875  1.00  0.00     0.164 HD
BRANCH  46  48
ATOM     48  C   UNL     1      -5.359  -2.832  -7.268  1.00  0.00     0.196 C 
BRANCH  48  49
ATOM     49  C   UNL     1      -6.405  -3.886  -6.865  1.00  0.00     0.072 C 
BRANCH  49  50
ATOM     50  C   UNL     1      -6.005  -4.658  -5.628  1.00  0.00    -0.045 A 
ATOM     51  C   UNL     1      -6.117  -4.061  -4.364  1.00  0.00     0.007 A 
ATOM     52  C   UNL     1      -5.502  -5.962  -5.724  1.00  0.00     0.007 A 
ATOM     53  C   UNL     1      -5.740  -4.759  -3.217  1.00  0.00     0.046 A 
ATOM     54  C   UNL     1      -5.122  -6.660  -4.575  1.00  0.00     0.046 A 
ATOM     55  C   UNL     1      -5.246  -6.052  -3.331  1.00  0.00     0.115 A 
BRANCH  55  56
ATOM     56  O   UNL     1      -4.886  -6.700  -2.186  1.00  0.00    -0.508 OA
ATOM     57  H   UNL     1      -5.225  -6.195  -1.430  1.00  0.00     0.293 HD
ENDBRANCH  55  56
ENDBRANCH  49  50
ENDBRANCH  48  49
BRANCH  48  58
ATOM     58  C   UNL     1      -5.405  -2.617  -8.787  1.00  0.00     0.326 C 
ATOM     59  O   UNL     1      -5.073  -1.616  -9.402  1.00  0.00    -0.250 OA
BRANCH  58  60
ATOM     60  O   UNL     1      -5.861  -3.695  -9.473  1.00  0.00    -0.480 OA
ATOM     61  H   UNL     1      -5.831  -4.416  -8.808  1.00  0.00     0.296 HD
ENDBRANCH  58  60
ENDBRANCH  48  58
ENDBRANCH  46  48
ENDBRANCH  34  44
ENDBRANCH  32  34
ENDBRANCH  25  30
ENDBRANCH  23  25
ENDBRANCH   2  23
TORSDOF 28
ENDMDL
MODEL 14
REMARK VINA RESULT:    -5.620      6.207     11.245
REMARK INTER + INTRA:         -19.370
REMARK INTER:                 -11.691
REMARK INTRA:                  -7.679
REMARK UNBOUND:                -5.372
REMARK SMILES CCCCCCC[C@H](N)[C@H](O)C(=O)N[C@H](C)C(=O)N(C)[C@H](CC(C)C)C(=O)N[C@@H](Cc1ccc(O)cc1)C(=O)N[C@@H](Cc1ccc(O)cc1)C(=O)O
REMARK SMILES IDX 18 1 17 2 15 3 16 4 14 5 12 6 13 7 10 9 11 10 8 12 9 13 7 16
REMARK SMILES IDX 6 17 5 18 4 19 3 20 2 21 1 22 19 23 20 24 21 25 22 26 23 27
REMARK SMILES IDX 24 28 25 29 26 30 27 31 28 32 29 34 30 35 31 36 32 37 37 38
REMARK SMILES IDX 33 39 36 40 34 41 35 42 38 44 39 45 40 46 41 48 42 49 43 50
REMARK SMILES IDX 44 51 49 52 45 53 48 54 46 55 47 56 50 58 51 59 52 60
REMARK H PARENT 14 8 11 11 9 14 9 15 28 33 35 43 40 47 47 57 52 61
ROOT
ATOM      1  O   UNL     1     -16.329  -3.780   3.607  1.00  0.00    -0.272 OA
ATOM      2  C   UNL     1     -17.133  -2.886   3.913  1.00  0.00     0.245 C 
ENDROOT
BRANCH   2   3
ATOM      3  C   UNL     1     -16.925  -2.128   5.248  1.00  0.00     0.168 C 
ATOM      4  C   UNL     1     -16.936  -3.095   6.427  1.00  0.00     0.041 C 
BRANCH   3   5
ATOM      5  N   UNL     1     -15.765  -1.250   5.278  1.00  0.00    -0.342 N 
ATOM      6  C   UNL     1     -15.824   0.014   5.826  1.00  0.00     0.251 C 
ATOM      7  O   UNL     1     -16.849   0.505   6.285  1.00  0.00    -0.272 OA
ATOM      8  H   UNL     1     -14.867  -1.535   4.895  1.00  0.00     0.164 HD
BRANCH   6   9
ATOM      9  C   UNL     1     -14.451   0.703   5.877  1.00  0.00     0.219 C 
BRANCH   9  10
ATOM     10  O   UNL     1     -13.379  -0.216   6.121  1.00  0.00    -0.382 OA
ATOM     11  H   UNL     1     -13.452  -0.405   7.083  1.00  0.00     0.211 HD
ENDBRANCH   9  10
BRANCH   9  12
ATOM     12  C   UNL     1     -14.158   1.570   4.625  1.00  0.00     0.089 C 
BRANCH  12  13
ATOM     13  N   UNL     1     -15.077   1.153   3.542  1.00  0.00    -0.325 NA
ATOM     14  H   UNL     1     -14.734   1.517   2.651  1.00  0.00     0.119 HD
ATOM     15  H   UNL     1     -15.983   1.606   3.684  1.00  0.00     0.119 HD
ENDBRANCH  12  13
BRANCH  12  16
ATOM     16  C   UNL     1     -14.236   3.103   4.828  1.00  0.00     0.022 C 
BRANCH  16  17
ATOM     17  C   UNL     1     -13.438   4.022   3.893  1.00  0.00     0.002 C 
BRANCH  17  18
ATOM     18  C   UNL     1     -14.047   5.405   3.675  1.00  0.00     0.000 C 
BRANCH  18  19
ATOM     19  C   UNL     1     -14.754   5.569   2.323  1.00  0.00    -0.000 C 
BRANCH  19  20
ATOM     20  C   UNL     1     -16.032   4.743   2.152  1.00  0.00    -0.000 C 
BRANCH  20  21
ATOM     21  C   UNL     1     -17.268   5.422   2.749  1.00  0.00    -0.003 C 
ATOM     22  C   UNL     1     -18.522   5.083   1.959  1.00  0.00     0.004 C 
ENDBRANCH  20  21
ENDBRANCH  19  20
ENDBRANCH  18  19
ENDBRANCH  17  18
ENDBRANCH  16  17
ENDBRANCH  12  16
ENDBRANCH   9  12
ENDBRANCH   6   9
ENDBRANCH   3   5
ENDBRANCH   2   3
BRANCH   2  23
ATOM     23  N   UNL     1     -18.119  -2.499   3.012  1.00  0.00    -0.332 N 
ATOM     24  C   UNL     1     -19.183  -3.368   2.529  1.00  0.00     0.147 C 
BRANCH  23  25
ATOM     25  C   UNL     1     -18.220  -1.081   2.572  1.00  0.00     0.174 C 
BRANCH  25  26
ATOM     26  C   UNL     1     -19.665  -0.532   2.634  1.00  0.00     0.038 C 
BRANCH  26  27
ATOM     27  C   UNL     1     -19.827   0.995   2.805  1.00  0.00    -0.015 C 
ATOM     28  C   UNL     1     -18.627   1.636   3.503  1.00  0.00     0.007 C 
ATOM     29  C   UNL     1     -20.140   1.722   1.500  1.00  0.00     0.007 C 
ENDBRANCH  26  27
ENDBRANCH  25  26
BRANCH  25  30
ATOM     30  C   UNL     1     -17.547  -0.904   1.191  1.00  0.00     0.243 C 
ATOM     31  O   UNL     1     -18.180  -1.008   0.141  1.00  0.00    -0.273 OA
ATOM     32  N   UNL     1     -16.204  -0.630   1.217  1.00  0.00    -0.342 N 
ATOM     33  H   UNL     1     -15.781  -0.418   2.124  1.00  0.00     0.164 HD
BRANCH  32  34
ATOM     34  C   UNL     1     -15.398  -0.458   0.005  1.00  0.00     0.175 C 
BRANCH  34  35
ATOM     35  C   UNL     1     -15.475   0.985  -0.518  1.00  0.00     0.070 C 
BRANCH  35  36
ATOM     36  C   UNL     1     -14.118   1.643  -0.622  1.00  0.00    -0.045 A 
ATOM     37  C   UNL     1     -13.671   2.496   0.399  1.00  0.00     0.007 A 
ATOM     38  C   UNL     1     -13.301   1.432  -1.740  1.00  0.00     0.007 A 
ATOM     39  C   UNL     1     -12.426   3.118   0.305  1.00  0.00     0.046 A 
ATOM     40  C   UNL     1     -12.055   2.056  -1.836  1.00  0.00     0.046 A 
ATOM     41  C   UNL     1     -11.628   2.893  -0.810  1.00  0.00     0.115 A 
BRANCH  41  42
ATOM     42  O   UNL     1     -10.420   3.523  -0.865  1.00  0.00    -0.508 OA
ATOM     43  H   UNL     1      -9.755   2.881  -1.166  1.00  0.00     0.293 HD
ENDBRANCH  41  42
ENDBRANCH  35  36
ENDBRANCH  34  35
BRANCH  34  44
ATOM     44  C   UNL     1     -13.947  -0.876   0.332  1.00  0.00     0.243 C 
ATOM     45  O   UNL     1     -13.218  -1.506  -0.429  1.00  0.00    -0.273 OA
ATOM     46  N   UNL     1     -13.572  -0.589   1.628  1.00  0.00    -0.341 N 
ATOM     47  H   UNL     1     -14.252  -0.171   2.258  1.00  0.00     0.164 HD
BRANCH  46  48
ATOM     48  C   UNL     1     -12.268  -0.952   2.189  1.00  0.00     0.196 C 
BRANCH  48  49
ATOM     49  C   UNL     1     -11.469   0.296   2.602  1.00  0.00     0.072 C 
BRANCH  49  50
ATOM     50  C   UNL     1     -10.266   0.534   1.718  1.00  0.00    -0.045 A 
ATOM     51  C   UNL     1     -10.085  -0.235   0.560  1.00  0.00     0.007 A 
ATOM     52  C   UNL     1      -9.310   1.503   2.049  1.00  0.00     0.007 A 
ATOM     53  C   UNL     1      -8.972  -0.033  -0.256  1.00  0.00     0.046 A 
ATOM     54  C   UNL     1      -8.194   1.705   1.233  1.00  0.00     0.046 A 
ATOM     55  C   UNL     1      -8.036   0.935   0.086  1.00  0.00     0.115 A 
BRANCH  55  56
ATOM     56  O   UNL     1      -6.961   1.100  -0.737  1.00  0.00    -0.508 OA
ATOM     57  H   UNL     1      -7.171   1.797  -1.378  1.00  0.00     0.293 HD
ENDBRANCH  55  56
ENDBRANCH  49  50
ENDBRANCH  48  49
BRANCH  48  58
ATOM     58  C   UNL     1     -12.485  -1.853   3.413  1.00  0.00     0.326 C 
ATOM     59  O   UNL     1     -11.736  -1.998   4.365  1.00  0.00    -0.250 OA
BRANCH  58  60
ATOM     60  O   UNL     1     -13.661  -2.529   3.386  1.00  0.00    -0.480 OA
ATOM     61  H   UNL     1     -14.301  -1.883   3.758  1.00  0.00     0.296 HD
ENDBRANCH  58  60
ENDBRANCH  48  58
ENDBRANCH  46  48
ENDBRANCH  34  44
ENDBRANCH  32  34
ENDBRANCH  25  30
ENDBRANCH  23  25
ENDBRANCH   2  23
TORSDOF 28
ENDMDL
MODEL 15
REMARK VINA RESULT:    -5.618      5.579     10.196
REMARK INTER + INTRA:         -19.366
REMARK INTER:                 -13.043
REMARK INTRA:                  -6.323
REMARK UNBOUND:                -5.372
REMARK SMILES CCCCCCC[C@H](N)[C@H](O)C(=O)N[C@H](C)C(=O)N(C)[C@H](CC(C)C)C(=O)N[C@@H](Cc1ccc(O)cc1)C(=O)N[C@@H](Cc1ccc(O)cc1)C(=O)O
REMARK SMILES IDX 18 1 17 2 15 3 16 4 14 5 12 6 13 7 10 9 11 10 8 12 9 13 7 16
REMARK SMILES IDX 6 17 5 18 4 19 3 20 2 21 1 22 19 23 20 24 21 25 22 26 23 27
REMARK SMILES IDX 24 28 25 29 26 30 27 31 28 32 29 34 30 35 31 36 32 37 37 38
REMARK SMILES IDX 33 39 36 40 34 41 35 42 38 44 39 45 40 46 41 48 42 49 43 50
REMARK SMILES IDX 44 51 49 52 45 53 48 54 46 55 47 56 50 58 51 59 52 60
REMARK H PARENT 14 8 11 11 9 14 9 15 28 33 35 43 40 47 47 57 52 61
ROOT
ATOM      1  O   UNL     1      -7.734   4.444  -9.766  1.00  0.00    -0.272 OA
ATOM      2  C   UNL     1      -8.135   4.005  -8.677  1.00  0.00     0.245 C 
ENDROOT
BRANCH   2   3
ATOM      3  C   UNL     1      -8.481   2.499  -8.567  1.00  0.00     0.168 C 
ATOM      4  C   UNL     1      -9.808   2.197  -9.254  1.00  0.00     0.041 C 
BRANCH   3   5
ATOM      5  N   UNL     1      -7.427   1.597  -9.003  1.00  0.00    -0.342 N 
ATOM      6  C   UNL     1      -6.279   1.406  -8.262  1.00  0.00     0.251 C 
ATOM      7  O   UNL     1      -6.042   2.002  -7.217  1.00  0.00    -0.272 OA
ATOM      8  H   UNL     1      -7.495   1.072  -9.872  1.00  0.00     0.164 HD
BRANCH   6   9
ATOM      9  C   UNL     1      -5.375   0.305  -8.840  1.00  0.00     0.219 C 
BRANCH   9  10
ATOM     10  O   UNL     1      -4.071   0.788  -9.187  1.00  0.00    -0.382 OA
ATOM     11  H   UNL     1      -3.466   0.120  -8.796  1.00  0.00     0.211 HD
ENDBRANCH   9  10
BRANCH   9  12
ATOM     12  C   UNL     1      -5.275  -0.944  -7.926  1.00  0.00     0.089 C 
BRANCH  12  13
ATOM     13  N   UNL     1      -5.140  -0.487  -6.524  1.00  0.00    -0.325 NA
ATOM     14  H   UNL     1      -4.407   0.222  -6.471  1.00  0.00     0.119 HD
ATOM     15  H   UNL     1      -4.801  -1.265  -5.954  1.00  0.00     0.119 HD
ENDBRANCH  12  13
BRANCH  12  16
ATOM     16  C   UNL     1      -6.432  -1.964  -8.044  1.00  0.00     0.022 C 
BRANCH  16  17
ATOM     17  C   UNL     1      -6.183  -3.425  -7.645  1.00  0.00     0.002 C 
BRANCH  17  18
ATOM     18  C   UNL     1      -6.770  -3.833  -6.295  1.00  0.00     0.000 C 
BRANCH  18  19
ATOM     19  C   UNL     1      -5.733  -3.942  -5.170  1.00  0.00    -0.000 C 
BRANCH  19  20
ATOM     20  C   UNL     1      -6.301  -3.844  -3.751  1.00  0.00    -0.000 C 
BRANCH  20  21
ATOM     21  C   UNL     1      -7.220  -2.636  -3.555  1.00  0.00    -0.003 C 
ATOM     22  C   UNL     1      -8.479  -3.015  -2.791  1.00  0.00     0.004 C 
ENDBRANCH  20  21
ENDBRANCH  19  20
ENDBRANCH  18  19
ENDBRANCH  17  18
ENDBRANCH  16  17
ENDBRANCH  12  16
ENDBRANCH   9  12
ENDBRANCH   6   9
ENDBRANCH   3   5
ENDBRANCH   2   3
BRANCH   2  23
ATOM     23  N   UNL     1      -8.151   4.831  -7.558  1.00  0.00    -0.332 N 
ATOM     24  C   UNL     1      -7.223   5.928  -7.328  1.00  0.00     0.147 C 
BRANCH  23  25
ATOM     25  C   UNL     1      -9.242   4.713  -6.553  1.00  0.00     0.174 C 
BRANCH  25  26
ATOM     26  C   UNL     1     -10.135   5.974  -6.482  1.00  0.00     0.038 C 
BRANCH  26  27
ATOM     27  C   UNL     1     -11.638   5.785  -6.783  1.00  0.00    -0.015 C 
ATOM     28  C   UNL     1     -11.900   5.413  -8.242  1.00  0.00     0.007 C 
ATOM     29  C   UNL     1     -12.327   4.797  -5.845  1.00  0.00     0.007 C 
ENDBRANCH  26  27
ENDBRANCH  25  26
BRANCH  25  30
ATOM     30  C   UNL     1      -8.662   4.284  -5.186  1.00  0.00     0.243 C 
ATOM     31  O   UNL     1      -8.602   5.059  -4.233  1.00  0.00    -0.273 OA
ATOM     32  N   UNL     1      -8.216   2.989  -5.110  1.00  0.00    -0.342 N 
ATOM     33  H   UNL     1      -8.429   2.368  -5.895  1.00  0.00     0.164 HD
BRANCH  32  34
ATOM     34  C   UNL     1      -7.611   2.419  -3.904  1.00  0.00     0.175 C 
BRANCH  34  35
ATOM     35  C   UNL     1      -8.112   0.988  -3.651  1.00  0.00     0.070 C 
BRANCH  35  36
ATOM     36  C   UNL     1      -9.106   0.524  -4.691  1.00  0.00    -0.045 A 
ATOM     37  C   UNL     1      -8.665  -0.195  -5.812  1.00  0.00     0.007 A 
ATOM     38  C   UNL     1     -10.470   0.821  -4.566  1.00  0.00     0.007 A 
ATOM     39  C   UNL     1      -9.573  -0.615  -6.785  1.00  0.00     0.046 A 
ATOM     40  C   UNL     1     -11.379   0.402  -5.539  1.00  0.00     0.046 A 
ATOM     41  C   UNL     1     -10.922  -0.315  -6.640  1.00  0.00     0.115 A 
BRANCH  41  42
ATOM     42  O   UNL     1     -11.776  -0.741  -7.614  1.00  0.00    -0.508 OA
ATOM     43  H   UNL     1     -12.660  -0.838  -7.223  1.00  0.00     0.293 HD
ENDBRANCH  41  42
ENDBRANCH  35  36
ENDBRANCH  34  35
BRANCH  34  44
ATOM     44  C   UNL     1      -6.076   2.472  -4.066  1.00  0.00     0.243 C 
ATOM     45  O   UNL     1      -5.321   1.529  -3.844  1.00  0.00    -0.273 OA
ATOM     46  N   UNL     1      -5.599   3.732  -4.363  1.00  0.00    -0.341 N 
ATOM     47  H   UNL     1      -6.255   4.507  -4.422  1.00  0.00     0.164 HD
BRANCH  46  48
ATOM     48  C   UNL     1      -4.174   4.043  -4.498  1.00  0.00     0.196 C 
BRANCH  48  49
ATOM     49  C   UNL     1      -3.804   4.353  -5.958  1.00  0.00     0.072 C 
BRANCH  49  50
ATOM     50  C   UNL     1      -2.825   3.356  -6.535  1.00  0.00    -0.045 A 
ATOM     51  C   UNL     1      -2.460   2.225  -5.791  1.00  0.00     0.007 A 
ATOM     52  C   UNL     1      -2.256   3.553  -7.799  1.00  0.00     0.007 A 
ATOM     53  C   UNL     1      -1.548   1.304  -6.307  1.00  0.00     0.046 A 
ATOM     54  C   UNL     1      -1.342   2.632  -8.316  1.00  0.00     0.046 A 
ATOM     55  C   UNL     1      -0.996   1.514  -7.565  1.00  0.00     0.115 A 
BRANCH  55  56
ATOM     56  O   UNL     1      -0.107   0.592  -8.032  1.00  0.00    -0.508 OA
ATOM     57  H   UNL     1       0.788   0.883  -7.795  1.00  0.00     0.293 HD
ENDBRANCH  55  56
ENDBRANCH  49  50
ENDBRANCH  48  49
BRANCH  48  58
ATOM     58  C   UNL     1      -3.842   5.253  -3.614  1.00  0.00     0.326 C 
ATOM     59  O   UNL     1      -4.544   6.229  -3.402  1.00  0.00    -0.250 OA
BRANCH  58  60
ATOM     60  O   UNL     1      -2.627   5.170  -3.016  1.00  0.00    -0.480 OA
ATOM     61  H   UNL     1      -2.154   4.500  -3.557  1.00  0.00     0.296 HD
ENDBRANCH  58  60
ENDBRANCH  48  58
ENDBRANCH  46  48
ENDBRANCH  34  44
ENDBRANCH  32  34
ENDBRANCH  25  30
ENDBRANCH  23  25
ENDBRANCH   2  23
TORSDOF 28
ENDMDL
MODEL 16
REMARK VINA RESULT:    -5.609      6.302     10.160
REMARK INTER + INTRA:         -19.343
REMARK INTER:                 -14.125
REMARK INTRA:                  -5.219
REMARK UNBOUND:                -5.372
REMARK SMILES CCCCCCC[C@H](N)[C@H](O)C(=O)N[C@H](C)C(=O)N(C)[C@H](CC(C)C)C(=O)N[C@@H](Cc1ccc(O)cc1)C(=O)N[C@@H](Cc1ccc(O)cc1)C(=O)O
REMARK SMILES IDX 18 1 17 2 15 3 16 4 14 5 12 6 13 7 10 9 11 10 8 12 9 13 7 16
REMARK SMILES IDX 6 17 5 18 4 19 3 20 2 21 1 22 19 23 20 24 21 25 22 26 23 27
REMARK SMILES IDX 24 28 25 29 26 30 27 31 28 32 29 34 30 35 31 36 32 37 37 38
REMARK SMILES IDX 33 39 36 40 34 41 35 42 38 44 39 45 40 46 41 48 42 49 43 50
REMARK SMILES IDX 44 51 49 52 45 53 48 54 46 55 47 56 50 58 51 59 52 60
REMARK H PARENT 14 8 11 11 9 14 9 15 28 33 35 43 40 47 47 57 52 61
ROOT
ATOM      1  O   UNL     1      -7.145   0.828  -8.823  1.00  0.00    -0.272 OA
ATOM      2  C   UNL     1      -6.446   1.497  -8.047  1.00  0.00     0.245 C 
ENDROOT
BRANCH   2   3
ATOM      3  C   UNL     1      -5.437   0.756  -7.134  1.00  0.00     0.168 C 
ATOM      4  C   UNL     1      -5.477   1.318  -5.717  1.00  0.00     0.041 C 
BRANCH   3   5
ATOM      5  N   UNL     1      -5.552  -0.694  -7.146  1.00  0.00    -0.342 N 
ATOM      6  C   UNL     1      -4.453  -1.509  -7.311  1.00  0.00     0.251 C 
ATOM      7  O   UNL     1      -3.318  -1.085  -7.500  1.00  0.00    -0.272 OA
ATOM      8  H   UNL     1      -6.448  -1.161  -7.033  1.00  0.00     0.164 HD
BRANCH   6   9
ATOM      9  C   UNL     1      -4.789  -3.000  -7.148  1.00  0.00     0.219 C 
BRANCH   9  10
ATOM     10  O   UNL     1      -3.888  -3.852  -7.866  1.00  0.00    -0.382 OA
ATOM     11  H   UNL     1      -4.350  -4.719  -7.878  1.00  0.00     0.211 HD
ENDBRANCH   9  10
BRANCH   9  12
ATOM     12  C   UNL     1      -4.899  -3.441  -5.664  1.00  0.00     0.089 C 
BRANCH  12  13
ATOM     13  N   UNL     1      -4.059  -2.538  -4.845  1.00  0.00    -0.325 NA
ATOM     14  H   UNL     1      -3.542  -3.090  -4.159  1.00  0.00     0.119 HD
ATOM     15  H   UNL     1      -4.667  -1.928  -4.294  1.00  0.00     0.119 HD
ENDBRANCH  12  13
BRANCH  12  16
ATOM     16  C   UNL     1      -6.331  -3.508  -5.081  1.00  0.00     0.022 C 
BRANCH  16  17
ATOM     17  C   UNL     1      -7.531  -3.382  -6.031  1.00  0.00     0.002 C 
BRANCH  17  18
ATOM     18  C   UNL     1      -8.509  -2.261  -5.687  1.00  0.00     0.000 C 
BRANCH  18  19
ATOM     19  C   UNL     1      -9.971  -2.718  -5.585  1.00  0.00    -0.000 C 
BRANCH  19  20
ATOM     20  C   UNL     1     -10.450  -3.051  -4.169  1.00  0.00    -0.000 C 
BRANCH  20  21
ATOM     21  C   UNL     1      -9.628  -2.359  -3.079  1.00  0.00    -0.003 C 
ATOM     22  C   UNL     1      -8.902  -3.370  -2.205  1.00  0.00     0.004 C 
ENDBRANCH  20  21
ENDBRANCH  19  20
ENDBRANCH  18  19
ENDBRANCH  17  18
ENDBRANCH  16  17
ENDBRANCH  12  16
ENDBRANCH   9  12
ENDBRANCH   6   9
ENDBRANCH   3   5
ENDBRANCH   2   3
BRANCH   2  23
ATOM     23  N   UNL     1      -6.488   2.886  -8.095  1.00  0.00    -0.332 N 
ATOM     24  C   UNL     1      -5.315   3.748  -8.099  1.00  0.00     0.147 C 
BRANCH  23  25
ATOM     25  C   UNL     1      -7.785   3.592  -8.280  1.00  0.00     0.174 C 
BRANCH  25  26
ATOM     26  C   UNL     1      -7.651   4.892  -9.107  1.00  0.00     0.038 C 
BRANCH  26  27
ATOM     27  C   UNL     1      -8.788   5.208 -10.104  1.00  0.00    -0.015 C 
ATOM     28  C   UNL     1      -8.300   6.000 -11.317  1.00  0.00     0.007 C 
ATOM     29  C   UNL     1      -9.568   3.973 -10.548  1.00  0.00     0.007 C 
ENDBRANCH  26  27
ENDBRANCH  25  26
BRANCH  25  30
ATOM     30  C   UNL     1      -8.480   3.794  -6.914  1.00  0.00     0.243 C 
ATOM     31  O   UNL     1      -7.842   3.882  -5.866  1.00  0.00    -0.273 OA
ATOM     32  N   UNL     1      -9.850   3.861  -6.949  1.00  0.00    -0.342 N 
ATOM     33  H   UNL     1     -10.297   3.922  -7.867  1.00  0.00     0.164 HD
BRANCH  32  34
ATOM     34  C   UNL     1     -10.676   4.022  -5.750  1.00  0.00     0.175 C 
BRANCH  34  35
ATOM     35  C   UNL     1     -11.373   5.391  -5.731  1.00  0.00     0.070 C 
BRANCH  35  36
ATOM     36  C   UNL     1     -11.579   5.961  -7.116  1.00  0.00    -0.045 A 
ATOM     37  C   UNL     1     -10.797   7.040  -7.554  1.00  0.00     0.007 A 
ATOM     38  C   UNL     1     -12.562   5.440  -7.969  1.00  0.00     0.007 A 
ATOM     39  C   UNL     1     -10.990   7.582  -8.826  1.00  0.00     0.046 A 
ATOM     40  C   UNL     1     -12.756   5.983  -9.241  1.00  0.00     0.046 A 
ATOM     41  C   UNL     1     -11.966   7.049  -9.659  1.00  0.00     0.115 A 
BRANCH  41  42
ATOM     42  O   UNL     1     -12.124   7.609 -10.892  1.00  0.00    -0.508 OA
ATOM     43  H   UNL     1     -13.041   7.922 -10.969  1.00  0.00     0.293 HD
ENDBRANCH  41  42
ENDBRANCH  35  36
ENDBRANCH  34  35
BRANCH  34  44
ATOM     44  C   UNL     1     -11.690   2.857  -5.706  1.00  0.00     0.243 C 
ATOM     45  O   UNL     1     -12.200   2.419  -4.679  1.00  0.00    -0.273 OA
ATOM     46  N   UNL     1     -11.881   2.250  -6.930  1.00  0.00    -0.341 N 
ATOM     47  H   UNL     1     -11.346   2.575  -7.731  1.00  0.00     0.164 HD
BRANCH  46  48
ATOM     48  C   UNL     1     -12.743   1.082  -7.124  1.00  0.00     0.196 C 
BRANCH  48  49
ATOM     49  C   UNL     1     -14.021   1.452  -7.896  1.00  0.00     0.072 C 
BRANCH  49  50
ATOM     50  C   UNL     1     -14.988   2.266  -7.066  1.00  0.00    -0.045 A 
ATOM     51  C   UNL     1     -15.452   1.763  -5.842  1.00  0.00     0.007 A 
ATOM     52  C   UNL     1     -15.447   3.512  -7.510  1.00  0.00     0.007 A 
ATOM     53  C   UNL     1     -16.355   2.498  -5.073  1.00  0.00     0.046 A 
ATOM     54  C   UNL     1     -16.352   4.248  -6.741  1.00  0.00     0.046 A 
ATOM     55  C   UNL     1     -16.797   3.735  -5.528  1.00  0.00     0.115 A 
BRANCH  55  56
ATOM     56  O   UNL     1     -17.680   4.421  -4.748  1.00  0.00    -0.508 OA
ATOM     57  H   UNL     1     -17.533   5.371  -4.883  1.00  0.00     0.293 HD
ENDBRANCH  55  56
ENDBRANCH  49  50
ENDBRANCH  48  49
BRANCH  48  58
ATOM     58  C   UNL     1     -11.965   0.011  -7.900  1.00  0.00     0.326 C 
ATOM     59  O   UNL     1     -10.759  -0.178  -7.893  1.00  0.00    -0.250 OA
BRANCH  58  60
ATOM     60  O   UNL     1     -12.757  -0.797  -8.650  1.00  0.00    -0.480 OA
ATOM     61  H   UNL     1     -12.815  -0.323  -9.507  1.00  0.00     0.296 HD
ENDBRANCH  58  60
ENDBRANCH  48  58
ENDBRANCH  46  48
ENDBRANCH  34  44
ENDBRANCH  32  34
ENDBRANCH  25  30
ENDBRANCH  23  25
ENDBRANCH   2  23
TORSDOF 28
ENDMDL
MODEL 17
REMARK VINA RESULT:    -5.598      3.305      8.875
REMARK INTER + INTRA:         -19.315
REMARK INTER:                 -13.443
REMARK INTRA:                  -5.872
REMARK UNBOUND:                -5.372
REMARK SMILES CCCCCCC[C@H](N)[C@H](O)C(=O)N[C@H](C)C(=O)N(C)[C@H](CC(C)C)C(=O)N[C@@H](Cc1ccc(O)cc1)C(=O)N[C@@H](Cc1ccc(O)cc1)C(=O)O
REMARK SMILES IDX 18 1 17 2 15 3 16 4 14 5 12 6 13 7 10 9 11 10 8 12 9 13 7 16
REMARK SMILES IDX 6 17 5 18 4 19 3 20 2 21 1 22 19 23 20 24 21 25 22 26 23 27
REMARK SMILES IDX 24 28 25 29 26 30 27 31 28 32 29 34 30 35 31 36 32 37 37 38
REMARK SMILES IDX 33 39 36 40 34 41 35 42 38 44 39 45 40 46 41 48 42 49 43 50
REMARK SMILES IDX 44 51 49 52 45 53 48 54 46 55 47 56 50 58 51 59 52 60
REMARK H PARENT 14 8 11 11 9 14 9 15 28 33 35 43 40 47 47 57 52 61
ROOT
ATOM      1  O   UNL     1      -8.324   1.306  -4.262  1.00  0.00    -0.272 OA
ATOM      2  C   UNL     1      -9.127   0.616  -4.909  1.00  0.00     0.245 C 
ENDROOT
BRANCH   2   3
ATOM      3  C   UNL     1     -10.643   0.841  -4.688  1.00  0.00     0.168 C 
ATOM      4  C   UNL     1     -11.435  -0.411  -5.048  1.00  0.00     0.041 C 
BRANCH   3   5
ATOM      5  N   UNL     1     -11.000   1.348  -3.372  1.00  0.00    -0.342 N 
ATOM      6  C   UNL     1     -11.894   2.385  -3.209  1.00  0.00     0.251 C 
ATOM      7  O   UNL     1     -12.418   2.980  -4.144  1.00  0.00    -0.272 OA
ATOM      8  H   UNL     1     -10.603   0.957  -2.521  1.00  0.00     0.164 HD
BRANCH   6   9
ATOM      9  C   UNL     1     -12.227   2.656  -1.733  1.00  0.00     0.219 C 
BRANCH   9  10
ATOM     10  O   UNL     1     -11.909   3.995  -1.331  1.00  0.00    -0.382 OA
ATOM     11  H   UNL     1     -12.388   4.100  -0.480  1.00  0.00     0.211 HD
ENDBRANCH   9  10
BRANCH   9  12
ATOM     12  C   UNL     1     -13.692   2.304  -1.364  1.00  0.00     0.089 C 
BRANCH  12  13
ATOM     13  N   UNL     1     -14.581   3.339  -1.940  1.00  0.00    -0.325 NA
ATOM     14  H   UNL     1     -14.284   4.259  -1.608  1.00  0.00     0.119 HD
ATOM     15  H   UNL     1     -15.524   3.211  -1.566  1.00  0.00     0.119 HD
ENDBRANCH  12  13
BRANCH  12  16
ATOM     16  C   UNL     1     -14.176   0.895  -1.783  1.00  0.00     0.022 C 
BRANCH  16  17
ATOM     17  C   UNL     1     -15.484   0.759  -2.575  1.00  0.00     0.002 C 
BRANCH  17  18
ATOM     18  C   UNL     1     -15.356   0.027  -3.909  1.00  0.00     0.000 C 
BRANCH  18  19
ATOM     19  C   UNL     1     -14.781  -1.391  -3.791  1.00  0.00    -0.000 C 
BRANCH  19  20
ATOM     20  C   UNL     1     -15.808  -2.485  -3.482  1.00  0.00    -0.000 C 
BRANCH  20  21
ATOM     21  C   UNL     1     -16.954  -2.534  -4.496  1.00  0.00    -0.003 C 
ATOM     22  C   UNL     1     -17.929  -3.657  -4.177  1.00  0.00     0.004 C 
ENDBRANCH  20  21
ENDBRANCH  19  20
ENDBRANCH  18  19
ENDBRANCH  17  18
ENDBRANCH  16  17
ENDBRANCH  12  16
ENDBRANCH   9  12
ENDBRANCH   6   9
ENDBRANCH   3   5
ENDBRANCH   2   3
BRANCH   2  23
ATOM     23  N   UNL     1      -8.664  -0.247  -5.897  1.00  0.00    -0.332 N 
ATOM     24  C   UNL     1      -8.843  -0.039  -7.326  1.00  0.00     0.147 C 
BRANCH  23  25
ATOM     25  C   UNL     1      -7.816  -1.416  -5.535  1.00  0.00     0.174 C 
BRANCH  25  26
ATOM     26  C   UNL     1      -7.528  -2.345  -6.737  1.00  0.00     0.038 C 
BRANCH  26  27
ATOM     27  C   UNL     1      -6.716  -3.628  -6.451  1.00  0.00    -0.015 C 
ATOM     28  C   UNL     1      -6.850  -4.666  -7.566  1.00  0.00     0.007 C 
ATOM     29  C   UNL     1      -5.245  -3.360  -6.141  1.00  0.00     0.007 C 
ENDBRANCH  26  27
ENDBRANCH  25  26
BRANCH  25  30
ATOM     30  C   UNL     1      -8.413  -2.148  -4.312  1.00  0.00     0.243 C 
ATOM     31  O   UNL     1      -9.316  -2.975  -4.426  1.00  0.00    -0.273 OA
ATOM     32  N   UNL     1      -7.874  -1.811  -3.097  1.00  0.00    -0.342 N 
ATOM     33  H   UNL     1      -7.035  -1.225  -3.097  1.00  0.00     0.164 HD
BRANCH  32  34
ATOM     34  C   UNL     1      -8.334  -2.384  -1.829  1.00  0.00     0.175 C 
BRANCH  34  35
ATOM     35  C   UNL     1      -7.151  -2.752  -0.920  1.00  0.00     0.070 C 
BRANCH  35  36
ATOM     36  C   UNL     1      -7.447  -3.933  -0.024  1.00  0.00    -0.045 A 
ATOM     37  C   UNL     1      -8.704  -4.554  -0.074  1.00  0.00     0.007 A 
ATOM     38  C   UNL     1      -6.487  -4.408   0.880  1.00  0.00     0.007 A 
ATOM     39  C   UNL     1      -8.991  -5.636   0.759  1.00  0.00     0.046 A 
ATOM     40  C   UNL     1      -6.775  -5.491   1.715  1.00  0.00     0.046 A 
ATOM     41  C   UNL     1      -8.025  -6.096   1.645  1.00  0.00     0.115 A 
BRANCH  41  42
ATOM     42  O   UNL     1      -8.347  -7.153   2.444  1.00  0.00    -0.508 OA
ATOM     43  H   UNL     1      -7.625  -7.286   3.080  1.00  0.00     0.293 HD
ENDBRANCH  41  42
ENDBRANCH  35  36
ENDBRANCH  34  35
BRANCH  34  44
ATOM     44  C   UNL     1      -9.281  -1.363  -1.158  1.00  0.00     0.243 C 
ATOM     45  O   UNL     1     -10.475  -1.250  -1.420  1.00  0.00    -0.273 OA
ATOM     46  N   UNL     1      -8.634  -0.484  -0.317  1.00  0.00    -0.341 N 
ATOM     47  H   UNL     1      -7.623  -0.544  -0.222  1.00  0.00     0.164 HD
BRANCH  46  48
ATOM     48  C   UNL     1      -9.311   0.613   0.379  1.00  0.00     0.196 C 
BRANCH  48  49
ATOM     49  C   UNL     1      -8.830   0.735   1.834  1.00  0.00     0.072 C 
BRANCH  49  50
ATOM     50  C   UNL     1      -8.797  -0.596   2.550  1.00  0.00    -0.045 A 
ATOM     51  C   UNL     1      -9.987  -1.312   2.751  1.00  0.00     0.007 A 
ATOM     52  C   UNL     1      -7.594  -1.123   3.038  1.00  0.00     0.007 A 
ATOM     53  C   UNL     1      -9.970  -2.535   3.421  1.00  0.00     0.046 A 
ATOM     54  C   UNL     1      -7.578  -2.347   3.711  1.00  0.00     0.046 A 
ATOM     55  C   UNL     1      -8.767  -3.043   3.895  1.00  0.00     0.115 A 
BRANCH  55  56
ATOM     56  O   UNL     1      -8.795  -4.241   4.547  1.00  0.00    -0.508 OA
ATOM     57  H   UNL     1      -8.910  -4.070   5.495  1.00  0.00     0.293 HD
ENDBRANCH  55  56
ENDBRANCH  49  50
ENDBRANCH  48  49
BRANCH  48  58
ATOM     58  C   UNL     1      -9.032   1.925  -0.368  1.00  0.00     0.326 C 
ATOM     59  O   UNL     1      -9.364   3.050  -0.034  1.00  0.00    -0.250 OA
BRANCH  58  60
ATOM     60  O   UNL     1      -8.322   1.756  -1.512  1.00  0.00    -0.480 OA
ATOM     61  H   UNL     1      -9.018   1.686  -2.201  1.00  0.00     0.296 HD
ENDBRANCH  58  60
ENDBRANCH  48  58
ENDBRANCH  46  48
ENDBRANCH  34  44
ENDBRANCH  32  34
ENDBRANCH  25  30
ENDBRANCH  23  25
ENDBRANCH   2  23
TORSDOF 28
ENDMDL
MODEL 18
REMARK VINA RESULT:    -5.581      5.473      9.695
REMARK INTER + INTRA:         -19.274
REMARK INTER:                 -13.257
REMARK INTRA:                  -6.017
REMARK UNBOUND:                -5.372
REMARK SMILES CCCCCCC[C@H](N)[C@H](O)C(=O)N[C@H](C)C(=O)N(C)[C@H](CC(C)C)C(=O)N[C@@H](Cc1ccc(O)cc1)C(=O)N[C@@H](Cc1ccc(O)cc1)C(=O)O
REMARK SMILES IDX 18 1 17 2 15 3 16 4 14 5 12 6 13 7 10 9 11 10 8 12 9 13 7 16
REMARK SMILES IDX 6 17 5 18 4 19 3 20 2 21 1 22 19 23 20 24 21 25 22 26 23 27
REMARK SMILES IDX 24 28 25 29 26 30 27 31 28 32 29 34 30 35 31 36 32 37 37 38
REMARK SMILES IDX 33 39 36 40 34 41 35 42 38 44 39 45 40 46 41 48 42 49 43 50
REMARK SMILES IDX 44 51 49 52 45 53 48 54 46 55 47 56 50 58 51 59 52 60
REMARK H PARENT 14 8 11 11 9 14 9 15 28 33 35 43 40 47 47 57 52 61
ROOT
ATOM      1  O   UNL     1      -5.299   2.998  -7.315  1.00  0.00    -0.272 OA
ATOM      2  C   UNL     1      -5.522   2.017  -8.039  1.00  0.00     0.245 C 
ENDROOT
BRANCH   2   3
ATOM      3  C   UNL     1      -4.456   0.895  -8.116  1.00  0.00     0.168 C 
ATOM      4  C   UNL     1      -3.057   1.486  -8.253  1.00  0.00     0.041 C 
BRANCH   3   5
ATOM      5  N   UNL     1      -4.527  -0.089  -7.048  1.00  0.00    -0.342 N 
ATOM      6  C   UNL     1      -4.545  -1.444  -7.306  1.00  0.00     0.251 C 
ATOM      7  O   UNL     1      -4.545  -1.917  -8.437  1.00  0.00    -0.272 OA
ATOM      8  H   UNL     1      -4.566   0.184  -6.069  1.00  0.00     0.164 HD
BRANCH   6   9
ATOM      9  C   UNL     1      -4.477  -2.293  -6.027  1.00  0.00     0.219 C 
BRANCH   9  10
ATOM     10  O   UNL     1      -3.609  -1.731  -5.035  1.00  0.00    -0.382 OA
ATOM     11  H   UNL     1      -3.694  -0.763  -5.176  1.00  0.00     0.211 HD
ENDBRANCH   9  10
BRANCH   9  12
ATOM     12  C   UNL     1      -5.873  -2.601  -5.425  1.00  0.00     0.089 C 
BRANCH  12  13
ATOM     13  N   UNL     1      -5.995  -1.884  -4.135  1.00  0.00    -0.325 NA
ATOM     14  H   UNL     1      -5.389  -1.061  -4.150  1.00  0.00     0.119 HD
ATOM     15  H   UNL     1      -5.621  -2.476  -3.390  1.00  0.00     0.119 HD
ENDBRANCH  12  13
BRANCH  12  16
ATOM     16  C   UNL     1      -7.087  -2.279  -6.329  1.00  0.00     0.022 C 
BRANCH  16  17
ATOM     17  C   UNL     1      -8.499  -2.621  -5.834  1.00  0.00     0.002 C 
BRANCH  17  18
ATOM     18  C   UNL     1      -9.423  -1.420  -5.642  1.00  0.00     0.000 C 
BRANCH  18  19
ATOM     19  C   UNL     1     -10.373  -1.548  -4.444  1.00  0.00    -0.000 C 
BRANCH  19  20
ATOM     20  C   UNL     1     -10.117  -2.756  -3.538  1.00  0.00    -0.000 C 
BRANCH  20  21
ATOM     21  C   UNL     1      -9.448  -2.381  -2.213  1.00  0.00    -0.003 C 
ATOM     22  C   UNL     1      -8.328  -3.348  -1.864  1.00  0.00     0.004 C 
ENDBRANCH  20  21
ENDBRANCH  19  20
ENDBRANCH  18  19
ENDBRANCH  17  18
ENDBRANCH  16  17
ENDBRANCH  12  16
ENDBRANCH   9  12
ENDBRANCH   6   9
ENDBRANCH   3   5
ENDBRANCH   2   3
BRANCH   2  23
ATOM     23  N   UNL     1      -6.757   1.880  -8.665  1.00  0.00    -0.332 N 
ATOM     24  C   UNL     1      -7.616   0.711  -8.549  1.00  0.00     0.147 C 
BRANCH  23  25
ATOM     25  C   UNL     1      -7.349   3.021  -9.416  1.00  0.00     0.174 C 
BRANCH  25  26
ATOM     26  C   UNL     1      -6.488   3.457 -10.625  1.00  0.00     0.038 C 
BRANCH  26  27
ATOM     27  C   UNL     1      -7.240   3.823 -11.924  1.00  0.00    -0.015 C 
ATOM     28  C   UNL     1      -8.579   3.097 -12.049  1.00  0.00     0.007 C 
ATOM     29  C   UNL     1      -7.424   5.326 -12.116  1.00  0.00     0.007 C 
ENDBRANCH  26  27
ENDBRANCH  25  26
BRANCH  25  30
ATOM     30  C   UNL     1      -7.690   4.176  -8.447  1.00  0.00     0.243 C 
ATOM     31  O   UNL     1      -7.334   5.333  -8.664  1.00  0.00    -0.273 OA
ATOM     32  N   UNL     1      -8.409   3.824  -7.334  1.00  0.00    -0.342 N 
ATOM     33  H   UNL     1      -8.788   2.874  -7.296  1.00  0.00     0.164 HD
BRANCH  32  34
ATOM     34  C   UNL     1      -8.798   4.781  -6.295  1.00  0.00     0.175 C 
BRANCH  34  35
ATOM     35  C   UNL     1     -10.320   4.986  -6.266  1.00  0.00     0.070 C 
BRANCH  35  36
ATOM     36  C   UNL     1     -10.838   5.694  -7.498  1.00  0.00    -0.045 A 
ATOM     37  C   UNL     1     -11.649   5.007  -8.414  1.00  0.00     0.007 A 
ATOM     38  C   UNL     1     -10.501   7.030  -7.754  1.00  0.00     0.007 A 
ATOM     39  C   UNL     1     -12.120   5.648  -9.560  1.00  0.00     0.046 A 
ATOM     40  C   UNL     1     -10.972   7.672  -8.902  1.00  0.00     0.046 A 
ATOM     41  C   UNL     1     -11.779   6.974  -9.795  1.00  0.00     0.115 A 
BRANCH  41  42
ATOM     42  O   UNL     1     -12.257   7.562 -10.928  1.00  0.00    -0.508 OA
ATOM     43  H   UNL     1     -11.741   8.368 -11.094  1.00  0.00     0.293 HD
ENDBRANCH  41  42
ENDBRANCH  35  36
ENDBRANCH  34  35
BRANCH  34  44
ATOM     44  C   UNL     1      -8.259   4.264  -4.942  1.00  0.00     0.243 C 
ATOM     45  O   UNL     1      -8.326   4.886  -3.885  1.00  0.00    -0.273 OA
ATOM     46  N   UNL     1      -7.567   3.076  -5.044  1.00  0.00    -0.341 N 
ATOM     47  H   UNL     1      -7.439   2.657  -5.962  1.00  0.00     0.164 HD
BRANCH  46  48
ATOM     48  C   UNL     1      -6.908   2.426  -3.909  1.00  0.00     0.196 C 
BRANCH  48  49
ATOM     49  C   UNL     1      -7.651   1.147  -3.487  1.00  0.00     0.072 C 
BRANCH  49  50
ATOM     50  C   UNL     1      -7.843   1.053  -1.990  1.00  0.00    -0.045 A 
ATOM     51  C   UNL     1      -6.967   0.272  -1.221  1.00  0.00     0.007 A 
ATOM     52  C   UNL     1      -8.900   1.718  -1.356  1.00  0.00     0.007 A 
ATOM     53  C   UNL     1      -7.143   0.167   0.159  1.00  0.00     0.046 A 
ATOM     54  C   UNL     1      -9.076   1.612   0.026  1.00  0.00     0.046 A 
ATOM     55  C   UNL     1      -8.194   0.837   0.772  1.00  0.00     0.115 A 
BRANCH  55  56
ATOM     56  O   UNL     1      -8.332   0.707   2.122  1.00  0.00    -0.508 OA
ATOM     57  H   UNL     1      -8.486   1.587   2.500  1.00  0.00     0.293 HD
ENDBRANCH  55  56
ENDBRANCH  49  50
ENDBRANCH  48  49
BRANCH  48  58
ATOM     58  C   UNL     1      -5.466   2.078  -4.301  1.00  0.00     0.326 C 
ATOM     59  O   UNL     1      -4.999   0.967  -4.492  1.00  0.00    -0.250 OA
BRANCH  58  60
ATOM     60  O   UNL     1      -4.669   3.166  -4.452  1.00  0.00    -0.480 OA
ATOM     61  H   UNL     1      -4.844   3.689  -3.639  1.00  0.00     0.296 HD
ENDBRANCH  58  60
ENDBRANCH  48  58
ENDBRANCH  46  48
ENDBRANCH  34  44
ENDBRANCH  32  34
ENDBRANCH  25  30
ENDBRANCH  23  25
ENDBRANCH   2  23
TORSDOF 28
ENDMDL
MODEL 19
REMARK VINA RESULT:    -5.557      8.899     13.498
REMARK INTER + INTRA:         -19.214
REMARK INTER:                 -13.881
REMARK INTRA:                  -5.333
REMARK UNBOUND:                -5.372
REMARK SMILES CCCCCCC[C@H](N)[C@H](O)C(=O)N[C@H](C)C(=O)N(C)[C@H](CC(C)C)C(=O)N[C@@H](Cc1ccc(O)cc1)C(=O)N[C@@H](Cc1ccc(O)cc1)C(=O)O
REMARK SMILES IDX 18 1 17 2 15 3 16 4 14 5 12 6 13 7 10 9 11 10 8 12 9 13 7 16
REMARK SMILES IDX 6 17 5 18 4 19 3 20 2 21 1 22 19 23 20 24 21 25 22 26 23 27
REMARK SMILES IDX 24 28 25 29 26 30 27 31 28 32 29 34 30 35 31 36 32 37 37 38
REMARK SMILES IDX 33 39 36 40 34 41 35 42 38 44 39 45 40 46 41 48 42 49 43 50
REMARK SMILES IDX 44 51 49 52 45 53 48 54 46 55 47 56 50 58 51 59 52 60
REMARK H PARENT 14 8 11 11 9 14 9 15 28 33 35 43 40 47 47 57 52 61
ROOT
ATOM      1  O   UNL     1     -14.785   2.306  -2.123  1.00  0.00    -0.272 OA
ATOM      2  C   UNL     1     -15.452   1.466  -2.747  1.00  0.00     0.245 C 
ENDROOT
BRANCH   2   3
ATOM      3  C   UNL     1     -16.990   1.461  -2.569  1.00  0.00     0.168 C 
ATOM      4  C   UNL     1     -17.373   1.877  -1.153  1.00  0.00     0.041 C 
BRANCH   3   5
ATOM      5  N   UNL     1     -17.724   2.216  -3.573  1.00  0.00    -0.342 N 
ATOM      6  C   UNL     1     -18.988   1.846  -3.982  1.00  0.00     0.251 C 
ATOM      7  O   UNL     1     -19.566   0.846  -3.572  1.00  0.00    -0.272 OA
ATOM      8  H   UNL     1     -17.333   3.046  -4.012  1.00  0.00     0.164 HD
BRANCH   6   9
ATOM      9  C   UNL     1     -19.624   2.866  -4.940  1.00  0.00     0.219 C 
BRANCH   9  10
ATOM     10  O   UNL     1     -20.787   2.352  -5.602  1.00  0.00    -0.382 OA
ATOM     11  H   UNL     1     -21.526   2.850  -5.190  1.00  0.00     0.211 HD
ENDBRANCH   9  10
BRANCH   9  12
ATOM     12  C   UNL     1     -19.933   4.227  -4.263  1.00  0.00     0.089 C 
BRANCH  12  13
ATOM     13  N   UNL     1     -19.902   4.036  -2.795  1.00  0.00    -0.325 NA
ATOM     14  H   UNL     1     -20.071   3.052  -2.580  1.00  0.00     0.119 HD
ATOM     15  H   UNL     1     -20.689   4.539  -2.379  1.00  0.00     0.119 HD
ENDBRANCH  12  13
BRANCH  12  16
ATOM     16  C   UNL     1     -19.017   5.408  -4.665  1.00  0.00     0.022 C 
BRANCH  16  17
ATOM     17  C   UNL     1     -19.656   6.720  -5.142  1.00  0.00     0.002 C 
BRANCH  17  18
ATOM     18  C   UNL     1     -19.721   6.891  -6.658  1.00  0.00     0.000 C 
BRANCH  18  19
ATOM     19  C   UNL     1     -19.201   5.682  -7.446  1.00  0.00    -0.000 C 
BRANCH  19  20
ATOM     20  C   UNL     1     -18.624   6.005  -8.827  1.00  0.00    -0.000 C 
BRANCH  20  21
ATOM     21  C   UNL     1     -19.547   5.589  -9.975  1.00  0.00    -0.003 C 
ATOM     22  C   UNL     1     -18.859   5.743 -11.323  1.00  0.00     0.004 C 
ENDBRANCH  20  21
ENDBRANCH  19  20
ENDBRANCH  18  19
ENDBRANCH  17  18
ENDBRANCH  16  17
ENDBRANCH  12  16
ENDBRANCH   9  12
ENDBRANCH   6   9
ENDBRANCH   3   5
ENDBRANCH   2   3
BRANCH   2  23
ATOM     23  N   UNL     1     -14.832   0.636  -3.675  1.00  0.00    -0.332 N 
ATOM     24  C   UNL     1     -13.603  -0.104  -3.429  1.00  0.00     0.147 C 
BRANCH  23  25
ATOM     25  C   UNL     1     -15.486   0.349  -4.981  1.00  0.00     0.174 C 
BRANCH  25  26
ATOM     26  C   UNL     1     -15.822  -1.149  -5.170  1.00  0.00     0.038 C 
BRANCH  26  27
ATOM     27  C   UNL     1     -17.086  -1.678  -4.456  1.00  0.00    -0.015 C 
ATOM     28  C   UNL     1     -17.989  -2.485  -5.388  1.00  0.00     0.007 C 
ATOM     29  C   UNL     1     -16.780  -2.470  -3.187  1.00  0.00     0.007 C 
ENDBRANCH  26  27
ENDBRANCH  25  26
BRANCH  25  30
ATOM     30  C   UNL     1     -14.653   0.950  -6.137  1.00  0.00     0.243 C 
ATOM     31  O   UNL     1     -14.319   0.281  -7.113  1.00  0.00    -0.273 OA
ATOM     32  N   UNL     1     -14.308   2.270  -5.996  1.00  0.00    -0.342 N 
ATOM     33  H   UNL     1     -14.740   2.793  -5.230  1.00  0.00     0.164 HD
BRANCH  32  34
ATOM     34  C   UNL     1     -13.499   2.996  -6.978  1.00  0.00     0.175 C 
BRANCH  34  35
ATOM     35  C   UNL     1     -13.948   4.461  -7.098  1.00  0.00     0.070 C 
BRANCH  35  36
ATOM     36  C   UNL     1     -14.335   4.840  -8.510  1.00  0.00    -0.045 A 
ATOM     37  C   UNL     1     -14.882   6.105  -8.771  1.00  0.00     0.007 A 
ATOM     38  C   UNL     1     -14.176   3.935  -9.567  1.00  0.00     0.007 A 
ATOM     39  C   UNL     1     -15.255   6.460 -10.068  1.00  0.00     0.046 A 
ATOM     40  C   UNL     1     -14.550   4.288 -10.865  1.00  0.00     0.046 A 
ATOM     41  C   UNL     1     -15.085   5.549 -11.104  1.00  0.00     0.115 A 
BRANCH  41  42
ATOM     42  O   UNL     1     -15.465   5.933 -12.356  1.00  0.00    -0.508 OA
ATOM     43  H   UNL     1     -15.511   5.141 -12.917  1.00  0.00     0.293 HD
ENDBRANCH  41  42
ENDBRANCH  35  36
ENDBRANCH  34  35
BRANCH  34  44
ATOM     44  C   UNL     1     -12.017   2.879  -6.558  1.00  0.00     0.243 C 
ATOM     45  O   UNL     1     -11.460   1.825  -6.265  1.00  0.00    -0.273 OA
ATOM     46  N   UNL     1     -11.390   4.098  -6.410  1.00  0.00    -0.341 N 
ATOM     47  H   UNL     1     -11.927   4.950  -6.551  1.00  0.00     0.164 HD
BRANCH  46  48
ATOM     48  C   UNL     1     -10.006   4.243  -5.955  1.00  0.00     0.196 C 
BRANCH  48  49
ATOM     49  C   UNL     1      -9.144   4.968  -7.002  1.00  0.00     0.072 C 
BRANCH  49  50
ATOM     50  C   UNL     1      -9.974   5.660  -8.060  1.00  0.00    -0.045 A 
ATOM     51  C   UNL     1     -10.190   5.036  -9.297  1.00  0.00     0.007 A 
ATOM     52  C   UNL     1     -10.517   6.931  -7.833  1.00  0.00     0.007 A 
ATOM     53  C   UNL     1     -10.943   5.670 -10.286  1.00  0.00     0.046 A 
ATOM     54  C   UNL     1     -11.270   7.566  -8.823  1.00  0.00     0.046 A 
ATOM     55  C   UNL     1     -11.477   6.929 -10.042  1.00  0.00     0.115 A 
BRANCH  55  56
ATOM     56  O   UNL     1     -12.205   7.515 -11.034  1.00  0.00    -0.508 OA
ATOM     57  H   UNL     1     -12.180   8.477 -10.905  1.00  0.00     0.293 HD
ENDBRANCH  55  56
ENDBRANCH  49  50
ENDBRANCH  48  49
BRANCH  48  58
ATOM     58  C   UNL     1      -9.993   5.035  -4.640  1.00  0.00     0.326 C 
ATOM     59  O   UNL     1      -9.056   5.176  -3.871  1.00  0.00    -0.250 OA
BRANCH  58  60
ATOM     60  O   UNL     1     -11.177   5.636  -4.359  1.00  0.00    -0.480 OA
ATOM     61  H   UNL     1     -11.532   5.099  -3.617  1.00  0.00     0.296 HD
ENDBRANCH  58  60
ENDBRANCH  48  58
ENDBRANCH  46  48
ENDBRANCH  34  44
ENDBRANCH  32  34
ENDBRANCH  25  30
ENDBRANCH  23  25
ENDBRANCH   2  23
TORSDOF 28
ENDMDL
MODEL 20
REMARK VINA RESULT:    -5.553      3.440      9.765
REMARK INTER + INTRA:         -19.204
REMARK INTER:                 -14.062
REMARK INTRA:                  -5.142
REMARK UNBOUND:                -5.372
REMARK SMILES CCCCCCC[C@H](N)[C@H](O)C(=O)N[C@H](C)C(=O)N(C)[C@H](CC(C)C)C(=O)N[C@@H](Cc1ccc(O)cc1)C(=O)N[C@@H](Cc1ccc(O)cc1)C(=O)O
REMARK SMILES IDX 18 1 17 2 15 3 16 4 14 5 12 6 13 7 10 9 11 10 8 12 9 13 7 16
REMARK SMILES IDX 6 17 5 18 4 19 3 20 2 21 1 22 19 23 20 24 21 25 22 26 23 27
REMARK SMILES IDX 24 28 25 29 26 30 27 31 28 32 29 34 30 35 31 36 32 37 37 38
REMARK SMILES IDX 33 39 36 40 34 41 35 42 38 44 39 45 40 46 41 48 42 49 43 50
REMARK SMILES IDX 44 51 49 52 45 53 48 54 46 55 47 56 50 58 51 59 52 60
REMARK H PARENT 14 8 11 11 9 14 9 15 28 33 35 43 40 47 47 57 52 61
ROOT
ATOM      1  O   UNL     1      -9.114   2.444  -1.439  1.00  0.00    -0.272 OA
ATOM      2  C   UNL     1      -9.754   1.893  -0.531  1.00  0.00     0.245 C 
ENDROOT
BRANCH   2   3
ATOM      3  C   UNL     1     -11.266   1.629  -0.744  1.00  0.00     0.168 C 
ATOM      4  C   UNL     1     -12.074   2.107   0.457  1.00  0.00     0.041 C 
BRANCH   3   5
ATOM      5  N   UNL     1     -11.804   2.138  -1.996  1.00  0.00    -0.342 N 
ATOM      6  C   UNL     1     -12.306   1.299  -2.968  1.00  0.00     0.251 C 
ATOM      7  O   UNL     1     -12.301   0.076  -2.873  1.00  0.00    -0.272 OA
ATOM      8  H   UNL     1     -11.829   3.134  -2.203  1.00  0.00     0.164 HD
BRANCH   6   9
ATOM      9  C   UNL     1     -12.949   2.061  -4.138  1.00  0.00     0.219 C 
BRANCH   9  10
ATOM     10  O   UNL     1     -12.911   1.323  -5.365  1.00  0.00    -0.382 OA
ATOM     11  H   UNL     1     -13.860   1.185  -5.581  1.00  0.00     0.211 HD
ENDBRANCH   9  10
BRANCH   9  12
ATOM     12  C   UNL     1     -14.390   2.545  -3.830  1.00  0.00     0.089 C 
BRANCH  12  13
ATOM     13  N   UNL     1     -14.858   1.868  -2.600  1.00  0.00    -0.325 NA
ATOM     14  H   UNL     1     -14.113   1.888  -1.901  1.00  0.00     0.119 HD
ATOM     15  H   UNL     1     -15.007   0.877  -2.803  1.00  0.00     0.119 HD
ENDBRANCH  12  13
BRANCH  12  16
ATOM     16  C   UNL     1     -14.578   4.076  -3.699  1.00  0.00     0.022 C 
BRANCH  16  17
ATOM     17  C   UNL     1     -14.118   4.777  -2.414  1.00  0.00     0.002 C 
BRANCH  17  18
ATOM     18  C   UNL     1     -15.052   5.874  -1.908  1.00  0.00     0.000 C 
BRANCH  18  19
ATOM     19  C   UNL     1     -15.378   5.777  -0.412  1.00  0.00    -0.000 C 
BRANCH  19  20
ATOM     20  C   UNL     1     -14.178   5.497   0.498  1.00  0.00    -0.000 C 
BRANCH  20  21
ATOM     21  C   UNL     1     -14.035   6.516   1.632  1.00  0.00    -0.003 C 
ATOM     22  C   UNL     1     -14.258   5.869   2.990  1.00  0.00     0.004 C 
ENDBRANCH  20  21
ENDBRANCH  19  20
ENDBRANCH  18  19
ENDBRANCH  17  18
ENDBRANCH  16  17
ENDBRANCH  12  16
ENDBRANCH   9  12
ENDBRANCH   6   9
ENDBRANCH   3   5
ENDBRANCH   2   3
BRANCH   2  23
ATOM     23  N   UNL     1      -9.093   1.416   0.596  1.00  0.00    -0.332 N 
ATOM     24  C   UNL     1      -8.603   2.252   1.682  1.00  0.00     0.147 C 
BRANCH  23  25
ATOM     25  C   UNL     1      -8.955  -0.049   0.822  1.00  0.00     0.174 C 
BRANCH  25  26
ATOM     26  C   UNL     1      -8.735  -0.411   2.309  1.00  0.00     0.038 C 
BRANCH  26  27
ATOM     27  C   UNL     1      -8.393  -1.884   2.628  1.00  0.00    -0.015 C 
ATOM     28  C   UNL     1      -7.159  -2.016   3.521  1.00  0.00     0.007 C 
ATOM     29  C   UNL     1      -9.565  -2.667   3.213  1.00  0.00     0.007 C 
ENDBRANCH  26  27
ENDBRANCH  25  26
BRANCH  25  30
ATOM     30  C   UNL     1      -7.882  -0.635  -0.125  1.00  0.00     0.243 C 
ATOM     31  O   UNL     1      -6.710  -0.266  -0.087  1.00  0.00    -0.273 OA
ATOM     32  N   UNL     1      -8.327  -1.584  -1.010  1.00  0.00    -0.342 N 
ATOM     33  H   UNL     1      -9.278  -1.939  -0.886  1.00  0.00     0.164 HD
BRANCH  32  34
ATOM     34  C   UNL     1      -7.457  -2.228  -1.999  1.00  0.00     0.175 C 
BRANCH  34  35
ATOM     35  C   UNL     1      -7.694  -3.745  -2.047  1.00  0.00     0.070 C 
BRANCH  35  36
ATOM     36  C   UNL     1      -7.571  -4.399  -0.690  1.00  0.00    -0.045 A 
ATOM     37  C   UNL     1      -6.356  -4.343   0.010  1.00  0.00     0.007 A 
ATOM     38  C   UNL     1      -8.652  -5.087  -0.123  1.00  0.00     0.007 A 
ATOM     39  C   UNL     1      -6.229  -4.955   1.257  1.00  0.00     0.046 A 
ATOM     40  C   UNL     1      -8.525  -5.702   1.125  1.00  0.00     0.046 A 
ATOM     41  C   UNL     1      -7.314  -5.629   1.805  1.00  0.00     0.115 A 
BRANCH  41  42
ATOM     42  O   UNL     1      -7.147  -6.216   3.024  1.00  0.00    -0.508 OA
ATOM     43  H   UNL     1      -6.379  -5.808   3.457  1.00  0.00     0.293 HD
ENDBRANCH  41  42
ENDBRANCH  35  36
ENDBRANCH  34  35
BRANCH  34  44
ATOM     44  C   UNL     1      -7.714  -1.559  -3.368  1.00  0.00     0.243 C 
ATOM     45  O   UNL     1      -7.668  -0.349  -3.569  1.00  0.00    -0.273 OA
ATOM     46  N   UNL     1      -8.135  -2.443  -4.340  1.00  0.00    -0.341 N 
ATOM     47  H   UNL     1      -8.270  -3.420  -4.093  1.00  0.00     0.164 HD
BRANCH  46  48
ATOM     48  C   UNL     1      -8.503  -2.033  -5.697  1.00  0.00     0.196 C 
BRANCH  48  49
ATOM     49  C   UNL     1      -8.111  -3.102  -6.731  1.00  0.00     0.072 C 
BRANCH  49  50
ATOM     50  C   UNL     1      -6.732  -2.875  -7.308  1.00  0.00    -0.045 A 
ATOM     51  C   UNL     1      -6.076  -3.916  -7.981  1.00  0.00     0.007 A 
ATOM     52  C   UNL     1      -6.085  -1.641  -7.165  1.00  0.00     0.007 A 
ATOM     53  C   UNL     1      -4.799  -3.723  -8.507  1.00  0.00     0.046 A 
ATOM     54  C   UNL     1      -4.805  -1.448  -7.690  1.00  0.00     0.046 A 
ATOM     55  C   UNL     1      -4.173  -2.491  -8.358  1.00  0.00     0.115 A 
BRANCH  55  56
ATOM     56  O   UNL     1      -2.924  -2.343  -8.884  1.00  0.00    -0.508 OA
ATOM     57  H   UNL     1      -2.299  -2.209  -8.155  1.00  0.00     0.293 HD
ENDBRANCH  55  56
ENDBRANCH  49  50
ENDBRANCH  48  49
BRANCH  48  58
ATOM     58  C   UNL     1     -10.018  -1.795  -5.752  1.00  0.00     0.326 C 
ATOM     59  O   UNL     1     -10.846  -2.442  -6.373  1.00  0.00    -0.250 OA
BRANCH  58  60
ATOM     60  O   UNL     1     -10.429  -0.743  -4.999  1.00  0.00    -0.480 OA
ATOM     61  H   UNL     1     -10.831  -1.172  -4.213  1.00  0.00     0.296 HD
ENDBRANCH  58  60
ENDBRANCH  48  58
ENDBRANCH  46  48
ENDBRANCH  34  44
ENDBRANCH  32  34
ENDBRANCH  25  30
ENDBRANCH  23  25
ENDBRANCH   2  23
TORSDOF 28
ENDMDL
MODEL 21
REMARK VINA RESULT:    -5.551      7.258     12.727
REMARK INTER + INTRA:         -19.198
REMARK INTER:                 -14.522
REMARK INTRA:                  -4.675
REMARK UNBOUND:                -5.372
REMARK SMILES CCCCCCC[C@H](N)[C@H](O)C(=O)N[C@H](C)C(=O)N(C)[C@H](CC(C)C)C(=O)N[C@@H](Cc1ccc(O)cc1)C(=O)N[C@@H](Cc1ccc(O)cc1)C(=O)O
REMARK SMILES IDX 18 1 17 2 15 3 16 4 14 5 12 6 13 7 10 9 11 10 8 12 9 13 7 16
REMARK SMILES IDX 6 17 5 18 4 19 3 20 2 21 1 22 19 23 20 24 21 25 22 26 23 27
REMARK SMILES IDX 24 28 25 29 26 30 27 31 28 32 29 34 30 35 31 36 32 37 37 38
REMARK SMILES IDX 33 39 36 40 34 41 35 42 38 44 39 45 40 46 41 48 42 49 43 50
REMARK SMILES IDX 44 51 49 52 45 53 48 54 46 55 47 56 50 58 51 59 52 60
REMARK H PARENT 14 8 11 11 9 14 9 15 28 33 35 43 40 47 47 57 52 61
ROOT
ATOM      1  O   UNL     1     -10.121  -0.660  -7.243  1.00  0.00    -0.272 OA
ATOM      2  C   UNL     1      -9.363   0.321  -7.274  1.00  0.00     0.245 C 
ENDROOT
BRANCH   2   3
ATOM      3  C   UNL     1      -9.950   1.698  -7.671  1.00  0.00     0.168 C 
ATOM      4  C   UNL     1     -10.982   1.547  -8.783  1.00  0.00     0.041 C 
BRANCH   3   5
ATOM      5  N   UNL     1     -10.461   2.487  -6.561  1.00  0.00    -0.342 N 
ATOM      6  C   UNL     1      -9.687   3.433  -5.923  1.00  0.00     0.251 C 
ATOM      7  O   UNL     1      -8.514   3.650  -6.207  1.00  0.00    -0.272 OA
ATOM      8  H   UNL     1     -11.410   2.371  -6.213  1.00  0.00     0.164 HD
BRANCH   6   9
ATOM      9  C   UNL     1     -10.475   4.241  -4.879  1.00  0.00     0.219 C 
BRANCH   9  10
ATOM     10  O   UNL     1      -9.785   4.350  -3.628  1.00  0.00    -0.382 OA
ATOM     11  H   UNL     1      -9.535   3.423  -3.421  1.00  0.00     0.211 HD
ENDBRANCH   9  10
BRANCH   9  12
ATOM     12  C   UNL     1     -10.909   5.639  -5.393  1.00  0.00     0.089 C 
BRANCH  12  13
ATOM     13  N   UNL     1      -9.695   6.391  -5.783  1.00  0.00    -0.325 NA
ATOM     14  H   UNL     1      -9.577   7.188  -5.156  1.00  0.00     0.119 HD
ATOM     15  H   UNL     1      -9.841   6.799  -6.709  1.00  0.00     0.119 HD
ENDBRANCH  12  13
BRANCH  12  16
ATOM     16  C   UNL     1     -11.935   5.647  -6.551  1.00  0.00     0.022 C 
BRANCH  16  17
ATOM     17  C   UNL     1     -11.565   6.336  -7.872  1.00  0.00     0.002 C 
BRANCH  17  18
ATOM     18  C   UNL     1     -10.966   5.415  -8.933  1.00  0.00     0.000 C 
BRANCH  18  19
ATOM     19  C   UNL     1      -9.596   5.870  -9.454  1.00  0.00    -0.000 C 
BRANCH  19  20
ATOM     20  C   UNL     1      -8.527   4.775  -9.515  1.00  0.00    -0.000 C 
BRANCH  20  21
ATOM     21  C   UNL     1      -8.328   4.210 -10.924  1.00  0.00    -0.003 C 
ATOM     22  C   UNL     1      -7.560   5.180 -11.807  1.00  0.00     0.004 C 
ENDBRANCH  20  21
ENDBRANCH  19  20
ENDBRANCH  18  19
ENDBRANCH  17  18
ENDBRANCH  16  17
ENDBRANCH  12  16
ENDBRANCH   9  12
ENDBRANCH   6   9
ENDBRANCH   3   5
ENDBRANCH   2   3
BRANCH   2  23
ATOM     23  N   UNL     1      -8.047   0.197  -6.841  1.00  0.00    -0.332 N 
ATOM     24  C   UNL     1      -7.628   0.248  -5.448  1.00  0.00     0.147 C 
BRANCH  23  25
ATOM     25  C   UNL     1      -6.966  -0.133  -7.809  1.00  0.00     0.174 C 
BRANCH  25  26
ATOM     26  C   UNL     1      -6.167  -1.397  -7.412  1.00  0.00     0.038 C 
BRANCH  26  27
ATOM     27  C   UNL     1      -6.853  -2.761  -7.650  1.00  0.00    -0.015 C 
ATOM     28  C   UNL     1      -5.930  -3.767  -8.338  1.00  0.00     0.007 C 
ATOM     29  C   UNL     1      -7.458  -3.365  -6.385  1.00  0.00     0.007 C 
ENDBRANCH  26  27
ENDBRANCH  25  26
BRANCH  25  30
ATOM     30  C   UNL     1      -6.079   1.109  -8.061  1.00  0.00     0.243 C 
ATOM     31  O   UNL     1      -6.545   2.163  -8.490  1.00  0.00    -0.273 OA
ATOM     32  N   UNL     1      -4.746   0.952  -7.780  1.00  0.00    -0.342 N 
ATOM     33  H   UNL     1      -4.461   0.098  -7.295  1.00  0.00     0.164 HD
BRANCH  32  34
ATOM     34  C   UNL     1      -3.755   2.012  -7.983  1.00  0.00     0.175 C 
BRANCH  34  35
ATOM     35  C   UNL     1      -2.934   2.261  -6.709  1.00  0.00     0.070 C 
BRANCH  35  36
ATOM     36  C   UNL     1      -3.407   3.470  -5.935  1.00  0.00    -0.045 A 
ATOM     37  C   UNL     1      -3.291   3.499  -4.537  1.00  0.00     0.007 A 
ATOM     38  C   UNL     1      -3.986   4.564  -6.593  1.00  0.00     0.007 A 
ATOM     39  C   UNL     1      -3.737   4.604  -3.813  1.00  0.00     0.046 A 
ATOM     40  C   UNL     1      -4.434   5.671  -5.868  1.00  0.00     0.046 A 
ATOM     41  C   UNL     1      -4.304   5.681  -4.484  1.00  0.00     0.115 A 
BRANCH  41  42
ATOM     42  O   UNL     1      -4.731   6.741  -3.739  1.00  0.00    -0.508 OA
ATOM     43  H   UNL     1      -4.930   7.476  -4.342  1.00  0.00     0.293 HD
ENDBRANCH  41  42
ENDBRANCH  35  36
ENDBRANCH  34  35
BRANCH  34  44
ATOM     44  C   UNL     1      -2.860   1.608  -9.177  1.00  0.00     0.243 C 
ATOM     45  O   UNL     1      -3.059   1.949 -10.340  1.00  0.00    -0.273 OA
ATOM     46  N   UNL     1      -1.871   0.708  -8.841  1.00  0.00    -0.341 N 
ATOM     47  H   UNL     1      -1.819   0.365  -7.885  1.00  0.00     0.164 HD
BRANCH  46  48
ATOM     48  C   UNL     1      -0.943   0.130  -9.816  1.00  0.00     0.196 C 
BRANCH  48  49
ATOM     49  C   UNL     1       0.511   0.217  -9.325  1.00  0.00     0.072 C 
BRANCH  49  50
ATOM     50  C   UNL     1       1.079   1.614  -9.431  1.00  0.00    -0.045 A 
ATOM     51  C   UNL     1       0.900   2.354 -10.609  1.00  0.00     0.007 A 
ATOM     52  C   UNL     1       1.803   2.180  -8.374  1.00  0.00     0.007 A 
ATOM     53  C   UNL     1       1.430   3.639 -10.724  1.00  0.00     0.046 A 
ATOM     54  C   UNL     1       2.335   3.466  -8.489  1.00  0.00     0.046 A 
ATOM     55  C   UNL     1       2.143   4.186  -9.664  1.00  0.00     0.115 A 
BRANCH  55  56
ATOM     56  O   UNL     1       2.647   5.443  -9.816  1.00  0.00    -0.508 OA
ATOM     57  H   UNL     1       3.615   5.388  -9.808  1.00  0.00     0.293 HD
ENDBRANCH  55  56
ENDBRANCH  49  50
ENDBRANCH  48  49
BRANCH  48  58
ATOM     58  C   UNL     1      -1.320  -1.339 -10.053  1.00  0.00     0.326 C 
ATOM     59  O   UNL     1      -1.804  -2.117  -9.247  1.00  0.00    -0.250 OA
BRANCH  58  60
ATOM     60  O   UNL     1      -1.079  -1.763 -11.319  1.00  0.00    -0.480 OA
ATOM     61  H   UNL     1      -0.735  -2.673 -11.191  1.00  0.00     0.296 HD
ENDBRANCH  58  60
ENDBRANCH  48  58
ENDBRANCH  46  48
ENDBRANCH  34  44
ENDBRANCH  32  34
ENDBRANCH  25  30
ENDBRANCH  23  25
ENDBRANCH   2  23
TORSDOF 28
ENDMDL
MODEL 22
REMARK VINA RESULT:    -5.535      6.543     11.660
REMARK INTER + INTRA:         -19.158
REMARK INTER:                 -12.530
REMARK INTRA:                  -6.629
REMARK UNBOUND:                -5.372
REMARK SMILES CCCCCCC[C@H](N)[C@H](O)C(=O)N[C@H](C)C(=O)N(C)[C@H](CC(C)C)C(=O)N[C@@H](Cc1ccc(O)cc1)C(=O)N[C@@H](Cc1ccc(O)cc1)C(=O)O
REMARK SMILES IDX 18 1 17 2 15 3 16 4 14 5 12 6 13 7 10 9 11 10 8 12 9 13 7 16
REMARK SMILES IDX 6 17 5 18 4 19 3 20 2 21 1 22 19 23 20 24 21 25 22 26 23 27
REMARK SMILES IDX 24 28 25 29 26 30 27 31 28 32 29 34 30 35 31 36 32 37 37 38
REMARK SMILES IDX 33 39 36 40 34 41 35 42 38 44 39 45 40 46 41 48 42 49 43 50
REMARK SMILES IDX 44 51 49 52 45 53 48 54 46 55 47 56 50 58 51 59 52 60
REMARK H PARENT 14 8 11 11 9 14 9 15 28 33 35 43 40 47 47 57 52 61
ROOT
ATOM      1  O   UNL     1     -16.077  -3.735   4.057  1.00  0.00    -0.272 OA
ATOM      2  C   UNL     1     -17.085  -3.045   4.271  1.00  0.00     0.245 C 
ENDROOT
BRANCH   2   3
ATOM      3  C   UNL     1     -17.144  -2.202   5.569  1.00  0.00     0.168 C 
ATOM      4  C   UNL     1     -17.028  -3.094   6.800  1.00  0.00     0.041 C 
BRANCH   3   5
ATOM      5  N   UNL     1     -16.210  -1.088   5.616  1.00  0.00    -0.342 N 
ATOM      6  C   UNL     1     -16.502   0.079   6.290  1.00  0.00     0.251 C 
ATOM      7  O   UNL     1     -17.570   0.284   6.857  1.00  0.00    -0.272 OA
ATOM      8  H   UNL     1     -15.304  -1.127   5.154  1.00  0.00     0.164 HD
BRANCH   6   9
ATOM      9  C   UNL     1     -15.316   1.057   6.327  1.00  0.00     0.219 C 
BRANCH   9  10
ATOM     10  O   UNL     1     -14.049   0.392   6.254  1.00  0.00    -0.382 OA
ATOM     11  H   UNL     1     -14.282  -0.559   6.336  1.00  0.00     0.211 HD
ENDBRANCH   9  10
BRANCH   9  12
ATOM     12  C   UNL     1     -15.415   2.174   5.256  1.00  0.00     0.089 C 
BRANCH  12  13
ATOM     13  N   UNL     1     -16.741   2.080   4.603  1.00  0.00    -0.325 NA
ATOM     14  H   UNL     1     -17.377   1.560   5.209  1.00  0.00     0.119 HD
ATOM     15  H   UNL     1     -16.654   1.512   3.757  1.00  0.00     0.119 HD
ENDBRANCH  12  13
BRANCH  12  16
ATOM     16  C   UNL     1     -15.170   3.618   5.757  1.00  0.00     0.022 C 
BRANCH  16  17
ATOM     17  C   UNL     1     -13.915   4.368   5.291  1.00  0.00     0.002 C 
BRANCH  17  18
ATOM     18  C   UNL     1     -13.437   4.012   3.885  1.00  0.00     0.000 C 
BRANCH  18  19
ATOM     19  C   UNL     1     -13.986   4.932   2.787  1.00  0.00    -0.000 C 
BRANCH  19  20
ATOM     20  C   UNL     1     -15.124   4.339   1.951  1.00  0.00    -0.000 C 
BRANCH  20  21
ATOM     21  C   UNL     1     -14.831   4.346   0.448  1.00  0.00    -0.003 C 
ATOM     22  C   UNL     1     -13.519   3.644   0.135  1.00  0.00     0.004 C 
ENDBRANCH  20  21
ENDBRANCH  19  20
ENDBRANCH  18  19
ENDBRANCH  17  18
ENDBRANCH  16  17
ENDBRANCH  12  16
ENDBRANCH   9  12
ENDBRANCH   6   9
ENDBRANCH   3   5
ENDBRANCH   2   3
BRANCH   2  23
ATOM     23  N   UNL     1     -18.078  -2.944   3.302  1.00  0.00    -0.332 N 
ATOM     24  C   UNL     1     -18.872  -4.062   2.813  1.00  0.00     0.147 C 
BRANCH  23  25
ATOM     25  C   UNL     1     -18.484  -1.611   2.779  1.00  0.00     0.174 C 
BRANCH  25  26
ATOM     26  C   UNL     1     -19.758  -1.670   1.904  1.00  0.00     0.038 C 
BRANCH  26  27
ATOM     27  C   UNL     1     -20.623  -0.391   1.839  1.00  0.00    -0.015 C 
ATOM     28  C   UNL     1     -20.238   0.629   2.910  1.00  0.00     0.007 C 
ATOM     29  C   UNL     1     -20.641   0.260   0.458  1.00  0.00     0.007 C 
ENDBRANCH  26  27
ENDBRANCH  25  26
BRANCH  25  30
ATOM     30  C   UNL     1     -17.286  -0.922   2.087  1.00  0.00     0.243 C 
ATOM     31  O   UNL     1     -16.601  -0.078   2.661  1.00  0.00    -0.273 OA
ATOM     32  N   UNL     1     -17.045  -1.311   0.794  1.00  0.00    -0.342 N 
ATOM     33  H   UNL     1     -17.566  -2.115   0.436  1.00  0.00     0.164 HD
BRANCH  32  34
ATOM     34  C   UNL     1     -15.969  -0.746  -0.025  1.00  0.00     0.175 C 
BRANCH  34  35
ATOM     35  C   UNL     1     -16.043   0.788  -0.063  1.00  0.00     0.070 C 
BRANCH  35  36
ATOM     36  C   UNL     1     -17.207   1.298  -0.882  1.00  0.00    -0.045 A 
ATOM     37  C   UNL     1     -17.838   2.501  -0.532  1.00  0.00     0.007 A 
ATOM     38  C   UNL     1     -17.686   0.572  -1.981  1.00  0.00     0.007 A 
ATOM     39  C   UNL     1     -18.922   2.973  -1.273  1.00  0.00     0.046 A 
ATOM     40  C   UNL     1     -18.772   1.043  -2.723  1.00  0.00     0.046 A 
ATOM     41  C   UNL     1     -19.380   2.241  -2.362  1.00  0.00     0.115 A 
BRANCH  41  42
ATOM     42  O   UNL     1     -20.443   2.735  -3.058  1.00  0.00    -0.508 OA
ATOM     43  H   UNL     1     -20.457   3.700  -2.949  1.00  0.00     0.293 HD
ENDBRANCH  41  42
ENDBRANCH  35  36
ENDBRANCH  34  35
BRANCH  34  44
ATOM     44  C   UNL     1     -14.622  -1.246   0.543  1.00  0.00     0.243 C 
ATOM     45  O   UNL     1     -14.238  -2.411   0.495  1.00  0.00    -0.273 OA
ATOM     46  N   UNL     1     -13.927  -0.278   1.238  1.00  0.00    -0.341 N 
ATOM     47  H   UNL     1     -14.342   0.643   1.350  1.00  0.00     0.164 HD
BRANCH  46  48
ATOM     48  C   UNL     1     -12.658  -0.534   1.922  1.00  0.00     0.196 C 
BRANCH  48  49
ATOM     49  C   UNL     1     -11.969   0.779   2.334  1.00  0.00     0.072 C 
BRANCH  49  50
ATOM     50  C   UNL     1     -10.561   0.890   1.795  1.00  0.00    -0.045 A 
ATOM     51  C   UNL     1      -9.570   0.003   2.239  1.00  0.00     0.007 A 
ATOM     52  C   UNL     1     -10.220   1.884   0.869  1.00  0.00     0.007 A 
ATOM     53  C   UNL     1      -8.264   0.105   1.760  1.00  0.00     0.046 A 
ATOM     54  C   UNL     1      -8.912   1.987   0.389  1.00  0.00     0.046 A 
ATOM     55  C   UNL     1      -7.945   1.095   0.838  1.00  0.00     0.115 A 
BRANCH  55  56
ATOM     56  O   UNL     1      -6.657   1.162   0.396  1.00  0.00    -0.508 OA
ATOM     57  H   UNL     1      -6.614   1.812  -0.323  1.00  0.00     0.293 HD
ENDBRANCH  55  56
ENDBRANCH  49  50
ENDBRANCH  48  49
BRANCH  48  58
ATOM     58  C   UNL     1     -12.926  -1.387   3.170  1.00  0.00     0.326 C 
ATOM     59  O   UNL     1     -13.828  -1.248   3.980  1.00  0.00    -0.250 OA
BRANCH  58  60
ATOM     60  O   UNL     1     -12.040  -2.402   3.332  1.00  0.00    -0.480 OA
ATOM     61  H   UNL     1     -11.182  -1.994   3.085  1.00  0.00     0.296 HD
ENDBRANCH  58  60
ENDBRANCH  48  58
ENDBRANCH  46  48
ENDBRANCH  34  44
ENDBRANCH  32  34
ENDBRANCH  25  30
ENDBRANCH  23  25
ENDBRANCH   2  23
TORSDOF 28
ENDMDL
MODEL 23
REMARK VINA RESULT:    -5.523      4.071      8.356
REMARK INTER + INTRA:         -19.129
REMARK INTER:                 -13.923
REMARK INTRA:                  -5.206
REMARK UNBOUND:                -5.372
REMARK SMILES CCCCCCC[C@H](N)[C@H](O)C(=O)N[C@H](C)C(=O)N(C)[C@H](CC(C)C)C(=O)N[C@@H](Cc1ccc(O)cc1)C(=O)N[C@@H](Cc1ccc(O)cc1)C(=O)O
REMARK SMILES IDX 18 1 17 2 15 3 16 4 14 5 12 6 13 7 10 9 11 10 8 12 9 13 7 16
REMARK SMILES IDX 6 17 5 18 4 19 3 20 2 21 1 22 19 23 20 24 21 25 22 26 23 27
REMARK SMILES IDX 24 28 25 29 26 30 27 31 28 32 29 34 30 35 31 36 32 37 37 38
REMARK SMILES IDX 33 39 36 40 34 41 35 42 38 44 39 45 40 46 41 48 42 49 43 50
REMARK SMILES IDX 44 51 49 52 45 53 48 54 46 55 47 56 50 58 51 59 52 60
REMARK H PARENT 14 8 11 11 9 14 9 15 28 33 35 43 40 47 47 57 52 61
ROOT
ATOM      1  O   UNL     1      -9.558  -2.324  -3.430  1.00  0.00    -0.272 OA
ATOM      2  C   UNL     1      -8.560  -2.061  -4.116  1.00  0.00     0.245 C 
ENDROOT
BRANCH   2   3
ATOM      3  C   UNL     1      -7.176  -2.012  -3.422  1.00  0.00     0.168 C 
ATOM      4  C   UNL     1      -6.052  -2.147  -4.443  1.00  0.00     0.041 C 
BRANCH   3   5
ATOM      5  N   UNL     1      -6.974  -0.872  -2.541  1.00  0.00    -0.342 N 
ATOM      6  C   UNL     1      -7.182  -0.957  -1.181  1.00  0.00     0.251 C 
ATOM      7  O   UNL     1      -7.587  -1.970  -0.620  1.00  0.00    -0.272 OA
ATOM      8  H   UNL     1      -6.672   0.032  -2.896  1.00  0.00     0.164 HD
BRANCH   6   9
ATOM      9  C   UNL     1      -6.771   0.323  -0.435  1.00  0.00     0.219 C 
BRANCH   9  10
ATOM     10  O   UNL     1      -5.788   1.085  -1.147  1.00  0.00    -0.382 OA
ATOM     11  H   UNL     1      -5.867   0.759  -2.070  1.00  0.00     0.211 HD
ENDBRANCH   9  10
BRANCH   9  12
ATOM     12  C   UNL     1      -7.978   1.213  -0.041  1.00  0.00     0.089 C 
BRANCH  12  13
ATOM     13  N   UNL     1      -9.140   0.819  -0.870  1.00  0.00    -0.325 NA
ATOM     14  H   UNL     1      -9.649   1.658  -1.156  1.00  0.00     0.119 HD
ATOM     15  H   UNL     1      -9.798   0.292  -0.291  1.00  0.00     0.119 HD
ENDBRANCH  12  13
BRANCH  12  16
ATOM     16  C   UNL     1      -8.367   1.202   1.457  1.00  0.00     0.022 C 
BRANCH  16  17
ATOM     17  C   UNL     1      -8.361  -0.129   2.222  1.00  0.00     0.002 C 
BRANCH  17  18
ATOM     18  C   UNL     1      -9.741  -0.661   2.600  1.00  0.00     0.000 C 
BRANCH  18  19
ATOM     19  C   UNL     1     -10.903   0.214   2.112  1.00  0.00    -0.000 C 
BRANCH  19  20
ATOM     20  C   UNL     1     -12.220  -0.530   1.872  1.00  0.00    -0.000 C 
BRANCH  20  21
ATOM     21  C   UNL     1     -12.683  -0.474   0.413  1.00  0.00    -0.003 C 
ATOM     22  C   UNL     1     -13.901  -1.356   0.184  1.00  0.00     0.004 C 
ENDBRANCH  20  21
ENDBRANCH  19  20
ENDBRANCH  18  19
ENDBRANCH  17  18
ENDBRANCH  16  17
ENDBRANCH  12  16
ENDBRANCH   9  12
ENDBRANCH   6   9
ENDBRANCH   3   5
ENDBRANCH   2   3
BRANCH   2  23
ATOM     23  N   UNL     1      -8.677  -1.938  -5.496  1.00  0.00    -0.332 N 
ATOM     24  C   UNL     1      -8.478  -3.026  -6.443  1.00  0.00     0.147 C 
BRANCH  23  25
ATOM     25  C   UNL     1      -9.155  -0.663  -6.099  1.00  0.00     0.174 C 
BRANCH  25  26
ATOM     26  C   UNL     1      -8.456   0.583  -5.505  1.00  0.00     0.038 C 
BRANCH  26  27
ATOM     27  C   UNL     1      -7.112   1.001  -6.141  1.00  0.00    -0.015 C 
ATOM     28  C   UNL     1      -7.295   1.948  -7.326  1.00  0.00     0.007 C 
ATOM     29  C   UNL     1      -6.120   1.583  -5.137  1.00  0.00     0.007 C 
ENDBRANCH  26  27
ENDBRANCH  25  26
BRANCH  25  30
ATOM     30  C   UNL     1     -10.698  -0.595  -6.044  1.00  0.00     0.243 C 
ATOM     31  O   UNL     1     -11.396  -0.870  -7.020  1.00  0.00    -0.273 OA
ATOM     32  N   UNL     1     -11.233  -0.204  -4.844  1.00  0.00    -0.342 N 
ATOM     33  H   UNL     1     -10.599  -0.131  -4.044  1.00  0.00     0.164 HD
BRANCH  32  34
ATOM     34  C   UNL     1     -12.673  -0.058  -4.617  1.00  0.00     0.175 C 
BRANCH  34  35
ATOM     35  C   UNL     1     -13.187  -1.091  -3.602  1.00  0.00     0.070 C 
BRANCH  35  36
ATOM     36  C   UNL     1     -14.629  -1.480  -3.843  1.00  0.00    -0.045 A 
ATOM     37  C   UNL     1     -15.276  -1.079  -5.021  1.00  0.00     0.007 A 
ATOM     38  C   UNL     1     -15.342  -2.220  -2.891  1.00  0.00     0.007 A 
ATOM     39  C   UNL     1     -16.610  -1.421  -5.246  1.00  0.00     0.046 A 
ATOM     40  C   UNL     1     -16.678  -2.563  -3.115  1.00  0.00     0.046 A 
ATOM     41  C   UNL     1     -17.300  -2.160  -4.292  1.00  0.00     0.115 A 
BRANCH  41  42
ATOM     42  O   UNL     1     -18.602  -2.472  -4.549  1.00  0.00    -0.508 OA
ATOM     43  H   UNL     1     -18.620  -3.209  -5.181  1.00  0.00     0.293 HD
ENDBRANCH  41  42
ENDBRANCH  35  36
ENDBRANCH  34  35
BRANCH  34  44
ATOM     44  C   UNL     1     -12.940   1.391  -4.152  1.00  0.00     0.243 C 
ATOM     45  O   UNL     1     -13.735   2.158  -4.688  1.00  0.00    -0.273 OA
ATOM     46  N   UNL     1     -12.099   1.806  -3.140  1.00  0.00    -0.341 N 
ATOM     47  H   UNL     1     -11.377   1.172  -2.807  1.00  0.00     0.164 HD
BRANCH  46  48
ATOM     48  C   UNL     1     -12.117   3.160  -2.582  1.00  0.00     0.196 C 
BRANCH  48  49
ATOM     49  C   UNL     1     -12.610   3.159  -1.126  1.00  0.00     0.072 C 
BRANCH  49  50
ATOM     50  C   UNL     1     -13.606   4.262  -0.847  1.00  0.00    -0.045 A 
ATOM     51  C   UNL     1     -13.905   4.616   0.476  1.00  0.00     0.007 A 
ATOM     52  C   UNL     1     -14.254   4.929  -1.895  1.00  0.00     0.007 A 
ATOM     53  C   UNL     1     -14.832   5.623   0.746  1.00  0.00     0.046 A 
ATOM     54  C   UNL     1     -15.183   5.937  -1.625  1.00  0.00     0.046 A 
ATOM     55  C   UNL     1     -15.463   6.276  -0.306  1.00  0.00     0.115 A 
BRANCH  55  56
ATOM     56  O   UNL     1     -16.363   7.254  -0.001  1.00  0.00    -0.508 OA
ATOM     57  H   UNL     1     -16.717   7.614  -0.829  1.00  0.00     0.293 HD
ENDBRANCH  55  56
ENDBRANCH  49  50
ENDBRANCH  48  49
BRANCH  48  58
ATOM     58  C   UNL     1     -10.699   3.745  -2.645  1.00  0.00     0.326 C 
ATOM     59  O   UNL     1     -10.149   4.247  -3.611  1.00  0.00    -0.250 OA
BRANCH  58  60
ATOM     60  O   UNL     1     -10.035   3.681  -1.464  1.00  0.00    -0.480 OA
ATOM     61  H   UNL     1     -10.654   4.108  -0.833  1.00  0.00     0.296 HD
ENDBRANCH  58  60
ENDBRANCH  48  58
ENDBRANCH  46  48
ENDBRANCH  34  44
ENDBRANCH  32  34
ENDBRANCH  25  30
ENDBRANCH  23  25
ENDBRANCH   2  23
TORSDOF 28
ENDMDL
MODEL 24
REMARK VINA RESULT:    -5.522      7.333     13.054
REMARK INTER + INTRA:         -19.125
REMARK INTER:                 -12.661
REMARK INTRA:                  -6.464
REMARK UNBOUND:                -5.372
REMARK SMILES CCCCCCC[C@H](N)[C@H](O)C(=O)N[C@H](C)C(=O)N(C)[C@H](CC(C)C)C(=O)N[C@@H](Cc1ccc(O)cc1)C(=O)N[C@@H](Cc1ccc(O)cc1)C(=O)O
REMARK SMILES IDX 18 1 17 2 15 3 16 4 14 5 12 6 13 7 10 9 11 10 8 12 9 13 7 16
REMARK SMILES IDX 6 17 5 18 4 19 3 20 2 21 1 22 19 23 20 24 21 25 22 26 23 27
REMARK SMILES IDX 24 28 25 29 26 30 27 31 28 32 29 34 30 35 31 36 32 37 37 38
REMARK SMILES IDX 33 39 36 40 34 41 35 42 38 44 39 45 40 46 41 48 42 49 43 50
REMARK SMILES IDX 44 51 49 52 45 53 48 54 46 55 47 56 50 58 51 59 52 60
REMARK H PARENT 14 8 11 11 9 14 9 15 28 33 35 43 40 47 47 57 52 61
ROOT
ATOM      1  O   UNL     1     -17.668  -2.844   6.547  1.00  0.00    -0.272 OA
ATOM      2  C   UNL     1     -18.201  -2.192   5.637  1.00  0.00     0.245 C 
ENDROOT
BRANCH   2   3
ATOM      3  C   UNL     1     -19.107  -0.994   6.016  1.00  0.00     0.168 C 
ATOM      4  C   UNL     1     -20.312  -1.462   6.825  1.00  0.00     0.041 C 
BRANCH   3   5
ATOM      5  N   UNL     1     -18.419   0.114   6.660  1.00  0.00    -0.342 N 
ATOM      6  C   UNL     1     -18.597   1.418   6.250  1.00  0.00     0.251 C 
ATOM      7  O   UNL     1     -19.304   1.738   5.300  1.00  0.00    -0.272 OA
ATOM      8  H   UNL     1     -17.780  -0.032   7.437  1.00  0.00     0.164 HD
BRANCH   6   9
ATOM      9  C   UNL     1     -17.886   2.430   7.162  1.00  0.00     0.219 C 
BRANCH   9  10
ATOM     10  O   UNL     1     -17.750   1.960   8.509  1.00  0.00    -0.382 OA
ATOM     11  H   UNL     1     -18.118   1.050   8.474  1.00  0.00     0.211 HD
ENDBRANCH   9  10
BRANCH   9  12
ATOM     12  C   UNL     1     -16.517   2.898   6.602  1.00  0.00     0.089 C 
BRANCH  12  13
ATOM     13  N   UNL     1     -16.258   4.272   7.088  1.00  0.00    -0.325 NA
ATOM     14  H   UNL     1     -15.977   4.860   6.301  1.00  0.00     0.119 HD
ATOM     15  H   UNL     1     -15.448   4.255   7.712  1.00  0.00     0.119 HD
ENDBRANCH  12  13
BRANCH  12  16
ATOM     16  C   UNL     1     -15.308   1.986   6.917  1.00  0.00     0.022 C 
BRANCH  16  17
ATOM     17  C   UNL     1     -14.453   1.452   5.759  1.00  0.00     0.002 C 
BRANCH  17  18
ATOM     18  C   UNL     1     -15.108   1.535   4.382  1.00  0.00     0.000 C 
BRANCH  18  19
ATOM     19  C   UNL     1     -14.555   2.658   3.494  1.00  0.00    -0.000 C 
BRANCH  19  20
ATOM     20  C   UNL     1     -13.305   3.358   4.033  1.00  0.00    -0.000 C 
BRANCH  20  21
ATOM     21  C   UNL     1     -13.597   4.744   4.613  1.00  0.00    -0.003 C 
ATOM     22  C   UNL     1     -14.644   5.479   3.791  1.00  0.00     0.004 C 
ENDBRANCH  20  21
ENDBRANCH  19  20
ENDBRANCH  18  19
ENDBRANCH  17  18
ENDBRANCH  16  17
ENDBRANCH  12  16
ENDBRANCH   9  12
ENDBRANCH   6   9
ENDBRANCH   3   5
ENDBRANCH   2   3
BRANCH   2  23
ATOM     23  N   UNL     1     -17.884  -2.463   4.310  1.00  0.00    -0.332 N 
ATOM     24  C   UNL     1     -18.645  -3.350   3.443  1.00  0.00     0.147 C 
BRANCH  23  25
ATOM     25  C   UNL     1     -16.774  -1.732   3.639  1.00  0.00     0.174 C 
BRANCH  25  26
ATOM     26  C   UNL     1     -17.022  -1.516   2.127  1.00  0.00     0.038 C 
BRANCH  26  27
ATOM     27  C   UNL     1     -16.067  -0.549   1.392  1.00  0.00    -0.015 C 
ATOM     28  C   UNL     1     -15.413  -1.192   0.169  1.00  0.00     0.007 C 
ATOM     29  C   UNL     1     -16.718   0.779   1.017  1.00  0.00     0.007 C 
ENDBRANCH  26  27
ENDBRANCH  25  26
BRANCH  25  30
ATOM     30  C   UNL     1     -15.421  -2.411   3.955  1.00  0.00     0.243 C 
ATOM     31  O   UNL     1     -14.952  -3.291   3.236  1.00  0.00    -0.273 OA
ATOM     32  N   UNL     1     -14.788  -1.971   5.089  1.00  0.00    -0.342 N 
ATOM     33  H   UNL     1     -15.169  -1.142   5.553  1.00  0.00     0.164 HD
BRANCH  32  34
ATOM     34  C   UNL     1     -13.512  -2.518   5.558  1.00  0.00     0.175 C 
BRANCH  34  35
ATOM     35  C   UNL     1     -12.364  -1.520   5.348  1.00  0.00     0.070 C 
BRANCH  35  36
ATOM     36  C   UNL     1     -11.899  -1.459   3.910  1.00  0.00    -0.045 A 
ATOM     37  C   UNL     1     -10.849  -2.283   3.477  1.00  0.00     0.007 A 
ATOM     38  C   UNL     1     -12.487  -0.570   3.001  1.00  0.00     0.007 A 
ATOM     39  C   UNL     1     -10.403  -2.224   2.156  1.00  0.00     0.046 A 
ATOM     40  C   UNL     1     -12.041  -0.509   1.679  1.00  0.00     0.046 A 
ATOM     41  C   UNL     1     -11.003  -1.339   1.268  1.00  0.00     0.115 A 
BRANCH  41  42
ATOM     42  O   UNL     1     -10.536  -1.310  -0.013  1.00  0.00    -0.508 OA
ATOM     43  H   UNL     1     -10.648  -0.408  -0.358  1.00  0.00     0.293 HD
ENDBRANCH  41  42
ENDBRANCH  35  36
ENDBRANCH  34  35
BRANCH  34  44
ATOM     44  C   UNL     1     -13.676  -2.905   7.046  1.00  0.00     0.243 C 
ATOM     45  O   UNL     1     -13.038  -3.792   7.606  1.00  0.00    -0.273 OA
ATOM     46  N   UNL     1     -14.710  -2.244   7.674  1.00  0.00    -0.341 N 
ATOM     47  H   UNL     1     -15.286  -1.602   7.135  1.00  0.00     0.164 HD
BRANCH  46  48
ATOM     48  C   UNL     1     -15.100  -2.494   9.064  1.00  0.00     0.196 C 
BRANCH  48  49
ATOM     49  C   UNL     1     -14.094  -1.872  10.047  1.00  0.00     0.072 C 
BRANCH  49  50
ATOM     50  C   UNL     1     -14.107  -2.550  11.399  1.00  0.00    -0.045 A 
ATOM     51  C   UNL     1     -13.533  -3.821  11.549  1.00  0.00     0.007 A 
ATOM     52  C   UNL     1     -14.706  -1.937  12.507  1.00  0.00     0.007 A 
ATOM     53  C   UNL     1     -13.551  -4.462  12.788  1.00  0.00     0.046 A 
ATOM     54  C   UNL     1     -14.725  -2.579  13.747  1.00  0.00     0.046 A 
ATOM     55  C   UNL     1     -14.146  -3.837  13.877  1.00  0.00     0.115 A 
BRANCH  55  56
ATOM     56  O   UNL     1     -14.144  -4.497  15.070  1.00  0.00    -0.508 OA
ATOM     57  H   UNL     1     -14.945  -5.043  15.118  1.00  0.00     0.293 HD
ENDBRANCH  55  56
ENDBRANCH  49  50
ENDBRANCH  48  49
BRANCH  48  58
ATOM     58  C   UNL     1     -16.493  -1.897   9.306  1.00  0.00     0.326 C 
ATOM     59  O   UNL     1     -17.397  -2.378   9.970  1.00  0.00    -0.250 OA
BRANCH  58  60
ATOM     60  O   UNL     1     -16.680  -0.696   8.704  1.00  0.00    -0.480 OA
ATOM     61  H   UNL     1     -16.946  -0.940   7.791  1.00  0.00     0.296 HD
ENDBRANCH  58  60
ENDBRANCH  48  58
ENDBRANCH  46  48
ENDBRANCH  34  44
ENDBRANCH  32  34
ENDBRANCH  25  30
ENDBRANCH  23  25
ENDBRANCH   2  23
TORSDOF 28
ENDMDL
MODEL 25
REMARK VINA RESULT:    -5.517      5.585     10.006
REMARK INTER + INTRA:         -19.112
REMARK INTER:                 -13.865
REMARK INTRA:                  -5.248
REMARK UNBOUND:                -5.372
REMARK SMILES CCCCCCC[C@H](N)[C@H](O)C(=O)N[C@H](C)C(=O)N(C)[C@H](CC(C)C)C(=O)N[C@@H](Cc1ccc(O)cc1)C(=O)N[C@@H](Cc1ccc(O)cc1)C(=O)O
REMARK SMILES IDX 18 1 17 2 15 3 16 4 14 5 12 6 13 7 10 9 11 10 8 12 9 13 7 16
REMARK SMILES IDX 6 17 5 18 4 19 3 20 2 21 1 22 19 23 20 24 21 25 22 26 23 27
REMARK SMILES IDX 24 28 25 29 26 30 27 31 28 32 29 34 30 35 31 36 32 37 37 38
REMARK SMILES IDX 33 39 36 40 34 41 35 42 38 44 39 45 40 46 41 48 42 49 43 50
REMARK SMILES IDX 44 51 49 52 45 53 48 54 46 55 47 56 50 58 51 59 52 60
REMARK H PARENT 14 8 11 11 9 14 9 15 28 33 35 43 40 47 47 57 52 61
ROOT
ATOM      1  O   UNL     1     -16.778  -3.624   3.298  1.00  0.00    -0.272 OA
ATOM      2  C   UNL     1     -16.323  -2.480   3.450  1.00  0.00     0.245 C 
ENDROOT
BRANCH   2   3
ATOM      3  C   UNL     1     -14.855  -2.324   3.920  1.00  0.00     0.168 C 
ATOM      4  C   UNL     1     -14.552  -3.273   5.074  1.00  0.00     0.041 C 
BRANCH   3   5
ATOM      5  N   UNL     1     -13.861  -2.421   2.863  1.00  0.00    -0.342 N 
ATOM      6  C   UNL     1     -12.963  -1.405   2.612  1.00  0.00     0.251 C 
ATOM      7  O   UNL     1     -12.959  -0.341   3.222  1.00  0.00    -0.272 OA
ATOM      8  H   UNL     1     -13.791  -3.242   2.266  1.00  0.00     0.164 HD
BRANCH   6   9
ATOM      9  C   UNL     1     -11.919  -1.783   1.550  1.00  0.00     0.219 C 
BRANCH   9  10
ATOM     10  O   UNL     1     -11.781  -0.785   0.531  1.00  0.00    -0.382 OA
ATOM     11  H   UNL     1     -12.562  -0.205   0.668  1.00  0.00     0.211 HD
ENDBRANCH   9  10
BRANCH   9  12
ATOM     12  C   UNL     1     -10.538  -2.147   2.155  1.00  0.00     0.089 C 
BRANCH  12  13
ATOM     13  N   UNL     1     -10.750  -2.654   3.530  1.00  0.00    -0.325 NA
ATOM     14  H   UNL     1      -9.860  -2.645   4.032  1.00  0.00     0.119 HD
ATOM     15  H   UNL     1     -11.019  -3.640   3.481  1.00  0.00     0.119 HD
ENDBRANCH  12  13
BRANCH  12  16
ATOM     16  C   UNL     1      -9.685  -3.151   1.343  1.00  0.00     0.022 C 
BRANCH  16  17
ATOM     17  C   UNL     1      -8.272  -2.746   0.904  1.00  0.00     0.002 C 
BRANCH  17  18
ATOM     18  C   UNL     1      -8.100  -1.265   0.571  1.00  0.00     0.000 C 
BRANCH  18  19
ATOM     19  C   UNL     1      -7.908  -0.367   1.800  1.00  0.00    -0.000 C 
BRANCH  19  20
ATOM     20  C   UNL     1      -8.535   1.026   1.691  1.00  0.00    -0.000 C 
BRANCH  20  21
ATOM     21  C   UNL     1      -8.935   1.393   0.260  1.00  0.00    -0.003 C 
ATOM     22  C   UNL     1      -9.829   2.624   0.232  1.00  0.00     0.004 C 
ENDBRANCH  20  21
ENDBRANCH  19  20
ENDBRANCH  18  19
ENDBRANCH  17  18
ENDBRANCH  16  17
ENDBRANCH  12  16
ENDBRANCH   9  12
ENDBRANCH   6   9
ENDBRANCH   3   5
ENDBRANCH   2   3
BRANCH   2  23
ATOM     23  N   UNL     1     -17.083  -1.375   3.085  1.00  0.00    -0.332 N 
ATOM     24  C   UNL     1     -18.202  -1.412   2.154  1.00  0.00     0.147 C 
BRANCH  23  25
ATOM     25  C   UNL     1     -16.865  -0.060   3.749  1.00  0.00     0.174 C 
BRANCH  25  26
ATOM     26  C   UNL     1     -18.006   0.320   4.721  1.00  0.00     0.038 C 
BRANCH  26  27
ATOM     27  C   UNL     1     -17.936  -0.270   6.148  1.00  0.00    -0.015 C 
ATOM     28  C   UNL     1     -18.659  -1.612   6.262  1.00  0.00     0.007 C 
ATOM     29  C   UNL     1     -16.514  -0.378   6.691  1.00  0.00     0.007 C 
ENDBRANCH  26  27
ENDBRANCH  25  26
BRANCH  25  30
ATOM     30  C   UNL     1     -16.562   1.026   2.692  1.00  0.00     0.243 C 
ATOM     31  O   UNL     1     -17.324   1.971   2.493  1.00  0.00    -0.273 OA
ATOM     32  N   UNL     1     -15.394   0.863   1.991  1.00  0.00    -0.342 N 
ATOM     33  H   UNL     1     -14.748   0.136   2.310  1.00  0.00     0.164 HD
BRANCH  32  34
ATOM     34  C   UNL     1     -14.959   1.779   0.934  1.00  0.00     0.175 C 
BRANCH  34  35
ATOM     35  C   UNL     1     -13.616   2.438   1.284  1.00  0.00     0.070 C 
BRANCH  35  36
ATOM     36  C   UNL     1     -13.750   3.513   2.338  1.00  0.00    -0.045 A 
ATOM     37  C   UNL     1     -14.241   4.781   1.990  1.00  0.00     0.007 A 
ATOM     38  C   UNL     1     -13.367   3.271   3.664  1.00  0.00     0.007 A 
ATOM     39  C   UNL     1     -14.355   5.783   2.954  1.00  0.00     0.046 A 
ATOM     40  C   UNL     1     -13.480   4.275   4.629  1.00  0.00     0.046 A 
ATOM     41  C   UNL     1     -13.974   5.523   4.265  1.00  0.00     0.115 A 
BRANCH  41  42
ATOM     42  O   UNL     1     -14.099   6.530   5.175  1.00  0.00    -0.508 OA
ATOM     43  H   UNL     1     -13.498   6.347   5.917  1.00  0.00     0.293 HD
ENDBRANCH  41  42
ENDBRANCH  35  36
ENDBRANCH  34  35
BRANCH  34  44
ATOM     44  C   UNL     1     -14.884   0.983  -0.389  1.00  0.00     0.243 C 
ATOM     45  O   UNL     1     -14.538  -0.192  -0.472  1.00  0.00    -0.273 OA
ATOM     46  N   UNL     1     -15.119   1.753  -1.507  1.00  0.00    -0.341 N 
ATOM     47  H   UNL     1     -15.287   2.750  -1.394  1.00  0.00     0.164 HD
BRANCH  46  48
ATOM     48  C   UNL     1     -15.037   1.235  -2.875  1.00  0.00     0.196 C 
BRANCH  48  49
ATOM     49  C   UNL     1     -16.431   1.109  -3.511  1.00  0.00     0.072 C 
BRANCH  49  50
ATOM     50  C   UNL     1     -16.838  -0.329  -3.740  1.00  0.00    -0.045 A 
ATOM     51  C   UNL     1     -15.890  -1.353  -3.608  1.00  0.00     0.007 A 
ATOM     52  C   UNL     1     -18.150  -0.657  -4.105  1.00  0.00     0.007 A 
ATOM     53  C   UNL     1     -16.251  -2.682  -3.830  1.00  0.00     0.046 A 
ATOM     54  C   UNL     1     -18.512  -1.987  -4.328  1.00  0.00     0.046 A 
ATOM     55  C   UNL     1     -17.558  -2.990  -4.187  1.00  0.00     0.115 A 
BRANCH  55  56
ATOM     56  O   UNL     1     -17.869  -4.300  -4.397  1.00  0.00    -0.508 OA
ATOM     57  H   UNL     1     -17.730  -4.784  -3.568  1.00  0.00     0.293 HD
ENDBRANCH  55  56
ENDBRANCH  49  50
ENDBRANCH  48  49
BRANCH  48  58
ATOM     58  C   UNL     1     -14.170   2.183  -3.716  1.00  0.00     0.326 C 
ATOM     59  O   UNL     1     -14.219   3.402  -3.741  1.00  0.00    -0.250 OA
BRANCH  58  60
ATOM     60  O   UNL     1     -13.259   1.540  -4.489  1.00  0.00    -0.480 OA
ATOM     61  H   UNL     1     -13.458   0.592  -4.331  1.00  0.00     0.296 HD
ENDBRANCH  58  60
ENDBRANCH  48  58
ENDBRANCH  46  48
ENDBRANCH  34  44
ENDBRANCH  32  34
ENDBRANCH  25  30
ENDBRANCH  23  25
ENDBRANCH   2  23
TORSDOF 28
ENDMDL
MODEL 26
REMARK VINA RESULT:    -5.500      2.494      7.066
REMARK INTER + INTRA:         -19.071
REMARK INTER:                 -15.621
REMARK INTRA:                  -3.450
REMARK UNBOUND:                -5.372
REMARK SMILES CCCCCCC[C@H](N)[C@H](O)C(=O)N[C@H](C)C(=O)N(C)[C@H](CC(C)C)C(=O)N[C@@H](Cc1ccc(O)cc1)C(=O)N[C@@H](Cc1ccc(O)cc1)C(=O)O
REMARK SMILES IDX 18 1 17 2 15 3 16 4 14 5 12 6 13 7 10 9 11 10 8 12 9 13 7 16
REMARK SMILES IDX 6 17 5 18 4 19 3 20 2 21 1 22 19 23 20 24 21 25 22 26 23 27
REMARK SMILES IDX 24 28 25 29 26 30 27 31 28 32 29 34 30 35 31 36 32 37 37 38
REMARK SMILES IDX 33 39 36 40 34 41 35 42 38 44 39 45 40 46 41 48 42 49 43 50
REMARK SMILES IDX 44 51 49 52 45 53 48 54 46 55 47 56 50 58 51 59 52 60
REMARK H PARENT 14 8 11 11 9 14 9 15 28 33 35 43 40 47 47 57 52 61
ROOT
ATOM      1  O   UNL     1      -7.099  -1.981  -0.762  1.00  0.00    -0.272 OA
ATOM      2  C   UNL     1      -7.584  -2.480   0.264  1.00  0.00     0.245 C 
ENDROOT
BRANCH   2   3
ATOM      3  C   UNL     1      -7.530  -4.018   0.438  1.00  0.00     0.168 C 
ATOM      4  C   UNL     1      -8.912  -4.575   0.765  1.00  0.00     0.041 C 
BRANCH   3   5
ATOM      5  N   UNL     1      -6.903  -4.736  -0.660  1.00  0.00    -0.342 N 
ATOM      6  C   UNL     1      -6.154  -5.875  -0.453  1.00  0.00     0.251 C 
ATOM      7  O   UNL     1      -5.926  -6.341   0.659  1.00  0.00    -0.272 OA
ATOM      8  H   UNL     1      -6.992  -4.424  -1.625  1.00  0.00     0.164 HD
BRANCH   6   9
ATOM      9  C   UNL     1      -5.710  -6.542  -1.764  1.00  0.00     0.219 C 
BRANCH   9  10
ATOM     10  O   UNL     1      -4.772  -5.746  -2.499  1.00  0.00    -0.382 OA
ATOM     11  H   UNL     1      -5.010  -5.915  -3.437  1.00  0.00     0.211 HD
ENDBRANCH   9  10
BRANCH   9  12
ATOM     12  C   UNL     1      -5.171  -7.982  -1.563  1.00  0.00     0.089 C 
BRANCH  12  13
ATOM     13  N   UNL     1      -5.692  -8.833  -2.658  1.00  0.00    -0.325 NA
ATOM     14  H   UNL     1      -6.697  -8.675  -2.756  1.00  0.00     0.119 HD
ATOM     15  H   UNL     1      -5.602  -9.814  -2.386  1.00  0.00     0.119 HD
ENDBRANCH  12  13
BRANCH  12  16
ATOM     16  C   UNL     1      -3.633  -8.124  -1.466  1.00  0.00     0.022 C 
BRANCH  16  17
ATOM     17  C   UNL     1      -2.944  -7.876  -0.117  1.00  0.00     0.002 C 
BRANCH  17  18
ATOM     18  C   UNL     1      -2.739  -9.122   0.741  1.00  0.00     0.000 C 
BRANCH  18  19
ATOM     19  C   UNL     1      -2.523  -8.826   2.231  1.00  0.00    -0.000 C 
BRANCH  19  20
ATOM     20  C   UNL     1      -2.869  -7.399   2.667  1.00  0.00    -0.000 C 
BRANCH  20  21
ATOM     21  C   UNL     1      -1.770  -6.747   3.509  1.00  0.00    -0.003 C 
ATOM     22  C   UNL     1      -0.872  -7.791   4.154  1.00  0.00     0.004 C 
ENDBRANCH  20  21
ENDBRANCH  19  20
ENDBRANCH  18  19
ENDBRANCH  17  18
ENDBRANCH  16  17
ENDBRANCH  12  16
ENDBRANCH   9  12
ENDBRANCH   6   9
ENDBRANCH   3   5
ENDBRANCH   2   3
BRANCH   2  23
ATOM     23  N   UNL     1      -8.051  -1.656   1.283  1.00  0.00    -0.332 N 
ATOM     24  C   UNL     1      -7.600  -1.716   2.666  1.00  0.00     0.147 C 
BRANCH  23  25
ATOM     25  C   UNL     1      -8.986  -0.539   0.977  1.00  0.00     0.174 C 
BRANCH  25  26
ATOM     26  C   UNL     1      -9.490   0.190   2.245  1.00  0.00     0.038 C 
BRANCH  26  27
ATOM     27  C   UNL     1      -9.767   1.704   2.118  1.00  0.00    -0.015 C 
ATOM     28  C   UNL     1      -8.983   2.349   0.976  1.00  0.00     0.007 C 
ATOM     29  C   UNL     1     -11.252   2.042   2.008  1.00  0.00     0.007 C 
ENDBRANCH  26  27
ENDBRANCH  25  26
BRANCH  25  30
ATOM     30  C   UNL     1     -10.122  -1.034   0.052  1.00  0.00     0.243 C 
ATOM     31  O   UNL     1     -10.992  -1.809   0.448  1.00  0.00    -0.273 OA
ATOM     32  N   UNL     1     -10.090  -0.558  -1.233  1.00  0.00    -0.342 N 
ATOM     33  H   UNL     1      -9.423   0.188  -1.446  1.00  0.00     0.164 HD
BRANCH  32  34
ATOM     34  C   UNL     1     -11.070  -0.940  -2.254  1.00  0.00     0.175 C 
BRANCH  34  35
ATOM     35  C   UNL     1     -12.177   0.116  -2.390  1.00  0.00     0.070 C 
BRANCH  35  36
ATOM     36  C   UNL     1     -11.632   1.517  -2.550  1.00  0.00    -0.045 A 
ATOM     37  C   UNL     1     -11.029   1.902  -3.757  1.00  0.00     0.007 A 
ATOM     38  C   UNL     1     -11.699   2.440  -1.498  1.00  0.00     0.007 A 
ATOM     39  C   UNL     1     -10.511   3.188  -3.910  1.00  0.00     0.046 A 
ATOM     40  C   UNL     1     -11.180   3.728  -1.650  1.00  0.00     0.046 A 
ATOM     41  C   UNL     1     -10.591   4.090  -2.856  1.00  0.00     0.115 A 
BRANCH  41  42
ATOM     42  O   UNL     1     -10.070   5.336  -3.046  1.00  0.00    -0.508 OA
ATOM     43  H   UNL     1      -9.290   5.430  -2.473  1.00  0.00     0.293 HD
ENDBRANCH  41  42
ENDBRANCH  35  36
ENDBRANCH  34  35
BRANCH  34  44
ATOM     44  C   UNL     1     -10.314  -1.159  -3.584  1.00  0.00     0.243 C 
ATOM     45  O   UNL     1     -10.840  -1.538  -4.627  1.00  0.00    -0.273 OA
ATOM     46  N   UNL     1      -8.948  -1.014  -3.469  1.00  0.00    -0.341 N 
ATOM     47  H   UNL     1      -8.547  -0.813  -2.556  1.00  0.00     0.164 HD
BRANCH  46  48
ATOM     48  C   UNL     1      -8.017  -1.238  -4.578  1.00  0.00     0.196 C 
BRANCH  48  49
ATOM     49  C   UNL     1      -8.299  -2.575  -5.284  1.00  0.00     0.072 C 
BRANCH  49  50
ATOM     50  C   UNL     1      -7.038  -3.253  -5.770  1.00  0.00    -0.045 A 
ATOM     51  C   UNL     1      -7.034  -3.918  -7.005  1.00  0.00     0.007 A 
ATOM     52  C   UNL     1      -5.872  -3.247  -4.995  1.00  0.00     0.007 A 
ATOM     53  C   UNL     1      -5.880  -4.559  -7.458  1.00  0.00     0.046 A 
ATOM     54  C   UNL     1      -4.717  -3.890  -5.448  1.00  0.00     0.046 A 
ATOM     55  C   UNL     1      -4.731  -4.539  -6.677  1.00  0.00     0.115 A 
BRANCH  55  56
ATOM     56  O   UNL     1      -3.626  -5.179  -7.155  1.00  0.00    -0.508 OA
ATOM     57  H   UNL     1      -3.089  -4.536  -7.645  1.00  0.00     0.293 HD
ENDBRANCH  55  56
ENDBRANCH  49  50
ENDBRANCH  48  49
BRANCH  48  58
ATOM     58  C   UNL     1      -8.153  -0.087  -5.584  1.00  0.00     0.326 C 
ATOM     59  O   UNL     1      -7.538   0.967  -5.588  1.00  0.00    -0.250 OA
BRANCH  58  60
ATOM     60  O   UNL     1      -9.062  -0.327  -6.562  1.00  0.00    -0.480 OA
ATOM     61  H   UNL     1      -9.756   0.348  -6.396  1.00  0.00     0.296 HD
ENDBRANCH  58  60
ENDBRANCH  48  58
ENDBRANCH  46  48
ENDBRANCH  34  44
ENDBRANCH  32  34
ENDBRANCH  25  30
ENDBRANCH  23  25
ENDBRANCH   2  23
TORSDOF 28
ENDMDL
MODEL 27
REMARK VINA RESULT:    -5.499      4.350      9.295
REMARK INTER + INTRA:         -19.068
REMARK INTER:                 -12.444
REMARK INTRA:                  -6.624
REMARK UNBOUND:                -5.372
REMARK SMILES CCCCCCC[C@H](N)[C@H](O)C(=O)N[C@H](C)C(=O)N(C)[C@H](CC(C)C)C(=O)N[C@@H](Cc1ccc(O)cc1)C(=O)N[C@@H](Cc1ccc(O)cc1)C(=O)O
REMARK SMILES IDX 18 1 17 2 15 3 16 4 14 5 12 6 13 7 10 9 11 10 8 12 9 13 7 16
REMARK SMILES IDX 6 17 5 18 4 19 3 20 2 21 1 22 19 23 20 24 21 25 22 26 23 27
REMARK SMILES IDX 24 28 25 29 26 30 27 31 28 32 29 34 30 35 31 36 32 37 37 38
REMARK SMILES IDX 33 39 36 40 34 41 35 42 38 44 39 45 40 46 41 48 42 49 43 50
REMARK SMILES IDX 44 51 49 52 45 53 48 54 46 55 47 56 50 58 51 59 52 60
REMARK H PARENT 14 8 11 11 9 14 9 15 28 33 35 43 40 47 47 57 52 61
ROOT
ATOM      1  O   UNL     1     -14.531  -0.305  -7.169  1.00  0.00    -0.272 OA
ATOM      2  C   UNL     1     -14.600   0.497  -6.225  1.00  0.00     0.245 C 
ENDROOT
BRANCH   2   3
ATOM      3  C   UNL     1     -13.840   1.841  -6.338  1.00  0.00     0.168 C 
ATOM      4  C   UNL     1     -14.604   2.824  -7.218  1.00  0.00     0.041 C 
BRANCH   3   5
ATOM      5  N   UNL     1     -13.458   2.436  -5.066  1.00  0.00    -0.342 N 
ATOM      6  C   UNL     1     -12.171   2.863  -4.819  1.00  0.00     0.251 C 
ATOM      7  O   UNL     1     -11.252   2.740  -5.622  1.00  0.00    -0.272 OA
ATOM      8  H   UNL     1     -14.127   2.559  -4.310  1.00  0.00     0.164 HD
BRANCH   6   9
ATOM      9  C   UNL     1     -12.033   3.586  -3.470  1.00  0.00     0.219 C 
BRANCH   9  10
ATOM     10  O   UNL     1     -12.802   2.967  -2.431  1.00  0.00    -0.382 OA
ATOM     11  H   UNL     1     -12.576   2.014  -2.512  1.00  0.00     0.211 HD
ENDBRANCH   9  10
BRANCH   9  12
ATOM     12  C   UNL     1     -10.558   3.772  -3.027  1.00  0.00     0.089 C 
BRANCH  12  13
ATOM     13  N   UNL     1     -10.277   5.224  -2.939  1.00  0.00    -0.325 NA
ATOM     14  H   UNL     1     -10.867   5.637  -2.214  1.00  0.00     0.119 HD
ATOM     15  H   UNL     1     -10.571   5.671  -3.810  1.00  0.00     0.119 HD
ENDBRANCH  12  13
BRANCH  12  16
ATOM     16  C   UNL     1     -10.152   3.071  -1.708  1.00  0.00     0.022 C 
BRANCH  16  17
ATOM     17  C   UNL     1      -9.001   2.057  -1.725  1.00  0.00     0.002 C 
BRANCH  17  18
ATOM     18  C   UNL     1      -8.549   1.618  -3.116  1.00  0.00     0.000 C 
BRANCH  18  19
ATOM     19  C   UNL     1      -7.367   0.639  -3.109  1.00  0.00    -0.000 C 
BRANCH  19  20
ATOM     20  C   UNL     1      -6.105   1.140  -3.818  1.00  0.00    -0.000 C 
BRANCH  20  21
ATOM     21  C   UNL     1      -5.832   0.415  -5.138  1.00  0.00    -0.003 C 
ATOM     22  C   UNL     1      -6.548  -0.926  -5.194  1.00  0.00     0.004 C 
ENDBRANCH  20  21
ENDBRANCH  19  20
ENDBRANCH  18  19
ENDBRANCH  17  18
ENDBRANCH  16  17
ENDBRANCH  12  16
ENDBRANCH   9  12
ENDBRANCH   6   9
ENDBRANCH   3   5
ENDBRANCH   2   3
BRANCH   2  23
ATOM     23  N   UNL     1     -15.445   0.236  -5.152  1.00  0.00    -0.332 N 
ATOM     24  C   UNL     1     -16.370   1.200  -4.575  1.00  0.00     0.147 C 
BRANCH  23  25
ATOM     25  C   UNL     1     -15.544  -1.140  -4.591  1.00  0.00     0.174 C 
BRANCH  25  26
ATOM     26  C   UNL     1     -16.844  -1.370  -3.785  1.00  0.00     0.038 C 
BRANCH  26  27
ATOM     27  C   UNL     1     -17.988  -2.122  -4.502  1.00  0.00    -0.015 C 
ATOM     28  C   UNL     1     -17.987  -3.619  -4.193  1.00  0.00     0.007 C 
ATOM     29  C   UNL     1     -19.367  -1.521  -4.242  1.00  0.00     0.007 C 
ENDBRANCH  26  27
ENDBRANCH  25  26
BRANCH  25  30
ATOM     30  C   UNL     1     -14.258  -1.488  -3.807  1.00  0.00     0.243 C 
ATOM     31  O   UNL     1     -13.459  -2.332  -4.211  1.00  0.00    -0.273 OA
ATOM     32  N   UNL     1     -14.072  -0.802  -2.635  1.00  0.00    -0.342 N 
ATOM     33  H   UNL     1     -14.703  -0.020  -2.439  1.00  0.00     0.164 HD
BRANCH  32  34
ATOM     34  C   UNL     1     -12.925  -1.021  -1.750  1.00  0.00     0.175 C 
BRANCH  34  35
ATOM     35  C   UNL     1     -11.643  -0.410  -2.335  1.00  0.00     0.070 C 
BRANCH  35  36
ATOM     36  C   UNL     1     -10.448  -1.328  -2.211  1.00  0.00    -0.045 A 
ATOM     37  C   UNL     1     -10.028  -2.087  -3.314  1.00  0.00     0.007 A 
ATOM     38  C   UNL     1      -9.761  -1.453  -0.996  1.00  0.00     0.007 A 
ATOM     39  C   UNL     1      -8.935  -2.947  -3.205  1.00  0.00     0.046 A 
ATOM     40  C   UNL     1      -8.667  -2.315  -0.886  1.00  0.00     0.046 A 
ATOM     41  C   UNL     1      -8.263  -3.054  -1.993  1.00  0.00     0.115 A 
BRANCH  41  42
ATOM     42  O   UNL     1      -7.203  -3.908  -1.928  1.00  0.00    -0.508 OA
ATOM     43  H   UNL     1      -6.424  -3.456  -2.293  1.00  0.00     0.293 HD
ENDBRANCH  41  42
ENDBRANCH  35  36
ENDBRANCH  34  35
BRANCH  34  44
ATOM     44  C   UNL     1     -13.269  -0.426  -0.365  1.00  0.00     0.243 C 
ATOM     45  O   UNL     1     -14.132  -0.870   0.386  1.00  0.00    -0.273 OA
ATOM     46  N   UNL     1     -12.600   0.749  -0.092  1.00  0.00    -0.341 N 
ATOM     47  H   UNL     1     -11.981   1.140  -0.797  1.00  0.00     0.164 HD
BRANCH  46  48
ATOM     48  C   UNL     1     -12.812   1.531   1.128  1.00  0.00     0.196 C 
BRANCH  48  49
ATOM     49  C   UNL     1     -11.526   2.256   1.559  1.00  0.00     0.072 C 
BRANCH  49  50
ATOM     50  C   UNL     1     -10.386   1.303   1.838  1.00  0.00    -0.045 A 
ATOM     51  C   UNL     1     -10.653   0.021   2.340  1.00  0.00     0.007 A 
ATOM     52  C   UNL     1      -9.056   1.687   1.622  1.00  0.00     0.007 A 
ATOM     53  C   UNL     1      -9.609  -0.862   2.614  1.00  0.00     0.046 A 
ATOM     54  C   UNL     1      -8.010   0.803   1.897  1.00  0.00     0.046 A 
ATOM     55  C   UNL     1      -8.296  -0.466   2.390  1.00  0.00     0.115 A 
BRANCH  55  56
ATOM     56  O   UNL     1      -7.305  -1.358   2.672  1.00  0.00    -0.508 OA
ATOM     57  H   UNL     1      -7.705  -2.141   3.083  1.00  0.00     0.293 HD
ENDBRANCH  55  56
ENDBRANCH  49  50
ENDBRANCH  48  49
BRANCH  48  58
ATOM     58  C   UNL     1     -13.923   2.559   0.875  1.00  0.00     0.326 C 
ATOM     59  O   UNL     1     -13.792   3.707   0.481  1.00  0.00    -0.250 OA
BRANCH  58  60
ATOM     60  O   UNL     1     -15.169   2.081   1.121  1.00  0.00    -0.480 OA
ATOM     61  H   UNL     1     -15.166   1.929   2.091  1.00  0.00     0.296 HD
ENDBRANCH  58  60
ENDBRANCH  48  58
ENDBRANCH  46  48
ENDBRANCH  34  44
ENDBRANCH  32  34
ENDBRANCH  25  30
ENDBRANCH  23  25
ENDBRANCH   2  23
TORSDOF 28
ENDMDL
MODEL 28
REMARK VINA RESULT:    -5.487      4.209      9.905
REMARK INTER + INTRA:         -19.039
REMARK INTER:                 -14.935
REMARK INTRA:                  -4.104
REMARK UNBOUND:                -5.372
REMARK SMILES CCCCCCC[C@H](N)[C@H](O)C(=O)N[C@H](C)C(=O)N(C)[C@H](CC(C)C)C(=O)N[C@@H](Cc1ccc(O)cc1)C(=O)N[C@@H](Cc1ccc(O)cc1)C(=O)O
REMARK SMILES IDX 18 1 17 2 15 3 16 4 14 5 12 6 13 7 10 9 11 10 8 12 9 13 7 16
REMARK SMILES IDX 6 17 5 18 4 19 3 20 2 21 1 22 19 23 20 24 21 25 22 26 23 27
REMARK SMILES IDX 24 28 25 29 26 30 27 31 28 32 29 34 30 35 31 36 32 37 37 38
REMARK SMILES IDX 33 39 36 40 34 41 35 42 38 44 39 45 40 46 41 48 42 49 43 50
REMARK SMILES IDX 44 51 49 52 45 53 48 54 46 55 47 56 50 58 51 59 52 60
REMARK H PARENT 14 8 11 11 9 14 9 15 28 33 35 43 40 47 47 57 52 61
ROOT
ATOM      1  O   UNL     1      -8.219   3.774  -3.867  1.00  0.00    -0.272 OA
ATOM      2  C   UNL     1      -7.729   2.635  -3.904  1.00  0.00     0.245 C 
ENDROOT
BRANCH   2   3
ATOM      3  C   UNL     1      -8.189   1.596  -2.850  1.00  0.00     0.168 C 
ATOM      4  C   UNL     1      -7.062   0.624  -2.521  1.00  0.00     0.041 C 
BRANCH   3   5
ATOM      5  N   UNL     1      -8.782   2.165  -1.650  1.00  0.00    -0.342 N 
ATOM      6  C   UNL     1      -9.738   1.490  -0.921  1.00  0.00     0.251 C 
ATOM      7  O   UNL     1     -10.187   0.395  -1.244  1.00  0.00    -0.272 OA
ATOM      8  H   UNL     1      -8.514   3.083  -1.303  1.00  0.00     0.164 HD
BRANCH   6   9
ATOM      9  C   UNL     1     -10.115   2.216   0.380  1.00  0.00     0.219 C 
BRANCH   9  10
ATOM     10  O   UNL     1     -11.502   2.572   0.432  1.00  0.00    -0.382 OA
ATOM     11  H   UNL     1     -11.780   2.289   1.331  1.00  0.00     0.211 HD
ENDBRANCH   9  10
BRANCH   9  12
ATOM     12  C   UNL     1      -9.699   1.437   1.655  1.00  0.00     0.089 C 
BRANCH  12  13
ATOM     13  N   UNL     1     -10.693   0.365   1.894  1.00  0.00    -0.325 NA
ATOM     14  H   UNL     1     -11.311   0.644   2.658  1.00  0.00     0.119 HD
ATOM     15  H   UNL     1     -10.207  -0.468   2.234  1.00  0.00     0.119 HD
ENDBRANCH  12  13
BRANCH  12  16
ATOM     16  C   UNL     1      -8.269   0.844   1.651  1.00  0.00     0.022 C 
BRANCH  16  17
ATOM     17  C   UNL     1      -8.075  -0.640   1.989  1.00  0.00     0.002 C 
BRANCH  17  18
ATOM     18  C   UNL     1      -7.993  -1.571   0.780  1.00  0.00     0.000 C 
BRANCH  18  19
ATOM     19  C   UNL     1      -8.814  -2.859   0.927  1.00  0.00    -0.000 C 
BRANCH  19  20
ATOM     20  C   UNL     1      -8.202  -4.098   0.268  1.00  0.00    -0.000 C 
BRANCH  20  21
ATOM     21  C   UNL     1      -6.729  -3.912  -0.108  1.00  0.00    -0.003 C 
ATOM     22  C   UNL     1      -6.242  -5.032  -1.015  1.00  0.00     0.004 C 
ENDBRANCH  20  21
ENDBRANCH  19  20
ENDBRANCH  18  19
ENDBRANCH  17  18
ENDBRANCH  16  17
ENDBRANCH  12  16
ENDBRANCH   9  12
ENDBRANCH   6   9
ENDBRANCH   3   5
ENDBRANCH   2   3
BRANCH   2  23
ATOM     23  N   UNL     1      -6.881   2.276  -4.946  1.00  0.00    -0.332 N 
ATOM     24  C   UNL     1      -7.288   1.510  -6.115  1.00  0.00     0.147 C 
BRANCH  23  25
ATOM     25  C   UNL     1      -5.483   2.784  -4.986  1.00  0.00     0.174 C 
BRANCH  25  26
ATOM     26  C   UNL     1      -5.286   3.928  -6.008  1.00  0.00     0.038 C 
BRANCH  26  27
ATOM     27  C   UNL     1      -3.979   4.745  -5.903  1.00  0.00    -0.015 C 
ATOM     28  C   UNL     1      -3.352   5.023  -7.269  1.00  0.00     0.007 C 
ATOM     29  C   UNL     1      -4.134   6.039  -5.109  1.00  0.00     0.007 C 
ENDBRANCH  26  27
ENDBRANCH  25  26
BRANCH  25  30
ATOM     30  C   UNL     1      -4.495   1.610  -5.169  1.00  0.00     0.243 C 
ATOM     31  O   UNL     1      -3.972   1.044  -4.210  1.00  0.00    -0.273 OA
ATOM     32  N   UNL     1      -4.237   1.248  -6.467  1.00  0.00    -0.342 N 
ATOM     33  H   UNL     1      -4.815   1.669  -7.199  1.00  0.00     0.164 HD
BRANCH  32  34
ATOM     34  C   UNL     1      -3.307   0.176  -6.831  1.00  0.00     0.175 C 
BRANCH  34  35
ATOM     35  C   UNL     1      -1.928   0.391  -6.190  1.00  0.00     0.070 C 
BRANCH  35  36
ATOM     36  C   UNL     1      -0.869   0.780  -7.197  1.00  0.00    -0.045 A 
ATOM     37  C   UNL     1      -0.059  -0.206  -7.781  1.00  0.00     0.007 A 
ATOM     38  C   UNL     1      -0.666   2.122  -7.545  1.00  0.00     0.007 A 
ATOM     39  C   UNL     1       0.929   0.145  -8.701  1.00  0.00     0.046 A 
ATOM     40  C   UNL     1       0.324   2.474  -8.465  1.00  0.00     0.046 A 
ATOM     41  C   UNL     1       1.113   1.481  -9.036  1.00  0.00     0.115 A 
BRANCH  41  42
ATOM     42  O   UNL     1       2.091   1.782  -9.937  1.00  0.00    -0.508 OA
ATOM     43  H   UNL     1       2.772   2.306  -9.483  1.00  0.00     0.293 HD
ENDBRANCH  41  42
ENDBRANCH  35  36
ENDBRANCH  34  35
BRANCH  34  44
ATOM     44  C   UNL     1      -3.938  -1.170  -6.405  1.00  0.00     0.243 C 
ATOM     45  O   UNL     1      -3.542  -1.855  -5.467  1.00  0.00    -0.273 OA
ATOM     46  N   UNL     1      -4.921  -1.611  -7.265  1.00  0.00    -0.341 N 
ATOM     47  H   UNL     1      -5.134  -1.063  -8.096  1.00  0.00     0.164 HD
BRANCH  46  48
ATOM     48  C   UNL     1      -5.616  -2.891  -7.106  1.00  0.00     0.196 C 
BRANCH  48  49
ATOM     49  C   UNL     1      -7.136  -2.727  -7.267  1.00  0.00     0.072 C 
BRANCH  49  50
ATOM     50  C   UNL     1      -7.853  -2.621  -5.940  1.00  0.00    -0.045 A 
ATOM     51  C   UNL     1      -9.172  -2.146  -5.894  1.00  0.00     0.007 A 
ATOM     52  C   UNL     1      -7.213  -2.972  -4.745  1.00  0.00     0.007 A 
ATOM     53  C   UNL     1      -9.840  -2.032  -4.675  1.00  0.00     0.046 A 
ATOM     54  C   UNL     1      -7.881  -2.857  -3.524  1.00  0.00     0.046 A 
ATOM     55  C   UNL     1      -9.190  -2.388  -3.499  1.00  0.00     0.115 A 
BRANCH  55  56
ATOM     56  O   UNL     1      -9.876  -2.260  -2.328  1.00  0.00    -0.508 OA
ATOM     57  H   UNL     1     -10.105  -1.324  -2.208  1.00  0.00     0.293 HD
ENDBRANCH  55  56
ENDBRANCH  49  50
ENDBRANCH  48  49
BRANCH  48  58
ATOM     58  C   UNL     1      -5.090  -3.877  -8.158  1.00  0.00     0.326 C 
ATOM     59  O   UNL     1      -4.020  -4.464  -8.152  1.00  0.00    -0.250 OA
BRANCH  58  60
ATOM     60  O   UNL     1      -5.958  -4.093  -9.179  1.00  0.00    -0.480 OA
ATOM     61  H   UNL     1      -5.557  -4.849  -9.661  1.00  0.00     0.296 HD
ENDBRANCH  58  60
ENDBRANCH  48  58
ENDBRANCH  46  48
ENDBRANCH  34  44
ENDBRANCH  32  34
ENDBRANCH  25  30
ENDBRANCH  23  25
ENDBRANCH   2  23
TORSDOF 28
ENDMDL
MODEL 29
REMARK VINA RESULT:    -5.487      9.220     13.323
REMARK INTER + INTRA:         -19.038
REMARK INTER:                 -13.598
REMARK INTRA:                  -5.440
REMARK UNBOUND:                -5.372
REMARK SMILES CCCCCCC[C@H](N)[C@H](O)C(=O)N[C@H](C)C(=O)N(C)[C@H](CC(C)C)C(=O)N[C@@H](Cc1ccc(O)cc1)C(=O)N[C@@H](Cc1ccc(O)cc1)C(=O)O
REMARK SMILES IDX 18 1 17 2 15 3 16 4 14 5 12 6 13 7 10 9 11 10 8 12 9 13 7 16
REMARK SMILES IDX 6 17 5 18 4 19 3 20 2 21 1 22 19 23 20 24 21 25 22 26 23 27
REMARK SMILES IDX 24 28 25 29 26 30 27 31 28 32 29 34 30 35 31 36 32 37 37 38
REMARK SMILES IDX 33 39 36 40 34 41 35 42 38 44 39 45 40 46 41 48 42 49 43 50
REMARK SMILES IDX 44 51 49 52 45 53 48 54 46 55 47 56 50 58 51 59 52 60
REMARK H PARENT 14 8 11 11 9 14 9 15 28 33 35 43 40 47 47 57 52 61
ROOT
ATOM      1  O   UNL     1     -14.944  -2.121  14.520  1.00  0.00    -0.272 OA
ATOM      2  C   UNL     1     -14.713  -2.943  13.621  1.00  0.00     0.245 C 
ENDROOT
BRANCH   2   3
ATOM      3  C   UNL     1     -13.502  -3.896  13.783  1.00  0.00     0.168 C 
ATOM      4  C   UNL     1     -13.744  -4.893  14.911  1.00  0.00     0.041 C 
BRANCH   3   5
ATOM      5  N   UNL     1     -13.076  -4.556  12.559  1.00  0.00    -0.342 N 
ATOM      6  C   UNL     1     -11.749  -4.622  12.191  1.00  0.00     0.251 C 
ATOM      7  O   UNL     1     -10.843  -4.103  12.833  1.00  0.00    -0.272 OA
ATOM      8  H   UNL     1     -13.742  -4.994  11.926  1.00  0.00     0.164 HD
BRANCH   6   9
ATOM      9  C   UNL     1     -11.521  -5.487  10.940  1.00  0.00     0.219 C 
BRANCH   9  10
ATOM     10  O   UNL     1     -12.733  -6.067  10.441  1.00  0.00    -0.382 OA
ATOM     11  H   UNL     1     -13.234  -6.292  11.256  1.00  0.00     0.211 HD
ENDBRANCH   9  10
BRANCH   9  12
ATOM     12  C   UNL     1     -10.763  -4.740   9.813  1.00  0.00     0.089 C 
BRANCH  12  13
ATOM     13  N   UNL     1      -9.456  -4.291  10.346  1.00  0.00    -0.325 NA
ATOM     14  H   UNL     1      -8.709  -4.649   9.748  1.00  0.00     0.119 HD
ATOM     15  H   UNL     1      -9.303  -4.729  11.257  1.00  0.00     0.119 HD
ENDBRANCH  12  13
BRANCH  12  16
ATOM     16  C   UNL     1     -10.558  -5.527   8.496  1.00  0.00     0.022 C 
BRANCH  16  17
ATOM     17  C   UNL     1      -9.826  -4.851   7.328  1.00  0.00     0.002 C 
BRANCH  17  18
ATOM     18  C   UNL     1      -8.551  -5.556   6.873  1.00  0.00     0.000 C 
BRANCH  18  19
ATOM     19  C   UNL     1      -7.261  -4.922   7.410  1.00  0.00    -0.000 C 
BRANCH  19  20
ATOM     20  C   UNL     1      -7.121  -3.418   7.156  1.00  0.00    -0.000 C 
BRANCH  20  21
ATOM     21  C   UNL     1      -6.870  -2.615   8.435  1.00  0.00    -0.003 C 
ATOM     22  C   UNL     1      -5.391  -2.315   8.621  1.00  0.00     0.004 C 
ENDBRANCH  20  21
ENDBRANCH  19  20
ENDBRANCH  18  19
ENDBRANCH  17  18
ENDBRANCH  16  17
ENDBRANCH  12  16
ENDBRANCH   9  12
ENDBRANCH   6   9
ENDBRANCH   3   5
ENDBRANCH   2   3
BRANCH   2  23
ATOM     23  N   UNL     1     -15.599  -3.080  12.558  1.00  0.00    -0.332 N 
ATOM     24  C   UNL     1     -16.632  -4.102  12.470  1.00  0.00     0.147 C 
BRANCH  23  25
ATOM     25  C   UNL     1     -15.623  -2.069  11.465  1.00  0.00     0.174 C 
BRANCH  25  26
ATOM     26  C   UNL     1     -16.946  -2.079  10.665  1.00  0.00     0.038 C 
BRANCH  26  27
ATOM     27  C   UNL     1     -17.938  -0.926  10.938  1.00  0.00    -0.015 C 
ATOM     28  C   UNL     1     -19.251  -1.092  10.173  1.00  0.00     0.007 C 
ATOM     29  C   UNL     1     -18.206  -0.695  12.423  1.00  0.00     0.007 C 
ENDBRANCH  26  27
ENDBRANCH  25  26
BRANCH  25  30
ATOM     30  C   UNL     1     -14.361  -2.210  10.583  1.00  0.00     0.243 C 
ATOM     31  O   UNL     1     -14.105  -3.249   9.976  1.00  0.00    -0.273 OA
ATOM     32  N   UNL     1     -13.549  -1.107  10.529  1.00  0.00    -0.342 N 
ATOM     33  H   UNL     1     -13.900  -0.239  10.943  1.00  0.00     0.164 HD
BRANCH  32  34
ATOM     34  C   UNL     1     -12.299  -1.068   9.765  1.00  0.00     0.175 C 
BRANCH  34  35
ATOM     35  C   UNL     1     -12.426  -0.164   8.529  1.00  0.00     0.070 C 
BRANCH  35  36
ATOM     36  C   UNL     1     -12.801  -0.930   7.281  1.00  0.00    -0.045 A 
ATOM     37  C   UNL     1     -13.592  -0.321   6.294  1.00  0.00     0.007 A 
ATOM     38  C   UNL     1     -12.389  -2.257   7.100  1.00  0.00     0.007 A 
ATOM     39  C   UNL     1     -13.954  -1.024   5.145  1.00  0.00     0.046 A 
ATOM     40  C   UNL     1     -12.753  -2.962   5.950  1.00  0.00     0.046 A 
ATOM     41  C   UNL     1     -13.532  -2.338   4.982  1.00  0.00     0.115 A 
BRANCH  41  42
ATOM     42  O   UNL     1     -13.911  -2.990   3.846  1.00  0.00    -0.508 OA
ATOM     43  H   UNL     1     -13.229  -3.648   3.631  1.00  0.00     0.293 HD
ENDBRANCH  41  42
ENDBRANCH  35  36
ENDBRANCH  34  35
BRANCH  34  44
ATOM     44  C   UNL     1     -11.173  -0.595  10.713  1.00  0.00     0.243 C 
ATOM     45  O   UNL     1     -11.319   0.240  11.601  1.00  0.00    -0.273 OA
ATOM     46  N   UNL     1      -9.933  -1.104  10.389  1.00  0.00    -0.341 N 
ATOM     47  H   UNL     1      -9.843  -1.702   9.571  1.00  0.00     0.164 HD
BRANCH  46  48
ATOM     48  C   UNL     1      -8.704  -0.746  11.101  1.00  0.00     0.196 C 
BRANCH  48  49
ATOM     49  C   UNL     1      -8.521   0.779  11.170  1.00  0.00     0.072 C 
BRANCH  49  50
ATOM     50  C   UNL     1      -7.113   1.180  11.545  1.00  0.00    -0.045 A 
ATOM     51  C   UNL     1      -6.034   0.357  11.189  1.00  0.00     0.007 A 
ATOM     52  C   UNL     1      -6.865   2.355  12.265  1.00  0.00     0.007 A 
ATOM     53  C   UNL     1      -4.731   0.709  11.541  1.00  0.00     0.046 A 
ATOM     54  C   UNL     1      -5.560   2.708  12.618  1.00  0.00     0.046 A 
ATOM     55  C   UNL     1      -4.504   1.881  12.252  1.00  0.00     0.115 A 
BRANCH  55  56
ATOM     56  O   UNL     1      -3.216   2.189  12.578  1.00  0.00    -0.508 OA
ATOM     57  H   UNL     1      -2.908   1.551  13.241  1.00  0.00     0.293 HD
ENDBRANCH  55  56
ENDBRANCH  49  50
ENDBRANCH  48  49
BRANCH  48  58
ATOM     58  C   UNL     1      -8.765  -1.322  12.522  1.00  0.00     0.326 C 
ATOM     59  O   UNL     1      -9.036  -0.725  13.551  1.00  0.00    -0.250 OA
BRANCH  58  60
ATOM     60  O   UNL     1      -8.492  -2.650  12.580  1.00  0.00    -0.480 OA
ATOM     61  H   UNL     1      -7.643  -2.685  13.073  1.00  0.00     0.296 HD
ENDBRANCH  58  60
ENDBRANCH  48  58
ENDBRANCH  46  48
ENDBRANCH  34  44
ENDBRANCH  32  34
ENDBRANCH  25  30
ENDBRANCH  23  25
ENDBRANCH   2  23
TORSDOF 28
ENDMDL
MODEL 30
REMARK VINA RESULT:    -5.483      5.567     10.351
REMARK INTER + INTRA:         -19.030
REMARK INTER:                 -13.530
REMARK INTRA:                  -5.500
REMARK UNBOUND:                -5.372
REMARK SMILES CCCCCCC[C@H](N)[C@H](O)C(=O)N[C@H](C)C(=O)N(C)[C@H](CC(C)C)C(=O)N[C@@H](Cc1ccc(O)cc1)C(=O)N[C@@H](Cc1ccc(O)cc1)C(=O)O
REMARK SMILES IDX 18 1 17 2 15 3 16 4 14 5 12 6 13 7 10 9 11 10 8 12 9 13 7 16
REMARK SMILES IDX 6 17 5 18 4 19 3 20 2 21 1 22 19 23 20 24 21 25 22 26 23 27
REMARK SMILES IDX 24 28 25 29 26 30 27 31 28 32 29 34 30 35 31 36 32 37 37 38
REMARK SMILES IDX 33 39 36 40 34 41 35 42 38 44 39 45 40 46 41 48 42 49 43 50
REMARK SMILES IDX 44 51 49 52 45 53 48 54 46 55 47 56 50 58 51 59 52 60
REMARK H PARENT 14 8 11 11 9 14 9 15 28 33 35 43 40 47 47 57 52 61
ROOT
ATOM      1  O   UNL     1     -10.350  -2.620  -6.486  1.00  0.00    -0.272 OA
ATOM      2  C   UNL     1      -9.709  -1.985  -5.635  1.00  0.00     0.245 C 
ENDROOT
BRANCH   2   3
ATOM      3  C   UNL     1     -10.274  -0.629  -5.141  1.00  0.00     0.168 C 
ATOM      4  C   UNL     1      -9.196   0.179  -4.428  1.00  0.00     0.041 C 
BRANCH   3   5
ATOM      5  N   UNL     1     -10.956   0.156  -6.159  1.00  0.00    -0.342 N 
ATOM      6  C   UNL     1     -12.331   0.244  -6.210  1.00  0.00     0.251 C 
ATOM      7  O   UNL     1     -13.076  -0.356  -5.443  1.00  0.00    -0.272 OA
ATOM      8  H   UNL     1     -10.443   0.670  -6.872  1.00  0.00     0.164 HD
BRANCH   6   9
ATOM      9  C   UNL     1     -12.823   1.238  -7.274  1.00  0.00     0.219 C 
BRANCH   9  10
ATOM     10  O   UNL     1     -14.114   0.897  -7.794  1.00  0.00    -0.382 OA
ATOM     11  H   UNL     1     -13.909   0.334  -8.572  1.00  0.00     0.211 HD
ENDBRANCH   9  10
BRANCH   9  12
ATOM     12  C   UNL     1     -12.795   2.711  -6.791  1.00  0.00     0.089 C 
BRANCH  12  13
ATOM     13  N   UNL     1     -12.519   2.720  -5.336  1.00  0.00    -0.325 NA
ATOM     14  H   UNL     1     -11.608   2.292  -5.164  1.00  0.00     0.119 HD
ATOM     15  H   UNL     1     -13.193   2.110  -4.867  1.00  0.00     0.119 HD
ENDBRANCH  12  13
BRANCH  12  16
ATOM     16  C   UNL     1     -11.806   3.647  -7.525  1.00  0.00     0.022 C 
BRANCH  16  17
ATOM     17  C   UNL     1     -10.846   4.515  -6.699  1.00  0.00     0.002 C 
BRANCH  17  18
ATOM     18  C   UNL     1     -11.279   5.969  -6.524  1.00  0.00     0.000 C 
BRANCH  18  19
ATOM     19  C   UNL     1     -10.309   6.987  -7.138  1.00  0.00    -0.000 C 
BRANCH  19  20
ATOM     20  C   UNL     1     -10.820   7.694  -8.397  1.00  0.00    -0.000 C 
BRANCH  20  21
ATOM     21  C   UNL     1     -10.704   6.833  -9.657  1.00  0.00    -0.003 C 
ATOM     22  C   UNL     1     -12.047   6.690 -10.357  1.00  0.00     0.004 C 
ENDBRANCH  20  21
ENDBRANCH  19  20
ENDBRANCH  18  19
ENDBRANCH  17  18
ENDBRANCH  16  17
ENDBRANCH  12  16
ENDBRANCH   9  12
ENDBRANCH   6   9
ENDBRANCH   3   5
ENDBRANCH   2   3
BRANCH   2  23
ATOM     23  N   UNL     1      -8.576  -2.546  -5.056  1.00  0.00    -0.332 N 
ATOM     24  C   UNL     1      -8.490  -2.993  -3.674  1.00  0.00     0.147 C 
BRANCH  23  25
ATOM     25  C   UNL     1      -7.378  -2.847  -5.887  1.00  0.00     0.174 C 
BRANCH  25  26
ATOM     26  C   UNL     1      -6.429  -3.874  -5.226  1.00  0.00     0.038 C 
BRANCH  26  27
ATOM     27  C   UNL     1      -5.829  -4.964  -6.142  1.00  0.00    -0.015 C 
ATOM     28  C   UNL     1      -4.813  -4.399  -7.134  1.00  0.00     0.007 C 
ATOM     29  C   UNL     1      -5.234  -6.141  -5.375  1.00  0.00     0.007 C 
ENDBRANCH  26  27
ENDBRANCH  25  26
BRANCH  25  30
ATOM     30  C   UNL     1      -6.679  -1.534  -6.308  1.00  0.00     0.243 C 
ATOM     31  O   UNL     1      -6.101  -0.816  -5.493  1.00  0.00    -0.273 OA
ATOM     32  N   UNL     1      -6.751  -1.224  -7.642  1.00  0.00    -0.342 N 
ATOM     33  H   UNL     1      -7.122  -1.938  -8.274  1.00  0.00     0.164 HD
BRANCH  32  34
ATOM     34  C   UNL     1      -6.169  -0.007  -8.215  1.00  0.00     0.175 C 
BRANCH  34  35
ATOM     35  C   UNL     1      -6.844   1.253  -7.651  1.00  0.00     0.070 C 
BRANCH  35  36
ATOM     36  C   UNL     1      -6.979   2.353  -8.680  1.00  0.00    -0.045 A 
ATOM     37  C   UNL     1      -7.999   3.308  -8.556  1.00  0.00     0.007 A 
ATOM     38  C   UNL     1      -6.109   2.424  -9.776  1.00  0.00     0.007 A 
ATOM     39  C   UNL     1      -8.140   4.319  -9.507  1.00  0.00     0.046 A 
ATOM     40  C   UNL     1      -6.250   3.435 -10.729  1.00  0.00     0.046 A 
ATOM     41  C   UNL     1      -7.265   4.375 -10.585  1.00  0.00     0.115 A 
BRANCH  41  42
ATOM     42  O   UNL     1      -7.439   5.376 -11.494  1.00  0.00    -0.508 OA
ATOM     43  H   UNL     1      -8.244   5.866 -11.257  1.00  0.00     0.293 HD
ENDBRANCH  41  42
ENDBRANCH  35  36
ENDBRANCH  34  35
BRANCH  34  44
ATOM     44  C   UNL     1      -4.650  -0.024  -7.933  1.00  0.00     0.243 C 
ATOM     45  O   UNL     1      -3.861  -0.823  -8.431  1.00  0.00    -0.273 OA
ATOM     46  N   UNL     1      -4.263   0.868  -6.956  1.00  0.00    -0.341 N 
ATOM     47  H   UNL     1      -4.973   1.428  -6.489  1.00  0.00     0.164 HD
BRANCH  46  48
ATOM     48  C   UNL     1      -2.886   0.986  -6.471  1.00  0.00     0.196 C 
BRANCH  48  49
ATOM     49  C   UNL     1      -2.559   2.431  -6.059  1.00  0.00     0.072 C 
BRANCH  49  50
ATOM     50  C   UNL     1      -3.771   3.333  -6.089  1.00  0.00    -0.045 A 
ATOM     51  C   UNL     1      -4.734   3.245  -5.072  1.00  0.00     0.007 A 
ATOM     52  C   UNL     1      -3.963   4.248  -7.132  1.00  0.00     0.007 A 
ATOM     53  C   UNL     1      -5.863   4.063  -5.096  1.00  0.00     0.046 A 
ATOM     54  C   UNL     1      -5.095   5.067  -7.156  1.00  0.00     0.046 A 
ATOM     55  C   UNL     1      -6.035   4.967  -6.137  1.00  0.00     0.115 A 
BRANCH  55  56
ATOM     56  O   UNL     1      -7.154   5.747  -6.124  1.00  0.00    -0.508 OA
ATOM     57  H   UNL     1      -7.680   5.515  -5.343  1.00  0.00     0.293 HD
ENDBRANCH  55  56
ENDBRANCH  49  50
ENDBRANCH  48  49
BRANCH  48  58
ATOM     58  C   UNL     1      -2.699   0.052  -5.268  1.00  0.00     0.326 C 
ATOM     59  O   UNL     1      -2.734  -1.168  -5.266  1.00  0.00    -0.250 OA
BRANCH  58  60
ATOM     60  O   UNL     1      -2.459   0.709  -4.105  1.00  0.00    -0.480 OA
ATOM     61  H   UNL     1      -3.147   1.409  -4.095  1.00  0.00     0.296 HD
ENDBRANCH  58  60
ENDBRANCH  48  58
ENDBRANCH  46  48
ENDBRANCH  34  44
ENDBRANCH  32  34
ENDBRANCH  25  30
ENDBRANCH  23  25
ENDBRANCH   2  23
TORSDOF 28
ENDMDL
MODEL 31
REMARK VINA RESULT:    -5.479      6.090      9.461
REMARK INTER + INTRA:         -19.020
REMARK INTER:                 -13.851
REMARK INTRA:                  -5.168
REMARK UNBOUND:                -5.372
REMARK SMILES CCCCCCC[C@H](N)[C@H](O)C(=O)N[C@H](C)C(=O)N(C)[C@H](CC(C)C)C(=O)N[C@@H](Cc1ccc(O)cc1)C(=O)N[C@@H](Cc1ccc(O)cc1)C(=O)O
REMARK SMILES IDX 18 1 17 2 15 3 16 4 14 5 12 6 13 7 10 9 11 10 8 12 9 13 7 16
REMARK SMILES IDX 6 17 5 18 4 19 3 20 2 21 1 22 19 23 20 24 21 25 22 26 23 27
REMARK SMILES IDX 24 28 25 29 26 30 27 31 28 32 29 34 30 35 31 36 32 37 37 38
REMARK SMILES IDX 33 39 36 40 34 41 35 42 38 44 39 45 40 46 41 48 42 49 43 50
REMARK SMILES IDX 44 51 49 52 45 53 48 54 46 55 47 56 50 58 51 59 52 60
REMARK H PARENT 14 8 11 11 9 14 9 15 28 33 35 43 40 47 47 57 52 61
ROOT
ATOM      1  O   UNL     1     -16.032  -4.124   4.545  1.00  0.00    -0.272 OA
ATOM      2  C   UNL     1     -15.979  -2.890   4.436  1.00  0.00     0.245 C 
ENDROOT
BRANCH   2   3
ATOM      3  C   UNL     1     -14.902  -2.120   5.241  1.00  0.00     0.168 C 
ATOM      4  C   UNL     1     -15.071  -2.358   6.737  1.00  0.00     0.041 C 
BRANCH   3   5
ATOM      5  N   UNL     1     -13.533  -2.353   4.806  1.00  0.00    -0.342 N 
ATOM      6  C   UNL     1     -12.774  -1.357   4.229  1.00  0.00     0.251 C 
ATOM      7  O   UNL     1     -13.198  -0.228   4.002  1.00  0.00    -0.272 OA
ATOM      8  H   UNL     1     -13.084  -3.259   4.910  1.00  0.00     0.164 HD
BRANCH   6   9
ATOM      9  C   UNL     1     -11.319  -1.786   3.982  1.00  0.00     0.219 C 
BRANCH   9  10
ATOM     10  O   UNL     1     -10.956  -2.959   4.720  1.00  0.00    -0.382 OA
ATOM     11  H   UNL     1     -11.663  -3.033   5.398  1.00  0.00     0.211 HD
ENDBRANCH   9  10
BRANCH   9  12
ATOM     12  C   UNL     1     -10.981  -1.956   2.477  1.00  0.00     0.089 C 
BRANCH  12  13
ATOM     13  N   UNL     1     -12.244  -2.178   1.737  1.00  0.00    -0.325 NA
ATOM     14  H   UNL     1     -12.058  -2.769   0.925  1.00  0.00     0.119 HD
ATOM     15  H   UNL     1     -12.562  -1.286   1.350  1.00  0.00     0.119 HD
ENDBRANCH  12  13
BRANCH  12  16
ATOM     16  C   UNL     1     -10.180  -0.802   1.828  1.00  0.00     0.022 C 
BRANCH  16  17
ATOM     17  C   UNL     1     -10.933   0.431   1.309  1.00  0.00     0.002 C 
BRANCH  17  18
ATOM     18  C   UNL     1     -10.391   1.771   1.800  1.00  0.00     0.000 C 
BRANCH  18  19
ATOM     19  C   UNL     1      -9.500   2.495   0.782  1.00  0.00    -0.000 C 
BRANCH  19  20
ATOM     20  C   UNL     1     -10.002   2.456  -0.665  1.00  0.00    -0.000 C 
BRANCH  20  21
ATOM     21  C   UNL     1      -9.019   1.777  -1.622  1.00  0.00    -0.003 C 
ATOM     22  C   UNL     1      -9.581   0.469  -2.158  1.00  0.00     0.004 C 
ENDBRANCH  20  21
ENDBRANCH  19  20
ENDBRANCH  18  19
ENDBRANCH  17  18
ENDBRANCH  16  17
ENDBRANCH  12  16
ENDBRANCH   9  12
ENDBRANCH   6   9
ENDBRANCH   3   5
ENDBRANCH   2   3
BRANCH   2  23
ATOM     23  N   UNL     1     -16.794  -2.237   3.517  1.00  0.00    -0.332 N 
ATOM     24  C   UNL     1     -18.072  -2.744   3.040  1.00  0.00     0.147 C 
BRANCH  23  25
ATOM     25  C   UNL     1     -16.447  -0.868   3.046  1.00  0.00     0.174 C 
BRANCH  25  26
ATOM     26  C   UNL     1     -17.590   0.151   3.265  1.00  0.00     0.038 C 
BRANCH  26  27
ATOM     27  C   UNL     1     -17.658   0.840   4.646  1.00  0.00    -0.015 C 
ATOM     28  C   UNL     1     -16.480   1.783   4.888  1.00  0.00     0.007 C 
ATOM     29  C   UNL     1     -18.981   1.557   4.903  1.00  0.00     0.007 C 
ENDBRANCH  26  27
ENDBRANCH  25  26
BRANCH  25  30
ATOM     30  C   UNL     1     -15.932  -0.921   1.589  1.00  0.00     0.243 C 
ATOM     31  O   UNL     1     -15.172  -1.806   1.200  1.00  0.00    -0.273 OA
ATOM     32  N   UNL     1     -16.373   0.084   0.767  1.00  0.00    -0.342 N 
ATOM     33  H   UNL     1     -17.111   0.698   1.123  1.00  0.00     0.164 HD
BRANCH  32  34
ATOM     34  C   UNL     1     -15.967   0.209  -0.635  1.00  0.00     0.175 C 
BRANCH  34  35
ATOM     35  C   UNL     1     -17.179   0.454  -1.548  1.00  0.00     0.070 C 
BRANCH  35  36
ATOM     36  C   UNL     1     -17.399  -0.665  -2.541  1.00  0.00    -0.045 A 
ATOM     37  C   UNL     1     -16.456  -1.698  -2.653  1.00  0.00     0.007 A 
ATOM     38  C   UNL     1     -18.525  -0.676  -3.374  1.00  0.00     0.007 A 
ATOM     39  C   UNL     1     -16.643  -2.728  -3.576  1.00  0.00     0.046 A 
ATOM     40  C   UNL     1     -18.713  -1.705  -4.299  1.00  0.00     0.046 A 
ATOM     41  C   UNL     1     -17.770  -2.724  -4.391  1.00  0.00     0.115 A 
BRANCH  41  42
ATOM     42  O   UNL     1     -17.913  -3.746  -5.281  1.00  0.00    -0.508 OA
ATOM     43  H   UNL     1     -17.567  -3.453  -6.140  1.00  0.00     0.293 HD
ENDBRANCH  41  42
ENDBRANCH  35  36
ENDBRANCH  34  35
BRANCH  34  44
ATOM     44  C   UNL     1     -14.930   1.351  -0.733  1.00  0.00     0.243 C 
ATOM     45  O   UNL     1     -13.719   1.180  -0.847  1.00  0.00    -0.273 OA
ATOM     46  N   UNL     1     -15.474   2.604  -0.550  1.00  0.00    -0.341 N 
ATOM     47  H   UNL     1     -16.467   2.686  -0.342  1.00  0.00     0.164 HD
BRANCH  46  48
ATOM     48  C   UNL     1     -14.679   3.834  -0.532  1.00  0.00     0.196 C 
BRANCH  48  49
ATOM     49  C   UNL     1     -13.470   3.705   0.410  1.00  0.00     0.072 C 
BRANCH  49  50
ATOM     50  C   UNL     1     -13.685   4.409   1.731  1.00  0.00    -0.045 A 
ATOM     51  C   UNL     1     -13.948   5.786   1.754  1.00  0.00     0.007 A 
ATOM     52  C   UNL     1     -13.605   3.710   2.942  1.00  0.00     0.007 A 
ATOM     53  C   UNL     1     -14.135   6.449   2.967  1.00  0.00     0.046 A 
ATOM     54  C   UNL     1     -13.791   4.374   4.157  1.00  0.00     0.046 A 
ATOM     55  C   UNL     1     -14.055   5.739   4.159  1.00  0.00     0.115 A 
BRANCH  55  56
ATOM     56  O   UNL     1     -14.242   6.424   5.323  1.00  0.00    -0.508 OA
ATOM     57  H   UNL     1     -15.150   6.767   5.334  1.00  0.00     0.293 HD
ENDBRANCH  55  56
ENDBRANCH  49  50
ENDBRANCH  48  49
BRANCH  48  58
ATOM     58  C   UNL     1     -14.191   4.133  -1.957  1.00  0.00     0.326 C 
ATOM     59  O   UNL     1     -13.047   4.062  -2.376  1.00  0.00    -0.250 OA
BRANCH  58  60
ATOM     60  O   UNL     1     -15.186   4.499  -2.803  1.00  0.00    -0.480 OA
ATOM     61  H   UNL     1     -15.272   3.723  -3.399  1.00  0.00     0.296 HD
ENDBRANCH  58  60
ENDBRANCH  48  58
ENDBRANCH  46  48
ENDBRANCH  34  44
ENDBRANCH  32  34
ENDBRANCH  25  30
ENDBRANCH  23  25
ENDBRANCH   2  23
TORSDOF 28
ENDMDL
MODEL 32
REMARK VINA RESULT:    -5.459      6.051     11.842
REMARK INTER + INTRA:         -18.968
REMARK INTER:                 -12.776
REMARK INTRA:                  -6.192
REMARK UNBOUND:                -5.372
REMARK SMILES CCCCCCC[C@H](N)[C@H](O)C(=O)N[C@H](C)C(=O)N(C)[C@H](CC(C)C)C(=O)N[C@@H](Cc1ccc(O)cc1)C(=O)N[C@@H](Cc1ccc(O)cc1)C(=O)O
REMARK SMILES IDX 18 1 17 2 15 3 16 4 14 5 12 6 13 7 10 9 11 10 8 12 9 13 7 16
REMARK SMILES IDX 6 17 5 18 4 19 3 20 2 21 1 22 19 23 20 24 21 25 22 26 23 27
REMARK SMILES IDX 24 28 25 29 26 30 27 31 28 32 29 34 30 35 31 36 32 37 37 38
REMARK SMILES IDX 33 39 36 40 34 41 35 42 38 44 39 45 40 46 41 48 42 49 43 50
REMARK SMILES IDX 44 51 49 52 45 53 48 54 46 55 47 56 50 58 51 59 52 60
REMARK H PARENT 14 8 11 11 9 14 9 15 28 33 35 43 40 47 47 57 52 61
ROOT
ATOM      1  O   UNL     1      -9.106   7.217  -8.340  1.00  0.00    -0.272 OA
ATOM      2  C   UNL     1      -9.534   6.106  -7.994  1.00  0.00     0.245 C 
ENDROOT
BRANCH   2   3
ATOM      3  C   UNL     1      -9.661   5.799  -6.481  1.00  0.00     0.168 C 
ATOM      4  C   UNL     1     -11.123   5.807  -6.048  1.00  0.00     0.041 C 
BRANCH   3   5
ATOM      5  N   UNL     1      -8.972   4.595  -6.041  1.00  0.00    -0.342 N 
ATOM      6  C   UNL     1      -8.563   4.427  -4.735  1.00  0.00     0.251 C 
ATOM      7  O   UNL     1      -8.706   5.280  -3.866  1.00  0.00    -0.272 OA
ATOM      8  H   UNL     1      -8.766   3.832  -6.681  1.00  0.00     0.164 HD
BRANCH   6   9
ATOM      9  C   UNL     1      -7.987   3.027  -4.469  1.00  0.00     0.219 C 
BRANCH   9  10
ATOM     10  O   UNL     1      -6.612   3.061  -4.068  1.00  0.00    -0.382 OA
ATOM     11  H   UNL     1      -6.123   2.938  -4.911  1.00  0.00     0.211 HD
ENDBRANCH   9  10
BRANCH   9  12
ATOM     12  C   UNL     1      -8.833   2.202  -3.463  1.00  0.00     0.089 C 
BRANCH  12  13
ATOM     13  N   UNL     1     -10.264   2.498  -3.704  1.00  0.00    -0.325 NA
ATOM     14  H   UNL     1     -10.828   2.036  -2.988  1.00  0.00     0.119 HD
ATOM     15  H   UNL     1     -10.548   2.066  -4.586  1.00  0.00     0.119 HD
ENDBRANCH  12  13
BRANCH  12  16
ATOM     16  C   UNL     1      -8.598   0.673  -3.473  1.00  0.00     0.022 C 
BRANCH  16  17
ATOM     17  C   UNL     1      -9.626  -0.237  -4.159  1.00  0.00     0.002 C 
BRANCH  17  18
ATOM     18  C   UNL     1      -9.909  -1.551  -3.434  1.00  0.00     0.000 C 
BRANCH  18  19
ATOM     19  C   UNL     1      -9.447  -2.798  -4.199  1.00  0.00    -0.000 C 
BRANCH  19  20
ATOM     20  C   UNL     1      -8.679  -2.519  -5.494  1.00  0.00    -0.000 C 
BRANCH  20  21
ATOM     21  C   UNL     1      -7.239  -3.041  -5.462  1.00  0.00    -0.003 C 
ATOM     22  C   UNL     1      -6.541  -2.659  -4.166  1.00  0.00     0.004 C 
ENDBRANCH  20  21
ENDBRANCH  19  20
ENDBRANCH  18  19
ENDBRANCH  17  18
ENDBRANCH  16  17
ENDBRANCH  12  16
ENDBRANCH   9  12
ENDBRANCH   6   9
ENDBRANCH   3   5
ENDBRANCH   2   3
BRANCH   2  23
ATOM     23  N   UNL     1     -10.001   5.211  -8.951  1.00  0.00    -0.332 N 
ATOM     24  C   UNL     1     -11.406   4.978  -9.247  1.00  0.00     0.147 C 
BRANCH  23  25
ATOM     25  C   UNL     1      -9.045   4.507  -9.850  1.00  0.00     0.174 C 
BRANCH  25  26
ATOM     26  C   UNL     1      -9.613   4.277 -11.270  1.00  0.00     0.038 C 
BRANCH  26  27
ATOM     27  C   UNL     1      -8.628   4.426 -12.451  1.00  0.00    -0.015 C 
ATOM     28  C   UNL     1      -7.388   5.238 -12.078  1.00  0.00     0.007 C 
ATOM     29  C   UNL     1      -8.229   3.095 -13.082  1.00  0.00     0.007 C 
ENDBRANCH  26  27
ENDBRANCH  25  26
BRANCH  25  30
ATOM     30  C   UNL     1      -8.528   3.218  -9.171  1.00  0.00     0.243 C 
ATOM     31  O   UNL     1      -9.207   2.595  -8.356  1.00  0.00    -0.273 OA
ATOM     32  N   UNL     1      -7.265   2.823  -9.532  1.00  0.00    -0.342 N 
ATOM     33  H   UNL     1      -6.823   3.310 -10.316  1.00  0.00     0.164 HD
BRANCH  32  34
ATOM     34  C   UNL     1      -6.603   1.643  -8.971  1.00  0.00     0.175 C 
BRANCH  34  35
ATOM     35  C   UNL     1      -5.659   0.992  -9.994  1.00  0.00     0.070 C 
BRANCH  35  36
ATOM     36  C   UNL     1      -5.117  -0.340  -9.526  1.00  0.00    -0.045 A 
ATOM     37  C   UNL     1      -6.001  -1.376  -9.186  1.00  0.00     0.007 A 
ATOM     38  C   UNL     1      -3.738  -0.552  -9.403  1.00  0.00     0.007 A 
ATOM     39  C   UNL     1      -5.511  -2.604  -8.740  1.00  0.00     0.046 A 
ATOM     40  C   UNL     1      -3.247  -1.781  -8.955  1.00  0.00     0.046 A 
ATOM     41  C   UNL     1      -4.139  -2.797  -8.628  1.00  0.00     0.115 A 
BRANCH  41  42
ATOM     42  O   UNL     1      -3.702  -4.010  -8.186  1.00  0.00    -0.508 OA
ATOM     43  H   UNL     1      -3.331  -4.495  -8.942  1.00  0.00     0.293 HD
ENDBRANCH  41  42
ENDBRANCH  35  36
ENDBRANCH  34  35
BRANCH  34  44
ATOM     44  C   UNL     1      -5.856   2.077  -7.690  1.00  0.00     0.243 C 
ATOM     45  O   UNL     1      -5.913   1.481  -6.618  1.00  0.00    -0.273 OA
ATOM     46  N   UNL     1      -5.207   3.287  -7.816  1.00  0.00    -0.341 N 
ATOM     47  H   UNL     1      -5.286   3.801  -8.690  1.00  0.00     0.164 HD
BRANCH  46  48
ATOM     48  C   UNL     1      -4.489   3.934  -6.717  1.00  0.00     0.196 C 
BRANCH  48  49
ATOM     49  C   UNL     1      -3.018   4.194  -7.085  1.00  0.00     0.072 C 
BRANCH  49  50
ATOM     50  C   UNL     1      -2.221   2.918  -7.232  1.00  0.00    -0.045 A 
ATOM     51  C   UNL     1      -2.253   1.953  -6.214  1.00  0.00     0.007 A 
ATOM     52  C   UNL     1      -1.428   2.690  -8.364  1.00  0.00     0.007 A 
ATOM     53  C   UNL     1      -1.511   0.778  -6.332  1.00  0.00     0.046 A 
ATOM     54  C   UNL     1      -0.685   1.513  -8.481  1.00  0.00     0.046 A 
ATOM     55  C   UNL     1      -0.733   0.566  -7.464  1.00  0.00     0.115 A 
BRANCH  55  56
ATOM     56  O   UNL     1      -0.022  -0.594  -7.540  1.00  0.00    -0.508 OA
ATOM     57  H   UNL     1       0.281  -0.708  -8.455  1.00  0.00     0.293 HD
ENDBRANCH  55  56
ENDBRANCH  49  50
ENDBRANCH  48  49
BRANCH  48  58
ATOM     58  C   UNL     1      -5.179   5.264  -6.384  1.00  0.00     0.326 C 
ATOM     59  O   UNL     1      -4.905   6.033  -5.476  1.00  0.00    -0.250 OA
BRANCH  58  60
ATOM     60  O   UNL     1      -6.190   5.577  -7.233  1.00  0.00    -0.480 OA
ATOM     61  H   UNL     1      -5.854   6.371  -7.701  1.00  0.00     0.296 HD
ENDBRANCH  58  60
ENDBRANCH  48  58
ENDBRANCH  46  48
ENDBRANCH  34  44
ENDBRANCH  32  34
ENDBRANCH  25  30
ENDBRANCH  23  25
ENDBRANCH   2  23
TORSDOF 28
ENDMDL
MODEL 33
REMARK VINA RESULT:    -5.448      2.540      9.199
REMARK INTER + INTRA:         -18.943
REMARK INTER:                 -14.979
REMARK INTRA:                  -3.963
REMARK UNBOUND:                -5.372
REMARK SMILES CCCCCCC[C@H](N)[C@H](O)C(=O)N[C@H](C)C(=O)N(C)[C@H](CC(C)C)C(=O)N[C@@H](Cc1ccc(O)cc1)C(=O)N[C@@H](Cc1ccc(O)cc1)C(=O)O
REMARK SMILES IDX 18 1 17 2 15 3 16 4 14 5 12 6 13 7 10 9 11 10 8 12 9 13 7 16
REMARK SMILES IDX 6 17 5 18 4 19 3 20 2 21 1 22 19 23 20 24 21 25 22 26 23 27
REMARK SMILES IDX 24 28 25 29 26 30 27 31 28 32 29 34 30 35 31 36 32 37 37 38
REMARK SMILES IDX 33 39 36 40 34 41 35 42 38 44 39 45 40 46 41 48 42 49 43 50
REMARK SMILES IDX 44 51 49 52 45 53 48 54 46 55 47 56 50 58 51 59 52 60
REMARK H PARENT 14 8 11 11 9 14 9 15 28 33 35 43 40 47 47 57 52 61
ROOT
ATOM      1  O   UNL     1      -6.759  -2.741  -0.671  1.00  0.00    -0.272 OA
ATOM      2  C   UNL     1      -7.933  -2.344  -0.704  1.00  0.00     0.245 C 
ENDROOT
BRANCH   2   3
ATOM      3  C   UNL     1      -8.670  -2.096   0.635  1.00  0.00     0.168 C 
ATOM      4  C   UNL     1     -10.181  -2.122   0.436  1.00  0.00     0.041 C 
BRANCH   3   5
ATOM      5  N   UNL     1      -8.253  -2.957   1.731  1.00  0.00    -0.342 N 
ATOM      6  C   UNL     1      -8.099  -2.479   3.015  1.00  0.00     0.251 C 
ATOM      7  O   UNL     1      -8.258  -1.303   3.322  1.00  0.00    -0.272 OA
ATOM      8  H   UNL     1      -8.058  -3.946   1.591  1.00  0.00     0.164 HD
BRANCH   6   9
ATOM      9  C   UNL     1      -7.794  -3.592   4.031  1.00  0.00     0.219 C 
BRANCH   9  10
ATOM     10  O   UNL     1      -7.984  -4.904   3.487  1.00  0.00    -0.382 OA
ATOM     11  H   UNL     1      -7.089  -5.306   3.535  1.00  0.00     0.211 HD
ENDBRANCH   9  10
BRANCH   9  12
ATOM     12  C   UNL     1      -6.388  -3.461   4.673  1.00  0.00     0.089 C 
BRANCH  12  13
ATOM     13  N   UNL     1      -5.459  -2.916   3.657  1.00  0.00    -0.325 NA
ATOM     14  H   UNL     1      -5.002  -3.689   3.171  1.00  0.00     0.119 HD
ATOM     15  H   UNL     1      -4.704  -2.416   4.133  1.00  0.00     0.119 HD
ENDBRANCH  12  13
BRANCH  12  16
ATOM     16  C   UNL     1      -6.311  -2.619   5.970  1.00  0.00     0.022 C 
BRANCH  16  17
ATOM     17  C   UNL     1      -6.679  -3.274   7.308  1.00  0.00     0.002 C 
BRANCH  17  18
ATOM     18  C   UNL     1      -7.404  -4.613   7.193  1.00  0.00     0.000 C 
BRANCH  18  19
ATOM     19  C   UNL     1      -8.911  -4.533   7.468  1.00  0.00    -0.000 C 
BRANCH  19  20
ATOM     20  C   UNL     1      -9.578  -5.865   7.826  1.00  0.00    -0.000 C 
BRANCH  20  21
ATOM     21  C   UNL     1     -11.038  -5.945   7.372  1.00  0.00    -0.003 C 
ATOM     22  C   UNL     1     -11.658  -4.562   7.251  1.00  0.00     0.004 C 
ENDBRANCH  20  21
ENDBRANCH  19  20
ENDBRANCH  18  19
ENDBRANCH  17  18
ENDBRANCH  16  17
ENDBRANCH  12  16
ENDBRANCH   9  12
ENDBRANCH   6   9
ENDBRANCH   3   5
ENDBRANCH   2   3
BRANCH   2  23
ATOM     23  N   UNL     1      -8.522  -2.016  -1.921  1.00  0.00    -0.332 N 
ATOM     24  C   UNL     1      -9.957  -1.932  -2.148  1.00  0.00     0.147 C 
BRANCH  23  25
ATOM     25  C   UNL     1      -7.680  -1.592  -3.073  1.00  0.00     0.174 C 
BRANCH  25  26
ATOM     26  C   UNL     1      -8.317  -0.447  -3.895  1.00  0.00     0.038 C 
BRANCH  26  27
ATOM     27  C   UNL     1      -7.777   0.979  -3.645  1.00  0.00    -0.015 C 
ATOM     28  C   UNL     1      -8.686   1.796  -2.728  1.00  0.00     0.007 C 
ATOM     29  C   UNL     1      -6.338   1.003  -3.135  1.00  0.00     0.007 C 
ENDBRANCH  26  27
ENDBRANCH  25  26
BRANCH  25  30
ATOM     30  C   UNL     1      -7.282  -2.820  -3.922  1.00  0.00     0.243 C 
ATOM     31  O   UNL     1      -7.883  -3.120  -4.953  1.00  0.00    -0.273 OA
ATOM     32  N   UNL     1      -6.224  -3.552  -3.448  1.00  0.00    -0.342 N 
ATOM     33  H   UNL     1      -5.690  -3.162  -2.668  1.00  0.00     0.164 HD
BRANCH  32  34
ATOM     34  C   UNL     1      -5.727  -4.763  -4.107  1.00  0.00     0.175 C 
BRANCH  34  35
ATOM     35  C   UNL     1      -4.507  -4.457  -4.990  1.00  0.00     0.070 C 
BRANCH  35  36
ATOM     36  C   UNL     1      -4.884  -3.837  -6.316  1.00  0.00    -0.045 A 
ATOM     37  C   UNL     1      -4.496  -2.521  -6.611  1.00  0.00     0.007 A 
ATOM     38  C   UNL     1      -5.641  -4.551  -7.254  1.00  0.00     0.007 A 
ATOM     39  C   UNL     1      -4.852  -1.935  -7.826  1.00  0.00     0.046 A 
ATOM     40  C   UNL     1      -5.999  -3.964  -8.470  1.00  0.00     0.046 A 
ATOM     41  C   UNL     1      -5.599  -2.661  -8.746  1.00  0.00     0.115 A 
BRANCH  41  42
ATOM     42  O   UNL     1      -5.929  -2.051  -9.920  1.00  0.00    -0.508 OA
ATOM     43  H   UNL     1      -6.802  -1.639  -9.815  1.00  0.00     0.293 HD
ENDBRANCH  41  42
ENDBRANCH  35  36
ENDBRANCH  34  35
BRANCH  34  44
ATOM     44  C   UNL     1      -5.402  -5.805  -3.013  1.00  0.00     0.243 C 
ATOM     45  O   UNL     1      -5.234  -7.003  -3.224  1.00  0.00    -0.273 OA
ATOM     46  N   UNL     1      -5.445  -5.290  -1.735  1.00  0.00    -0.341 N 
ATOM     47  H   UNL     1      -5.705  -4.316  -1.603  1.00  0.00     0.164 HD
BRANCH  46  48
ATOM     48  C   UNL     1      -5.239  -6.100  -0.533  1.00  0.00     0.196 C 
BRANCH  48  49
ATOM     49  C   UNL     1      -3.785  -6.011  -0.040  1.00  0.00     0.072 C 
BRANCH  49  50
ATOM     50  C   UNL     1      -3.291  -7.310   0.556  1.00  0.00    -0.045 A 
ATOM     51  C   UNL     1      -2.975  -7.378   1.920  1.00  0.00     0.007 A 
ATOM     52  C   UNL     1      -3.122  -8.450  -0.241  1.00  0.00     0.007 A 
ATOM     53  C   UNL     1      -2.506  -8.567   2.478  1.00  0.00     0.046 A 
ATOM     54  C   UNL     1      -2.652  -9.641   0.317  1.00  0.00     0.046 A 
ATOM     55  C   UNL     1      -2.349  -9.689   1.674  1.00  0.00     0.115 A 
BRANCH  55  56
ATOM     56  O   UNL     1      -1.886 -10.832   2.257  1.00  0.00    -0.508 OA
ATOM     57  H   UNL     1      -1.644 -10.630   3.175  1.00  0.00     0.293 HD
ENDBRANCH  55  56
ENDBRANCH  49  50
ENDBRANCH  48  49
BRANCH  48  58
ATOM     58  C   UNL     1      -6.187  -5.609   0.570  1.00  0.00     0.326 C 
ATOM     59  O   UNL     1      -7.303  -6.031   0.827  1.00  0.00    -0.250 OA
BRANCH  58  60
ATOM     60  O   UNL     1      -5.671  -4.601   1.318  1.00  0.00    -0.480 OA
ATOM     61  H   UNL     1      -4.985  -4.213   0.732  1.00  0.00     0.296 HD
ENDBRANCH  58  60
ENDBRANCH  48  58
ENDBRANCH  46  48
ENDBRANCH  34  44
ENDBRANCH  32  34
ENDBRANCH  25  30
ENDBRANCH  23  25
ENDBRANCH   2  23
TORSDOF 28
ENDMDL
MODEL 34
REMARK VINA RESULT:    -5.448      6.391     11.648
REMARK INTER + INTRA:         -18.941
REMARK INTER:                 -13.736
REMARK INTRA:                  -5.205
REMARK UNBOUND:                -5.372
REMARK SMILES CCCCCCC[C@H](N)[C@H](O)C(=O)N[C@H](C)C(=O)N(C)[C@H](CC(C)C)C(=O)N[C@@H](Cc1ccc(O)cc1)C(=O)N[C@@H](Cc1ccc(O)cc1)C(=O)O
REMARK SMILES IDX 18 1 17 2 15 3 16 4 14 5 12 6 13 7 10 9 11 10 8 12 9 13 7 16
REMARK SMILES IDX 6 17 5 18 4 19 3 20 2 21 1 22 19 23 20 24 21 25 22 26 23 27
REMARK SMILES IDX 24 28 25 29 26 30 27 31 28 32 29 34 30 35 31 36 32 37 37 38
REMARK SMILES IDX 33 39 36 40 34 41 35 42 38 44 39 45 40 46 41 48 42 49 43 50
REMARK SMILES IDX 44 51 49 52 45 53 48 54 46 55 47 56 50 58 51 59 52 60
REMARK H PARENT 14 8 11 11 9 14 9 15 28 33 35 43 40 47 47 57 52 61
ROOT
ATOM      1  O   UNL     1      -7.386  -0.658   9.636  1.00  0.00    -0.272 OA
ATOM      2  C   UNL     1      -8.196  -1.413  10.194  1.00  0.00     0.245 C 
ENDROOT
BRANCH   2   3
ATOM      3  C   UNL     1      -9.369  -0.786  10.988  1.00  0.00     0.168 C 
ATOM      4  C   UNL     1     -10.150   0.193  10.118  1.00  0.00     0.041 C 
BRANCH   3   5
ATOM      5  N   UNL     1     -10.244  -1.744  11.645  1.00  0.00    -0.342 N 
ATOM      6  C   UNL     1     -10.236  -1.918  13.013  1.00  0.00     0.251 C 
ATOM      7  O   UNL     1      -9.476  -1.320  13.767  1.00  0.00    -0.272 OA
ATOM      8  H   UNL     1     -10.894  -2.324  11.121  1.00  0.00     0.164 HD
BRANCH   6   9
ATOM      9  C   UNL     1     -11.338  -2.874  13.497  1.00  0.00     0.219 C 
BRANCH   9  10
ATOM     10  O   UNL     1     -10.836  -3.910  14.350  1.00  0.00    -0.382 OA
ATOM     11  H   UNL     1      -9.881  -3.695  14.436  1.00  0.00     0.211 HD
ENDBRANCH   9  10
BRANCH   9  12
ATOM     12  C   UNL     1     -12.531  -2.141  14.165  1.00  0.00     0.089 C 
BRANCH  12  13
ATOM     13  N   UNL     1     -12.508  -0.724  13.734  1.00  0.00    -0.325 NA
ATOM     14  H   UNL     1     -13.286  -0.227  14.173  1.00  0.00     0.119 HD
ATOM     15  H   UNL     1     -12.696  -0.680  12.730  1.00  0.00     0.119 HD
ENDBRANCH  12  13
BRANCH  12  16
ATOM     16  C   UNL     1     -13.930  -2.751  13.911  1.00  0.00     0.022 C 
BRANCH  16  17
ATOM     17  C   UNL     1     -14.792  -2.194  12.770  1.00  0.00     0.002 C 
BRANCH  17  18
ATOM     18  C   UNL     1     -14.497  -2.782  11.392  1.00  0.00     0.000 C 
BRANCH  18  19
ATOM     19  C   UNL     1     -13.728  -1.835  10.461  1.00  0.00    -0.000 C 
BRANCH  19  20
ATOM     20  C   UNL     1     -13.884  -2.125   8.966  1.00  0.00    -0.000 C 
BRANCH  20  21
ATOM     21  C   UNL     1     -12.732  -1.569   8.124  1.00  0.00    -0.003 C 
ATOM     22  C   UNL     1     -13.046  -0.174   7.607  1.00  0.00     0.004 C 
ENDBRANCH  20  21
ENDBRANCH  19  20
ENDBRANCH  18  19
ENDBRANCH  17  18
ENDBRANCH  16  17
ENDBRANCH  12  16
ENDBRANCH   9  12
ENDBRANCH   6   9
ENDBRANCH   3   5
ENDBRANCH   2   3
BRANCH   2  23
ATOM     23  N   UNL     1      -8.113  -2.788  10.000  1.00  0.00    -0.332 N 
ATOM     24  C   UNL     1      -7.553  -3.726  10.962  1.00  0.00     0.147 C 
BRANCH  23  25
ATOM     25  C   UNL     1      -8.732  -3.416   8.800  1.00  0.00     0.174 C 
BRANCH  25  26
ATOM     26  C   UNL     1      -9.510  -4.711   9.132  1.00  0.00     0.038 C 
BRANCH  26  27
ATOM     27  C   UNL     1     -11.008  -4.745   8.754  1.00  0.00    -0.015 C 
ATOM     28  C   UNL     1     -11.278  -5.594   7.512  1.00  0.00     0.007 C 
ATOM     29  C   UNL     1     -11.915  -5.173   9.905  1.00  0.00     0.007 C 
ENDBRANCH  26  27
ENDBRANCH  25  26
BRANCH  25  30
ATOM     30  C   UNL     1      -7.675  -3.594   7.687  1.00  0.00     0.243 C 
ATOM     31  O   UNL     1      -6.483  -3.356   7.878  1.00  0.00    -0.273 OA
ATOM     32  N   UNL     1      -8.154  -4.028   6.478  1.00  0.00    -0.342 N 
ATOM     33  H   UNL     1      -9.128  -4.339   6.438  1.00  0.00     0.164 HD
BRANCH  32  34
ATOM     34  C   UNL     1      -7.301  -4.227   5.302  1.00  0.00     0.175 C 
BRANCH  34  35
ATOM     35  C   UNL     1      -7.520  -5.615   4.681  1.00  0.00     0.070 C 
BRANCH  35  36
ATOM     36  C   UNL     1      -6.234  -6.391   4.516  1.00  0.00    -0.045 A 
ATOM     37  C   UNL     1      -6.028  -7.572   5.247  1.00  0.00     0.007 A 
ATOM     38  C   UNL     1      -5.225  -5.937   3.657  1.00  0.00     0.007 A 
ATOM     39  C   UNL     1      -4.838  -8.288   5.111  1.00  0.00     0.046 A 
ATOM     40  C   UNL     1      -4.032  -6.653   3.522  1.00  0.00     0.046 A 
ATOM     41  C   UNL     1      -3.851  -7.824   4.251  1.00  0.00     0.115 A 
BRANCH  41  42
ATOM     42  O   UNL     1      -2.702  -8.551   4.150  1.00  0.00    -0.508 OA
ATOM     43  H   UNL     1      -2.385  -8.494   3.233  1.00  0.00     0.293 HD
ENDBRANCH  41  42
ENDBRANCH  35  36
ENDBRANCH  34  35
BRANCH  34  44
ATOM     44  C   UNL     1      -7.599  -3.091   4.297  1.00  0.00     0.243 C 
ATOM     45  O   UNL     1      -7.038  -1.999   4.298  1.00  0.00    -0.273 OA
ATOM     46  N   UNL     1      -8.661  -3.363   3.461  1.00  0.00    -0.341 N 
ATOM     47  H   UNL     1      -9.170  -4.236   3.576  1.00  0.00     0.164 HD
BRANCH  46  48
ATOM     48  C   UNL     1      -9.172  -2.412   2.472  1.00  0.00     0.196 C 
BRANCH  48  49
ATOM     49  C   UNL     1      -9.410  -3.091   1.112  1.00  0.00     0.072 C 
BRANCH  49  50
ATOM     50  C   UNL     1      -8.336  -4.097   0.768  1.00  0.00    -0.045 A 
ATOM     51  C   UNL     1      -7.008  -3.675   0.608  1.00  0.00     0.007 A 
ATOM     52  C   UNL     1      -8.647  -5.450   0.586  1.00  0.00     0.007 A 
ATOM     53  C   UNL     1      -6.010  -4.592   0.277  1.00  0.00     0.046 A 
ATOM     54  C   UNL     1      -7.649  -6.369   0.254  1.00  0.00     0.046 A 
ATOM     55  C   UNL     1      -6.337  -5.931   0.104  1.00  0.00     0.115 A 
BRANCH  55  56
ATOM     56  O   UNL     1      -5.333  -6.795  -0.220  1.00  0.00    -0.508 OA
ATOM     57  H   UNL     1      -5.658  -7.701  -0.098  1.00  0.00     0.293 HD
ENDBRANCH  55  56
ENDBRANCH  49  50
ENDBRANCH  48  49
BRANCH  48  58
ATOM     58  C   UNL     1     -10.489  -1.815   2.987  1.00  0.00     0.326 C 
ATOM     59  O   UNL     1     -10.902  -0.679   2.817  1.00  0.00    -0.250 OA
BRANCH  58  60
ATOM     60  O   UNL     1     -11.244  -2.696   3.691  1.00  0.00    -0.480 OA
ATOM     61  H   UNL     1     -10.576  -3.276   4.116  1.00  0.00     0.296 HD
ENDBRANCH  58  60
ENDBRANCH  48  58
ENDBRANCH  46  48
ENDBRANCH  34  44
ENDBRANCH  32  34
ENDBRANCH  25  30
ENDBRANCH  23  25
ENDBRANCH   2  23
TORSDOF 28
ENDMDL
MODEL 35
REMARK VINA RESULT:    -5.433     10.284     14.252
REMARK INTER + INTRA:         -18.904
REMARK INTER:                 -13.230
REMARK INTRA:                  -5.674
REMARK UNBOUND:                -5.372
REMARK SMILES CCCCCCC[C@H](N)[C@H](O)C(=O)N[C@H](C)C(=O)N(C)[C@H](CC(C)C)C(=O)N[C@@H](Cc1ccc(O)cc1)C(=O)N[C@@H](Cc1ccc(O)cc1)C(=O)O
REMARK SMILES IDX 18 1 17 2 15 3 16 4 14 5 12 6 13 7 10 9 11 10 8 12 9 13 7 16
REMARK SMILES IDX 6 17 5 18 4 19 3 20 2 21 1 22 19 23 20 24 21 25 22 26 23 27
REMARK SMILES IDX 24 28 25 29 26 30 27 31 28 32 29 34 30 35 31 36 32 37 37 38
REMARK SMILES IDX 33 39 36 40 34 41 35 42 38 44 39 45 40 46 41 48 42 49 43 50
REMARK SMILES IDX 44 51 49 52 45 53 48 54 46 55 47 56 50 58 51 59 52 60
REMARK H PARENT 14 8 11 11 9 14 9 15 28 33 35 43 40 47 47 57 52 61
ROOT
ATOM      1  O   UNL     1     -16.391  -3.080   6.177  1.00  0.00    -0.272 OA
ATOM      2  C   UNL     1     -16.854  -2.089   5.592  1.00  0.00     0.245 C 
ENDROOT
BRANCH   2   3
ATOM      3  C   UNL     1     -18.358  -1.761   5.768  1.00  0.00     0.168 C 
ATOM      4  C   UNL     1     -19.194  -2.470   4.708  1.00  0.00     0.041 C 
BRANCH   3   5
ATOM      5  N   UNL     1     -18.880  -1.983   7.107  1.00  0.00    -0.342 N 
ATOM      6  C   UNL     1     -18.848  -1.000   8.073  1.00  0.00     0.251 C 
ATOM      7  O   UNL     1     -18.348   0.106   7.896  1.00  0.00    -0.272 OA
ATOM      8  H   UNL     1     -19.287  -2.874   7.383  1.00  0.00     0.164 HD
BRANCH   6   9
ATOM      9  C   UNL     1     -19.580  -1.409   9.361  1.00  0.00     0.219 C 
BRANCH   9  10
ATOM     10  O   UNL     1     -20.892  -1.927   9.111  1.00  0.00    -0.382 OA
ATOM     11  H   UNL     1     -20.741  -2.618   8.429  1.00  0.00     0.211 HD
ENDBRANCH   9  10
BRANCH   9  12
ATOM     12  C   UNL     1     -18.761  -2.386  10.244  1.00  0.00     0.089 C 
BRANCH  12  13
ATOM     13  N   UNL     1     -18.795  -3.725   9.613  1.00  0.00    -0.325 NA
ATOM     14  H   UNL     1     -19.335  -4.361  10.203  1.00  0.00     0.119 HD
ATOM     15  H   UNL     1     -17.847  -4.111   9.604  1.00  0.00     0.119 HD
ENDBRANCH  12  13
BRANCH  12  16
ATOM     16  C   UNL     1     -17.298  -1.972  10.536  1.00  0.00     0.022 C 
BRANCH  16  17
ATOM     17  C   UNL     1     -16.941  -1.422  11.923  1.00  0.00     0.002 C 
BRANCH  17  18
ATOM     18  C   UNL     1     -16.744  -2.481  13.006  1.00  0.00     0.000 C 
BRANCH  18  19
ATOM     19  C   UNL     1     -16.274  -3.840  12.472  1.00  0.00    -0.000 C 
BRANCH  19  20
ATOM     20  C   UNL     1     -14.863  -4.254  12.900  1.00  0.00    -0.000 C 
BRANCH  20  21
ATOM     21  C   UNL     1     -13.928  -4.512  11.715  1.00  0.00    -0.003 C 
ATOM     22  C   UNL     1     -13.706  -3.248  10.898  1.00  0.00     0.004 C 
ENDBRANCH  20  21
ENDBRANCH  19  20
ENDBRANCH  18  19
ENDBRANCH  17  18
ENDBRANCH  16  17
ENDBRANCH  12  16
ENDBRANCH   9  12
ENDBRANCH   6   9
ENDBRANCH   3   5
ENDBRANCH   2   3
BRANCH   2  23
ATOM     23  N   UNL     1     -16.006  -1.231   4.899  1.00  0.00    -0.332 N 
ATOM     24  C   UNL     1     -14.740  -1.627   4.302  1.00  0.00     0.147 C 
BRANCH  23  25
ATOM     25  C   UNL     1     -16.426   0.167   4.610  1.00  0.00     0.174 C 
BRANCH  25  26
ATOM     26  C   UNL     1     -16.289   0.541   3.115  1.00  0.00     0.038 C 
BRANCH  26  27
ATOM     27  C   UNL     1     -17.524   0.302   2.218  1.00  0.00    -0.015 C 
ATOM     28  C   UNL     1     -17.556  -1.110   1.632  1.00  0.00     0.007 C 
ATOM     29  C   UNL     1     -18.847   0.629   2.906  1.00  0.00     0.007 C 
ENDBRANCH  26  27
ENDBRANCH  25  26
BRANCH  25  30
ATOM     30  C   UNL     1     -15.705   1.147   5.564  1.00  0.00     0.243 C 
ATOM     31  O   UNL     1     -15.345   0.811   6.691  1.00  0.00    -0.273 OA
ATOM     32  N   UNL     1     -15.502   2.411   5.074  1.00  0.00    -0.342 N 
ATOM     33  H   UNL     1     -15.701   2.573   4.083  1.00  0.00     0.164 HD
BRANCH  32  34
ATOM     34  C   UNL     1     -14.860   3.478   5.847  1.00  0.00     0.175 C 
BRANCH  34  35
ATOM     35  C   UNL     1     -13.561   3.950   5.176  1.00  0.00     0.070 C 
BRANCH  35  36
ATOM     36  C   UNL     1     -13.752   4.311   3.720  1.00  0.00    -0.045 A 
ATOM     37  C   UNL     1     -14.133   5.614   3.365  1.00  0.00     0.007 A 
ATOM     38  C   UNL     1     -13.576   3.354   2.713  1.00  0.00     0.007 A 
ATOM     39  C   UNL     1     -14.325   5.953   2.025  1.00  0.00     0.046 A 
ATOM     40  C   UNL     1     -13.770   3.692   1.371  1.00  0.00     0.046 A 
ATOM     41  C   UNL     1     -14.142   4.991   1.040  1.00  0.00     0.115 A 
BRANCH  41  42
ATOM     42  O   UNL     1     -14.342   5.363  -0.257  1.00  0.00    -0.508 OA
ATOM     43  H   UNL     1     -15.238   5.090  -0.516  1.00  0.00     0.293 HD
ENDBRANCH  41  42
ENDBRANCH  35  36
ENDBRANCH  34  35
BRANCH  34  44
ATOM     44  C   UNL     1     -15.877   4.630   6.010  1.00  0.00     0.243 C 
ATOM     45  O   UNL     1     -15.626   5.707   6.542  1.00  0.00    -0.273 OA
ATOM     46  N   UNL     1     -17.155   4.294   5.615  1.00  0.00    -0.341 N 
ATOM     47  H   UNL     1     -17.338   3.348   5.288  1.00  0.00     0.164 HD
BRANCH  46  48
ATOM     48  C   UNL     1     -18.300   5.198   5.738  1.00  0.00     0.196 C 
BRANCH  48  49
ATOM     49  C   UNL     1     -19.332   4.949   4.625  1.00  0.00     0.072 C 
BRANCH  49  50
ATOM     50  C   UNL     1     -18.772   5.208   3.244  1.00  0.00    -0.045 A 
ATOM     51  C   UNL     1     -18.823   6.499   2.700  1.00  0.00     0.007 A 
ATOM     52  C   UNL     1     -18.219   4.169   2.485  1.00  0.00     0.007 A 
ATOM     53  C   UNL     1     -18.322   6.747   1.422  1.00  0.00     0.046 A 
ATOM     54  C   UNL     1     -17.718   4.417   1.205  1.00  0.00     0.046 A 
ATOM     55  C   UNL     1     -17.773   5.706   0.685  1.00  0.00     0.115 A 
BRANCH  55  56
ATOM     56  O   UNL     1     -17.296   5.989  -0.561  1.00  0.00    -0.508 OA
ATOM     57  H   UNL     1     -16.555   5.391  -0.748  1.00  0.00     0.293 HD
ENDBRANCH  55  56
ENDBRANCH  49  50
ENDBRANCH  48  49
BRANCH  48  58
ATOM     58  C   UNL     1     -18.960   4.985   7.108  1.00  0.00     0.326 C 
ATOM     59  O   UNL     1     -19.980   4.360   7.348  1.00  0.00    -0.250 OA
BRANCH  58  60
ATOM     60  O   UNL     1     -18.283   5.567   8.130  1.00  0.00    -0.480 OA
ATOM     61  H   UNL     1     -18.981   6.067   8.607  1.00  0.00     0.296 HD
ENDBRANCH  58  60
ENDBRANCH  48  58
ENDBRANCH  46  48
ENDBRANCH  34  44
ENDBRANCH  32  34
ENDBRANCH  25  30
ENDBRANCH  23  25
ENDBRANCH   2  23
TORSDOF 28
ENDMDL
MODEL 36
REMARK VINA RESULT:    -5.432      4.035      8.872
REMARK INTER + INTRA:         -18.902
REMARK INTER:                 -13.876
REMARK INTRA:                  -5.026
REMARK UNBOUND:                -5.372
REMARK SMILES CCCCCCC[C@H](N)[C@H](O)C(=O)N[C@H](C)C(=O)N(C)[C@H](CC(C)C)C(=O)N[C@@H](Cc1ccc(O)cc1)C(=O)N[C@@H](Cc1ccc(O)cc1)C(=O)O
REMARK SMILES IDX 18 1 17 2 15 3 16 4 14 5 12 6 13 7 10 9 11 10 8 12 9 13 7 16
REMARK SMILES IDX 6 17 5 18 4 19 3 20 2 21 1 22 19 23 20 24 21 25 22 26 23 27
REMARK SMILES IDX 24 28 25 29 26 30 27 31 28 32 29 34 30 35 31 36 32 37 37 38
REMARK SMILES IDX 33 39 36 40 34 41 35 42 38 44 39 45 40 46 41 48 42 49 43 50
REMARK SMILES IDX 44 51 49 52 45 53 48 54 46 55 47 56 50 58 51 59 52 60
REMARK H PARENT 14 8 11 11 9 14 9 15 28 33 35 43 40 47 47 57 52 61
ROOT
ATOM      1  O   UNL     1     -10.951   0.021  -5.646  1.00  0.00    -0.272 OA
ATOM      2  C   UNL     1     -10.810   0.394  -4.472  1.00  0.00     0.245 C 
ENDROOT
BRANCH   2   3
ATOM      3  C   UNL     1     -10.829  -0.672  -3.349  1.00  0.00     0.168 C 
ATOM      4  C   UNL     1     -11.761  -1.824  -3.710  1.00  0.00     0.041 C 
BRANCH   3   5
ATOM      5  N   UNL     1      -9.518  -1.146  -2.933  1.00  0.00    -0.342 N 
ATOM      6  C   UNL     1      -9.122  -1.125  -1.613  1.00  0.00     0.251 C 
ATOM      7  O   UNL     1      -9.814  -0.675  -0.705  1.00  0.00    -0.272 OA
ATOM      8  H   UNL     1      -8.843  -1.510  -3.601  1.00  0.00     0.164 HD
BRANCH   6   9
ATOM      9  C   UNL     1      -7.760  -1.803  -1.390  1.00  0.00     0.219 C 
BRANCH   9  10
ATOM     10  O   UNL     1      -6.675  -0.868  -1.365  1.00  0.00    -0.382 OA
ATOM     11  H   UNL     1      -6.278  -0.999  -0.476  1.00  0.00     0.211 HD
ENDBRANCH   9  10
BRANCH   9  12
ATOM     12  C   UNL     1      -7.731  -2.714  -0.135  1.00  0.00     0.089 C 
BRANCH  12  13
ATOM     13  N   UNL     1      -9.089  -3.269   0.071  1.00  0.00    -0.325 NA
ATOM     14  H   UNL     1      -9.047  -4.289   0.013  1.00  0.00     0.119 HD
ATOM     15  H   UNL     1      -9.686  -2.982  -0.708  1.00  0.00     0.119 HD
ENDBRANCH  12  13
BRANCH  12  16
ATOM     16  C   UNL     1      -6.687  -3.856  -0.150  1.00  0.00     0.022 C 
BRANCH  16  17
ATOM     17  C   UNL     1      -6.615  -4.787  -1.369  1.00  0.00     0.002 C 
BRANCH  17  18
ATOM     18  C   UNL     1      -6.454  -6.269  -1.040  1.00  0.00     0.000 C 
BRANCH  18  19
ATOM     19  C   UNL     1      -5.296  -6.951  -1.781  1.00  0.00    -0.000 C 
BRANCH  19  20
ATOM     20  C   UNL     1      -3.896  -6.572  -1.289  1.00  0.00    -0.000 C 
BRANCH  20  21
ATOM     21  C   UNL     1      -3.727  -6.735   0.224  1.00  0.00    -0.003 C 
ATOM     22  C   UNL     1      -3.283  -5.434   0.875  1.00  0.00     0.004 C 
ENDBRANCH  20  21
ENDBRANCH  19  20
ENDBRANCH  18  19
ENDBRANCH  17  18
ENDBRANCH  16  17
ENDBRANCH  12  16
ENDBRANCH   9  12
ENDBRANCH   6   9
ENDBRANCH   3   5
ENDBRANCH   2   3
BRANCH   2  23
ATOM     23  N   UNL     1     -10.519   1.726  -4.196  1.00  0.00    -0.332 N 
ATOM     24  C   UNL     1     -11.315   2.582  -3.329  1.00  0.00     0.147 C 
BRANCH  23  25
ATOM     25  C   UNL     1      -9.256   2.337  -4.692  1.00  0.00     0.174 C 
BRANCH  25  26
ATOM     26  C   UNL     1      -9.447   3.131  -6.006  1.00  0.00     0.038 C 
BRANCH  26  27
ATOM     27  C   UNL     1      -9.283   4.665  -5.927  1.00  0.00    -0.015 C 
ATOM     28  C   UNL     1      -8.612   5.246  -7.171  1.00  0.00     0.007 C 
ATOM     29  C   UNL     1     -10.588   5.400  -5.628  1.00  0.00     0.007 C 
ENDBRANCH  26  27
ENDBRANCH  25  26
BRANCH  25  30
ATOM     30  C   UNL     1      -8.141   1.268  -4.768  1.00  0.00     0.243 C 
ATOM     31  O   UNL     1      -7.464   0.965  -3.788  1.00  0.00    -0.273 OA
ATOM     32  N   UNL     1      -7.957   0.689  -5.998  1.00  0.00    -0.342 N 
ATOM     33  H   UNL     1      -8.650   0.890  -6.724  1.00  0.00     0.164 HD
BRANCH  32  34
ATOM     34  C   UNL     1      -6.930  -0.322  -6.262  1.00  0.00     0.175 C 
BRANCH  34  35
ATOM     35  C   UNL     1      -7.531  -1.567  -6.932  1.00  0.00     0.070 C 
BRANCH  35  36
ATOM     36  C   UNL     1      -6.861  -2.849  -6.491  1.00  0.00    -0.045 A 
ATOM     37  C   UNL     1      -6.846  -3.963  -7.344  1.00  0.00     0.007 A 
ATOM     38  C   UNL     1      -6.269  -2.953  -5.225  1.00  0.00     0.007 A 
ATOM     39  C   UNL     1      -6.243  -5.154  -6.941  1.00  0.00     0.046 A 
ATOM     40  C   UNL     1      -5.666  -4.146  -4.820  1.00  0.00     0.046 A 
ATOM     41  C   UNL     1      -5.657  -5.236  -5.684  1.00  0.00     0.115 A 
BRANCH  41  42
ATOM     42  O   UNL     1      -5.081  -6.419  -5.327  1.00  0.00    -0.508 OA
ATOM     43  H   UNL     1      -4.185  -6.447  -5.702  1.00  0.00     0.293 HD
ENDBRANCH  41  42
ENDBRANCH  35  36
ENDBRANCH  34  35
BRANCH  34  44
ATOM     44  C   UNL     1      -5.831   0.328  -7.132  1.00  0.00     0.243 C 
ATOM     45  O   UNL     1      -5.718   0.165  -8.344  1.00  0.00    -0.273 OA
ATOM     46  N   UNL     1      -4.889   1.020  -6.400  1.00  0.00    -0.341 N 
ATOM     47  H   UNL     1      -4.961   1.029  -5.386  1.00  0.00     0.164 HD
BRANCH  46  48
ATOM     48  C   UNL     1      -3.717   1.663  -6.999  1.00  0.00     0.196 C 
BRANCH  48  49
ATOM     49  C   UNL     1      -4.028   3.107  -7.428  1.00  0.00     0.072 C 
BRANCH  49  50
ATOM     50  C   UNL     1      -4.365   4.002  -6.257  1.00  0.00    -0.045 A 
ATOM     51  C   UNL     1      -3.455   4.988  -5.847  1.00  0.00     0.007 A 
ATOM     52  C   UNL     1      -5.567   3.850  -5.555  1.00  0.00     0.007 A 
ATOM     53  C   UNL     1      -3.749   5.811  -4.760  1.00  0.00     0.046 A 
ATOM     54  C   UNL     1      -5.861   4.673  -4.466  1.00  0.00     0.046 A 
ATOM     55  C   UNL     1      -4.949   5.648  -4.078  1.00  0.00     0.115 A 
BRANCH  55  56
ATOM     56  O   UNL     1      -5.197   6.472  -3.020  1.00  0.00    -0.508 OA
ATOM     57  H   UNL     1      -4.614   7.244  -3.090  1.00  0.00     0.293 HD
ENDBRANCH  55  56
ENDBRANCH  49  50
ENDBRANCH  48  49
BRANCH  48  58
ATOM     58  C   UNL     1      -2.572   1.665  -5.976  1.00  0.00     0.326 C 
ATOM     59  O   UNL     1      -1.421   2.028  -6.156  1.00  0.00    -0.250 OA
BRANCH  58  60
ATOM     60  O   UNL     1      -2.941   1.217  -4.749  1.00  0.00    -0.480 OA
ATOM     61  H   UNL     1      -3.285   0.316  -4.932  1.00  0.00     0.296 HD
ENDBRANCH  58  60
ENDBRANCH  48  58
ENDBRANCH  46  48
ENDBRANCH  34  44
ENDBRANCH  32  34
ENDBRANCH  25  30
ENDBRANCH  23  25
ENDBRANCH   2  23
TORSDOF 28
ENDMDL
MODEL 37
REMARK VINA RESULT:    -5.430      4.288      7.646
REMARK INTER + INTRA:         -18.896
REMARK INTER:                 -12.615
REMARK INTRA:                  -6.281
REMARK UNBOUND:                -5.372
REMARK SMILES CCCCCCC[C@H](N)[C@H](O)C(=O)N[C@H](C)C(=O)N(C)[C@H](CC(C)C)C(=O)N[C@@H](Cc1ccc(O)cc1)C(=O)N[C@@H](Cc1ccc(O)cc1)C(=O)O
REMARK SMILES IDX 18 1 17 2 15 3 16 4 14 5 12 6 13 7 10 9 11 10 8 12 9 13 7 16
REMARK SMILES IDX 6 17 5 18 4 19 3 20 2 21 1 22 19 23 20 24 21 25 22 26 23 27
REMARK SMILES IDX 24 28 25 29 26 30 27 31 28 32 29 34 30 35 31 36 32 37 37 38
REMARK SMILES IDX 33 39 36 40 34 41 35 42 38 44 39 45 40 46 41 48 42 49 43 50
REMARK SMILES IDX 44 51 49 52 45 53 48 54 46 55 47 56 50 58 51 59 52 60
REMARK H PARENT 14 8 11 11 9 14 9 15 28 33 35 43 40 47 47 57 52 61
ROOT
ATOM      1  O   UNL     1      -6.709  -1.643  -0.032  1.00  0.00    -0.272 OA
ATOM      2  C   UNL     1      -7.470  -1.152  -0.880  1.00  0.00     0.245 C 
ENDROOT
BRANCH   2   3
ATOM      3  C   UNL     1      -7.365   0.364  -1.181  1.00  0.00     0.168 C 
ATOM      4  C   UNL     1      -7.599   1.185   0.083  1.00  0.00     0.041 C 
BRANCH   3   5
ATOM      5  N   UNL     1      -6.149   0.767  -1.871  1.00  0.00    -0.342 N 
ATOM      6  C   UNL     1      -6.183   1.399  -3.096  1.00  0.00     0.251 C 
ATOM      7  O   UNL     1      -7.220   1.629  -3.710  1.00  0.00    -0.272 OA
ATOM      8  H   UNL     1      -5.227   0.597  -1.476  1.00  0.00     0.164 HD
BRANCH   6   9
ATOM      9  C   UNL     1      -4.794   1.858  -3.567  1.00  0.00     0.219 C 
BRANCH   9  10
ATOM     10  O   UNL     1      -3.836   1.901  -2.502  1.00  0.00    -0.382 OA
ATOM     11  H   UNL     1      -4.123   1.177  -1.903  1.00  0.00     0.211 HD
ENDBRANCH   9  10
BRANCH   9  12
ATOM     12  C   UNL     1      -4.251   1.031  -4.762  1.00  0.00     0.089 C 
BRANCH  12  13
ATOM     13  N   UNL     1      -4.926  -0.287  -4.762  1.00  0.00    -0.325 NA
ATOM     14  H   UNL     1      -5.722  -0.257  -4.123  1.00  0.00     0.119 HD
ATOM     15  H   UNL     1      -4.291  -0.984  -4.366  1.00  0.00     0.119 HD
ENDBRANCH  12  13
BRANCH  12  16
ATOM     16  C   UNL     1      -4.375   1.692  -6.155  1.00  0.00     0.022 C 
BRANCH  16  17
ATOM     17  C   UNL     1      -3.224   2.567  -6.672  1.00  0.00     0.002 C 
BRANCH  17  18
ATOM     18  C   UNL     1      -3.646   3.927  -7.223  1.00  0.00     0.000 C 
BRANCH  18  19
ATOM     19  C   UNL     1      -4.166   4.900  -6.157  1.00  0.00    -0.000 C 
BRANCH  19  20
ATOM     20  C   UNL     1      -3.294   5.016  -4.903  1.00  0.00    -0.000 C 
BRANCH  20  21
ATOM     21  C   UNL     1      -4.063   5.532  -3.684  1.00  0.00    -0.003 C 
ATOM     22  C   UNL     1      -3.258   5.355  -2.405  1.00  0.00     0.004 C 
ENDBRANCH  20  21
ENDBRANCH  19  20
ENDBRANCH  18  19
ENDBRANCH  17  18
ENDBRANCH  16  17
ENDBRANCH  12  16
ENDBRANCH   9  12
ENDBRANCH   6   9
ENDBRANCH   3   5
ENDBRANCH   2   3
BRANCH   2  23
ATOM     23  N   UNL     1      -8.307  -1.977  -1.623  1.00  0.00    -0.332 N 
ATOM     24  C   UNL     1      -8.582  -3.372  -1.311  1.00  0.00     0.147 C 
BRANCH  23  25
ATOM     25  C   UNL     1      -9.100  -1.419  -2.753  1.00  0.00     0.174 C 
BRANCH  25  26
ATOM     26  C   UNL     1     -10.498  -2.068  -2.886  1.00  0.00     0.038 C 
BRANCH  26  27
ATOM     27  C   UNL     1     -11.718  -1.173  -2.575  1.00  0.00    -0.015 C 
ATOM     28  C   UNL     1     -11.322   0.143  -1.905  1.00  0.00     0.007 C 
ATOM     29  C   UNL     1     -12.604  -0.911  -3.790  1.00  0.00     0.007 C 
ENDBRANCH  26  27
ENDBRANCH  25  26
BRANCH  25  30
ATOM     30  C   UNL     1      -8.270  -1.460  -4.057  1.00  0.00     0.243 C 
ATOM     31  O   UNL     1      -7.284  -2.187  -4.177  1.00  0.00    -0.273 OA
ATOM     32  N   UNL     1      -8.701  -0.632  -5.061  1.00  0.00    -0.342 N 
ATOM     33  H   UNL     1      -9.604  -0.167  -4.937  1.00  0.00     0.164 HD
BRANCH  32  34
ATOM     34  C   UNL     1      -8.021  -0.519  -6.354  1.00  0.00     0.175 C 
BRANCH  34  35
ATOM     35  C   UNL     1      -8.267  -1.761  -7.225  1.00  0.00     0.070 C 
BRANCH  35  36
ATOM     36  C   UNL     1      -7.001  -2.538  -7.506  1.00  0.00    -0.045 A 
ATOM     37  C   UNL     1      -5.853  -1.869  -7.959  1.00  0.00     0.007 A 
ATOM     38  C   UNL     1      -6.960  -3.929  -7.344  1.00  0.00     0.007 A 
ATOM     39  C   UNL     1      -4.685  -2.580  -8.234  1.00  0.00     0.046 A 
ATOM     40  C   UNL     1      -5.791  -4.641  -7.621  1.00  0.00     0.046 A 
ATOM     41  C   UNL     1      -4.662  -3.958  -8.063  1.00  0.00     0.115 A 
BRANCH  41  42
ATOM     42  O   UNL     1      -3.501  -4.615  -8.346  1.00  0.00    -0.508 OA
ATOM     43  H   UNL     1      -3.044  -4.133  -9.055  1.00  0.00     0.293 HD
ENDBRANCH  41  42
ENDBRANCH  35  36
ENDBRANCH  34  35
BRANCH  34  44
ATOM     44  C   UNL     1      -8.512   0.775  -7.042  1.00  0.00     0.243 C 
ATOM     45  O   UNL     1      -9.358   0.810  -7.931  1.00  0.00    -0.273 OA
ATOM     46  N   UNL     1      -7.815   1.900  -6.656  1.00  0.00    -0.341 N 
ATOM     47  H   UNL     1      -7.043   1.803  -6.001  1.00  0.00     0.164 HD
BRANCH  46  48
ATOM     48  C   UNL     1      -8.055   3.230  -7.221  1.00  0.00     0.196 C 
BRANCH  48  49
ATOM     49  C   UNL     1      -7.918   4.326  -6.150  1.00  0.00     0.072 C 
BRANCH  49  50
ATOM     50  C   UNL     1      -9.209   4.573  -5.402  1.00  0.00    -0.045 A 
ATOM     51  C   UNL     1     -10.290   5.182  -6.056  1.00  0.00     0.007 A 
ATOM     52  C   UNL     1      -9.338   4.222  -4.053  1.00  0.00     0.007 A 
ATOM     53  C   UNL     1     -11.481   5.427  -5.373  1.00  0.00     0.046 A 
ATOM     54  C   UNL     1     -10.530   4.468  -3.368  1.00  0.00     0.046 A 
ATOM     55  C   UNL     1     -11.593   5.068  -4.035  1.00  0.00     0.115 A 
BRANCH  55  56
ATOM     56  O   UNL     1     -12.773   5.327  -3.403  1.00  0.00    -0.508 OA
ATOM     57  H   UNL     1     -12.636   5.229  -2.447  1.00  0.00     0.293 HD
ENDBRANCH  55  56
ENDBRANCH  49  50
ENDBRANCH  48  49
BRANCH  48  58
ATOM     58  C   UNL     1      -7.045   3.483  -8.349  1.00  0.00     0.326 C 
ATOM     59  O   UNL     1      -6.410   2.649  -8.973  1.00  0.00    -0.250 OA
BRANCH  58  60
ATOM     60  O   UNL     1      -6.892   4.797  -8.653  1.00  0.00    -0.480 OA
ATOM     61  H   UNL     1      -6.851   4.798  -9.634  1.00  0.00     0.296 HD
ENDBRANCH  58  60
ENDBRANCH  48  58
ENDBRANCH  46  48
ENDBRANCH  34  44
ENDBRANCH  32  34
ENDBRANCH  25  30
ENDBRANCH  23  25
ENDBRANCH   2  23
TORSDOF 28
ENDMDL
MODEL 38
REMARK VINA RESULT:    -5.427      2.743      9.381
REMARK INTER + INTRA:         -18.890
REMARK INTER:                 -14.891
REMARK INTRA:                  -3.999
REMARK UNBOUND:                -5.372
REMARK SMILES CCCCCCC[C@H](N)[C@H](O)C(=O)N[C@H](C)C(=O)N(C)[C@H](CC(C)C)C(=O)N[C@@H](Cc1ccc(O)cc1)C(=O)N[C@@H](Cc1ccc(O)cc1)C(=O)O
REMARK SMILES IDX 18 1 17 2 15 3 16 4 14 5 12 6 13 7 10 9 11 10 8 12 9 13 7 16
REMARK SMILES IDX 6 17 5 18 4 19 3 20 2 21 1 22 19 23 20 24 21 25 22 26 23 27
REMARK SMILES IDX 24 28 25 29 26 30 27 31 28 32 29 34 30 35 31 36 32 37 37 38
REMARK SMILES IDX 33 39 36 40 34 41 35 42 38 44 39 45 40 46 41 48 42 49 43 50
REMARK SMILES IDX 44 51 49 52 45 53 48 54 46 55 47 56 50 58 51 59 52 60
REMARK H PARENT 14 8 11 11 9 14 9 15 28 33 35 43 40 47 47 57 52 61
ROOT
ATOM      1  O   UNL     1      -6.715  -2.774  -0.588  1.00  0.00    -0.272 OA
ATOM      2  C   UNL     1      -7.900  -2.408  -0.592  1.00  0.00     0.245 C 
ENDROOT
BRANCH   2   3
ATOM      3  C   UNL     1      -8.631  -2.248   0.764  1.00  0.00     0.168 C 
ATOM      4  C   UNL     1     -10.143  -2.236   0.567  1.00  0.00     0.041 C 
BRANCH   3   5
ATOM      5  N   UNL     1      -8.226  -3.194   1.792  1.00  0.00    -0.342 N 
ATOM      6  C   UNL     1      -8.153  -2.838   3.122  1.00  0.00     0.251 C 
ATOM      7  O   UNL     1      -8.380  -1.704   3.532  1.00  0.00    -0.272 OA
ATOM      8  H   UNL     1      -7.980  -4.156   1.568  1.00  0.00     0.164 HD
BRANCH   6   9
ATOM      9  C   UNL     1      -7.844  -4.031   4.041  1.00  0.00     0.219 C 
BRANCH   9  10
ATOM     10  O   UNL     1      -7.958  -5.291   3.368  1.00  0.00    -0.382 OA
ATOM     11  H   UNL     1      -7.050  -5.662   3.417  1.00  0.00     0.211 HD
ENDBRANCH   9  10
BRANCH   9  12
ATOM     12  C   UNL     1      -6.473  -3.910   4.755  1.00  0.00     0.089 C 
BRANCH  12  13
ATOM     13  N   UNL     1      -5.565  -3.120   3.892  1.00  0.00    -0.325 NA
ATOM     14  H   UNL     1      -5.031  -3.755   3.296  1.00  0.00     0.119 HD
ATOM     15  H   UNL     1      -4.867  -2.658   4.481  1.00  0.00     0.119 HD
ENDBRANCH  12  13
BRANCH  12  16
ATOM     16  C   UNL     1      -6.502  -3.313   6.183  1.00  0.00     0.022 C 
BRANCH  16  17
ATOM     17  C   UNL     1      -5.596  -2.119   6.512  1.00  0.00     0.002 C 
BRANCH  17  18
ATOM     18  C   UNL     1      -5.311  -1.916   7.998  1.00  0.00     0.000 C 
BRANCH  18  19
ATOM     19  C   UNL     1      -6.069  -0.739   8.625  1.00  0.00    -0.000 C 
BRANCH  19  20
ATOM     20  C   UNL     1      -5.478  -0.208   9.934  1.00  0.00    -0.000 C 
BRANCH  20  21
ATOM     21  C   UNL     1      -6.534   0.372  10.878  1.00  0.00    -0.003 C 
ATOM     22  C   UNL     1      -7.750   0.868  10.111  1.00  0.00     0.004 C 
ENDBRANCH  20  21
ENDBRANCH  19  20
ENDBRANCH  18  19
ENDBRANCH  17  18
ENDBRANCH  16  17
ENDBRANCH  12  16
ENDBRANCH   9  12
ENDBRANCH   6   9
ENDBRANCH   3   5
ENDBRANCH   2   3
BRANCH   2  23
ATOM     23  N   UNL     1      -8.508  -2.034  -1.786  1.00  0.00    -0.332 N 
ATOM     24  C   UNL     1      -9.947  -1.948  -1.988  1.00  0.00     0.147 C 
BRANCH  23  25
ATOM     25  C   UNL     1      -7.685  -1.559  -2.932  1.00  0.00     0.174 C 
BRANCH  25  26
ATOM     26  C   UNL     1      -8.340  -0.386  -3.699  1.00  0.00     0.038 C 
BRANCH  26  27
ATOM     27  C   UNL     1      -7.832   1.035  -3.371  1.00  0.00    -0.015 C 
ATOM     28  C   UNL     1      -8.822   1.828  -2.518  1.00  0.00     0.007 C 
ATOM     29  C   UNL     1      -6.443   1.053  -2.737  1.00  0.00     0.007 C 
ENDBRANCH  26  27
ENDBRANCH  25  26
BRANCH  25  30
ATOM     30  C   UNL     1      -7.293  -2.751  -3.835  1.00  0.00     0.243 C 
ATOM     31  O   UNL     1      -7.913  -3.019  -4.863  1.00  0.00    -0.273 OA
ATOM     32  N   UNL     1      -6.218  -3.489  -3.411  1.00  0.00    -0.342 N 
ATOM     33  H   UNL     1      -5.671  -3.121  -2.629  1.00  0.00     0.164 HD
BRANCH  32  34
ATOM     34  C   UNL     1      -5.723  -4.668  -4.126  1.00  0.00     0.175 C 
BRANCH  34  35
ATOM     35  C   UNL     1      -4.505  -4.324  -4.997  1.00  0.00     0.070 C 
BRANCH  35  36
ATOM     36  C   UNL     1      -4.891  -3.733  -6.334  1.00  0.00    -0.045 A 
ATOM     37  C   UNL     1      -4.551  -2.406  -6.639  1.00  0.00     0.007 A 
ATOM     38  C   UNL     1      -5.607  -4.486  -7.273  1.00  0.00     0.007 A 
ATOM     39  C   UNL     1      -4.915  -1.848  -7.865  1.00  0.00     0.046 A 
ATOM     40  C   UNL     1      -5.973  -3.928  -8.500  1.00  0.00     0.046 A 
ATOM     41  C   UNL     1      -5.622  -2.613  -8.786  1.00  0.00     0.115 A 
BRANCH  41  42
ATOM     42  O   UNL     1      -5.960  -2.029  -9.970  1.00  0.00    -0.508 OA
ATOM     43  H   UNL     1      -6.851  -1.651  -9.880  1.00  0.00     0.293 HD
ENDBRANCH  41  42
ENDBRANCH  35  36
ENDBRANCH  34  35
BRANCH  34  44
ATOM     44  C   UNL     1      -5.395  -5.759  -3.081  1.00  0.00     0.243 C 
ATOM     45  O   UNL     1      -5.253  -6.950  -3.343  1.00  0.00    -0.273 OA
ATOM     46  N   UNL     1      -5.404  -5.295  -1.783  1.00  0.00    -0.341 N 
ATOM     47  H   UNL     1      -5.643  -4.322  -1.607  1.00  0.00     0.164 HD
BRANCH  46  48
ATOM     48  C   UNL     1      -5.188  -6.156  -0.618  1.00  0.00     0.196 C 
BRANCH  48  49
ATOM     49  C   UNL     1      -3.738  -6.064  -0.114  1.00  0.00     0.072 C 
BRANCH  49  50
ATOM     50  C   UNL     1      -3.272  -7.339   0.552  1.00  0.00    -0.045 A 
ATOM     51  C   UNL     1      -2.991  -7.346   1.926  1.00  0.00     0.007 A 
ATOM     52  C   UNL     1      -3.094  -8.515  -0.186  1.00  0.00     0.007 A 
ATOM     53  C   UNL     1      -2.547  -8.513   2.550  1.00  0.00     0.046 A 
ATOM     54  C   UNL     1      -2.649  -9.683   0.438  1.00  0.00     0.046 A 
ATOM     55  C   UNL     1      -2.381  -9.672   1.802  1.00  0.00     0.115 A 
BRANCH  55  56
ATOM     56  O   UNL     1      -1.944 -10.790   2.449  1.00  0.00    -0.508 OA
ATOM     57  H   UNL     1      -1.722 -10.548   3.362  1.00  0.00     0.293 HD
ENDBRANCH  55  56
ENDBRANCH  49  50
ENDBRANCH  48  49
BRANCH  48  58
ATOM     58  C   UNL     1      -6.149  -5.732   0.501  1.00  0.00     0.326 C 
ATOM     59  O   UNL     1      -7.258  -6.185   0.735  1.00  0.00    -0.250 OA
BRANCH  58  60
ATOM     60  O   UNL     1      -5.655  -4.750   1.297  1.00  0.00    -0.480 OA
ATOM     61  H   UNL     1      -5.999  -4.985   2.186  1.00  0.00     0.296 HD
ENDBRANCH  58  60
ENDBRANCH  48  58
ENDBRANCH  46  48
ENDBRANCH  34  44
ENDBRANCH  32  34
ENDBRANCH  25  30
ENDBRANCH  23  25
ENDBRANCH   2  23
TORSDOF 28
ENDMDL
MODEL 39
REMARK VINA RESULT:    -5.424      4.752      9.325
REMARK INTER + INTRA:         -18.882
REMARK INTER:                 -13.406
REMARK INTRA:                  -5.477
REMARK UNBOUND:                -5.372
REMARK SMILES CCCCCCC[C@H](N)[C@H](O)C(=O)N[C@H](C)C(=O)N(C)[C@H](CC(C)C)C(=O)N[C@@H](Cc1ccc(O)cc1)C(=O)N[C@@H](Cc1ccc(O)cc1)C(=O)O
REMARK SMILES IDX 18 1 17 2 15 3 16 4 14 5 12 6 13 7 10 9 11 10 8 12 9 13 7 16
REMARK SMILES IDX 6 17 5 18 4 19 3 20 2 21 1 22 19 23 20 24 21 25 22 26 23 27
REMARK SMILES IDX 24 28 25 29 26 30 27 31 28 32 29 34 30 35 31 36 32 37 37 38
REMARK SMILES IDX 33 39 36 40 34 41 35 42 38 44 39 45 40 46 41 48 42 49 43 50
REMARK SMILES IDX 44 51 49 52 45 53 48 54 46 55 47 56 50 58 51 59 52 60
REMARK H PARENT 14 8 11 11 9 14 9 15 28 33 35 43 40 47 47 57 52 61
ROOT
ATOM      1  O   UNL     1     -12.657  -1.052  -2.877  1.00  0.00    -0.272 OA
ATOM      2  C   UNL     1     -11.763  -0.807  -3.700  1.00  0.00     0.245 C 
ENDROOT
BRANCH   2   3
ATOM      3  C   UNL     1     -10.615  -1.832  -3.874  1.00  0.00     0.168 C 
ATOM      4  C   UNL     1     -10.538  -2.320  -5.316  1.00  0.00     0.041 C 
BRANCH   3   5
ATOM      5  N   UNL     1      -9.320  -1.387  -3.382  1.00  0.00    -0.342 N 
ATOM      6  C   UNL     1      -9.045  -1.295  -2.034  1.00  0.00     0.251 C 
ATOM      7  O   UNL     1      -9.869  -1.536  -1.158  1.00  0.00    -0.272 OA
ATOM      8  H   UNL     1      -8.567  -1.126  -4.015  1.00  0.00     0.164 HD
BRANCH   6   9
ATOM      9  C   UNL     1      -7.576  -0.943  -1.750  1.00  0.00     0.219 C 
BRANCH   9  10
ATOM     10  O   UNL     1      -6.705  -1.288  -2.834  1.00  0.00    -0.382 OA
ATOM     11  H   UNL     1      -7.226  -1.052  -3.633  1.00  0.00     0.211 HD
ENDBRANCH   9  10
BRANCH   9  12
ATOM     12  C   UNL     1      -7.374   0.536  -1.330  1.00  0.00     0.089 C 
BRANCH  12  13
ATOM     13  N   UNL     1      -8.593   1.296  -1.694  1.00  0.00    -0.325 NA
ATOM     14  H   UNL     1      -9.243   1.285  -0.906  1.00  0.00     0.119 HD
ATOM     15  H   UNL     1      -9.078   0.802  -2.447  1.00  0.00     0.119 HD
ENDBRANCH  12  13
BRANCH  12  16
ATOM     16  C   UNL     1      -7.022   0.778   0.157  1.00  0.00     0.022 C 
BRANCH  16  17
ATOM     17  C   UNL     1      -8.137   1.181   1.133  1.00  0.00     0.002 C 
BRANCH  17  18
ATOM     18  C   UNL     1      -8.739   0.029   1.934  1.00  0.00     0.000 C 
BRANCH  18  19
ATOM     19  C   UNL     1     -10.238   0.186   2.223  1.00  0.00    -0.000 C 
BRANCH  19  20
ATOM     20  C   UNL     1     -11.048  -1.113   2.182  1.00  0.00    -0.000 C 
BRANCH  20  21
ATOM     21  C   UNL     1     -10.831  -1.993   3.417  1.00  0.00    -0.003 C 
ATOM     22  C   UNL     1     -11.989  -1.869   4.395  1.00  0.00     0.004 C 
ENDBRANCH  20  21
ENDBRANCH  19  20
ENDBRANCH  18  19
ENDBRANCH  17  18
ENDBRANCH  16  17
ENDBRANCH  12  16
ENDBRANCH   9  12
ENDBRANCH   6   9
ENDBRANCH   3   5
ENDBRANCH   2   3
BRANCH   2  23
ATOM     23  N   UNL     1     -11.867   0.305  -4.530  1.00  0.00    -0.332 N 
ATOM     24  C   UNL     1     -10.809   1.282  -4.738  1.00  0.00     0.147 C 
BRANCH  23  25
ATOM     25  C   UNL     1     -13.072   0.494  -5.384  1.00  0.00     0.174 C 
BRANCH  25  26
ATOM     26  C   UNL     1     -12.723   0.822  -6.854  1.00  0.00     0.038 C 
BRANCH  26  27
ATOM     27  C   UNL     1     -13.764   0.428  -7.926  1.00  0.00    -0.015 C 
ATOM     28  C   UNL     1     -14.572   1.626  -8.424  1.00  0.00     0.007 C 
ATOM     29  C   UNL     1     -13.165  -0.341  -9.100  1.00  0.00     0.007 C 
ENDBRANCH  26  27
ENDBRANCH  25  26
BRANCH  25  30
ATOM     30  C   UNL     1     -14.032   1.515  -4.730  1.00  0.00     0.243 C 
ATOM     31  O   UNL     1     -14.185   2.647  -5.187  1.00  0.00    -0.273 OA
ATOM     32  N   UNL     1     -14.691   1.078  -3.610  1.00  0.00    -0.342 N 
ATOM     33  H   UNL     1     -14.619   0.084  -3.377  1.00  0.00     0.164 HD
BRANCH  32  34
ATOM     34  C   UNL     1     -15.617   1.917  -2.846  1.00  0.00     0.175 C 
BRANCH  34  35
ATOM     35  C   UNL     1     -16.644   1.065  -2.083  1.00  0.00     0.070 C 
BRANCH  35  36
ATOM     36  C   UNL     1     -17.024  -0.196  -2.826  1.00  0.00    -0.045 A 
ATOM     37  C   UNL     1     -16.498  -1.433  -2.424  1.00  0.00     0.007 A 
ATOM     38  C   UNL     1     -17.882  -0.147  -3.932  1.00  0.00     0.007 A 
ATOM     39  C   UNL     1     -16.832  -2.600  -3.111  1.00  0.00     0.046 A 
ATOM     40  C   UNL     1     -18.216  -1.315  -4.622  1.00  0.00     0.046 A 
ATOM     41  C   UNL     1     -17.688  -2.532  -4.203  1.00  0.00     0.115 A 
BRANCH  41  42
ATOM     42  O   UNL     1     -17.987  -3.695  -4.849  1.00  0.00    -0.508 OA
ATOM     43  H   UNL     1     -18.375  -3.473  -5.712  1.00  0.00     0.293 HD
ENDBRANCH  41  42
ENDBRANCH  35  36
ENDBRANCH  34  35
BRANCH  34  44
ATOM     44  C   UNL     1     -14.784   2.806  -1.895  1.00  0.00     0.243 C 
ATOM     45  O   UNL     1     -14.677   4.025  -1.999  1.00  0.00    -0.273 OA
ATOM     46  N   UNL     1     -14.050   2.087  -0.975  1.00  0.00    -0.341 N 
ATOM     47  H   UNL     1     -14.081   1.071  -1.003  1.00  0.00     0.164 HD
BRANCH  46  48
ATOM     48  C   UNL     1     -13.134   2.707  -0.014  1.00  0.00     0.196 C 
BRANCH  48  49
ATOM     49  C   UNL     1     -13.425   2.236   1.421  1.00  0.00     0.072 C 
BRANCH  49  50
ATOM     50  C   UNL     1     -13.613   3.386   2.384  1.00  0.00    -0.045 A 
ATOM     51  C   UNL     1     -13.272   3.229   3.735  1.00  0.00     0.007 A 
ATOM     52  C   UNL     1     -14.143   4.609   1.953  1.00  0.00     0.007 A 
ATOM     53  C   UNL     1     -13.453   4.279   4.636  1.00  0.00     0.046 A 
ATOM     54  C   UNL     1     -14.325   5.659   2.854  1.00  0.00     0.046 A 
ATOM     55  C   UNL     1     -13.977   5.485   4.189  1.00  0.00     0.115 A 
BRANCH  55  56
ATOM     56  O   UNL     1     -14.140   6.486   5.102  1.00  0.00    -0.508 OA
ATOM     57  H   UNL     1     -14.019   6.113   5.989  1.00  0.00     0.293 HD
ENDBRANCH  55  56
ENDBRANCH  49  50
ENDBRANCH  48  49
BRANCH  48  58
ATOM     58  C   UNL     1     -11.692   2.343  -0.393  1.00  0.00     0.326 C 
ATOM     59  O   UNL     1     -10.704   3.053  -0.308  1.00  0.00    -0.250 OA
BRANCH  58  60
ATOM     60  O   UNL     1     -11.558   1.074  -0.854  1.00  0.00    -0.480 OA
ATOM     61  H   UNL     1     -12.235   1.018  -1.563  1.00  0.00     0.296 HD
ENDBRANCH  58  60
ENDBRANCH  48  58
ENDBRANCH  46  48
ENDBRANCH  34  44
ENDBRANCH  32  34
ENDBRANCH  25  30
ENDBRANCH  23  25
ENDBRANCH   2  23
TORSDOF 28
ENDMDL
MODEL 40
REMARK VINA RESULT:    -5.418      4.331      9.418
REMARK INTER + INTRA:         -18.867
REMARK INTER:                 -12.642
REMARK INTRA:                  -6.225
REMARK UNBOUND:                -5.372
REMARK SMILES CCCCCCC[C@H](N)[C@H](O)C(=O)N[C@H](C)C(=O)N(C)[C@H](CC(C)C)C(=O)N[C@@H](Cc1ccc(O)cc1)C(=O)N[C@@H](Cc1ccc(O)cc1)C(=O)O
REMARK SMILES IDX 18 1 17 2 15 3 16 4 14 5 12 6 13 7 10 9 11 10 8 12 9 13 7 16
REMARK SMILES IDX 6 17 5 18 4 19 3 20 2 21 1 22 19 23 20 24 21 25 22 26 23 27
REMARK SMILES IDX 24 28 25 29 26 30 27 31 28 32 29 34 30 35 31 36 32 37 37 38
REMARK SMILES IDX 33 39 36 40 34 41 35 42 38 44 39 45 40 46 41 48 42 49 43 50
REMARK SMILES IDX 44 51 49 52 45 53 48 54 46 55 47 56 50 58 51 59 52 60
REMARK H PARENT 14 8 11 11 9 14 9 15 28 33 35 43 40 47 47 57 52 61
ROOT
ATOM      1  O   UNL     1     -10.154   3.539  -8.118  1.00  0.00    -0.272 OA
ATOM      2  C   UNL     1      -9.125   3.360  -8.785  1.00  0.00     0.245 C 
ENDROOT
BRANCH   2   3
ATOM      3  C   UNL     1      -8.235   4.583  -9.117  1.00  0.00     0.168 C 
ATOM      4  C   UNL     1      -9.059   5.866  -9.128  1.00  0.00     0.041 C 
BRANCH   3   5
ATOM      5  N   UNL     1      -7.042   4.712  -8.294  1.00  0.00    -0.342 N 
ATOM      6  C   UNL     1      -7.091   5.233  -7.019  1.00  0.00     0.251 C 
ATOM      7  O   UNL     1      -8.117   5.661  -6.501  1.00  0.00    -0.272 OA
ATOM      8  H   UNL     1      -6.126   4.423  -8.629  1.00  0.00     0.164 HD
BRANCH   6   9
ATOM      9  C   UNL     1      -5.742   5.141  -6.287  1.00  0.00     0.219 C 
BRANCH   9  10
ATOM     10  O   UNL     1      -5.212   6.427  -5.942  1.00  0.00    -0.382 OA
ATOM     11  H   UNL     1      -4.636   6.239  -5.168  1.00  0.00     0.211 HD
ENDBRANCH   9  10
BRANCH   9  12
ATOM     12  C   UNL     1      -5.784   4.211  -5.047  1.00  0.00     0.089 C 
BRANCH  12  13
ATOM     13  N   UNL     1      -6.641   4.843  -4.018  1.00  0.00    -0.325 NA
ATOM     14  H   UNL     1      -7.300   5.478  -4.473  1.00  0.00     0.119 HD
ATOM     15  H   UNL     1      -6.061   5.441  -3.425  1.00  0.00     0.119 HD
ENDBRANCH  12  13
BRANCH  12  16
ATOM     16  C   UNL     1      -6.247   2.757  -5.305  1.00  0.00     0.022 C 
BRANCH  16  17
ATOM     17  C   UNL     1      -5.529   1.606  -4.587  1.00  0.00     0.002 C 
BRANCH  17  18
ATOM     18  C   UNL     1      -4.075   1.885  -4.216  1.00  0.00     0.000 C 
BRANCH  18  19
ATOM     19  C   UNL     1      -3.057   1.343  -5.229  1.00  0.00    -0.000 C 
BRANCH  19  20
ATOM     20  C   UNL     1      -2.485   2.382  -6.196  1.00  0.00    -0.000 C 
BRANCH  20  21
ATOM     21  C   UNL     1      -1.456   1.796  -7.167  1.00  0.00    -0.003 C 
ATOM     22  C   UNL     1      -1.201   2.733  -8.337  1.00  0.00     0.004 C 
ENDBRANCH  20  21
ENDBRANCH  19  20
ENDBRANCH  18  19
ENDBRANCH  17  18
ENDBRANCH  16  17
ENDBRANCH  12  16
ENDBRANCH   9  12
ENDBRANCH   6   9
ENDBRANCH   3   5
ENDBRANCH   2   3
BRANCH   2  23
ATOM     23  N   UNL     1      -8.727   2.069  -9.116  1.00  0.00    -0.332 N 
ATOM     24  C   UNL     1      -8.811   1.496 -10.451  1.00  0.00     0.147 C 
BRANCH  23  25
ATOM     25  C   UNL     1      -8.047   1.211  -8.107  1.00  0.00     0.174 C 
BRANCH  25  26
ATOM     26  C   UNL     1      -6.852   0.424  -8.693  1.00  0.00     0.038 C 
BRANCH  26  27
ATOM     27  C   UNL     1      -5.440   0.853  -8.237  1.00  0.00    -0.015 C 
ATOM     28  C   UNL     1      -4.455  -0.315  -8.204  1.00  0.00     0.007 C 
ATOM     29  C   UNL     1      -4.867   2.015  -9.045  1.00  0.00     0.007 C 
ENDBRANCH  26  27
ENDBRANCH  25  26
BRANCH  25  30
ATOM     30  C   UNL     1      -9.083   0.320  -7.383  1.00  0.00     0.243 C 
ATOM     31  O   UNL     1     -10.155   0.015  -7.903  1.00  0.00    -0.273 OA
ATOM     32  N   UNL     1      -8.729  -0.098  -6.126  1.00  0.00    -0.342 N 
ATOM     33  H   UNL     1      -7.769   0.078  -5.821  1.00  0.00     0.164 HD
BRANCH  32  34
ATOM     34  C   UNL     1      -9.597  -0.925  -5.282  1.00  0.00     0.175 C 
BRANCH  34  35
ATOM     35  C   UNL     1      -8.778  -1.907  -4.432  1.00  0.00     0.070 C 
BRANCH  35  36
ATOM     36  C   UNL     1      -7.542  -2.409  -5.145  1.00  0.00    -0.045 A 
ATOM     37  C   UNL     1      -7.669  -3.165  -6.320  1.00  0.00     0.007 A 
ATOM     38  C   UNL     1      -6.263  -2.150  -4.637  1.00  0.00     0.007 A 
ATOM     39  C   UNL     1      -6.536  -3.644  -6.978  1.00  0.00     0.046 A 
ATOM     40  C   UNL     1      -5.128  -2.630  -5.294  1.00  0.00     0.046 A 
ATOM     41  C   UNL     1      -5.275  -3.373  -6.460  1.00  0.00     0.115 A 
BRANCH  41  42
ATOM     42  O   UNL     1      -4.194  -3.862  -7.132  1.00  0.00    -0.508 OA
ATOM     43  H   UNL     1      -3.866  -3.168  -7.728  1.00  0.00     0.293 HD
ENDBRANCH  41  42
ENDBRANCH  35  36
ENDBRANCH  34  35
BRANCH  34  44
ATOM     44  C   UNL     1     -10.455   0.018  -4.409  1.00  0.00     0.243 C 
ATOM     45  O   UNL     1     -11.544   0.476  -4.745  1.00  0.00    -0.273 OA
ATOM     46  N   UNL     1      -9.825   0.416  -3.249  1.00  0.00    -0.341 N 
ATOM     47  H   UNL     1      -8.874   0.102  -3.070  1.00  0.00     0.164 HD
BRANCH  46  48
ATOM     48  C   UNL     1     -10.413   1.361  -2.296  1.00  0.00     0.196 C 
BRANCH  48  49
ATOM     49  C   UNL     1     -10.228   0.881  -0.846  1.00  0.00     0.072 C 
BRANCH  49  50
ATOM     50  C   UNL     1      -9.326  -0.327  -0.743  1.00  0.00    -0.045 A 
ATOM     51  C   UNL     1      -7.934  -0.167  -0.797  1.00  0.00     0.007 A 
ATOM     52  C   UNL     1      -9.859  -1.616  -0.616  1.00  0.00     0.007 A 
ATOM     53  C   UNL     1      -7.091  -1.276  -0.716  1.00  0.00     0.046 A 
ATOM     54  C   UNL     1      -9.016  -2.727  -0.536  1.00  0.00     0.046 A 
ATOM     55  C   UNL     1      -7.638  -2.546  -0.586  1.00  0.00     0.115 A 
BRANCH  55  56
ATOM     56  O   UNL     1      -6.781  -3.604  -0.512  1.00  0.00    -0.508 OA
ATOM     57  H   UNL     1      -5.892  -3.265  -0.320  1.00  0.00     0.293 HD
ENDBRANCH  55  56
ENDBRANCH  49  50
ENDBRANCH  48  49
BRANCH  48  58
ATOM     58  C   UNL     1      -9.744   2.731  -2.474  1.00  0.00     0.326 C 
ATOM     59  O   UNL     1     -10.272   3.828  -2.389  1.00  0.00    -0.250 OA
BRANCH  58  60
ATOM     60  O   UNL     1      -8.416   2.654  -2.742  1.00  0.00    -0.480 OA
ATOM     61  H   UNL     1      -8.388   2.532  -3.715  1.00  0.00     0.296 HD
ENDBRANCH  58  60
ENDBRANCH  48  58
ENDBRANCH  46  48
ENDBRANCH  34  44
ENDBRANCH  32  34
ENDBRANCH  25  30
ENDBRANCH  23  25
ENDBRANCH   2  23
TORSDOF 28
ENDMDL
MODEL 41
REMARK VINA RESULT:    -5.412      4.165      9.926
REMARK INTER + INTRA:         -18.852
REMARK INTER:                 -14.765
REMARK INTRA:                  -4.088
REMARK UNBOUND:                -5.372
REMARK SMILES CCCCCCC[C@H](N)[C@H](O)C(=O)N[C@H](C)C(=O)N(C)[C@H](CC(C)C)C(=O)N[C@@H](Cc1ccc(O)cc1)C(=O)N[C@@H](Cc1ccc(O)cc1)C(=O)O
REMARK SMILES IDX 18 1 17 2 15 3 16 4 14 5 12 6 13 7 10 9 11 10 8 12 9 13 7 16
REMARK SMILES IDX 6 17 5 18 4 19 3 20 2 21 1 22 19 23 20 24 21 25 22 26 23 27
REMARK SMILES IDX 24 28 25 29 26 30 27 31 28 32 29 34 30 35 31 36 32 37 37 38
REMARK SMILES IDX 33 39 36 40 34 41 35 42 38 44 39 45 40 46 41 48 42 49 43 50
REMARK SMILES IDX 44 51 49 52 45 53 48 54 46 55 47 56 50 58 51 59 52 60
REMARK H PARENT 14 8 11 11 9 14 9 15 28 33 35 43 40 47 47 57 52 61
ROOT
ATOM      1  O   UNL     1     -12.259  -0.743  -5.749  1.00  0.00    -0.272 OA
ATOM      2  C   UNL     1     -12.247  -0.063  -4.712  1.00  0.00     0.245 C 
ENDROOT
BRANCH   2   3
ATOM      3  C   UNL     1     -13.478   0.821  -4.392  1.00  0.00     0.168 C 
ATOM      4  C   UNL     1     -13.418   2.134  -5.166  1.00  0.00     0.041 C 
BRANCH   3   5
ATOM      5  N   UNL     1     -14.764   0.159  -4.547  1.00  0.00    -0.342 N 
ATOM      6  C   UNL     1     -15.818   0.407  -3.694  1.00  0.00     0.251 C 
ATOM      7  O   UNL     1     -15.745   1.160  -2.729  1.00  0.00    -0.272 OA
ATOM      8  H   UNL     1     -14.934  -0.514  -5.291  1.00  0.00     0.164 HD
BRANCH   6   9
ATOM      9  C   UNL     1     -17.115  -0.293  -4.132  1.00  0.00     0.219 C 
BRANCH   9  10
ATOM     10  O   UNL     1     -16.874  -1.410  -4.997  1.00  0.00    -0.382 OA
ATOM     11  H   UNL     1     -17.426  -2.125  -4.611  1.00  0.00     0.211 HD
ENDBRANCH   9  10
BRANCH   9  12
ATOM     12  C   UNL     1     -18.018  -0.704  -2.940  1.00  0.00     0.089 C 
BRANCH  12  13
ATOM     13  N   UNL     1     -17.158  -1.270  -1.876  1.00  0.00    -0.325 NA
ATOM     14  H   UNL     1     -16.494  -1.925  -2.293  1.00  0.00     0.119 HD
ATOM     15  H   UNL     1     -17.735  -1.837  -1.250  1.00  0.00     0.119 HD
ENDBRANCH  12  13
BRANCH  12  16
ATOM     16  C   UNL     1     -18.921   0.409  -2.359  1.00  0.00     0.022 C 
BRANCH  16  17
ATOM     17  C   UNL     1     -20.205   0.017  -1.614  1.00  0.00     0.002 C 
BRANCH  17  18
ATOM     18  C   UNL     1     -20.330   0.583  -0.202  1.00  0.00     0.000 C 
BRANCH  18  19
ATOM     19  C   UNL     1     -20.298  -0.481   0.903  1.00  0.00    -0.000 C 
BRANCH  19  20
ATOM     20  C   UNL     1     -18.902  -0.982   1.284  1.00  0.00    -0.000 C 
BRANCH  20  21
ATOM     21  C   UNL     1     -18.932  -2.246   2.147  1.00  0.00    -0.003 C 
ATOM     22  C   UNL     1     -20.344  -2.563   2.616  1.00  0.00     0.004 C 
ENDBRANCH  20  21
ENDBRANCH  19  20
ENDBRANCH  18  19
ENDBRANCH  17  18
ENDBRANCH  16  17
ENDBRANCH  12  16
ENDBRANCH   9  12
ENDBRANCH   6   9
ENDBRANCH   3   5
ENDBRANCH   2   3
BRANCH   2  23
ATOM     23  N   UNL     1     -11.201  -0.195  -3.806  1.00  0.00    -0.332 N 
ATOM     24  C   UNL     1     -10.074   0.721  -3.706  1.00  0.00     0.147 C 
BRANCH  23  25
ATOM     25  C   UNL     1     -11.241  -1.255  -2.761  1.00  0.00     0.174 C 
BRANCH  25  26
ATOM     26  C   UNL     1     -11.078  -0.694  -1.328  1.00  0.00     0.038 C 
BRANCH  26  27
ATOM     27  C   UNL     1     -12.370  -0.305  -0.577  1.00  0.00    -0.015 C 
ATOM     28  C   UNL     1     -12.647   1.197  -0.630  1.00  0.00     0.007 C 
ATOM     29  C   UNL     1     -13.596  -1.094  -1.029  1.00  0.00     0.007 C 
ENDBRANCH  26  27
ENDBRANCH  25  26
BRANCH  25  30
ATOM     30  C   UNL     1     -10.241  -2.381  -3.106  1.00  0.00     0.243 C 
ATOM     31  O   UNL     1     -10.510  -3.263  -3.920  1.00  0.00    -0.273 OA
ATOM     32  N   UNL     1      -9.042  -2.334  -2.442  1.00  0.00    -0.342 N 
ATOM     33  H   UNL     1      -8.838  -1.496  -1.891  1.00  0.00     0.164 HD
BRANCH  32  34
ATOM     34  C   UNL     1      -7.985  -3.333  -2.622  1.00  0.00     0.175 C 
BRANCH  34  35
ATOM     35  C   UNL     1      -6.781  -2.743  -3.373  1.00  0.00     0.070 C 
BRANCH  35  36
ATOM     36  C   UNL     1      -6.694  -3.220  -4.805  1.00  0.00    -0.045 A 
ATOM     37  C   UNL     1      -5.715  -4.154  -5.176  1.00  0.00     0.007 A 
ATOM     38  C   UNL     1      -7.567  -2.724  -5.782  1.00  0.00     0.007 A 
ATOM     39  C   UNL     1      -5.618  -4.589  -6.498  1.00  0.00     0.046 A 
ATOM     40  C   UNL     1      -7.470  -3.159  -7.106  1.00  0.00     0.046 A 
ATOM     41  C   UNL     1      -6.496  -4.089  -7.452  1.00  0.00     0.115 A 
BRANCH  41  42
ATOM     42  O   UNL     1      -6.366  -4.538  -8.733  1.00  0.00    -0.508 OA
ATOM     43  H   UNL     1      -6.025  -5.447  -8.704  1.00  0.00     0.293 HD
ENDBRANCH  41  42
ENDBRANCH  35  36
ENDBRANCH  34  35
BRANCH  34  44
ATOM     44  C   UNL     1      -7.590  -3.869  -1.228  1.00  0.00     0.243 C 
ATOM     45  O   UNL     1      -7.174  -5.004  -1.014  1.00  0.00    -0.273 OA
ATOM     46  N   UNL     1      -7.871  -2.991  -0.203  1.00  0.00    -0.341 N 
ATOM     47  H   UNL     1      -8.325  -2.107  -0.420  1.00  0.00     0.164 HD
BRANCH  46  48
ATOM     48  C   UNL     1      -7.648  -3.304   1.210  1.00  0.00     0.196 C 
BRANCH  48  49
ATOM     49  C   UNL     1      -7.212  -2.058   1.998  1.00  0.00     0.072 C 
BRANCH  49  50
ATOM     50  C   UNL     1      -7.749  -0.776   1.403  1.00  0.00    -0.045 A 
ATOM     51  C   UNL     1      -8.827  -0.119   2.016  1.00  0.00     0.007 A 
ATOM     52  C   UNL     1      -7.201  -0.240   0.231  1.00  0.00     0.007 A 
ATOM     53  C   UNL     1      -9.340   1.057   1.468  1.00  0.00     0.046 A 
ATOM     54  C   UNL     1      -7.715   0.937  -0.318  1.00  0.00     0.046 A 
ATOM     55  C   UNL     1      -8.780   1.576   0.307  1.00  0.00     0.115 A 
BRANCH  55  56
ATOM     56  O   UNL     1      -9.312   2.727  -0.197  1.00  0.00    -0.508 OA
ATOM     57  H   UNL     1      -8.759   3.020  -0.938  1.00  0.00     0.293 HD
ENDBRANCH  55  56
ENDBRANCH  49  50
ENDBRANCH  48  49
BRANCH  48  58
ATOM     58  C   UNL     1      -8.945  -3.864   1.809  1.00  0.00     0.326 C 
ATOM     59  O   UNL     1      -9.688  -3.316   2.608  1.00  0.00    -0.250 OA
BRANCH  58  60
ATOM     60  O   UNL     1      -9.261  -5.103   1.355  1.00  0.00    -0.480 OA
ATOM     61  H   UNL     1      -9.847  -4.921   0.589  1.00  0.00     0.296 HD
ENDBRANCH  58  60
ENDBRANCH  48  58
ENDBRANCH  46  48
ENDBRANCH  34  44
ENDBRANCH  32  34
ENDBRANCH  25  30
ENDBRANCH  23  25
ENDBRANCH   2  23
TORSDOF 28
ENDMDL
MODEL 42
REMARK VINA RESULT:    -5.397      3.986      9.714
REMARK INTER + INTRA:         -18.816
REMARK INTER:                 -13.678
REMARK INTRA:                  -5.138
REMARK UNBOUND:                -5.372
REMARK SMILES CCCCCCC[C@H](N)[C@H](O)C(=O)N[C@H](C)C(=O)N(C)[C@H](CC(C)C)C(=O)N[C@@H](Cc1ccc(O)cc1)C(=O)N[C@@H](Cc1ccc(O)cc1)C(=O)O
REMARK SMILES IDX 18 1 17 2 15 3 16 4 14 5 12 6 13 7 10 9 11 10 8 12 9 13 7 16
REMARK SMILES IDX 6 17 5 18 4 19 3 20 2 21 1 22 19 23 20 24 21 25 22 26 23 27
REMARK SMILES IDX 24 28 25 29 26 30 27 31 28 32 29 34 30 35 31 36 32 37 37 38
REMARK SMILES IDX 33 39 36 40 34 41 35 42 38 44 39 45 40 46 41 48 42 49 43 50
REMARK SMILES IDX 44 51 49 52 45 53 48 54 46 55 47 56 50 58 51 59 52 60
REMARK H PARENT 14 8 11 11 9 14 9 15 28 33 35 43 40 47 47 57 52 61
ROOT
ATOM      1  O   UNL     1      -8.415   3.599  -3.481  1.00  0.00    -0.272 OA
ATOM      2  C   UNL     1      -8.384   2.434  -3.904  1.00  0.00     0.245 C 
ENDROOT
BRANCH   2   3
ATOM      3  C   UNL     1      -7.945   1.306  -2.938  1.00  0.00     0.168 C 
ATOM      4  C   UNL     1      -6.483   0.937  -3.164  1.00  0.00     0.041 C 
BRANCH   3   5
ATOM      5  N   UNL     1      -8.229   1.559  -1.534  1.00  0.00    -0.342 N 
ATOM      6  C   UNL     1      -9.480   1.346  -0.994  1.00  0.00     0.251 C 
ATOM      7  O   UNL     1     -10.446   0.972  -1.652  1.00  0.00    -0.272 OA
ATOM      8  H   UNL     1      -7.516   1.904  -0.896  1.00  0.00     0.164 HD
BRANCH   6   9
ATOM      9  C   UNL     1      -9.511   1.542   0.530  1.00  0.00     0.219 C 
BRANCH   9  10
ATOM     10  O   UNL     1     -10.830   1.417   1.077  1.00  0.00    -0.382 OA
ATOM     11  H   UNL     1     -11.381   1.182   0.298  1.00  0.00     0.211 HD
ENDBRANCH   9  10
BRANCH   9  12
ATOM     12  C   UNL     1      -8.514   0.624   1.283  1.00  0.00     0.089 C 
BRANCH  12  13
ATOM     13  N   UNL     1      -7.358   1.444   1.714  1.00  0.00    -0.325 NA
ATOM     14  H   UNL     1      -6.550   0.836   1.858  1.00  0.00     0.119 HD
ATOM     15  H   UNL     1      -7.560   1.842   2.635  1.00  0.00     0.119 HD
ENDBRANCH  12  13
BRANCH  12  16
ATOM     16  C   UNL     1      -9.089  -0.158   2.488  1.00  0.00     0.022 C 
BRANCH  16  17
ATOM     17  C   UNL     1      -9.189  -1.688   2.406  1.00  0.00     0.002 C 
BRANCH  17  18
ATOM     18  C   UNL     1      -8.072  -2.446   3.119  1.00  0.00     0.000 C 
BRANCH  18  19
ATOM     19  C   UNL     1      -7.388  -3.511   2.252  1.00  0.00    -0.000 C 
BRANCH  19  20
ATOM     20  C   UNL     1      -8.333  -4.521   1.595  1.00  0.00    -0.000 C 
BRANCH  20  21
ATOM     21  C   UNL     1      -7.637  -5.410   0.562  1.00  0.00    -0.003 C 
ATOM     22  C   UNL     1      -8.524  -5.651  -0.650  1.00  0.00     0.004 C 
ENDBRANCH  20  21
ENDBRANCH  19  20
ENDBRANCH  18  19
ENDBRANCH  17  18
ENDBRANCH  16  17
ENDBRANCH  12  16
ENDBRANCH   9  12
ENDBRANCH   6   9
ENDBRANCH   3   5
ENDBRANCH   2   3
BRANCH   2  23
ATOM     23  N   UNL     1      -8.853   2.144  -5.181  1.00  0.00    -0.332 N 
ATOM     24  C   UNL     1      -9.973   1.261  -5.469  1.00  0.00     0.147 C 
BRANCH  23  25
ATOM     25  C   UNL     1      -8.292   2.851  -6.365  1.00  0.00     0.174 C 
BRANCH  25  26
ATOM     26  C   UNL     1      -9.384   3.441  -7.288  1.00  0.00     0.038 C 
BRANCH  26  27
ATOM     27  C   UNL     1      -9.430   4.979  -7.425  1.00  0.00    -0.015 C 
ATOM     28  C   UNL     1     -10.280   5.637  -6.339  1.00  0.00     0.007 C 
ATOM     29  C   UNL     1      -8.048   5.624  -7.490  1.00  0.00     0.007 C 
ENDBRANCH  26  27
ENDBRANCH  25  26
BRANCH  25  30
ATOM     30  C   UNL     1      -7.283   1.939  -7.100  1.00  0.00     0.243 C 
ATOM     31  O   UNL     1      -7.606   1.270  -8.081  1.00  0.00    -0.273 OA
ATOM     32  N   UNL     1      -6.013   1.922  -6.584  1.00  0.00    -0.342 N 
ATOM     33  H   UNL     1      -5.787   2.609  -5.860  1.00  0.00     0.164 HD
BRANCH  32  34
ATOM     34  C   UNL     1      -4.935   1.096  -7.134  1.00  0.00     0.175 C 
BRANCH  34  35
ATOM     35  C   UNL     1      -3.567   1.774  -6.959  1.00  0.00     0.070 C 
BRANCH  35  36
ATOM     36  C   UNL     1      -3.664   3.119  -6.276  1.00  0.00    -0.045 A 
ATOM     37  C   UNL     1      -3.628   3.200  -4.875  1.00  0.00     0.007 A 
ATOM     38  C   UNL     1      -3.814   4.296  -7.022  1.00  0.00     0.007 A 
ATOM     39  C   UNL     1      -3.731   4.435  -4.235  1.00  0.00     0.046 A 
ATOM     40  C   UNL     1      -3.919   5.533  -6.382  1.00  0.00     0.046 A 
ATOM     41  C   UNL     1      -3.874   5.591  -4.993  1.00  0.00     0.115 A 
BRANCH  41  42
ATOM     42  O   UNL     1      -3.975   6.778  -4.329  1.00  0.00    -0.508 OA
ATOM     43  H   UNL     1      -3.173   6.896  -3.793  1.00  0.00     0.293 HD
ENDBRANCH  41  42
ENDBRANCH  35  36
ENDBRANCH  34  35
BRANCH  34  44
ATOM     44  C   UNL     1      -4.988  -0.284  -6.442  1.00  0.00     0.243 C 
ATOM     45  O   UNL     1      -4.359  -0.577  -5.429  1.00  0.00    -0.273 OA
ATOM     46  N   UNL     1      -5.717  -1.222  -7.142  1.00  0.00    -0.341 N 
ATOM     47  H   UNL     1      -6.124  -0.963  -8.038  1.00  0.00     0.164 HD
BRANCH  46  48
ATOM     48  C   UNL     1      -5.854  -2.617  -6.719  1.00  0.00     0.196 C 
BRANCH  48  49
ATOM     49  C   UNL     1      -7.321  -2.972  -6.427  1.00  0.00     0.072 C 
BRANCH  49  50
ATOM     50  C   UNL     1      -7.693  -2.762  -4.976  1.00  0.00    -0.045 A 
ATOM     51  C   UNL     1      -8.987  -2.337  -4.641  1.00  0.00     0.007 A 
ATOM     52  C   UNL     1      -6.756  -2.964  -3.955  1.00  0.00     0.007 A 
ATOM     53  C   UNL     1      -9.338  -2.126  -3.308  1.00  0.00     0.046 A 
ATOM     54  C   UNL     1      -7.107  -2.753  -2.620  1.00  0.00     0.046 A 
ATOM     55  C   UNL     1      -8.397  -2.336  -2.308  1.00  0.00     0.115 A 
BRANCH  55  56
ATOM     56  O   UNL     1      -8.779  -2.117  -1.017  1.00  0.00    -0.508 OA
ATOM     57  H   UNL     1      -9.520  -1.491  -1.020  1.00  0.00     0.293 HD
ENDBRANCH  55  56
ENDBRANCH  49  50
ENDBRANCH  48  49
BRANCH  48  58
ATOM     58  C   UNL     1      -5.314  -3.531  -7.828  1.00  0.00     0.326 C 
ATOM     59  O   UNL     1      -5.962  -4.209  -8.607  1.00  0.00    -0.250 OA
BRANCH  58  60
ATOM     60  O   UNL     1      -3.959  -3.535  -7.913  1.00  0.00    -0.480 OA
ATOM     61  H   UNL     1      -3.759  -2.690  -8.371  1.00  0.00     0.296 HD
ENDBRANCH  58  60
ENDBRANCH  48  58
ENDBRANCH  46  48
ENDBRANCH  34  44
ENDBRANCH  32  34
ENDBRANCH  25  30
ENDBRANCH  23  25
ENDBRANCH   2  23
TORSDOF 28
ENDMDL
MODEL 43
REMARK VINA RESULT:    -5.390      6.484     11.637
REMARK INTER + INTRA:         -18.798
REMARK INTER:                 -12.835
REMARK INTRA:                  -5.963
REMARK UNBOUND:                -5.372
REMARK SMILES CCCCCCC[C@H](N)[C@H](O)C(=O)N[C@H](C)C(=O)N(C)[C@H](CC(C)C)C(=O)N[C@@H](Cc1ccc(O)cc1)C(=O)N[C@@H](Cc1ccc(O)cc1)C(=O)O
REMARK SMILES IDX 18 1 17 2 15 3 16 4 14 5 12 6 13 7 10 9 11 10 8 12 9 13 7 16
REMARK SMILES IDX 6 17 5 18 4 19 3 20 2 21 1 22 19 23 20 24 21 25 22 26 23 27
REMARK SMILES IDX 24 28 25 29 26 30 27 31 28 32 29 34 30 35 31 36 32 37 37 38
REMARK SMILES IDX 33 39 36 40 34 41 35 42 38 44 39 45 40 46 41 48 42 49 43 50
REMARK SMILES IDX 44 51 49 52 45 53 48 54 46 55 47 56 50 58 51 59 52 60
REMARK H PARENT 14 8 11 11 9 14 9 15 28 33 35 43 40 47 47 57 52 61
ROOT
ATOM      1  O   UNL     1      -8.671   6.837  -8.489  1.00  0.00    -0.272 OA
ATOM      2  C   UNL     1      -9.193   5.784  -8.095  1.00  0.00     0.245 C 
ENDROOT
BRANCH   2   3
ATOM      3  C   UNL     1      -9.610   5.675  -6.607  1.00  0.00     0.168 C 
ATOM      4  C   UNL     1     -11.076   6.055  -6.426  1.00  0.00     0.041 C 
BRANCH   3   5
ATOM      5  N   UNL     1      -9.299   4.402  -5.977  1.00  0.00    -0.342 N 
ATOM      6  C   UNL     1      -9.006   4.307  -4.633  1.00  0.00     0.251 C 
ATOM      7  O   UNL     1      -8.946   5.276  -3.884  1.00  0.00    -0.272 OA
ATOM      8  H   UNL     1      -9.283   3.532  -6.504  1.00  0.00     0.164 HD
BRANCH   6   9
ATOM      9  C   UNL     1      -8.851   2.853  -4.159  1.00  0.00     0.219 C 
BRANCH   9  10
ATOM     10  O   UNL     1      -7.805   2.695  -3.193  1.00  0.00    -0.382 OA
ATOM     11  H   UNL     1      -8.238   2.200  -2.463  1.00  0.00     0.211 HD
ENDBRANCH   9  10
BRANCH   9  12
ATOM     12  C   UNL     1     -10.176   2.235  -3.642  1.00  0.00     0.089 C 
BRANCH  12  13
ATOM     13  N   UNL     1     -11.258   2.591  -4.589  1.00  0.00    -0.325 NA
ATOM     14  H   UNL     1     -11.635   1.737  -5.005  1.00  0.00     0.119 HD
ATOM     15  H   UNL     1     -10.856   3.113  -5.370  1.00  0.00     0.119 HD
ENDBRANCH  12  13
BRANCH  12  16
ATOM     16  C   UNL     1     -10.164   0.707  -3.399  1.00  0.00     0.022 C 
BRANCH  16  17
ATOM     17  C   UNL     1      -9.426  -0.201  -4.394  1.00  0.00     0.002 C 
BRANCH  17  18
ATOM     18  C   UNL     1     -10.330  -1.066  -5.269  1.00  0.00     0.000 C 
BRANCH  18  19
ATOM     19  C   UNL     1      -9.882  -2.529  -5.376  1.00  0.00    -0.000 C 
BRANCH  19  20
ATOM     20  C   UNL     1      -8.375  -2.759  -5.230  1.00  0.00    -0.000 C 
BRANCH  20  21
ATOM     21  C   UNL     1      -7.601  -2.512  -6.527  1.00  0.00    -0.003 C 
ATOM     22  C   UNL     1      -7.336  -3.812  -7.271  1.00  0.00     0.004 C 
ENDBRANCH  20  21
ENDBRANCH  19  20
ENDBRANCH  18  19
ENDBRANCH  17  18
ENDBRANCH  16  17
ENDBRANCH  12  16
ENDBRANCH   9  12
ENDBRANCH   6   9
ENDBRANCH   3   5
ENDBRANCH   2   3
BRANCH   2  23
ATOM     23  N   UNL     1      -9.505   4.779  -9.005  1.00  0.00    -0.332 N 
ATOM     24  C   UNL     1     -10.812   4.596  -9.619  1.00  0.00     0.147 C 
BRANCH  23  25
ATOM     25  C   UNL     1      -8.440   3.874  -9.517  1.00  0.00     0.174 C 
BRANCH  25  26
ATOM     26  C   UNL     1      -8.629   3.504 -11.007  1.00  0.00     0.038 C 
BRANCH  26  27
ATOM     27  C   UNL     1      -8.261   4.583 -12.049  1.00  0.00    -0.015 C 
ATOM     28  C   UNL     1      -6.784   4.539 -12.439  1.00  0.00     0.007 C 
ATOM     29  C   UNL     1      -9.146   4.554 -13.293  1.00  0.00     0.007 C 
ENDBRANCH  26  27
ENDBRANCH  25  26
BRANCH  25  30
ATOM     30  C   UNL     1      -8.290   2.648  -8.587  1.00  0.00     0.243 C 
ATOM     31  O   UNL     1      -9.252   2.159  -7.996  1.00  0.00    -0.273 OA
ATOM     32  N   UNL     1      -7.018   2.151  -8.461  1.00  0.00    -0.342 N 
ATOM     33  H   UNL     1      -6.301   2.520  -9.090  1.00  0.00     0.164 HD
BRANCH  32  34
ATOM     34  C   UNL     1      -6.684   1.012  -7.602  1.00  0.00     0.175 C 
BRANCH  34  35
ATOM     35  C   UNL     1      -5.759   0.020  -8.323  1.00  0.00     0.070 C 
BRANCH  35  36
ATOM     36  C   UNL     1      -5.414   0.458  -9.729  1.00  0.00    -0.045 A 
ATOM     37  C   UNL     1      -4.284   1.260  -9.956  1.00  0.00     0.007 A 
ATOM     38  C   UNL     1      -6.221   0.094 -10.814  1.00  0.00     0.007 A 
ATOM     39  C   UNL     1      -3.966   1.681 -11.248  1.00  0.00     0.046 A 
ATOM     40  C   UNL     1      -5.903   0.517 -12.107  1.00  0.00     0.046 A 
ATOM     41  C   UNL     1      -4.776   1.306 -12.312  1.00  0.00     0.115 A 
BRANCH  41  42
ATOM     42  O   UNL     1      -4.431   1.741 -13.558  1.00  0.00    -0.508 OA
ATOM     43  H   UNL     1      -3.712   1.177 -13.889  1.00  0.00     0.293 HD
ENDBRANCH  41  42
ENDBRANCH  35  36
ENDBRANCH  34  35
BRANCH  34  44
ATOM     44  C   UNL     1      -6.045   1.561  -6.307  1.00  0.00     0.243 C 
ATOM     45  O   UNL     1      -6.151   1.033  -5.203  1.00  0.00    -0.273 OA
ATOM     46  N   UNL     1      -5.439   2.788  -6.471  1.00  0.00    -0.341 N 
ATOM     47  H   UNL     1      -5.479   3.241  -7.381  1.00  0.00     0.164 HD
BRANCH  46  48
ATOM     48  C   UNL     1      -4.824   3.537  -5.373  1.00  0.00     0.196 C 
BRANCH  48  49
ATOM     49  C   UNL     1      -3.349   3.857  -5.670  1.00  0.00     0.072 C 
BRANCH  49  50
ATOM     50  C   UNL     1      -2.595   2.667  -6.218  1.00  0.00    -0.045 A 
ATOM     51  C   UNL     1      -2.488   1.496  -5.455  1.00  0.00     0.007 A 
ATOM     52  C   UNL     1      -1.978   2.722  -7.475  1.00  0.00     0.007 A 
ATOM     53  C   UNL     1      -1.783   0.396  -5.945  1.00  0.00     0.046 A 
ATOM     54  C   UNL     1      -1.272   1.621  -7.965  1.00  0.00     0.046 A 
ATOM     55  C   UNL     1      -1.181   0.466  -7.195  1.00  0.00     0.115 A 
BRANCH  55  56
ATOM     56  O   UNL     1      -0.500  -0.629  -7.637  1.00  0.00    -0.508 OA
ATOM     57  H   UNL     1      -0.686  -0.745  -8.582  1.00  0.00     0.293 HD
ENDBRANCH  55  56
ENDBRANCH  49  50
ENDBRANCH  48  49
BRANCH  48  58
ATOM     58  C   UNL     1      -5.602   4.844  -5.162  1.00  0.00     0.326 C 
ATOM     59  O   UNL     1      -5.978   5.626  -6.020  1.00  0.00    -0.250 OA
BRANCH  58  60
ATOM     60  O   UNL     1      -5.888   5.099  -3.861  1.00  0.00    -0.480 OA
ATOM     61  H   UNL     1      -6.364   4.291  -3.571  1.00  0.00     0.296 HD
ENDBRANCH  58  60
ENDBRANCH  48  58
ENDBRANCH  46  48
ENDBRANCH  34  44
ENDBRANCH  32  34
ENDBRANCH  25  30
ENDBRANCH  23  25
ENDBRANCH   2  23
TORSDOF 28
ENDMDL
MODEL 44
REMARK VINA RESULT:    -5.387      3.465      8.647
REMARK INTER + INTRA:         -18.789
REMARK INTER:                 -13.816
REMARK INTRA:                  -4.973
REMARK UNBOUND:                -5.372
REMARK SMILES CCCCCCC[C@H](N)[C@H](O)C(=O)N[C@H](C)C(=O)N(C)[C@H](CC(C)C)C(=O)N[C@@H](Cc1ccc(O)cc1)C(=O)N[C@@H](Cc1ccc(O)cc1)C(=O)O
REMARK SMILES IDX 18 1 17 2 15 3 16 4 14 5 12 6 13 7 10 9 11 10 8 12 9 13 7 16
REMARK SMILES IDX 6 17 5 18 4 19 3 20 2 21 1 22 19 23 20 24 21 25 22 26 23 27
REMARK SMILES IDX 24 28 25 29 26 30 27 31 28 32 29 34 30 35 31 36 32 37 37 38
REMARK SMILES IDX 33 39 36 40 34 41 35 42 38 44 39 45 40 46 41 48 42 49 43 50
REMARK SMILES IDX 44 51 49 52 45 53 48 54 46 55 47 56 50 58 51 59 52 60
REMARK H PARENT 14 8 11 11 9 14 9 15 28 33 35 43 40 47 47 57 52 61
ROOT
ATOM      1  O   UNL     1      -9.923   3.382  -1.989  1.00  0.00    -0.272 OA
ATOM      2  C   UNL     1      -9.969   2.179  -1.691  1.00  0.00     0.245 C 
ENDROOT
BRANCH   2   3
ATOM      3  C   UNL     1      -8.952   1.631  -0.660  1.00  0.00     0.168 C 
ATOM      4  C   UNL     1      -9.292   2.115   0.746  1.00  0.00     0.041 C 
BRANCH   3   5
ATOM      5  N   UNL     1      -8.753   0.191  -0.704  1.00  0.00    -0.342 N 
ATOM      6  C   UNL     1      -7.493  -0.370  -0.690  1.00  0.00     0.251 C 
ATOM      7  O   UNL     1      -6.459   0.289  -0.683  1.00  0.00    -0.272 OA
ATOM      8  H   UNL     1      -9.535  -0.458  -0.746  1.00  0.00     0.164 HD
BRANCH   6   9
ATOM      9  C   UNL     1      -7.527  -1.904  -0.599  1.00  0.00     0.219 C 
BRANCH   9  10
ATOM     10  O   UNL     1      -6.634  -2.533  -1.526  1.00  0.00    -0.382 OA
ATOM     11  H   UNL     1      -6.292  -1.784  -2.061  1.00  0.00     0.211 HD
ENDBRANCH   9  10
BRANCH   9  12
ATOM     12  C   UNL     1      -7.290  -2.434   0.840  1.00  0.00     0.089 C 
BRANCH  12  13
ATOM     13  N   UNL     1      -7.119  -1.273   1.743  1.00  0.00    -0.325 NA
ATOM     14  H   UNL     1      -7.633  -0.474   1.365  1.00  0.00     0.119 HD
ATOM     15  H   UNL     1      -6.137  -0.987   1.732  1.00  0.00     0.119 HD
ENDBRANCH  12  13
BRANCH  12  16
ATOM     16  C   UNL     1      -8.374  -3.386   1.399  1.00  0.00     0.022 C 
BRANCH  16  17
ATOM     17  C   UNL     1      -8.397  -4.848   0.931  1.00  0.00     0.002 C 
BRANCH  17  18
ATOM     18  C   UNL     1      -7.034  -5.428   0.561  1.00  0.00     0.000 C 
BRANCH  18  19
ATOM     19  C   UNL     1      -6.968  -6.009  -0.858  1.00  0.00    -0.000 C 
BRANCH  19  20
ATOM     20  C   UNL     1      -5.605  -5.890  -1.546  1.00  0.00    -0.000 C 
BRANCH  20  21
ATOM     21  C   UNL     1      -4.970  -7.247  -1.859  1.00  0.00    -0.003 C 
ATOM     22  C   UNL     1      -6.027  -8.325  -2.040  1.00  0.00     0.004 C 
ENDBRANCH  20  21
ENDBRANCH  19  20
ENDBRANCH  18  19
ENDBRANCH  17  18
ENDBRANCH  16  17
ENDBRANCH  12  16
ENDBRANCH   9  12
ENDBRANCH   6   9
ENDBRANCH   3   5
ENDBRANCH   2   3
BRANCH   2  23
ATOM     23  N   UNL     1     -10.994   1.379  -2.186  1.00  0.00    -0.332 N 
ATOM     24  C   UNL     1     -12.189   1.013  -1.440  1.00  0.00     0.147 C 
BRANCH  23  25
ATOM     25  C   UNL     1     -10.984   0.940  -3.608  1.00  0.00     0.174 C 
BRANCH  25  26
ATOM     26  C   UNL     1     -12.355   0.401  -4.081  1.00  0.00     0.038 C 
BRANCH  26  27
ATOM     27  C   UNL     1     -12.752   0.688  -5.546  1.00  0.00    -0.015 C 
ATOM     28  C   UNL     1     -14.218   0.361  -5.829  1.00  0.00     0.007 C 
ATOM     29  C   UNL     1     -12.422   2.108  -5.998  1.00  0.00     0.007 C 
ENDBRANCH  26  27
ENDBRANCH  25  26
BRANCH  25  30
ATOM     30  C   UNL     1      -9.813  -0.038  -3.855  1.00  0.00     0.243 C 
ATOM     31  O   UNL     1      -9.751  -1.132  -3.296  1.00  0.00    -0.273 OA
ATOM     32  N   UNL     1      -8.850   0.397  -4.729  1.00  0.00    -0.342 N 
ATOM     33  H   UNL     1      -9.043   1.252  -5.258  1.00  0.00     0.164 HD
BRANCH  32  34
ATOM     34  C   UNL     1      -7.656  -0.384  -5.061  1.00  0.00     0.175 C 
BRANCH  34  35
ATOM     35  C   UNL     1      -7.924  -1.342  -6.232  1.00  0.00     0.070 C 
BRANCH  35  36
ATOM     36  C   UNL     1      -7.164  -2.644  -6.107  1.00  0.00    -0.045 A 
ATOM     37  C   UNL     1      -6.542  -2.981  -4.895  1.00  0.00     0.007 A 
ATOM     38  C   UNL     1      -7.051  -3.517  -7.197  1.00  0.00     0.007 A 
ATOM     39  C   UNL     1      -5.828  -4.173  -4.775  1.00  0.00     0.046 A 
ATOM     40  C   UNL     1      -6.335  -4.711  -7.078  1.00  0.00     0.046 A 
ATOM     41  C   UNL     1      -5.730  -5.028  -5.866  1.00  0.00     0.115 A 
BRANCH  41  42
ATOM     42  O   UNL     1      -5.021  -6.182  -5.707  1.00  0.00    -0.508 OA
ATOM     43  H   UNL     1      -5.007  -6.403  -4.761  1.00  0.00     0.293 HD
ENDBRANCH  41  42
ENDBRANCH  35  36
ENDBRANCH  34  35
BRANCH  34  44
ATOM     44  C   UNL     1      -6.509   0.603  -5.373  1.00  0.00     0.243 C 
ATOM     45  O   UNL     1      -5.335   0.278  -5.522  1.00  0.00    -0.273 OA
ATOM     46  N   UNL     1      -6.900   1.925  -5.343  1.00  0.00    -0.341 N 
ATOM     47  H   UNL     1      -7.861   2.151  -5.100  1.00  0.00     0.164 HD
BRANCH  46  48
ATOM     48  C   UNL     1      -5.975   3.043  -5.542  1.00  0.00     0.196 C 
BRANCH  48  49
ATOM     49  C   UNL     1      -5.960   3.504  -7.009  1.00  0.00     0.072 C 
BRANCH  49  50
ATOM     50  C   UNL     1      -4.695   3.100  -7.732  1.00  0.00    -0.045 A 
ATOM     51  C   UNL     1      -4.756   2.175  -8.784  1.00  0.00     0.007 A 
ATOM     52  C   UNL     1      -3.451   3.621  -7.354  1.00  0.00     0.007 A 
ATOM     53  C   UNL     1      -3.595   1.784  -9.450  1.00  0.00     0.046 A 
ATOM     54  C   UNL     1      -2.287   3.229  -8.020  1.00  0.00     0.046 A 
ATOM     55  C   UNL     1      -2.370   2.314  -9.064  1.00  0.00     0.115 A 
BRANCH  55  56
ATOM     56  O   UNL     1      -1.258   1.905  -9.739  1.00  0.00    -0.508 OA
ATOM     57  H   UNL     1      -0.978   2.622 -10.331  1.00  0.00     0.293 HD
ENDBRANCH  55  56
ENDBRANCH  49  50
ENDBRANCH  48  49
BRANCH  48  58
ATOM     58  C   UNL     1      -6.402   4.210  -4.640  1.00  0.00     0.326 C 
ATOM     59  O   UNL     1      -5.881   5.311  -4.560  1.00  0.00    -0.250 OA
BRANCH  58  60
ATOM     60  O   UNL     1      -7.492   3.936  -3.880  1.00  0.00    -0.480 OA
ATOM     61  H   UNL     1      -8.133   4.631  -4.146  1.00  0.00     0.296 HD
ENDBRANCH  58  60
ENDBRANCH  48  58
ENDBRANCH  46  48
ENDBRANCH  34  44
ENDBRANCH  32  34
ENDBRANCH  25  30
ENDBRANCH  23  25
ENDBRANCH   2  23
TORSDOF 28
ENDMDL
MODEL 45
REMARK VINA RESULT:    -5.339      4.937     10.441
REMARK INTER + INTRA:         -18.671
REMARK INTER:                 -10.714
REMARK INTRA:                  -7.957
REMARK UNBOUND:                -5.372
REMARK SMILES CCCCCCC[C@H](N)[C@H](O)C(=O)N[C@H](C)C(=O)N(C)[C@H](CC(C)C)C(=O)N[C@@H](Cc1ccc(O)cc1)C(=O)N[C@@H](Cc1ccc(O)cc1)C(=O)O
REMARK SMILES IDX 18 1 17 2 15 3 16 4 14 5 12 6 13 7 10 9 11 10 8 12 9 13 7 16
REMARK SMILES IDX 6 17 5 18 4 19 3 20 2 21 1 22 19 23 20 24 21 25 22 26 23 27
REMARK SMILES IDX 24 28 25 29 26 30 27 31 28 32 29 34 30 35 31 36 32 37 37 38
REMARK SMILES IDX 33 39 36 40 34 41 35 42 38 44 39 45 40 46 41 48 42 49 43 50
REMARK SMILES IDX 44 51 49 52 45 53 48 54 46 55 47 56 50 58 51 59 52 60
REMARK H PARENT 14 8 11 11 9 14 9 15 28 33 35 43 40 47 47 57 52 61
ROOT
ATOM      1  O   UNL     1     -11.439   3.701  -8.319  1.00  0.00    -0.272 OA
ATOM      2  C   UNL     1     -10.474   4.423  -8.028  1.00  0.00     0.245 C 
ENDROOT
BRANCH   2   3
ATOM      3  C   UNL     1     -10.616   5.406  -6.840  1.00  0.00     0.168 C 
ATOM      4  C   UNL     1     -11.436   6.627  -7.242  1.00  0.00     0.041 C 
BRANCH   3   5
ATOM      5  N   UNL     1     -11.103   4.808  -5.607  1.00  0.00    -0.342 N 
ATOM      6  C   UNL     1     -10.367   4.839  -4.441  1.00  0.00     0.251 C 
ATOM      7  O   UNL     1      -9.244   5.328  -4.364  1.00  0.00    -0.272 OA
ATOM      8  H   UNL     1     -12.007   4.343  -5.557  1.00  0.00     0.164 HD
BRANCH   6   9
ATOM      9  C   UNL     1     -11.136   4.276  -3.236  1.00  0.00     0.219 C 
BRANCH   9  10
ATOM     10  O   UNL     1     -12.556   4.289  -3.432  1.00  0.00    -0.382 OA
ATOM     11  H   UNL     1     -12.771   3.350  -3.627  1.00  0.00     0.211 HD
ENDBRANCH   9  10
BRANCH   9  12
ATOM     12  C   UNL     1     -10.652   2.865  -2.810  1.00  0.00     0.089 C 
BRANCH  12  13
ATOM     13  N   UNL     1      -9.673   2.385  -3.811  1.00  0.00    -0.325 NA
ATOM     14  H   UNL     1      -9.876   1.410  -4.038  1.00  0.00     0.119 HD
ATOM     15  H   UNL     1      -8.743   2.372  -3.385  1.00  0.00     0.119 HD
ENDBRANCH  12  13
BRANCH  12  16
ATOM     16  C   UNL     1     -10.055   2.755  -1.386  1.00  0.00     0.022 C 
BRANCH  16  17
ATOM     17  C   UNL     1     -10.996   2.515  -0.198  1.00  0.00     0.002 C 
BRANCH  17  18
ATOM     18  C   UNL     1     -10.298   2.176   1.118  1.00  0.00     0.000 C 
BRANCH  18  19
ATOM     19  C   UNL     1      -9.990   0.683   1.295  1.00  0.00    -0.000 C 
BRANCH  19  20
ATOM     20  C   UNL     1      -8.504   0.339   1.438  1.00  0.00    -0.000 C 
BRANCH  20  21
ATOM     21  C   UNL     1      -7.595   1.256   0.615  1.00  0.00    -0.003 C 
ATOM     22  C   UNL     1      -6.690   0.455  -0.309  1.00  0.00     0.004 C 
ENDBRANCH  20  21
ENDBRANCH  19  20
ENDBRANCH  18  19
ENDBRANCH  17  18
ENDBRANCH  16  17
ENDBRANCH  12  16
ENDBRANCH   9  12
ENDBRANCH   6   9
ENDBRANCH   3   5
ENDBRANCH   2   3
BRANCH   2  23
ATOM     23  N   UNL     1      -9.258   4.255  -8.682  1.00  0.00    -0.332 N 
ATOM     24  C   UNL     1      -8.989   4.680 -10.048  1.00  0.00     0.147 C 
BRANCH  23  25
ATOM     25  C   UNL     1      -8.077   3.723  -7.947  1.00  0.00     0.174 C 
BRANCH  25  26
ATOM     26  C   UNL     1      -6.737   4.296  -8.466  1.00  0.00     0.038 C 
BRANCH  26  27
ATOM     27  C   UNL     1      -5.616   4.506  -7.424  1.00  0.00    -0.015 C 
ATOM     28  C   UNL     1      -6.146   4.522  -5.990  1.00  0.00     0.007 C 
ATOM     29  C   UNL     1      -4.466   3.511  -7.560  1.00  0.00     0.007 C 
ENDBRANCH  26  27
ENDBRANCH  25  26
BRANCH  25  30
ATOM     30  C   UNL     1      -8.122   2.178  -7.916  1.00  0.00     0.243 C 
ATOM     31  O   UNL     1      -7.781   1.498  -8.883  1.00  0.00    -0.273 OA
ATOM     32  N   UNL     1      -8.573   1.621  -6.747  1.00  0.00    -0.342 N 
ATOM     33  H   UNL     1      -8.702   2.243  -5.945  1.00  0.00     0.164 HD
BRANCH  32  34
ATOM     34  C   UNL     1      -8.708   0.176  -6.547  1.00  0.00     0.175 C 
BRANCH  34  35
ATOM     35  C   UNL     1      -8.028  -0.274  -5.245  1.00  0.00     0.070 C 
BRANCH  35  36
ATOM     36  C   UNL     1      -6.601   0.214  -5.131  1.00  0.00    -0.045 A 
ATOM     37  C   UNL     1      -6.261   1.165  -4.157  1.00  0.00     0.007 A 
ATOM     38  C   UNL     1      -5.610  -0.254  -6.003  1.00  0.00     0.007 A 
ATOM     39  C   UNL     1      -4.950   1.632  -4.054  1.00  0.00     0.046 A 
ATOM     40  C   UNL     1      -4.297   0.214  -5.901  1.00  0.00     0.046 A 
ATOM     41  C   UNL     1      -3.979   1.153  -4.925  1.00  0.00     0.115 A 
BRANCH  41  42
ATOM     42  O   UNL     1      -2.711   1.637  -4.792  1.00  0.00    -0.508 OA
ATOM     43  H   UNL     1      -2.354   1.803  -5.680  1.00  0.00     0.293 HD
ENDBRANCH  41  42
ENDBRANCH  35  36
ENDBRANCH  34  35
BRANCH  34  44
ATOM     44  C   UNL     1     -10.214  -0.171  -6.562  1.00  0.00     0.243 C 
ATOM     45  O   UNL     1     -10.821  -0.585  -7.545  1.00  0.00    -0.273 OA
ATOM     46  N   UNL     1     -10.863   0.152  -5.389  1.00  0.00    -0.341 N 
ATOM     47  H   UNL     1     -10.339   0.603  -4.642  1.00  0.00     0.164 HD
BRANCH  46  48
ATOM     48  C   UNL     1     -12.303  -0.021  -5.191  1.00  0.00     0.196 C 
BRANCH  48  49
ATOM     49  C   UNL     1     -12.600  -0.838  -3.922  1.00  0.00     0.072 C 
BRANCH  49  50
ATOM     50  C   UNL     1     -11.359  -1.471  -3.335  1.00  0.00    -0.045 A 
ATOM     51  C   UNL     1     -10.706  -0.858  -2.256  1.00  0.00     0.007 A 
ATOM     52  C   UNL     1     -10.834  -2.657  -3.865  1.00  0.00     0.007 A 
ATOM     53  C   UNL     1      -9.552  -1.425  -1.714  1.00  0.00     0.046 A 
ATOM     54  C   UNL     1      -9.679  -3.224  -3.323  1.00  0.00     0.046 A 
ATOM     55  C   UNL     1      -9.048  -2.603  -2.250  1.00  0.00     0.115 A 
BRANCH  55  56
ATOM     56  O   UNL     1      -7.918  -3.124  -1.693  1.00  0.00    -0.508 OA
ATOM     57  H   UNL     1      -7.168  -2.917  -2.272  1.00  0.00     0.293 HD
ENDBRANCH  55  56
ENDBRANCH  49  50
ENDBRANCH  48  49
BRANCH  48  58
ATOM     58  C   UNL     1     -12.962   1.361  -5.079  1.00  0.00     0.326 C 
ATOM     59  O   UNL     1     -12.824   2.309  -5.834  1.00  0.00    -0.250 OA
BRANCH  58  60
ATOM     60  O   UNL     1     -13.789   1.481  -4.010  1.00  0.00    -0.480 OA
ATOM     61  H   UNL     1     -13.806   2.449  -3.845  1.00  0.00     0.296 HD
ENDBRANCH  58  60
ENDBRANCH  48  58
ENDBRANCH  46  48
ENDBRANCH  34  44
ENDBRANCH  32  34
ENDBRANCH  25  30
ENDBRANCH  23  25
ENDBRANCH   2  23
TORSDOF 28
ENDMDL
MODEL 46
REMARK VINA RESULT:    -5.300      6.697     12.524
REMARK INTER + INTRA:         -18.574
REMARK INTER:                 -12.520
REMARK INTRA:                  -6.054
REMARK UNBOUND:                -5.372
REMARK SMILES CCCCCCC[C@H](N)[C@H](O)C(=O)N[C@H](C)C(=O)N(C)[C@H](CC(C)C)C(=O)N[C@@H](Cc1ccc(O)cc1)C(=O)N[C@@H](Cc1ccc(O)cc1)C(=O)O
REMARK SMILES IDX 18 1 17 2 15 3 16 4 14 5 12 6 13 7 10 9 11 10 8 12 9 13 7 16
REMARK SMILES IDX 6 17 5 18 4 19 3 20 2 21 1 22 19 23 20 24 21 25 22 26 23 27
REMARK SMILES IDX 24 28 25 29 26 30 27 31 28 32 29 34 30 35 31 36 32 37 37 38
REMARK SMILES IDX 33 39 36 40 34 41 35 42 38 44 39 45 40 46 41 48 42 49 43 50
REMARK SMILES IDX 44 51 49 52 45 53 48 54 46 55 47 56 50 58 51 59 52 60
REMARK H PARENT 14 8 11 11 9 14 9 15 28 33 35 43 40 47 47 57 52 61
ROOT
ATOM      1  O   UNL     1     -17.261  -0.827  -0.468  1.00  0.00    -0.272 OA
ATOM      2  C   UNL     1     -18.090  -0.146  -1.091  1.00  0.00     0.245 C 
ENDROOT
BRANCH   2   3
ATOM      3  C   UNL     1     -19.168   0.625  -0.289  1.00  0.00     0.168 C 
ATOM      4  C   UNL     1     -19.809  -0.276   0.760  1.00  0.00     0.041 C 
BRANCH   3   5
ATOM      5  N   UNL     1     -18.720   1.887   0.279  1.00  0.00    -0.342 N 
ATOM      6  C   UNL     1     -19.345   3.080  -0.015  1.00  0.00     0.251 C 
ATOM      7  O   UNL     1     -20.284   3.177  -0.798  1.00  0.00    -0.272 OA
ATOM      8  H   UNL     1     -17.928   1.937   0.916  1.00  0.00     0.164 HD
BRANCH   6   9
ATOM      9  C   UNL     1     -18.796   4.257   0.807  1.00  0.00     0.219 C 
BRANCH   9  10
ATOM     10  O   UNL     1     -17.851   3.843   1.802  1.00  0.00    -0.382 OA
ATOM     11  H   UNL     1     -17.813   4.608   2.417  1.00  0.00     0.211 HD
ENDBRANCH   9  10
BRANCH   9  12
ATOM     12  C   UNL     1     -18.209   5.392  -0.072  1.00  0.00     0.089 C 
BRANCH  12  13
ATOM     13  N   UNL     1     -19.325   6.062  -0.778  1.00  0.00    -0.325 NA
ATOM     14  H   UNL     1     -19.557   6.930  -0.292  1.00  0.00     0.119 HD
ATOM     15  H   UNL     1     -20.162   5.480  -0.699  1.00  0.00     0.119 HD
ENDBRANCH  12  13
BRANCH  12  16
ATOM     16  C   UNL     1     -17.341   6.440   0.665  1.00  0.00     0.022 C 
BRANCH  16  17
ATOM     17  C   UNL     1     -15.875   6.623   0.247  1.00  0.00     0.002 C 
BRANCH  17  18
ATOM     18  C   UNL     1     -15.001   5.380   0.400  1.00  0.00     0.000 C 
BRANCH  18  19
ATOM     19  C   UNL     1     -13.811   5.567   1.350  1.00  0.00    -0.000 C 
BRANCH  19  20
ATOM     20  C   UNL     1     -14.113   6.362   2.623  1.00  0.00    -0.000 C 
BRANCH  20  21
ATOM     21  C   UNL     1     -14.884   5.551   3.668  1.00  0.00    -0.003 C 
ATOM     22  C   UNL     1     -14.086   5.404   4.955  1.00  0.00     0.004 C 
ENDBRANCH  20  21
ENDBRANCH  19  20
ENDBRANCH  18  19
ENDBRANCH  17  18
ENDBRANCH  16  17
ENDBRANCH  12  16
ENDBRANCH   9  12
ENDBRANCH   6   9
ENDBRANCH   3   5
ENDBRANCH   2   3
BRANCH   2  23
ATOM     23  N   UNL     1     -17.967   0.011  -2.467  1.00  0.00    -0.332 N 
ATOM     24  C   UNL     1     -18.214  -1.039  -3.444  1.00  0.00     0.147 C 
BRANCH  23  25
ATOM     25  C   UNL     1     -17.686   1.353  -3.048  1.00  0.00     0.174 C 
BRANCH  25  26
ATOM     26  C   UNL     1     -17.737   1.363  -4.594  1.00  0.00     0.038 C 
BRANCH  26  27
ATOM     27  C   UNL     1     -18.601   2.458  -5.258  1.00  0.00    -0.015 C 
ATOM     28  C   UNL     1     -19.552   3.133  -4.270  1.00  0.00     0.007 C 
ATOM     29  C   UNL     1     -17.783   3.502  -6.014  1.00  0.00     0.007 C 
ENDBRANCH  26  27
ENDBRANCH  25  26
BRANCH  25  30
ATOM     30  C   UNL     1     -16.371   1.920  -2.465  1.00  0.00     0.243 C 
ATOM     31  O   UNL     1     -16.364   2.695  -1.510  1.00  0.00    -0.273 OA
ATOM     32  N   UNL     1     -15.220   1.508  -3.087  1.00  0.00    -0.342 N 
ATOM     33  H   UNL     1     -15.298   0.757  -3.778  1.00  0.00     0.164 HD
BRANCH  32  34
ATOM     34  C   UNL     1     -13.886   1.963  -2.688  1.00  0.00     0.175 C 
BRANCH  34  35
ATOM     35  C   UNL     1     -13.834   3.493  -2.557  1.00  0.00     0.070 C 
BRANCH  35  36
ATOM     36  C   UNL     1     -12.688   4.108  -3.328  1.00  0.00    -0.045 A 
ATOM     37  C   UNL     1     -11.454   4.327  -2.697  1.00  0.00     0.007 A 
ATOM     38  C   UNL     1     -12.845   4.487  -4.668  1.00  0.00     0.007 A 
ATOM     39  C   UNL     1     -10.395   4.906  -3.396  1.00  0.00     0.046 A 
ATOM     40  C   UNL     1     -11.785   5.069  -5.369  1.00  0.00     0.046 A 
ATOM     41  C   UNL     1     -10.569   5.271  -4.726  1.00  0.00     0.115 A 
BRANCH  41  42
ATOM     42  O   UNL     1      -9.510   5.837  -5.373  1.00  0.00    -0.508 OA
ATOM     43  H   UNL     1      -8.989   6.339  -4.724  1.00  0.00     0.293 HD
ENDBRANCH  41  42
ENDBRANCH  35  36
ENDBRANCH  34  35
BRANCH  34  44
ATOM     44  C   UNL     1     -13.515   1.257  -1.364  1.00  0.00     0.243 C 
ATOM     45  O   UNL     1     -13.225   0.068  -1.270  1.00  0.00    -0.273 OA
ATOM     46  N   UNL     1     -13.664   2.060  -0.254  1.00  0.00    -0.341 N 
ATOM     47  H   UNL     1     -14.019   3.006  -0.372  1.00  0.00     0.164 HD
BRANCH  46  48
ATOM     48  C   UNL     1     -13.437   1.592   1.115  1.00  0.00     0.196 C 
BRANCH  48  49
ATOM     49  C   UNL     1     -12.299   2.374   1.793  1.00  0.00     0.072 C 
BRANCH  49  50
ATOM     50  C   UNL     1     -11.006   1.593   1.844  1.00  0.00    -0.045 A 
ATOM     51  C   UNL     1     -11.037   0.199   1.995  1.00  0.00     0.007 A 
ATOM     52  C   UNL     1      -9.768   2.243   1.765  1.00  0.00     0.007 A 
ATOM     53  C   UNL     1      -9.850  -0.531   2.057  1.00  0.00     0.046 A 
ATOM     54  C   UNL     1      -8.579   1.512   1.828  1.00  0.00     0.046 A 
ATOM     55  C   UNL     1      -8.630   0.130   1.972  1.00  0.00     0.115 A 
BRANCH  55  56
ATOM     56  O   UNL     1      -7.493  -0.619   2.038  1.00  0.00    -0.508 OA
ATOM     57  H   UNL     1      -7.234  -0.699   2.970  1.00  0.00     0.293 HD
ENDBRANCH  55  56
ENDBRANCH  49  50
ENDBRANCH  48  49
BRANCH  48  58
ATOM     58  C   UNL     1     -14.731   1.763   1.923  1.00  0.00     0.326 C 
ATOM     59  O   UNL     1     -14.834   2.082   3.096  1.00  0.00    -0.250 OA
BRANCH  58  60
ATOM     60  O   UNL     1     -15.855   1.534   1.198  1.00  0.00    -0.480 OA
ATOM     61  H   UNL     1     -16.557   1.472   1.882  1.00  0.00     0.296 HD
ENDBRANCH  58  60
ENDBRANCH  48  58
ENDBRANCH  46  48
ENDBRANCH  34  44
ENDBRANCH  32  34
ENDBRANCH  25  30
ENDBRANCH  23  25
ENDBRANCH   2  23
TORSDOF 28
ENDMDL
MODEL 47
REMARK VINA RESULT:    -5.295     11.448     15.946
REMARK INTER + INTRA:         -18.560
REMARK INTER:                 -13.826
REMARK INTRA:                  -4.735
REMARK UNBOUND:                -5.372
REMARK SMILES CCCCCCC[C@H](N)[C@H](O)C(=O)N[C@H](C)C(=O)N(C)[C@H](CC(C)C)C(=O)N[C@@H](Cc1ccc(O)cc1)C(=O)N[C@@H](Cc1ccc(O)cc1)C(=O)O
REMARK SMILES IDX 18 1 17 2 15 3 16 4 14 5 12 6 13 7 10 9 11 10 8 12 9 13 7 16
REMARK SMILES IDX 6 17 5 18 4 19 3 20 2 21 1 22 19 23 20 24 21 25 22 26 23 27
REMARK SMILES IDX 24 28 25 29 26 30 27 31 28 32 29 34 30 35 31 36 32 37 37 38
REMARK SMILES IDX 33 39 36 40 34 41 35 42 38 44 39 45 40 46 41 48 42 49 43 50
REMARK SMILES IDX 44 51 49 52 45 53 48 54 46 55 47 56 50 58 51 59 52 60
REMARK H PARENT 14 8 11 11 9 14 9 15 28 33 35 43 40 47 47 57 52 61
ROOT
ATOM      1  O   UNL     1       1.550  -3.975  15.548  1.00  0.00    -0.272 OA
ATOM      2  C   UNL     1       0.830  -3.767  14.560  1.00  0.00     0.245 C 
ENDROOT
BRANCH   2   3
ATOM      3  C   UNL     1      -0.685  -4.071  14.668  1.00  0.00     0.168 C 
ATOM      4  C   UNL     1      -1.382  -3.041  15.550  1.00  0.00     0.041 C 
BRANCH   3   5
ATOM      5  N   UNL     1      -1.366  -4.244  13.395  1.00  0.00    -0.342 N 
ATOM      6  C   UNL     1      -2.297  -5.242  13.197  1.00  0.00     0.251 C 
ATOM      7  O   UNL     1      -2.588  -6.074  14.050  1.00  0.00    -0.272 OA
ATOM      8  H   UNL     1      -1.181  -3.636  12.601  1.00  0.00     0.164 HD
BRANCH   6   9
ATOM      9  C   UNL     1      -2.989  -5.146  11.828  1.00  0.00     0.219 C 
BRANCH   9  10
ATOM     10  O   UNL     1      -3.079  -6.413  11.165  1.00  0.00    -0.382 OA
ATOM     11  H   UNL     1      -2.167  -6.774  11.233  1.00  0.00     0.211 HD
ENDBRANCH   9  10
BRANCH   9  12
ATOM     12  C   UNL     1      -4.379  -4.461  11.896  1.00  0.00     0.089 C 
BRANCH  12  13
ATOM     13  N   UNL     1      -4.625  -4.039  13.294  1.00  0.00    -0.325 NA
ATOM     14  H   UNL     1      -5.616  -4.158  13.511  1.00  0.00     0.119 HD
ATOM     15  H   UNL     1      -4.454  -3.034  13.371  1.00  0.00     0.119 HD
ENDBRANCH  12  13
BRANCH  12  16
ATOM     16  C   UNL     1      -4.593  -3.267  10.935  1.00  0.00     0.022 C 
BRANCH  16  17
ATOM     17  C   UNL     1      -5.565  -2.149  11.337  1.00  0.00     0.002 C 
BRANCH  17  18
ATOM     18  C   UNL     1      -5.274  -0.786  10.712  1.00  0.00     0.000 C 
BRANCH  18  19
ATOM     19  C   UNL     1      -6.113  -0.479   9.465  1.00  0.00    -0.000 C 
BRANCH  19  20
ATOM     20  C   UNL     1      -7.627  -0.613   9.650  1.00  0.00    -0.000 C 
BRANCH  20  21
ATOM     21  C   UNL     1      -8.198   0.384  10.662  1.00  0.00    -0.003 C 
ATOM     22  C   UNL     1      -8.267   1.787  10.080  1.00  0.00     0.004 C 
ENDBRANCH  20  21
ENDBRANCH  19  20
ENDBRANCH  18  19
ENDBRANCH  17  18
ENDBRANCH  16  17
ENDBRANCH  12  16
ENDBRANCH   9  12
ENDBRANCH   6   9
ENDBRANCH   3   5
ENDBRANCH   2   3
BRANCH   2  23
ATOM     23  N   UNL     1       1.363  -3.159  13.428  1.00  0.00    -0.332 N 
ATOM     24  C   UNL     1       1.198  -1.752  13.092  1.00  0.00     0.147 C 
BRANCH  23  25
ATOM     25  C   UNL     1       2.273  -3.916  12.526  1.00  0.00     0.174 C 
BRANCH  25  26
ATOM     26  C   UNL     1       3.616  -3.190  12.277  1.00  0.00     0.038 C 
BRANCH  26  27
ATOM     27  C   UNL     1       4.774  -3.509  13.249  1.00  0.00    -0.015 C 
ATOM     28  C   UNL     1       5.038  -2.373  14.237  1.00  0.00     0.007 C 
ATOM     29  C   UNL     1       4.600  -4.834  13.988  1.00  0.00     0.007 C 
ENDBRANCH  26  27
ENDBRANCH  25  26
BRANCH  25  30
ATOM     30  C   UNL     1       1.530  -4.310  11.228  1.00  0.00     0.243 C 
ATOM     31  O   UNL     1       0.536  -5.035  11.242  1.00  0.00    -0.273 OA
ATOM     32  N   UNL     1       2.055  -3.803  10.067  1.00  0.00    -0.342 N 
ATOM     33  H   UNL     1       2.792  -3.098  10.149  1.00  0.00     0.164 HD
BRANCH  32  34
ATOM     34  C   UNL     1       1.499  -4.092   8.743  1.00  0.00     0.175 C 
BRANCH  34  35
ATOM     35  C   UNL     1       1.502  -2.842   7.850  1.00  0.00     0.070 C 
BRANCH  35  36
ATOM     36  C   UNL     1       0.419  -1.854   8.223  1.00  0.00    -0.045 A 
ATOM     37  C   UNL     1      -0.824  -2.316   8.682  1.00  0.00     0.007 A 
ATOM     38  C   UNL     1       0.629  -0.475   8.095  1.00  0.00     0.007 A 
ATOM     39  C   UNL     1      -1.834  -1.413   9.015  1.00  0.00     0.046 A 
ATOM     40  C   UNL     1      -0.383   0.430   8.427  1.00  0.00     0.046 A 
ATOM     41  C   UNL     1      -1.606  -0.049   8.886  1.00  0.00     0.115 A 
BRANCH  41  42
ATOM     42  O   UNL     1      -2.620   0.800   9.219  1.00  0.00    -0.508 OA
ATOM     43  H   UNL     1      -3.417   0.271   9.385  1.00  0.00     0.293 HD
ENDBRANCH  41  42
ENDBRANCH  35  36
ENDBRANCH  34  35
BRANCH  34  44
ATOM     44  C   UNL     1       2.316  -5.247   8.122  1.00  0.00     0.243 C 
ATOM     45  O   UNL     1       1.915  -5.973   7.217  1.00  0.00    -0.273 OA
ATOM     46  N   UNL     1       3.511  -5.483   8.768  1.00  0.00    -0.341 N 
ATOM     47  H   UNL     1       3.747  -4.929   9.588  1.00  0.00     0.164 HD
BRANCH  46  48
ATOM     48  C   UNL     1       4.424  -6.568   8.403  1.00  0.00     0.196 C 
BRANCH  48  49
ATOM     49  C   UNL     1       5.336  -6.163   7.232  1.00  0.00     0.072 C 
BRANCH  49  50
ATOM     50  C   UNL     1       5.086  -6.986   5.989  1.00  0.00    -0.045 A 
ATOM     51  C   UNL     1       4.976  -6.353   4.742  1.00  0.00     0.007 A 
ATOM     52  C   UNL     1       4.941  -8.377   6.062  1.00  0.00     0.007 A 
ATOM     53  C   UNL     1       4.732  -7.100   3.590  1.00  0.00     0.046 A 
ATOM     54  C   UNL     1       4.697  -9.126   4.909  1.00  0.00     0.046 A 
ATOM     55  C   UNL     1       4.595  -8.480   3.681  1.00  0.00     0.115 A 
BRANCH  55  56
ATOM     56  O   UNL     1       4.356  -9.174   2.532  1.00  0.00    -0.508 OA
ATOM     57  H   UNL     1       5.100  -9.778   2.379  1.00  0.00     0.293 HD
ENDBRANCH  55  56
ENDBRANCH  49  50
ENDBRANCH  48  49
BRANCH  48  58
ATOM     58  C   UNL     1       5.283  -6.930   9.623  1.00  0.00     0.326 C 
ATOM     59  O   UNL     1       4.999  -6.772  10.799  1.00  0.00    -0.250 OA
BRANCH  58  60
ATOM     60  O   UNL     1       6.473  -7.495   9.299  1.00  0.00    -0.480 OA
ATOM     61  H   UNL     1       6.219  -8.389   8.981  1.00  0.00     0.296 HD
ENDBRANCH  58  60
ENDBRANCH  48  58
ENDBRANCH  46  48
ENDBRANCH  34  44
ENDBRANCH  32  34
ENDBRANCH  25  30
ENDBRANCH  23  25
ENDBRANCH   2  23
TORSDOF 28
ENDMDL
MODEL 48
REMARK VINA RESULT:    -5.294      6.168     10.466
REMARK INTER + INTRA:         -18.559
REMARK INTER:                 -13.674
REMARK INTRA:                  -4.885
REMARK UNBOUND:                -5.372
REMARK SMILES CCCCCCC[C@H](N)[C@H](O)C(=O)N[C@H](C)C(=O)N(C)[C@H](CC(C)C)C(=O)N[C@@H](Cc1ccc(O)cc1)C(=O)N[C@@H](Cc1ccc(O)cc1)C(=O)O
REMARK SMILES IDX 18 1 17 2 15 3 16 4 14 5 12 6 13 7 10 9 11 10 8 12 9 13 7 16
REMARK SMILES IDX 6 17 5 18 4 19 3 20 2 21 1 22 19 23 20 24 21 25 22 26 23 27
REMARK SMILES IDX 24 28 25 29 26 30 27 31 28 32 29 34 30 35 31 36 32 37 37 38
REMARK SMILES IDX 33 39 36 40 34 41 35 42 38 44 39 45 40 46 41 48 42 49 43 50
REMARK SMILES IDX 44 51 49 52 45 53 48 54 46 55 47 56 50 58 51 59 52 60
REMARK H PARENT 14 8 11 11 9 14 9 15 28 33 35 43 40 47 47 57 52 61
ROOT
ATOM      1  O   UNL     1      -8.172   2.046  -6.286  1.00  0.00    -0.272 OA
ATOM      2  C   UNL     1      -8.407   3.260  -6.184  1.00  0.00     0.245 C 
ENDROOT
BRANCH   2   3
ATOM      3  C   UNL     1      -8.098   3.964  -4.839  1.00  0.00     0.168 C 
ATOM      4  C   UNL     1      -8.926   3.361  -3.710  1.00  0.00     0.041 C 
BRANCH   3   5
ATOM      5  N   UNL     1      -6.686   4.036  -4.497  1.00  0.00    -0.342 N 
ATOM      6  C   UNL     1      -5.828   4.910  -5.130  1.00  0.00     0.251 C 
ATOM      7  O   UNL     1      -6.171   5.653  -6.043  1.00  0.00    -0.272 OA
ATOM      8  H   UNL     1      -6.277   3.443  -3.778  1.00  0.00     0.164 HD
BRANCH   6   9
ATOM      9  C   UNL     1      -4.421   4.915  -4.510  1.00  0.00     0.219 C 
BRANCH   9  10
ATOM     10  O   UNL     1      -4.424   5.317  -3.135  1.00  0.00    -0.382 OA
ATOM     11  H   UNL     1      -4.361   6.296  -3.181  1.00  0.00     0.211 HD
ENDBRANCH   9  10
BRANCH   9  12
ATOM     12  C   UNL     1      -3.673   3.567  -4.688  1.00  0.00     0.089 C 
BRANCH  12  13
ATOM     13  N   UNL     1      -4.045   2.674  -3.567  1.00  0.00    -0.325 NA
ATOM     14  H   UNL     1      -3.213   2.465  -3.013  1.00  0.00     0.119 HD
ATOM     15  H   UNL     1      -4.346   1.774  -3.947  1.00  0.00     0.119 HD
ENDBRANCH  12  13
BRANCH  12  16
ATOM     16  C   UNL     1      -3.891   2.844  -6.039  1.00  0.00     0.022 C 
BRANCH  16  17
ATOM     17  C   UNL     1      -3.158   3.356  -7.287  1.00  0.00     0.002 C 
BRANCH  17  18
ATOM     18  C   UNL     1      -2.404   2.287  -8.075  1.00  0.00     0.000 C 
BRANCH  18  19
ATOM     19  C   UNL     1      -3.025   1.965  -9.441  1.00  0.00    -0.000 C 
BRANCH  19  20
ATOM     20  C   UNL     1      -3.470   0.511  -9.626  1.00  0.00    -0.000 C 
BRANCH  20  21
ATOM     21  C   UNL     1      -4.127  -0.079  -8.376  1.00  0.00    -0.003 C 
ATOM     22  C   UNL     1      -5.632   0.139  -8.385  1.00  0.00     0.004 C 
ENDBRANCH  20  21
ENDBRANCH  19  20
ENDBRANCH  18  19
ENDBRANCH  17  18
ENDBRANCH  16  17
ENDBRANCH  12  16
ENDBRANCH   9  12
ENDBRANCH   6   9
ENDBRANCH   3   5
ENDBRANCH   2   3
BRANCH   2  23
ATOM     23  N   UNL     1      -8.820   3.984  -7.297  1.00  0.00    -0.332 N 
ATOM     24  C   UNL     1      -8.039   4.144  -8.515  1.00  0.00     0.147 C 
BRANCH  23  25
ATOM     25  C   UNL     1     -10.194   4.554  -7.354  1.00  0.00     0.174 C 
BRANCH  25  26
ATOM     26  C   UNL     1     -10.266   6.005  -6.822  1.00  0.00     0.038 C 
BRANCH  26  27
ATOM     27  C   UNL     1     -10.785   7.084  -7.798  1.00  0.00    -0.015 C 
ATOM     28  C   UNL     1      -9.677   7.654  -8.682  1.00  0.00     0.007 C 
ATOM     29  C   UNL     1     -11.964   6.617  -8.648  1.00  0.00     0.007 C 
ENDBRANCH  26  27
ENDBRANCH  25  26
BRANCH  25  30
ATOM     30  C   UNL     1     -11.198   3.593  -6.677  1.00  0.00     0.243 C 
ATOM     31  O   UNL     1     -11.919   3.955  -5.748  1.00  0.00    -0.273 OA
ATOM     32  N   UNL     1     -11.225   2.316  -7.176  1.00  0.00    -0.342 N 
ATOM     33  H   UNL     1     -10.702   2.132  -8.036  1.00  0.00     0.164 HD
BRANCH  32  34
ATOM     34  C   UNL     1     -12.093   1.264  -6.640  1.00  0.00     0.175 C 
BRANCH  34  35
ATOM     35  C   UNL     1     -13.454   1.246  -7.353  1.00  0.00     0.070 C 
BRANCH  35  36
ATOM     36  C   UNL     1     -14.617   1.166  -6.391  1.00  0.00    -0.045 A 
ATOM     37  C   UNL     1     -14.932  -0.053  -5.770  1.00  0.00     0.007 A 
ATOM     38  C   UNL     1     -15.408   2.291  -6.123  1.00  0.00     0.007 A 
ATOM     39  C   UNL     1     -16.012  -0.139  -4.891  1.00  0.00     0.046 A 
ATOM     40  C   UNL     1     -16.490   2.205  -5.245  1.00  0.00     0.046 A 
ATOM     41  C   UNL     1     -16.782   0.989  -4.635  1.00  0.00     0.115 A 
BRANCH  41  42
ATOM     42  O   UNL     1     -17.830   0.861  -3.773  1.00  0.00    -0.508 OA
ATOM     43  H   UNL     1     -17.546   0.307  -3.027  1.00  0.00     0.293 HD
ENDBRANCH  41  42
ENDBRANCH  35  36
ENDBRANCH  34  35
BRANCH  34  44
ATOM     44  C   UNL     1     -11.351  -0.084  -6.776  1.00  0.00     0.243 C 
ATOM     45  O   UNL     1     -11.549  -0.898  -7.674  1.00  0.00    -0.273 OA
ATOM     46  N   UNL     1     -10.521  -0.364  -5.710  1.00  0.00    -0.341 N 
ATOM     47  H   UNL     1     -10.479   0.289  -4.932  1.00  0.00     0.164 HD
BRANCH  46  48
ATOM     48  C   UNL     1      -9.767  -1.613  -5.583  1.00  0.00     0.196 C 
BRANCH  48  49
ATOM     49  C   UNL     1      -8.328  -1.352  -5.106  1.00  0.00     0.072 C 
BRANCH  49  50
ATOM     50  C   UNL     1      -7.306  -2.164  -5.868  1.00  0.00    -0.045 A 
ATOM     51  C   UNL     1      -7.707  -2.942  -6.964  1.00  0.00     0.007 A 
ATOM     52  C   UNL     1      -5.959  -2.172  -5.483  1.00  0.00     0.007 A 
ATOM     53  C   UNL     1      -6.775  -3.706  -7.666  1.00  0.00     0.046 A 
ATOM     54  C   UNL     1      -5.026  -2.938  -6.185  1.00  0.00     0.046 A 
ATOM     55  C   UNL     1      -5.442  -3.699  -7.272  1.00  0.00     0.115 A 
BRANCH  55  56
ATOM     56  O   UNL     1      -4.564  -4.461  -7.984  1.00  0.00    -0.508 OA
ATOM     57  H   UNL     1      -4.987  -5.311  -8.183  1.00  0.00     0.293 HD
ENDBRANCH  55  56
ENDBRANCH  49  50
ENDBRANCH  48  49
BRANCH  48  58
ATOM     58  C   UNL     1     -10.483  -2.529  -4.582  1.00  0.00     0.326 C 
ATOM     59  O   UNL     1     -11.509  -3.165  -4.764  1.00  0.00    -0.250 OA
BRANCH  58  60
ATOM     60  O   UNL     1      -9.855  -2.616  -3.382  1.00  0.00    -0.480 OA
ATOM     61  H   UNL     1     -10.008  -3.548  -3.114  1.00  0.00     0.296 HD
ENDBRANCH  58  60
ENDBRANCH  48  58
ENDBRANCH  46  48
ENDBRANCH  34  44
ENDBRANCH  32  34
ENDBRANCH  25  30
ENDBRANCH  23  25
ENDBRANCH   2  23
TORSDOF 28
ENDMDL
MODEL 49
REMARK VINA RESULT:    -5.260      8.034     11.500
REMARK INTER + INTRA:         -18.474
REMARK INTER:                 -12.228
REMARK INTRA:                  -6.246
REMARK UNBOUND:                -5.372
REMARK SMILES CCCCCCC[C@H](N)[C@H](O)C(=O)N[C@H](C)C(=O)N(C)[C@H](CC(C)C)C(=O)N[C@@H](Cc1ccc(O)cc1)C(=O)N[C@@H](Cc1ccc(O)cc1)C(=O)O
REMARK SMILES IDX 18 1 17 2 15 3 16 4 14 5 12 6 13 7 10 9 11 10 8 12 9 13 7 16
REMARK SMILES IDX 6 17 5 18 4 19 3 20 2 21 1 22 19 23 20 24 21 25 22 26 23 27
REMARK SMILES IDX 24 28 25 29 26 30 27 31 28 32 29 34 30 35 31 36 32 37 37 38
REMARK SMILES IDX 33 39 36 40 34 41 35 42 38 44 39 45 40 46 41 48 42 49 43 50
REMARK SMILES IDX 44 51 49 52 45 53 48 54 46 55 47 56 50 58 51 59 52 60
REMARK H PARENT 14 8 11 11 9 14 9 15 28 33 35 43 40 47 47 57 52 61
ROOT
ATOM      1  O   UNL     1      -2.743   0.432  -6.913  1.00  0.00    -0.272 OA
ATOM      2  C   UNL     1      -3.678   1.246  -6.952  1.00  0.00     0.245 C 
ENDROOT
BRANCH   2   3
ATOM      3  C   UNL     1      -3.347   2.758  -6.881  1.00  0.00     0.168 C 
ATOM      4  C   UNL     1      -2.404   3.159  -8.011  1.00  0.00     0.041 C 
BRANCH   3   5
ATOM      5  N   UNL     1      -4.505   3.634  -6.805  1.00  0.00    -0.342 N 
ATOM      6  C   UNL     1      -4.879   4.245  -5.627  1.00  0.00     0.251 C 
ATOM      7  O   UNL     1      -4.300   4.069  -4.560  1.00  0.00    -0.272 OA
ATOM      8  H   UNL     1      -5.084   3.829  -7.618  1.00  0.00     0.164 HD
BRANCH   6   9
ATOM      9  C   UNL     1      -6.041   5.234  -5.813  1.00  0.00     0.219 C 
BRANCH   9  10
ATOM     10  O   UNL     1      -5.890   6.051  -6.980  1.00  0.00    -0.382 OA
ATOM     11  H   UNL     1      -6.653   5.794  -7.542  1.00  0.00     0.211 HD
ENDBRANCH   9  10
BRANCH   9  12
ATOM     12  C   UNL     1      -7.432   4.549  -5.796  1.00  0.00     0.089 C 
BRANCH  12  13
ATOM     13  N   UNL     1      -8.079   4.835  -4.495  1.00  0.00    -0.325 NA
ATOM     14  H   UNL     1      -8.638   5.687  -4.578  1.00  0.00     0.119 HD
ATOM     15  H   UNL     1      -7.355   5.057  -3.808  1.00  0.00     0.119 HD
ENDBRANCH  12  13
BRANCH  12  16
ATOM     16  C   UNL     1      -8.386   4.922  -6.957  1.00  0.00     0.022 C 
BRANCH  16  17
ATOM     17  C   UNL     1      -9.884   5.088  -6.669  1.00  0.00     0.002 C 
BRANCH  17  18
ATOM     18  C   UNL     1     -10.396   6.526  -6.725  1.00  0.00     0.000 C 
BRANCH  18  19
ATOM     19  C   UNL     1     -11.279   6.828  -7.943  1.00  0.00    -0.000 C 
BRANCH  19  20
ATOM     20  C   UNL     1     -12.130   5.654  -8.435  1.00  0.00    -0.000 C 
BRANCH  20  21
ATOM     21  C   UNL     1     -13.618   5.997  -8.546  1.00  0.00    -0.003 C 
ATOM     22  C   UNL     1     -14.240   5.373  -9.785  1.00  0.00     0.004 C 
ENDBRANCH  20  21
ENDBRANCH  19  20
ENDBRANCH  18  19
ENDBRANCH  17  18
ENDBRANCH  16  17
ENDBRANCH  12  16
ENDBRANCH   9  12
ENDBRANCH   6   9
ENDBRANCH   3   5
ENDBRANCH   2   3
BRANCH   2  23
ATOM     23  N   UNL     1      -4.977   0.804  -7.177  1.00  0.00    -0.332 N 
ATOM     24  C   UNL     1      -5.966   0.580  -6.133  1.00  0.00     0.147 C 
BRANCH  23  25
ATOM     25  C   UNL     1      -5.488   0.650  -8.567  1.00  0.00     0.174 C 
BRANCH  25  26
ATOM     26  C   UNL     1      -4.368   0.727  -9.631  1.00  0.00     0.038 C 
BRANCH  26  27
ATOM     27  C   UNL     1      -4.767   0.415 -11.091  1.00  0.00    -0.015 C 
ATOM     28  C   UNL     1      -3.667   0.777 -12.088  1.00  0.00     0.007 C 
ATOM     29  C   UNL     1      -5.229  -1.025 -11.299  1.00  0.00     0.007 C 
ENDBRANCH  26  27
ENDBRANCH  25  26
BRANCH  25  30
ATOM     30  C   UNL     1      -6.653   1.634  -8.818  1.00  0.00     0.243 C 
ATOM     31  O   UNL     1      -6.488   2.852  -8.812  1.00  0.00    -0.273 OA
ATOM     32  N   UNL     1      -7.878   1.058  -9.039  1.00  0.00    -0.342 N 
ATOM     33  H   UNL     1      -7.908   0.044  -9.169  1.00  0.00     0.164 HD
BRANCH  32  34
ATOM     34  C   UNL     1      -9.099   1.835  -9.268  1.00  0.00     0.175 C 
BRANCH  34  35
ATOM     35  C   UNL     1      -9.331   2.084 -10.766  1.00  0.00     0.070 C 
BRANCH  35  36
ATOM     36  C   UNL     1      -9.751   3.505 -11.065  1.00  0.00    -0.045 A 
ATOM     37  C   UNL     1     -10.932   3.752 -11.782  1.00  0.00     0.007 A 
ATOM     38  C   UNL     1      -8.963   4.589 -10.655  1.00  0.00     0.007 A 
ATOM     39  C   UNL     1     -11.321   5.060 -12.074  1.00  0.00     0.046 A 
ATOM     40  C   UNL     1      -9.351   5.898 -10.949  1.00  0.00     0.046 A 
ATOM     41  C   UNL     1     -10.528   6.122 -11.655  1.00  0.00     0.115 A 
BRANCH  41  42
ATOM     42  O   UNL     1     -10.942   7.384 -11.964  1.00  0.00    -0.508 OA
ATOM     43  H   UNL     1     -10.721   7.968 -11.219  1.00  0.00     0.293 HD
ENDBRANCH  41  42
ENDBRANCH  35  36
ENDBRANCH  34  35
BRANCH  34  44
ATOM     44  C   UNL     1     -10.278   1.075  -8.620  1.00  0.00     0.243 C 
ATOM     45  O   UNL     1     -10.153   0.162  -7.808  1.00  0.00    -0.273 OA
ATOM     46  N   UNL     1     -11.508   1.427  -9.136  1.00  0.00    -0.341 N 
ATOM     47  H   UNL     1     -11.550   2.106  -9.892  1.00  0.00     0.164 HD
BRANCH  46  48
ATOM     48  C   UNL     1     -12.764   0.794  -8.727  1.00  0.00     0.196 C 
BRANCH  48  49
ATOM     49  C   UNL     1     -13.929   1.798  -8.747  1.00  0.00     0.072 C 
BRANCH  49  50
ATOM     50  C   UNL     1     -14.107   2.509  -7.425  1.00  0.00    -0.045 A 
ATOM     51  C   UNL     1     -15.383   2.934  -7.025  1.00  0.00     0.007 A 
ATOM     52  C   UNL     1     -13.010   2.773  -6.594  1.00  0.00     0.007 A 
ATOM     53  C   UNL     1     -15.557   3.602  -5.814  1.00  0.00     0.046 A 
ATOM     54  C   UNL     1     -13.185   3.443  -5.381  1.00  0.00     0.046 A 
ATOM     55  C   UNL     1     -14.458   3.851  -5.001  1.00  0.00     0.115 A 
BRANCH  55  56
ATOM     56  O   UNL     1     -14.671   4.509  -3.826  1.00  0.00    -0.508 OA
ATOM     57  H   UNL     1     -13.965   5.164  -3.709  1.00  0.00     0.293 HD
ENDBRANCH  55  56
ENDBRANCH  49  50
ENDBRANCH  48  49
BRANCH  48  58
ATOM     58  C   UNL     1     -13.071  -0.369  -9.680  1.00  0.00     0.326 C 
ATOM     59  O   UNL     1     -12.486  -0.653 -10.713  1.00  0.00    -0.250 OA
BRANCH  58  60
ATOM     60  O   UNL     1     -14.109  -1.143  -9.273  1.00  0.00    -0.480 OA
ATOM     61  H   UNL     1     -13.898  -1.327  -8.332  1.00  0.00     0.296 HD
ENDBRANCH  58  60
ENDBRANCH  48  58
ENDBRANCH  46  48
ENDBRANCH  34  44
ENDBRANCH  32  34
ENDBRANCH  25  30
ENDBRANCH  23  25
ENDBRANCH   2  23
TORSDOF 28
ENDMDL
MODEL 50
REMARK VINA RESULT:    -5.205      4.672     10.370
REMARK INTER + INTRA:         -18.336
REMARK INTER:                 -11.914
REMARK INTRA:                  -6.422
REMARK UNBOUND:                -5.372
REMARK SMILES CCCCCCC[C@H](N)[C@H](O)C(=O)N[C@H](C)C(=O)N(C)[C@H](CC(C)C)C(=O)N[C@@H](Cc1ccc(O)cc1)C(=O)N[C@@H](Cc1ccc(O)cc1)C(=O)O
REMARK SMILES IDX 18 1 17 2 15 3 16 4 14 5 12 6 13 7 10 9 11 10 8 12 9 13 7 16
REMARK SMILES IDX 6 17 5 18 4 19 3 20 2 21 1 22 19 23 20 24 21 25 22 26 23 27
REMARK SMILES IDX 24 28 25 29 26 30 27 31 28 32 29 34 30 35 31 36 32 37 37 38
REMARK SMILES IDX 33 39 36 40 34 41 35 42 38 44 39 45 40 46 41 48 42 49 43 50
REMARK SMILES IDX 44 51 49 52 45 53 48 54 46 55 47 56 50 58 51 59 52 60
REMARK H PARENT 14 8 11 11 9 14 9 15 28 33 35 43 40 47 47 57 52 61
ROOT
ATOM      1  O   UNL     1     -15.027   0.496  -0.387  1.00  0.00    -0.272 OA
ATOM      2  C   UNL     1     -16.252   0.504  -0.191  1.00  0.00     0.245 C 
ENDROOT
BRANCH   2   3
ATOM      3  C   UNL     1     -16.814  -0.291   1.014  1.00  0.00     0.168 C 
ATOM      4  C   UNL     1     -18.075  -1.052   0.620  1.00  0.00     0.041 C 
BRANCH   3   5
ATOM      5  N   UNL     1     -15.850  -1.149   1.684  1.00  0.00    -0.342 N 
ATOM      6  C   UNL     1     -15.101  -0.707   2.754  1.00  0.00     0.251 C 
ATOM      7  O   UNL     1     -15.157   0.438   3.192  1.00  0.00    -0.272 OA
ATOM      8  H   UNL     1     -15.690  -2.109   1.388  1.00  0.00     0.164 HD
BRANCH   6   9
ATOM      9  C   UNL     1     -14.256  -1.822   3.390  1.00  0.00     0.219 C 
BRANCH   9  10
ATOM     10  O   UNL     1     -14.198  -3.002   2.580  1.00  0.00    -0.382 OA
ATOM     11  H   UNL     1     -14.869  -2.836   1.882  1.00  0.00     0.211 HD
ENDBRANCH   9  10
BRANCH   9  12
ATOM     12  C   UNL     1     -12.831  -1.356   3.787  1.00  0.00     0.089 C 
BRANCH  12  13
ATOM     13  N   UNL     1     -12.441  -2.056   5.033  1.00  0.00    -0.325 NA
ATOM     14  H   UNL     1     -11.795  -2.814   4.804  1.00  0.00     0.119 HD
ATOM     15  H   UNL     1     -13.265  -2.516   5.426  1.00  0.00     0.119 HD
ENDBRANCH  12  13
BRANCH  12  16
ATOM     16  C   UNL     1     -11.734  -1.537   2.711  1.00  0.00     0.022 C 
BRANCH  16  17
ATOM     17  C   UNL     1     -10.883  -0.327   2.302  1.00  0.00     0.002 C 
BRANCH  17  18
ATOM     18  C   UNL     1      -9.377  -0.512   2.470  1.00  0.00     0.000 C 
BRANCH  18  19
ATOM     19  C   UNL     1      -8.950  -1.966   2.715  1.00  0.00    -0.000 C 
BRANCH  19  20
ATOM     20  C   UNL     1      -8.460  -2.718   1.474  1.00  0.00    -0.000 C 
BRANCH  20  21
ATOM     21  C   UNL     1      -6.933  -2.780   1.374  1.00  0.00    -0.003 C 
ATOM     22  C   UNL     1      -6.291  -2.878   2.750  1.00  0.00     0.004 C 
ENDBRANCH  20  21
ENDBRANCH  19  20
ENDBRANCH  18  19
ENDBRANCH  17  18
ENDBRANCH  16  17
ENDBRANCH  12  16
ENDBRANCH   9  12
ENDBRANCH   6   9
ENDBRANCH   3   5
ENDBRANCH   2   3
BRANCH   2  23
ATOM     23  N   UNL     1     -17.075   1.311  -0.968  1.00  0.00    -0.332 N 
ATOM     24  C   UNL     1     -17.791   2.479  -0.474  1.00  0.00     0.147 C 
BRANCH  23  25
ATOM     25  C   UNL     1     -17.175   1.090  -2.436  1.00  0.00     0.174 C 
BRANCH  25  26
ATOM     26  C   UNL     1     -17.083  -0.404  -2.828  1.00  0.00     0.038 C 
BRANCH  26  27
ATOM     27  C   UNL     1     -17.803  -0.833  -4.126  1.00  0.00    -0.015 C 
ATOM     28  C   UNL     1     -17.175  -2.075  -4.759  1.00  0.00     0.007 C 
ATOM     29  C   UNL     1     -19.308  -1.022  -3.951  1.00  0.00     0.007 C 
ENDBRANCH  26  27
ENDBRANCH  25  26
BRANCH  25  30
ATOM     30  C   UNL     1     -16.163   1.991  -3.180  1.00  0.00     0.243 C 
ATOM     31  O   UNL     1     -16.524   2.835  -3.999  1.00  0.00    -0.273 OA
ATOM     32  N   UNL     1     -14.843   1.781  -2.872  1.00  0.00    -0.342 N 
ATOM     33  H   UNL     1     -14.634   1.164  -2.083  1.00  0.00     0.164 HD
BRANCH  32  34
ATOM     34  C   UNL     1     -13.746   2.523  -3.498  1.00  0.00     0.175 C 
BRANCH  34  35
ATOM     35  C   UNL     1     -13.389   3.780  -2.691  1.00  0.00     0.070 C 
BRANCH  35  36
ATOM     36  C   UNL     1     -13.407   3.541  -1.198  1.00  0.00    -0.045 A 
ATOM     37  C   UNL     1     -14.468   4.032  -0.422  1.00  0.00     0.007 A 
ATOM     38  C   UNL     1     -12.364   2.851  -0.567  1.00  0.00     0.007 A 
ATOM     39  C   UNL     1     -14.487   3.828   0.958  1.00  0.00     0.046 A 
ATOM     40  C   UNL     1     -12.381   2.648   0.815  1.00  0.00     0.046 A 
ATOM     41  C   UNL     1     -13.445   3.138   1.565  1.00  0.00     0.115 A 
BRANCH  41  42
ATOM     42  O   UNL     1     -13.500   2.963   2.916  1.00  0.00    -0.508 OA
ATOM     43  H   UNL     1     -13.610   3.834   3.332  1.00  0.00     0.293 HD
ENDBRANCH  41  42
ENDBRANCH  35  36
ENDBRANCH  34  35
BRANCH  34  44
ATOM     44  C   UNL     1     -12.541   1.566  -3.640  1.00  0.00     0.243 C 
ATOM     45  O   UNL     1     -11.511   1.834  -4.253  1.00  0.00    -0.273 OA
ATOM     46  N   UNL     1     -12.773   0.310  -3.120  1.00  0.00    -0.341 N 
ATOM     47  H   UNL     1     -13.687   0.100  -2.726  1.00  0.00     0.164 HD
BRANCH  46  48
ATOM     48  C   UNL     1     -11.805  -0.786  -3.198  1.00  0.00     0.196 C 
BRANCH  48  49
ATOM     49  C   UNL     1     -11.250  -1.142  -1.808  1.00  0.00     0.072 C 
BRANCH  49  50
ATOM     50  C   UNL     1      -9.847  -0.621  -1.591  1.00  0.00    -0.045 A 
ATOM     51  C   UNL     1      -9.651   0.657  -1.050  1.00  0.00     0.007 A 
ATOM     52  C   UNL     1      -8.730  -1.391  -1.943  1.00  0.00     0.007 A 
ATOM     53  C   UNL     1      -8.362   1.153  -0.857  1.00  0.00     0.046 A 
ATOM     54  C   UNL     1      -7.439  -0.894  -1.752  1.00  0.00     0.046 A 
ATOM     55  C   UNL     1      -7.266   0.375  -1.209  1.00  0.00     0.115 A 
BRANCH  55  56
ATOM     56  O   UNL     1      -6.023   0.897  -1.007  1.00  0.00    -0.508 OA
ATOM     57  H   UNL     1      -5.989   1.267  -0.110  1.00  0.00     0.293 HD
ENDBRANCH  55  56
ENDBRANCH  49  50
ENDBRANCH  48  49
BRANCH  48  58
ATOM     58  C   UNL     1     -12.490  -2.015  -3.809  1.00  0.00     0.326 C 
ATOM     59  O   UNL     1     -13.687  -2.250  -3.850  1.00  0.00    -0.250 OA
BRANCH  58  60
ATOM     60  O   UNL     1     -11.622  -2.900  -4.362  1.00  0.00    -0.480 OA
ATOM     61  H   UNL     1     -10.811  -2.789  -3.821  1.00  0.00     0.296 HD
ENDBRANCH  58  60
ENDBRANCH  48  58
ENDBRANCH  46  48
ENDBRANCH  34  44
ENDBRANCH  32  34
ENDBRANCH  25  30
ENDBRANCH  23  25
ENDBRANCH   2  23
TORSDOF 28
ENDMDL
