MODEL 1
REMARK VINA RESULT:    -6.625      0.000      0.000
REMARK INTER + INTRA:         -26.404
REMARK INTER:                 -19.018
REMARK INTRA:                  -7.386
REMARK UNBOUND:                -7.386
REMARK SMILES CCCCCC(=O)N[C@H](CC(=O)O)C(=O)N[C@H]1C(=O)N[C@H](CCCN=C(N)N)C(=O)N[C@@H]2CC[C@H](O)N(C2=O)[C@@H](CC(C)C)C(=O)N(C)[C@@H](Cc2ccccc2)C(=O)N[C@H](C(C)C)C(=O)O[C@@H]1C
REMARK SMILES IDX 30 1 31 2 29 3 32 5 35 6 37 7 34 8 38 9 33 10 39 11 36 12
REMARK SMILES IDX 40 14 41 15 42 16 43 17 44 18 45 19 46 20 47 21 48 22 49 23
REMARK SMILES IDX 50 24 51 25 52 26 56 27 53 28 55 29 54 30 57 31 58 32 59 33
REMARK SMILES IDX 60 35 61 36 62 37 63 38 64 39 65 40 66 41 67 42 68 43 21 45
REMARK SMILES IDX 20 46 18 47 19 48 17 50 16 52 14 53 15 54 9 56 8 57 6 58
REMARK SMILES IDX 7 59 5 61 4 62 3 63 2 64 1 65 10 66 11 67 12 68 13 69 22 71
REMARK SMILES IDX 23 72 24 73 25 74 26 75 27 76 28 77
REMARK H PARENT 31 4 36 13 59 34 20 49 16 55 8 60 13 70 27 78 27 79 28 80
REMARK H PARENT 28 81
REMARK Flexibility Score:  259.900
ROOT
ATOM      1  O   UNL     1      -9.667  -6.629   8.929  1.00  0.00    -0.273 OA
ATOM      2  N   UNL     1      -7.554  -7.460   8.652  1.00  0.00    -0.343 N 
ATOM      3  C   UNL     1      -8.655  -7.137   9.415  1.00  0.00     0.243 C 
ATOM      4  H   UNL     1      -6.745  -7.890   9.083  1.00  0.00     0.164 HD
ENDROOT
BRANCH   2   5
ATOM      5  C   UNL     1      -7.497  -7.098   7.239  1.00  0.00     0.171 C 
ATOM      6  C   UNL     1      -5.305  -6.866   5.357  1.00  0.00     0.214 C 
ATOM      7  N   UNL     1      -5.715  -5.708   6.116  1.00  0.00    -0.303 N 
ATOM      8  C   UNL     1      -6.441  -7.838   5.080  1.00  0.00     0.057 C 
ATOM      9  C   UNL     1      -6.721  -5.761   7.068  1.00  0.00     0.247 C 
ATOM     10  C   UNL     1      -7.060  -8.288   6.386  1.00  0.00     0.040 C 
ATOM     11  O   UNL     1      -7.008  -4.787   7.775  1.00  0.00    -0.272 OA
BRANCH   6  12
ATOM     12  O   UNL     1      -4.273  -7.506   6.072  1.00  0.00    -0.373 OA
ATOM     13  H   UNL     1      -4.698  -8.158   6.668  1.00  0.00     0.213 HD
ENDBRANCH   6  12
BRANCH   7  14
ATOM     14  C   UNL     1      -4.915  -4.476   5.945  1.00  0.00     0.177 C 
BRANCH  14  15
ATOM     15  C   UNL     1      -3.388  -4.671   6.013  1.00  0.00     0.038 C 
BRANCH  15  16
ATOM     16  C   UNL     1      -2.596  -4.067   7.193  1.00  0.00    -0.015 C 
ATOM     17  C   UNL     1      -1.351  -3.303   6.732  1.00  0.00     0.007 C 
ATOM     18  C   UNL     1      -2.148  -5.185   8.144  1.00  0.00     0.007 C 
ENDBRANCH  15  16
ENDBRANCH  14  15
BRANCH  14  19
ATOM     19  C   UNL     1      -5.660  -3.471   5.000  1.00  0.00     0.245 C 
ATOM     20  O   UNL     1      -6.262  -3.958   4.029  1.00  0.00    -0.272 OA
BRANCH  19  21
ATOM     21  N   UNL     1      -5.588  -2.095   5.127  1.00  0.00    -0.332 N 
ATOM     22  C   UNL     1      -5.495  -1.151   4.028  1.00  0.00     0.147 C 
BRANCH  21  23
ATOM     23  C   UNL     1      -5.593  -1.522   6.501  1.00  0.00     0.178 C 
BRANCH  23  24
ATOM     24  C   UNL     1      -4.418  -0.572   6.809  1.00  0.00     0.070 C 
BRANCH  24  25
ATOM     25  C   UNL     1      -3.659  -0.811   8.094  1.00  0.00    -0.045 A 
ATOM     26  C   UNL     1      -2.465  -0.128   8.360  1.00  0.00     0.004 A 
ATOM     27  C   UNL     1      -4.141  -1.727   9.041  1.00  0.00     0.004 A 
ATOM     28  C   UNL     1      -1.761  -0.367   9.542  1.00  0.00     0.000 A 
ATOM     29  C   UNL     1      -3.437  -1.964  10.222  1.00  0.00     0.000 A 
ATOM     30  C   UNL     1      -2.245  -1.286  10.471  1.00  0.00     0.000 A 
ENDBRANCH  24  25
ENDBRANCH  23  24
BRANCH  23  31
ATOM     31  C   UNL     1      -6.984  -0.997   6.931  1.00  0.00     0.243 C 
ATOM     32  O   UNL     1      -7.542  -0.030   6.418  1.00  0.00    -0.273 OA
ATOM     33  N   UNL     1      -7.474  -1.601   8.076  1.00  0.00    -0.341 N 
ATOM     34  H   UNL     1      -6.962  -2.399   8.461  1.00  0.00     0.164 HD
BRANCH  33  35
ATOM     35  C   UNL     1      -8.716  -1.182   8.732  1.00  0.00     0.194 C 
BRANCH  35  36
ATOM     36  C   UNL     1      -8.666   0.254   9.326  1.00  0.00     0.017 C 
ATOM     37  C   UNL     1      -7.308   0.538   9.990  1.00  0.00     0.010 C 
ATOM     38  C   UNL     1      -9.754   0.510  10.377  1.00  0.00     0.010 C 
ENDBRANCH  35  36
BRANCH  35  39
ATOM     39  C   UNL     1      -9.224  -2.222   9.769  1.00  0.00     0.329 C 
ATOM     40  O   UNL     1     -10.338  -2.734   9.738  1.00  0.00    -0.250 OA
BRANCH  39  41
ATOM     41  O   UNL     1      -8.259  -2.571  10.673  1.00  0.00    -0.458 OA
BRANCH  41  42
ATOM     42  C   UNL     1      -8.705  -2.802  12.031  1.00  0.00     0.205 CG0
ATOM     43  C   UNL     1      -8.360  -1.553  12.840  1.00  0.00     0.056 C 
ATOM     44  G   UNL     1      -8.006  -4.066  12.569  1.00  0.00     0.000 G0
ENDBRANCH  41  42
ENDBRANCH  39  41
ENDBRANCH  35  39
ENDBRANCH  33  35
ENDBRANCH  23  31
ENDBRANCH  21  23
ENDBRANCH  19  21
ENDBRANCH  14  19
ENDBRANCH   7  14
ENDBRANCH   2   5
BRANCH   3  45
ATOM     45  C   UNL     1      -8.542  -7.474  10.908  1.00  0.00     0.171 C 
BRANCH  45  46
ATOM     46  N   UNL     1      -7.988  -6.284  11.539  1.00  0.00    -0.342 N 
ATOM     47  C   UNL     1      -8.778  -5.300  12.077  1.00  0.00     0.247 C 
ATOM     48  O   UNL     1     -10.006  -5.384  12.131  1.00  0.00    -0.273 OA
ATOM     49  H   UNL     1      -6.973  -6.201  11.567  1.00  0.00     0.164 HD
BRANCH  47  50
ATOM     50  C   UNL     1      -8.023  -4.064  12.586  1.00  0.00     0.212 CG0
ATOM     51  G   UNL     1      -8.729  -2.817  12.018  1.00  0.00     0.000 G0
BRANCH  50  52
ATOM     52  N   UNL     1      -8.079  -4.146  14.043  1.00  0.00    -0.339 N 
ATOM     53  C   UNL     1      -7.057  -4.647  14.812  1.00  0.00     0.243 C 
ATOM     54  O   UNL     1      -6.031  -5.115  14.326  1.00  0.00    -0.273 OA
ATOM     55  H   UNL     1      -8.949  -3.876  14.499  1.00  0.00     0.164 HD
BRANCH  53  56
ATOM     56  C   UNL     1      -7.379  -4.713  16.319  1.00  0.00     0.182 C 
BRANCH  56  57
ATOM     57  N   UNL     1      -6.690  -3.646  17.052  1.00  0.00    -0.344 N 
ATOM     58  C   UNL     1      -7.297  -2.452  17.357  1.00  0.00     0.220 C 
ATOM     59  O   UNL     1      -8.426  -2.166  16.976  1.00  0.00    -0.275 OA
ATOM     60  H   UNL     1      -5.795  -3.881  17.472  1.00  0.00     0.164 HD
BRANCH  58  61
ATOM     61  C   UNL     1      -6.417  -1.521  18.171  1.00  0.00     0.100 C 
BRANCH  61  62
ATOM     62  C   UNL     1      -5.296  -0.869  17.362  1.00  0.00     0.010 C 
BRANCH  62  63
ATOM     63  C   UNL     1      -5.534  -0.869  15.846  1.00  0.00     0.000 C 
BRANCH  63  64
ATOM     64  C   UNL     1      -4.342  -0.380  15.025  1.00  0.00    -0.003 C 
ATOM     65  C   UNL     1      -4.158  -1.212  13.764  1.00  0.00     0.004 C 
ENDBRANCH  63  64
ENDBRANCH  62  63
ENDBRANCH  61  62
ENDBRANCH  58  61
ENDBRANCH  56  57
BRANCH  56  66
ATOM     66  C   UNL     1      -7.079  -6.096  16.895  1.00  0.00     0.157 C 
BRANCH  66  67
ATOM     67  C   UNL     1      -6.393  -5.993  18.227  1.00  0.00     0.305 C 
ATOM     68  O   UNL     1      -6.856  -5.523  19.255  1.00  0.00    -0.252 OA
BRANCH  67  69
ATOM     69  O   UNL     1      -5.162  -6.539  18.212  1.00  0.00    -0.481 OA
ATOM     70  H   UNL     1      -4.901  -6.592  19.155  1.00  0.00     0.296 HD
ENDBRANCH  67  69
ENDBRANCH  66  67
ENDBRANCH  56  66
ENDBRANCH  53  56
ENDBRANCH  50  52
ENDBRANCH  47  50
ENDBRANCH  45  46
BRANCH  45  71
ATOM     71  C   UNL     1      -7.638  -8.695  11.112  1.00  0.00     0.037 C 
BRANCH  71  72
ATOM     72  C   UNL     1      -6.855  -8.619  12.425  1.00  0.00     0.026 C 
BRANCH  72  73
ATOM     73  C   UNL     1      -5.347  -8.623  12.178  1.00  0.00     0.146 C 
BRANCH  73  74
ATOM     74  N   UNL     1      -5.130  -8.685  10.736  1.00  0.00    -0.254 NA
ATOM     75  C   UNL     1      -4.362  -7.806  10.208  1.00  0.00     0.185 C 
ATOM     76  N   UNL     1      -4.142  -7.838   8.883  1.00  0.00    -0.370 N 
ATOM     77  N   UNL     1      -3.701  -6.796  10.800  1.00  0.00    -0.370 N 
ATOM     78  H   UNL     1      -4.609  -8.564   8.359  1.00  0.00     0.159 HD
ATOM     79  H   UNL     1      -3.675  -7.103   8.382  1.00  0.00     0.159 HD
ATOM     80  H   UNL     1      -3.770  -6.651  11.796  1.00  0.00     0.159 HD
ATOM     81  H   UNL     1      -3.033  -6.236  10.297  1.00  0.00     0.159 HD
ENDBRANCH  73  74
ENDBRANCH  72  73
ENDBRANCH  71  72
ENDBRANCH  45  71
ENDBRANCH   3  45
TORSDOF 20
ENDMDL
MODEL 2
REMARK VINA RESULT:    -6.552      1.330      2.645
REMARK INTER + INTRA:         -26.195
REMARK INTER:                 -19.628
REMARK INTRA:                  -6.567
REMARK UNBOUND:                -7.386
REMARK SMILES CCCCCC(=O)N[C@H](CC(=O)O)C(=O)N[C@H]1C(=O)N[C@H](CCCN=C(N)N)C(=O)N[C@@H]2CC[C@H](O)N(C2=O)[C@@H](CC(C)C)C(=O)N(C)[C@@H](Cc2ccccc2)C(=O)N[C@H](C(C)C)C(=O)O[C@@H]1C
REMARK SMILES IDX 30 1 31 2 29 3 32 5 35 6 37 7 34 8 38 9 33 10 39 11 36 12
REMARK SMILES IDX 40 14 41 15 42 16 43 17 44 18 45 19 46 20 47 21 48 22 49 23
REMARK SMILES IDX 50 24 51 25 52 26 56 27 53 28 55 29 54 30 57 31 58 32 59 33
REMARK SMILES IDX 60 35 61 36 62 37 63 38 64 39 65 40 66 41 67 42 68 43 21 45
REMARK SMILES IDX 20 46 18 47 19 48 17 50 16 52 14 53 15 54 9 56 8 57 6 58
REMARK SMILES IDX 7 59 5 61 4 62 3 63 2 64 1 65 10 66 11 67 12 68 13 69 22 71
REMARK SMILES IDX 23 72 24 73 25 74 26 75 27 76 28 77
REMARK H PARENT 31 4 36 13 59 34 20 49 16 55 8 60 13 70 27 78 27 79 28 80
REMARK H PARENT 28 81
REMARK Flexibility Score:  259.900
ROOT
ATOM      1  O   UNL     1      -9.534  -6.682   8.830  1.00  0.00    -0.273 OA
ATOM      2  N   UNL     1      -7.363  -7.315   8.488  1.00  0.00    -0.343 N 
ATOM      3  C   UNL     1      -8.462  -7.078   9.286  1.00  0.00     0.243 C 
ATOM      4  H   UNL     1      -6.501  -7.654   8.896  1.00  0.00     0.164 HD
ENDROOT
BRANCH   2   5
ATOM      5  C   UNL     1      -7.394  -6.986   7.067  1.00  0.00     0.171 C 
ATOM      6  C   UNL     1      -5.333  -6.872   5.032  1.00  0.00     0.214 C 
ATOM      7  N   UNL     1      -5.650  -5.684   5.789  1.00  0.00    -0.303 N 
ATOM      8  C   UNL     1      -6.517  -7.810   4.858  1.00  0.00     0.057 C 
ATOM      9  C   UNL     1      -6.587  -5.682   6.809  1.00  0.00     0.247 C 
ATOM     10  C   UNL     1      -7.058  -8.209   6.214  1.00  0.00     0.040 C 
ATOM     11  O   UNL     1      -6.792  -4.682   7.510  1.00  0.00    -0.272 OA
BRANCH   6  12
ATOM     12  O   UNL     1      -4.275  -7.532   5.689  1.00  0.00    -0.373 OA
ATOM     13  H   UNL     1      -3.456  -7.332   5.187  1.00  0.00     0.213 HD
ENDBRANCH   6  12
BRANCH   7  14
ATOM     14  C   UNL     1      -4.824  -4.485   5.533  1.00  0.00     0.177 C 
BRANCH  14  15
ATOM     15  C   UNL     1      -3.309  -4.745   5.418  1.00  0.00     0.038 C 
BRANCH  15  16
ATOM     16  C   UNL     1      -2.427  -4.674   6.684  1.00  0.00    -0.015 C 
ATOM     17  C   UNL     1      -1.569  -3.406   6.728  1.00  0.00     0.007 C 
ATOM     18  C   UNL     1      -1.492  -5.889   6.733  1.00  0.00     0.007 C 
ENDBRANCH  15  16
ENDBRANCH  14  15
BRANCH  14  19
ATOM     19  C   UNL     1      -5.631  -3.439   4.690  1.00  0.00     0.245 C 
ATOM     20  O   UNL     1      -6.267  -3.875   3.716  1.00  0.00    -0.272 OA
BRANCH  19  21
ATOM     21  N   UNL     1      -5.580  -2.072   4.903  1.00  0.00    -0.332 N 
ATOM     22  C   UNL     1      -5.572  -1.057   3.866  1.00  0.00     0.147 C 
BRANCH  21  23
ATOM     23  C   UNL     1      -5.518  -1.590   6.311  1.00  0.00     0.178 C 
BRANCH  23  24
ATOM     24  C   UNL     1      -4.275  -0.740   6.647  1.00  0.00     0.070 C 
BRANCH  24  25
ATOM     25  C   UNL     1      -3.640  -0.957   8.001  1.00  0.00    -0.045 A 
ATOM     26  C   UNL     1      -2.585  -0.144   8.437  1.00  0.00     0.004 A 
ATOM     27  C   UNL     1      -4.097  -1.983   8.842  1.00  0.00     0.004 A 
ATOM     28  C   UNL     1      -1.992  -0.362   9.682  1.00  0.00     0.000 A 
ATOM     29  C   UNL     1      -3.504  -2.198  10.087  1.00  0.00     0.000 A 
ATOM     30  C   UNL     1      -2.449  -1.389  10.505  1.00  0.00     0.000 A 
ENDBRANCH  24  25
ENDBRANCH  23  24
BRANCH  23  31
ATOM     31  C   UNL     1      -6.861  -1.006   6.809  1.00  0.00     0.243 C 
ATOM     32  O   UNL     1      -7.377   0.013   6.356  1.00  0.00    -0.273 OA
ATOM     33  N   UNL     1      -7.348  -1.629   7.945  1.00  0.00    -0.341 N 
ATOM     34  H   UNL     1      -6.872  -2.471   8.278  1.00  0.00     0.164 HD
BRANCH  33  35
ATOM     35  C   UNL     1      -8.542  -1.169   8.660  1.00  0.00     0.194 C 
BRANCH  35  36
ATOM     36  C   UNL     1      -8.418   0.268   9.241  1.00  0.00     0.017 C 
ATOM     37  C   UNL     1      -7.048   0.486   9.906  1.00  0.00     0.010 C 
ATOM     38  C   UNL     1      -9.492   0.591  10.288  1.00  0.00     0.010 C 
ENDBRANCH  35  36
BRANCH  35  39
ATOM     39  C   UNL     1      -9.030  -2.187   9.727  1.00  0.00     0.329 C 
ATOM     40  O   UNL     1     -10.156  -2.670   9.751  1.00  0.00    -0.250 OA
BRANCH  39  41
ATOM     41  O   UNL     1      -8.034  -2.553  10.590  1.00  0.00    -0.458 OA
BRANCH  41  42
ATOM     42  C   UNL     1      -8.431  -2.798  11.961  1.00  0.00     0.205 CG0
ATOM     43  C   UNL     1      -8.161  -1.518  12.748  1.00  0.00     0.056 C 
ATOM     44  G   UNL     1      -7.629  -4.001  12.497  1.00  0.00     0.000 G0
ENDBRANCH  41  42
ENDBRANCH  39  41
ENDBRANCH  35  39
ENDBRANCH  33  35
ENDBRANCH  23  31
ENDBRANCH  21  23
ENDBRANCH  19  21
ENDBRANCH  14  19
ENDBRANCH   7  14
ENDBRANCH   2   5
BRANCH   3  45
ATOM     45  C   UNL     1      -8.261  -7.364  10.781  1.00  0.00     0.171 C 
BRANCH  45  46
ATOM     46  N   UNL     1      -7.667  -6.155  11.337  1.00  0.00    -0.342 N 
ATOM     47  C   UNL     1      -8.380  -5.272  12.107  1.00  0.00     0.247 C 
ATOM     48  O   UNL     1      -9.547  -5.471  12.445  1.00  0.00    -0.273 OA
ATOM     49  H   UNL     1      -6.686  -5.981  11.128  1.00  0.00     0.164 HD
BRANCH  47  50
ATOM     50  C   UNL     1      -7.624  -3.995  12.500  1.00  0.00     0.212 CG0
ATOM     51  G   UNL     1      -8.437  -2.792  11.980  1.00  0.00     0.000 G0
BRANCH  50  52
ATOM     52  N   UNL     1      -7.520  -4.035  13.956  1.00  0.00    -0.339 N 
ATOM     53  C   UNL     1      -6.486  -4.646  14.623  1.00  0.00     0.243 C 
ATOM     54  O   UNL     1      -5.591  -5.255  14.042  1.00  0.00    -0.273 OA
ATOM     55  H   UNL     1      -8.289  -3.644  14.496  1.00  0.00     0.164 HD
BRANCH  53  56
ATOM     56  C   UNL     1      -6.636  -4.636  16.157  1.00  0.00     0.182 C 
BRANCH  56  57
ATOM     57  N   UNL     1      -6.745  -6.000  16.685  1.00  0.00    -0.344 N 
ATOM     58  C   UNL     1      -7.624  -6.920  16.168  1.00  0.00     0.220 C 
ATOM     59  O   UNL     1      -8.426  -6.647  15.282  1.00  0.00    -0.275 OA
ATOM     60  H   UNL     1      -6.033  -6.296  17.346  1.00  0.00     0.164 HD
BRANCH  58  61
ATOM     61  C   UNL     1      -7.524  -8.283  16.828  1.00  0.00     0.100 C 
BRANCH  61  62
ATOM     62  C   UNL     1      -6.419  -8.379  17.879  1.00  0.00     0.010 C 
BRANCH  62  63
ATOM     63  C   UNL     1      -5.065  -8.841  17.325  1.00  0.00     0.000 C 
BRANCH  63  64
ATOM     64  C   UNL     1      -4.673 -10.261  17.732  1.00  0.00    -0.003 C 
ATOM     65  C   UNL     1      -4.076 -10.293  19.131  1.00  0.00     0.004 C 
ENDBRANCH  63  64
ENDBRANCH  62  63
ENDBRANCH  61  62
ENDBRANCH  58  61
ENDBRANCH  56  57
BRANCH  56  66
ATOM     66  C   UNL     1      -7.800  -3.751  16.600  1.00  0.00     0.157 C 
BRANCH  66  67
ATOM     67  C   UNL     1      -8.459  -4.297  17.834  1.00  0.00     0.305 C 
ATOM     68  O   UNL     1      -8.012  -4.283  18.971  1.00  0.00    -0.252 OA
BRANCH  67  69
ATOM     69  O   UNL     1      -9.685  -4.793  17.582  1.00  0.00    -0.481 OA
ATOM     70  H   UNL     1      -9.662  -5.051  16.636  1.00  0.00     0.296 HD
ENDBRANCH  67  69
ENDBRANCH  66  67
ENDBRANCH  56  66
ENDBRANCH  53  56
ENDBRANCH  50  52
ENDBRANCH  47  50
ENDBRANCH  45  46
BRANCH  45  71
ATOM     71  C   UNL     1      -7.351  -8.582  10.974  1.00  0.00     0.037 C 
BRANCH  71  72
ATOM     72  C   UNL     1      -6.467  -8.449  12.217  1.00  0.00     0.026 C 
BRANCH  72  73
ATOM     73  C   UNL     1      -4.999  -8.713  11.891  1.00  0.00     0.146 C 
BRANCH  73  74
ATOM     74  N   UNL     1      -4.848  -8.668  10.440  1.00  0.00    -0.254 NA
ATOM     75  C   UNL     1      -4.215  -7.675   9.934  1.00  0.00     0.185 C 
ATOM     76  N   UNL     1      -4.058  -7.607   8.602  1.00  0.00    -0.370 N 
ATOM     77  N   UNL     1      -3.647  -6.629  10.558  1.00  0.00    -0.370 N 
ATOM     78  H   UNL     1      -4.463  -8.353   8.054  1.00  0.00     0.159 HD
ATOM     79  H   UNL     1      -3.705  -6.795   8.127  1.00  0.00     0.159 HD
ATOM     80  H   UNL     1      -3.682  -6.549  11.563  1.00  0.00     0.159 HD
ATOM     81  H   UNL     1      -3.074  -5.966  10.062  1.00  0.00     0.159 HD
ENDBRANCH  73  74
ENDBRANCH  72  73
ENDBRANCH  71  72
ENDBRANCH  45  71
ENDBRANCH   3  45
TORSDOF 20
ENDMDL
MODEL 3
REMARK VINA RESULT:    -6.505      2.505      6.254
REMARK INTER + INTRA:         -26.059
REMARK INTER:                 -18.417
REMARK INTRA:                  -7.643
REMARK UNBOUND:                -7.386
REMARK SMILES CCCCCC(=O)N[C@H](CC(=O)O)C(=O)N[C@H]1C(=O)N[C@H](CCCN=C(N)N)C(=O)N[C@@H]2CC[C@H](O)N(C2=O)[C@@H](CC(C)C)C(=O)N(C)[C@@H](Cc2ccccc2)C(=O)N[C@H](C(C)C)C(=O)O[C@@H]1C
REMARK SMILES IDX 30 1 31 2 29 3 32 5 35 6 37 7 34 8 38 9 33 10 39 11 36 12
REMARK SMILES IDX 40 14 41 15 42 16 43 17 44 18 45 19 46 20 47 21 48 22 49 23
REMARK SMILES IDX 50 24 51 25 52 26 56 27 53 28 55 29 54 30 57 31 58 32 59 33
REMARK SMILES IDX 60 35 61 36 62 37 63 38 64 39 65 40 66 41 67 42 68 43 21 45
REMARK SMILES IDX 20 46 18 47 19 48 17 50 16 52 14 53 15 54 9 56 8 57 6 58
REMARK SMILES IDX 7 59 5 61 4 62 3 63 2 64 1 65 10 66 11 67 12 68 13 69 22 71
REMARK SMILES IDX 23 72 24 73 25 74 26 75 27 76 28 77
REMARK H PARENT 31 4 36 13 59 34 20 49 16 55 8 60 13 70 27 78 27 79 28 80
REMARK H PARENT 28 81
REMARK Flexibility Score:  259.900
ROOT
ATOM      1  O   UNL     1      -4.859  -2.869   8.841  1.00  0.00    -0.273 OA
ATOM      2  N   UNL     1      -5.270  -1.459  10.594  1.00  0.00    -0.343 N 
ATOM      3  C   UNL     1      -5.665  -2.321   9.594  1.00  0.00     0.243 C 
ATOM      4  H   UNL     1      -5.960  -1.038  11.204  1.00  0.00     0.164 HD
ENDROOT
BRANCH   2   5
ATOM      5  C   UNL     1      -3.871  -1.065  10.725  1.00  0.00     0.171 C 
ATOM      6  C   UNL     1      -1.574  -1.367   8.984  1.00  0.00     0.214 C 
ATOM      7  N   UNL     1      -1.861  -2.388   9.964  1.00  0.00    -0.303 N 
ATOM      8  C   UNL     1      -2.023   0.021   9.412  1.00  0.00     0.057 C 
ATOM      9  C   UNL     1      -2.971  -2.331  10.792  1.00  0.00     0.247 C 
ATOM     10  C   UNL     1      -3.507   0.012   9.704  1.00  0.00     0.040 C 
ATOM     11  O   UNL     1      -3.257  -3.252  11.569  1.00  0.00    -0.272 OA
BRANCH   6  12
ATOM     12  O   UNL     1      -2.202  -1.738   7.779  1.00  0.00    -0.373 OA
ATOM     13  H   UNL     1      -1.544  -2.243   7.255  1.00  0.00     0.213 HD
ENDBRANCH   6  12
BRANCH   7  14
ATOM     14  C   UNL     1      -0.999  -3.589   9.954  1.00  0.00     0.177 C 
BRANCH  14  15
ATOM     15  C   UNL     1      -0.034  -3.713  11.150  1.00  0.00     0.038 C 
BRANCH  15  16
ATOM     16  C   UNL     1       1.197  -4.640  11.041  1.00  0.00    -0.015 C 
ATOM     17  C   UNL     1       1.189  -5.748  12.098  1.00  0.00     0.007 C 
ATOM     18  C   UNL     1       2.481  -3.820  11.216  1.00  0.00     0.007 C 
ENDBRANCH  15  16
ENDBRANCH  14  15
BRANCH  14  19
ATOM     19  C   UNL     1      -1.736  -4.783   9.256  1.00  0.00     0.245 C 
ATOM     20  O   UNL     1      -2.325  -5.587   9.998  1.00  0.00    -0.272 OA
BRANCH  19  21
ATOM     21  N   UNL     1      -1.671  -5.042   7.899  1.00  0.00    -0.332 N 
ATOM     22  C   UNL     1      -0.455  -5.304   7.149  1.00  0.00     0.147 C 
BRANCH  21  23
ATOM     23  C   UNL     1      -2.945  -5.045   7.128  1.00  0.00     0.178 C 
BRANCH  23  24
ATOM     24  C   UNL     1      -2.842  -4.452   5.708  1.00  0.00     0.070 C 
BRANCH  24  25
ATOM     25  C   UNL     1      -4.137  -4.096   5.015  1.00  0.00    -0.045 A 
ATOM     26  C   UNL     1      -4.715  -4.967   4.083  1.00  0.00     0.004 A 
ATOM     27  C   UNL     1      -4.778  -2.880   5.295  1.00  0.00     0.004 A 
ATOM     28  C   UNL     1      -5.903  -4.623   3.434  1.00  0.00     0.000 A 
ATOM     29  C   UNL     1      -5.966  -2.538   4.647  1.00  0.00     0.000 A 
ATOM     30  C   UNL     1      -6.526  -3.409   3.714  1.00  0.00     0.000 A 
ENDBRANCH  24  25
ENDBRANCH  23  24
BRANCH  23  31
ATOM     31  C   UNL     1      -3.702  -6.391   7.219  1.00  0.00     0.243 C 
ATOM     32  O   UNL     1      -3.293  -7.444   6.736  1.00  0.00    -0.273 OA
ATOM     33  N   UNL     1      -4.982  -6.272   7.735  1.00  0.00    -0.341 N 
ATOM     34  H   UNL     1      -5.269  -5.368   8.118  1.00  0.00     0.164 HD
BRANCH  33  35
ATOM     35  C   UNL     1      -5.922  -7.394   7.804  1.00  0.00     0.194 C 
BRANCH  35  36
ATOM     36  C   UNL     1      -7.066  -7.329   6.753  1.00  0.00     0.017 C 
ATOM     37  C   UNL     1      -6.625  -7.933   5.409  1.00  0.00     0.010 C 
ATOM     38  C   UNL     1      -7.552  -5.901   6.477  1.00  0.00     0.010 C 
ENDBRANCH  35  36
BRANCH  35  39
ATOM     39  C   UNL     1      -6.467  -7.630   9.241  1.00  0.00     0.329 C 
ATOM     40  O   UNL     1      -6.298  -8.663   9.878  1.00  0.00    -0.250 OA
BRANCH  39  41
ATOM     41  O   UNL     1      -7.084  -6.521   9.751  1.00  0.00    -0.458 OA
BRANCH  41  42
ATOM     42  C   UNL     1      -8.367  -6.736  10.386  1.00  0.00     0.205 CG0
ATOM     43  C   UNL     1      -9.413  -6.821   9.277  1.00  0.00     0.056 C 
ATOM     44  G   UNL     1      -8.635  -5.573  11.361  1.00  0.00     0.000 G0
ENDBRANCH  41  42
ENDBRANCH  39  41
ENDBRANCH  35  39
ENDBRANCH  33  35
ENDBRANCH  23  31
ENDBRANCH  21  23
ENDBRANCH  19  21
ENDBRANCH  14  19
ENDBRANCH   7  14
ENDBRANCH   2   5
BRANCH   3  45
ATOM     45  C   UNL     1      -7.176  -2.568   9.498  1.00  0.00     0.171 C 
BRANCH  45  46
ATOM     46  N   UNL     1      -7.409  -3.849  10.151  1.00  0.00    -0.342 N 
ATOM     47  C   UNL     1      -8.648  -4.233  10.599  1.00  0.00     0.247 C 
ATOM     48  O   UNL     1      -9.662  -3.558  10.419  1.00  0.00    -0.273 OA
ATOM     49  H   UNL     1      -6.605  -4.463  10.270  1.00  0.00     0.164 HD
BRANCH  47  50
ATOM     50  C   UNL     1      -8.677  -5.559  11.372  1.00  0.00     0.212 CG0
ATOM     51  G   UNL     1      -8.325  -6.685  10.381  1.00  0.00     0.000 G0
BRANCH  50  52
ATOM     52  N   UNL     1      -7.698  -5.406  12.445  1.00  0.00    -0.339 N 
ATOM     53  C   UNL     1      -8.004  -5.555  13.776  1.00  0.00     0.243 C 
ATOM     54  O   UNL     1      -9.146  -5.777  14.171  1.00  0.00    -0.273 OA
ATOM     55  H   UNL     1      -6.757  -5.113  12.188  1.00  0.00     0.164 HD
BRANCH  53  56
ATOM     56  C   UNL     1      -6.827  -5.261  14.728  1.00  0.00     0.182 C 
BRANCH  56  57
ATOM     57  N   UNL     1      -7.177  -4.210  15.689  1.00  0.00    -0.344 N 
ATOM     58  C   UNL     1      -7.128  -4.409  17.047  1.00  0.00     0.220 C 
ATOM     59  O   UNL     1      -6.860  -5.495  17.549  1.00  0.00    -0.275 OA
ATOM     60  H   UNL     1      -7.305  -3.272  15.319  1.00  0.00     0.164 HD
BRANCH  58  61
ATOM     61  C   UNL     1      -7.474  -3.168  17.849  1.00  0.00     0.100 C 
BRANCH  61  62
ATOM     62  C   UNL     1      -8.186  -2.087  17.036  1.00  0.00     0.010 C 
BRANCH  62  63
ATOM     63  C   UNL     1      -7.596  -0.682  17.209  1.00  0.00     0.000 C 
BRANCH  63  64
ATOM     64  C   UNL     1      -6.157  -0.541  16.718  1.00  0.00    -0.003 C 
ATOM     65  C   UNL     1      -5.209  -0.211  17.862  1.00  0.00     0.004 C 
ENDBRANCH  63  64
ENDBRANCH  62  63
ENDBRANCH  61  62
ENDBRANCH  58  61
ENDBRANCH  56  57
BRANCH  56  66
ATOM     66  C   UNL     1      -5.551  -4.934  13.955  1.00  0.00     0.157 C 
BRANCH  66  67
ATOM     67  C   UNL     1      -5.288  -3.455  13.939  1.00  0.00     0.305 C 
ATOM     68  O   UNL     1      -4.505  -2.842  14.649  1.00  0.00    -0.252 OA
BRANCH  67  69
ATOM     69  O   UNL     1      -5.995  -2.821  12.985  1.00  0.00    -0.481 OA
ATOM     70  H   UNL     1      -5.443  -2.050  12.735  1.00  0.00     0.296 HD
ENDBRANCH  67  69
ENDBRANCH  66  67
ENDBRANCH  56  66
ENDBRANCH  53  56
ENDBRANCH  50  52
ENDBRANCH  47  50
ENDBRANCH  45  46
BRANCH  45  71
ATOM     71  C   UNL     1      -7.621  -2.592   8.031  1.00  0.00     0.037 C 
BRANCH  71  72
ATOM     72  C   UNL     1      -8.093  -1.217   7.550  1.00  0.00     0.026 C 
BRANCH  72  73
ATOM     73  C   UNL     1      -9.098  -0.599   8.520  1.00  0.00     0.146 C 
BRANCH  73  74
ATOM     74  N   UNL     1      -8.859   0.841   8.553  1.00  0.00    -0.254 NA
ATOM     75  C   UNL     1      -9.046   1.453   9.663  1.00  0.00     0.185 C 
ATOM     76  N   UNL     1      -8.833   2.778   9.726  1.00  0.00    -0.370 N 
ATOM     77  N   UNL     1      -9.442   0.954  10.847  1.00  0.00    -0.370 N 
ATOM     78  H   UNL     1      -8.539   3.234   8.874  1.00  0.00     0.159 HD
ATOM     79  H   UNL     1      -9.095   3.344  10.513  1.00  0.00     0.159 HD
ATOM     80  H   UNL     1      -9.636  -0.030  10.951  1.00  0.00     0.159 HD
ATOM     81  H   UNL     1      -9.443   1.515  11.683  1.00  0.00     0.159 HD
ENDBRANCH  73  74
ENDBRANCH  72  73
ENDBRANCH  71  72
ENDBRANCH  45  71
ENDBRANCH   3  45
TORSDOF 20
ENDMDL
MODEL 4
REMARK VINA RESULT:    -6.499      2.831      6.020
REMARK INTER + INTRA:         -26.044
REMARK INTER:                 -17.853
REMARK INTRA:                  -8.192
REMARK UNBOUND:                -7.386
REMARK SMILES CCCCCC(=O)N[C@H](CC(=O)O)C(=O)N[C@H]1C(=O)N[C@H](CCCN=C(N)N)C(=O)N[C@@H]2CC[C@H](O)N(C2=O)[C@@H](CC(C)C)C(=O)N(C)[C@@H](Cc2ccccc2)C(=O)N[C@H](C(C)C)C(=O)O[C@@H]1C
REMARK SMILES IDX 30 1 31 2 29 3 32 5 35 6 37 7 34 8 38 9 33 10 39 11 36 12
REMARK SMILES IDX 40 14 41 15 42 16 43 17 44 18 45 19 46 20 47 21 48 22 49 23
REMARK SMILES IDX 50 24 51 25 52 26 56 27 53 28 55 29 54 30 57 31 58 32 59 33
REMARK SMILES IDX 60 35 61 36 62 37 63 38 64 39 65 40 66 41 67 42 68 43 21 45
REMARK SMILES IDX 20 46 18 47 19 48 17 50 16 52 14 53 15 54 9 56 8 57 6 58
REMARK SMILES IDX 7 59 5 61 4 62 3 63 2 64 1 65 10 66 11 67 12 68 13 69 22 71
REMARK SMILES IDX 23 72 24 73 25 74 26 75 27 76 28 77
REMARK H PARENT 31 4 36 13 59 34 20 49 16 55 8 60 13 70 27 78 27 79 28 80
REMARK H PARENT 28 81
REMARK Flexibility Score:  259.900
ROOT
ATOM      1  O   UNL     1      -4.133  -8.457   9.000  1.00  0.00    -0.273 OA
ATOM      2  N   UNL     1      -3.860  -6.702  10.441  1.00  0.00    -0.343 N 
ATOM      3  C   UNL     1      -4.610  -7.488   9.592  1.00  0.00     0.243 C 
ATOM      4  H   UNL     1      -4.290  -5.921  10.922  1.00  0.00     0.164 HD
ENDROOT
BRANCH   2   5
ATOM      5  C   UNL     1      -2.425  -6.919  10.581  1.00  0.00     0.171 C 
ATOM      6  C   UNL     1      -0.353  -5.490  12.019  1.00  0.00     0.214 C 
ATOM      7  N   UNL     1      -0.636  -5.139  10.647  1.00  0.00    -0.303 N 
ATOM      8  C   UNL     1      -0.622  -6.953  12.334  1.00  0.00     0.057 C 
ATOM      9  C   UNL     1      -1.647  -5.746   9.919  1.00  0.00     0.247 C 
ATOM     10  C   UNL     1      -2.064  -7.288  12.019  1.00  0.00     0.040 C 
ATOM     11  O   UNL     1      -1.941  -5.380   8.773  1.00  0.00    -0.272 OA
BRANCH   6  12
ATOM     12  O   UNL     1      -1.131  -4.657  12.847  1.00  0.00    -0.373 OA
ATOM     13  H   UNL     1      -1.477  -5.217  13.574  1.00  0.00     0.213 HD
ENDBRANCH   6  12
BRANCH   7  14
ATOM     14  C   UNL     1       0.102  -3.990  10.083  1.00  0.00     0.177 C 
BRANCH  14  15
ATOM     15  C   UNL     1       1.376  -4.352   9.295  1.00  0.00     0.038 C 
BRANCH  15  16
ATOM     16  C   UNL     1       2.530  -3.328   9.201  1.00  0.00    -0.015 C 
ATOM     17  C   UNL     1       3.529  -3.675   8.094  1.00  0.00     0.007 C 
ATOM     18  C   UNL     1       3.288  -3.278  10.534  1.00  0.00     0.007 C 
ENDBRANCH  15  16
ENDBRANCH  14  15
BRANCH  14  19
ATOM     19  C   UNL     1      -0.889  -2.830   9.722  1.00  0.00     0.245 C 
ATOM     20  O   UNL     1      -1.025  -2.566   8.515  1.00  0.00    -0.272 OA
BRANCH  19  21
ATOM     21  N   UNL     1      -1.518  -2.032  10.661  1.00  0.00    -0.332 N 
ATOM     22  C   UNL     1      -0.886  -1.452  11.833  1.00  0.00     0.147 C 
BRANCH  21  23
ATOM     23  C   UNL     1      -2.967  -1.746  10.473  1.00  0.00     0.178 C 
BRANCH  23  24
ATOM     24  C   UNL     1      -3.339  -1.183   9.085  1.00  0.00     0.070 C 
BRANCH  24  25
ATOM     25  C   UNL     1      -4.771  -0.748   8.880  1.00  0.00    -0.045 A 
ATOM     26  C   UNL     1      -5.380  -0.854   7.624  1.00  0.00     0.004 A 
ATOM     27  C   UNL     1      -5.511  -0.224   9.951  1.00  0.00     0.004 A 
ATOM     28  C   UNL     1      -6.699  -0.434   7.439  1.00  0.00     0.000 A 
ATOM     29  C   UNL     1      -6.830   0.194   9.765  1.00  0.00     0.000 A 
ATOM     30  C   UNL     1      -7.422   0.092   8.507  1.00  0.00     0.000 A 
ENDBRANCH  24  25
ENDBRANCH  23  24
BRANCH  23  31
ATOM     31  C   UNL     1      -3.879  -2.889  10.978  1.00  0.00     0.243 C 
ATOM     32  O   UNL     1      -4.365  -3.752  10.252  1.00  0.00    -0.273 OA
ATOM     33  N   UNL     1      -4.257  -2.750  12.303  1.00  0.00    -0.341 N 
ATOM     34  H   UNL     1      -3.822  -2.008  12.856  1.00  0.00     0.164 HD
BRANCH  33  35
ATOM     35  C   UNL     1      -5.210  -3.648  12.960  1.00  0.00     0.194 C 
BRANCH  35  36
ATOM     36  C   UNL     1      -6.079  -2.963  14.052  1.00  0.00     0.017 C 
ATOM     37  C   UNL     1      -7.188  -2.100  13.424  1.00  0.00     0.010 C 
ATOM     38  C   UNL     1      -5.270  -2.058  14.989  1.00  0.00     0.010 C 
ENDBRANCH  35  36
BRANCH  35  39
ATOM     39  C   UNL     1      -4.543  -4.951  13.483  1.00  0.00     0.329 C 
ATOM     40  O   UNL     1      -3.595  -4.972  14.259  1.00  0.00    -0.250 OA
BRANCH  39  41
ATOM     41  O   UNL     1      -5.187  -6.076  13.048  1.00  0.00    -0.458 OA
BRANCH  41  42
ATOM     42  C   UNL     1      -6.215  -6.603  13.920  1.00  0.00     0.205 CG0
ATOM     43  C   UNL     1      -5.591  -7.746  14.719  1.00  0.00     0.056 C 
ATOM     44  G   UNL     1      -7.403  -7.069  13.054  1.00  0.00     0.000 G0
ENDBRANCH  41  42
ENDBRANCH  39  41
ENDBRANCH  35  39
ENDBRANCH  33  35
ENDBRANCH  23  31
ENDBRANCH  21  23
ENDBRANCH  19  21
ENDBRANCH  14  19
ENDBRANCH   7  14
ENDBRANCH   2   5
BRANCH   3  45
ATOM     45  C   UNL     1      -6.084  -7.085   9.453  1.00  0.00     0.171 C 
BRANCH  45  46
ATOM     46  N   UNL     1      -6.519  -6.716  10.793  1.00  0.00    -0.342 N 
ATOM     47  C   UNL     1      -6.883  -7.648  11.732  1.00  0.00     0.247 C 
ATOM     48  O   UNL     1      -6.799  -8.861  11.537  1.00  0.00    -0.273 OA
ATOM     49  H   UNL     1      -6.550  -5.722  11.016  1.00  0.00     0.164 HD
BRANCH  47  50
ATOM     50  C   UNL     1      -7.433  -7.069  13.043  1.00  0.00     0.212 CG0
ATOM     51  G   UNL     1      -6.230  -6.629  13.901  1.00  0.00     0.000 G0
BRANCH  50  52
ATOM     52  N   UNL     1      -8.297  -5.960  12.648  1.00  0.00    -0.339 N 
ATOM     53  C   UNL     1      -9.355  -5.519  13.405  1.00  0.00     0.243 C 
ATOM     54  O   UNL     1      -9.690  -6.062  14.454  1.00  0.00    -0.273 OA
ATOM     55  H   UNL     1      -8.138  -5.540  11.734  1.00  0.00     0.164 HD
BRANCH  53  56
ATOM     56  C   UNL     1     -10.174  -4.393  12.743  1.00  0.00     0.182 C 
BRANCH  56  57
ATOM     57  N   UNL     1      -9.522  -3.918  11.518  1.00  0.00    -0.344 N 
ATOM     58  C   UNL     1     -10.206  -3.253  10.531  1.00  0.00     0.220 C 
ATOM     59  O   UNL     1     -11.419  -3.074  10.569  1.00  0.00    -0.275 OA
ATOM     60  H   UNL     1      -8.506  -3.955  11.493  1.00  0.00     0.164 HD
BRANCH  58  61
ATOM     61  C   UNL     1      -9.321  -2.803   9.383  1.00  0.00     0.100 C 
BRANCH  61  62
ATOM     62  C   UNL     1      -7.897  -3.356   9.451  1.00  0.00     0.010 C 
BRANCH  62  63
ATOM     63  C   UNL     1      -7.418  -4.017   8.152  1.00  0.00     0.000 C 
BRANCH  63  64
ATOM     64  C   UNL     1      -8.193  -3.587   6.907  1.00  0.00    -0.003 C 
ATOM     65  C   UNL     1      -7.279  -3.475   5.696  1.00  0.00     0.004 C 
ENDBRANCH  63  64
ENDBRANCH  62  63
ENDBRANCH  61  62
ENDBRANCH  58  61
ENDBRANCH  56  57
BRANCH  56  66
ATOM     66  C   UNL     1     -10.457  -3.256  13.723  1.00  0.00     0.157 C 
BRANCH  66  67
ATOM     67  C   UNL     1     -11.865  -3.322  14.241  1.00  0.00     0.305 C 
ATOM     68  O   UNL     1     -12.230  -3.157  15.395  1.00  0.00    -0.252 OA
BRANCH  67  69
ATOM     69  O   UNL     1     -12.761  -3.545  13.261  1.00  0.00    -0.481 OA
ATOM     70  H   UNL     1     -13.546  -3.015  13.514  1.00  0.00     0.296 HD
ENDBRANCH  67  69
ENDBRANCH  66  67
ENDBRANCH  56  66
ENDBRANCH  53  56
ENDBRANCH  50  52
ENDBRANCH  47  50
ENDBRANCH  45  46
BRANCH  45  71
ATOM     71  C   UNL     1      -6.905  -8.251   8.892  1.00  0.00     0.037 C 
BRANCH  71  72
ATOM     72  C   UNL     1      -7.552  -7.906   7.548  1.00  0.00     0.026 C 
BRANCH  72  73
ATOM     73  C   UNL     1      -6.656  -8.304   6.377  1.00  0.00     0.146 C 
BRANCH  73  74
ATOM     74  N   UNL     1      -6.262  -7.083   5.681  1.00  0.00    -0.254 NA
ATOM     75  C   UNL     1      -5.012  -6.807   5.615  1.00  0.00     0.185 C 
ATOM     76  N   UNL     1      -4.619  -5.691   4.980  1.00  0.00    -0.370 N 
ATOM     77  N   UNL     1      -3.968  -7.495   6.109  1.00  0.00    -0.370 N 
ATOM     78  H   UNL     1      -5.345  -5.110   4.585  1.00  0.00     0.159 HD
ATOM     79  H   UNL     1      -3.679  -5.337   5.013  1.00  0.00     0.159 HD
ATOM     80  H   UNL     1      -4.113  -8.359   6.608  1.00  0.00     0.159 HD
ATOM     81  H   UNL     1      -3.018  -7.239   5.895  1.00  0.00     0.159 HD
ENDBRANCH  73  74
ENDBRANCH  72  73
ENDBRANCH  71  72
ENDBRANCH  45  71
ENDBRANCH   3  45
TORSDOF 20
ENDMDL
MODEL 5
REMARK VINA RESULT:    -6.443      3.961     11.172
REMARK INTER + INTRA:         -25.882
REMARK INTER:                 -19.524
REMARK INTRA:                  -6.358
REMARK UNBOUND:                -7.386
REMARK SMILES CCCCCC(=O)N[C@H](CC(=O)O)C(=O)N[C@H]1C(=O)N[C@H](CCCN=C(N)N)C(=O)N[C@@H]2CC[C@H](O)N(C2=O)[C@@H](CC(C)C)C(=O)N(C)[C@@H](Cc2ccccc2)C(=O)N[C@H](C(C)C)C(=O)O[C@@H]1C
REMARK SMILES IDX 30 1 31 2 29 3 32 5 35 6 37 7 34 8 38 9 33 10 39 11 36 12
REMARK SMILES IDX 40 14 41 15 42 16 43 17 44 18 45 19 46 20 47 21 48 22 49 23
REMARK SMILES IDX 50 24 51 25 52 26 56 27 53 28 55 29 54 30 57 31 58 32 59 33
REMARK SMILES IDX 60 35 61 36 62 37 63 38 64 39 65 40 66 41 67 42 68 43 21 45
REMARK SMILES IDX 20 46 18 47 19 48 17 50 16 52 14 53 15 54 9 56 8 57 6 58
REMARK SMILES IDX 7 59 5 61 4 62 3 63 2 64 1 65 10 66 11 67 12 68 13 69 22 71
REMARK SMILES IDX 23 72 24 73 25 74 26 75 27 76 28 77
REMARK H PARENT 31 4 36 13 59 34 20 49 16 55 8 60 13 70 27 78 27 79 28 80
REMARK H PARENT 28 81
REMARK Flexibility Score:  259.900
ROOT
ATOM      1  O   UNL     1      -8.825  -3.579   8.967  1.00  0.00    -0.273 OA
ATOM      2  N   UNL     1      -8.102  -2.646  10.926  1.00  0.00    -0.343 N 
ATOM      3  C   UNL     1      -7.913  -3.089   9.634  1.00  0.00     0.243 C 
ATOM      4  H   UNL     1      -7.332  -2.236  11.439  1.00  0.00     0.164 HD
ENDROOT
BRANCH   2   5
ATOM      5  C   UNL     1      -9.378  -2.851  11.602  1.00  0.00     0.171 C 
ATOM      6  C   UNL     1     -10.532  -1.712  14.005  1.00  0.00     0.214 C 
ATOM      7  N   UNL     1      -9.758  -2.928  14.097  1.00  0.00    -0.303 N 
ATOM      8  C   UNL     1     -11.245  -1.551  12.673  1.00  0.00     0.057 C 
ATOM      9  C   UNL     1      -9.137  -3.497  12.997  1.00  0.00     0.247 C 
ATOM     10  C   UNL     1     -10.238  -1.590  11.544  1.00  0.00     0.040 C 
ATOM     11  O   UNL     1      -8.405  -4.491  13.098  1.00  0.00    -0.272 OA
BRANCH   6  12
ATOM     12  O   UNL     1      -9.659  -0.629  14.231  1.00  0.00    -0.373 OA
ATOM     13  H   UNL     1      -9.269  -0.754  15.122  1.00  0.00     0.213 HD
ENDBRANCH   6  12
BRANCH   7  14
ATOM     14  C   UNL     1      -9.526  -3.475  15.450  1.00  0.00     0.177 C 
BRANCH  14  15
ATOM     15  C   UNL     1      -8.991  -2.464  16.484  1.00  0.00     0.038 C 
BRANCH  15  16
ATOM     16  C   UNL     1      -7.485  -2.122  16.505  1.00  0.00    -0.015 C 
ATOM     17  C   UNL     1      -6.639  -3.161  15.764  1.00  0.00     0.007 C 
ATOM     18  C   UNL     1      -6.991  -2.046  17.955  1.00  0.00     0.007 C 
ENDBRANCH  15  16
ENDBRANCH  14  15
BRANCH  14  19
ATOM     19  C   UNL     1     -10.543  -4.629  15.752  1.00  0.00     0.245 C 
ATOM     20  O   UNL     1     -11.684  -4.289  16.108  1.00  0.00    -0.272 OA
BRANCH  19  21
ATOM     21  N   UNL     1     -10.208  -5.971  15.753  1.00  0.00    -0.332 N 
ATOM     22  C   UNL     1     -10.113  -6.816  14.575  1.00  0.00     0.147 C 
BRANCH  21  23
ATOM     23  C   UNL     1      -9.930  -6.619  17.064  1.00  0.00     0.178 C 
BRANCH  23  24
ATOM     24  C   UNL     1      -9.637  -5.639  18.219  1.00  0.00     0.070 C 
BRANCH  24  25
ATOM     25  C   UNL     1      -8.202  -5.531  18.681  1.00  0.00    -0.045 A 
ATOM     26  C   UNL     1      -7.147  -5.916  17.844  1.00  0.00     0.004 A 
ATOM     27  C   UNL     1      -7.907  -5.045  19.964  1.00  0.00     0.004 A 
ATOM     28  C   UNL     1      -5.825  -5.828  18.285  1.00  0.00     0.000 A 
ATOM     29  C   UNL     1      -6.585  -4.957  20.403  1.00  0.00     0.000 A 
ATOM     30  C   UNL     1      -5.545  -5.352  19.564  1.00  0.00     0.000 A 
ENDBRANCH  24  25
ENDBRANCH  23  24
BRANCH  23  31
ATOM     31  C   UNL     1     -10.934  -7.746  17.406  1.00  0.00     0.243 C 
ATOM     32  O   UNL     1     -11.888  -8.055  16.696  1.00  0.00    -0.273 OA
ATOM     33  N   UNL     1     -10.774  -8.261  18.681  1.00  0.00    -0.341 N 
ATOM     34  H   UNL     1      -9.963  -7.962  19.227  1.00  0.00     0.164 HD
BRANCH  33  35
ATOM     35  C   UNL     1     -11.685  -9.252  19.261  1.00  0.00     0.194 C 
BRANCH  35  36
ATOM     36  C   UNL     1     -12.867  -8.636  20.062  1.00  0.00     0.017 C 
ATOM     37  C   UNL     1     -14.174  -8.679  19.250  1.00  0.00     0.010 C 
ATOM     38  C   UNL     1     -12.626  -7.178  20.468  1.00  0.00     0.010 C 
ENDBRANCH  35  36
BRANCH  35  39
ATOM     39  C   UNL     1     -10.938 -10.344  20.078  1.00  0.00     0.329 C 
ATOM     40  O   UNL     1     -10.033 -11.038  19.629  1.00  0.00    -0.250 OA
BRANCH  39  41
ATOM     41  O   UNL     1     -11.343 -10.386  21.383  1.00  0.00    -0.458 OA
BRANCH  41  42
ATOM     42  C   UNL     1     -11.710 -11.687  21.900  1.00  0.00     0.205 CG0
ATOM     43  C   UNL     1     -13.222 -11.681  22.113  1.00  0.00     0.056 C 
ATOM     44  G   UNL     1     -10.931 -11.935  23.207  1.00  0.00     0.000 G0
ENDBRANCH  41  42
ENDBRANCH  39  41
ENDBRANCH  35  39
ENDBRANCH  33  35
ENDBRANCH  23  31
ENDBRANCH  21  23
ENDBRANCH  19  21
ENDBRANCH  14  19
ENDBRANCH   7  14
ENDBRANCH   2   5
BRANCH   3  45
ATOM     45  C   UNL     1      -6.494  -2.911   9.078  1.00  0.00     0.171 C 
BRANCH  45  46
ATOM     46  N   UNL     1      -6.646  -2.138   7.852  1.00  0.00    -0.342 N 
ATOM     47  C   UNL     1      -6.555  -0.769   7.829  1.00  0.00     0.247 C 
ATOM     48  O   UNL     1      -6.268  -0.101   8.823  1.00  0.00    -0.273 OA
ATOM     49  H   UNL     1      -6.828  -2.656   6.995  1.00  0.00     0.164 HD
BRANCH  47  50
ATOM     50  C   UNL     1      -6.866  -0.120   6.473  1.00  0.00     0.212 CG0
ATOM     51  G   UNL     1      -5.896   1.064   6.289  1.00  0.00     0.000 G0
BRANCH  50  52
ATOM     52  N   UNL     1      -6.679  -1.178   5.483  1.00  0.00    -0.339 N 
ATOM     53  C   UNL     1      -5.799  -1.083   4.433  1.00  0.00     0.243 C 
ATOM     54  O   UNL     1      -5.135  -0.073   4.214  1.00  0.00    -0.273 OA
ATOM     55  H   UNL     1      -7.282  -1.996   5.546  1.00  0.00     0.164 HD
BRANCH  53  56
ATOM     56  C   UNL     1      -5.838  -2.287   3.470  1.00  0.00     0.182 C 
BRANCH  56  57
ATOM     57  N   UNL     1      -4.902  -3.332   3.896  1.00  0.00    -0.344 N 
ATOM     58  C   UNL     1      -5.214  -4.248   4.871  1.00  0.00     0.220 C 
ATOM     59  O   UNL     1      -6.263  -4.212   5.503  1.00  0.00    -0.275 OA
ATOM     60  H   UNL     1      -4.066  -3.460   3.330  1.00  0.00     0.164 HD
BRANCH  58  61
ATOM     61  C   UNL     1      -4.118  -5.272   5.107  1.00  0.00     0.100 C 
BRANCH  61  62
ATOM     62  C   UNL     1      -2.781  -4.659   5.522  1.00  0.00     0.010 C 
BRANCH  62  63
ATOM     63  C   UNL     1      -2.865  -3.736   6.744  1.00  0.00     0.000 C 
BRANCH  63  64
ATOM     64  C   UNL     1      -1.703  -3.887   7.725  1.00  0.00    -0.003 C 
ATOM     65  C   UNL     1      -1.944  -5.030   8.700  1.00  0.00     0.004 C 
ENDBRANCH  63  64
ENDBRANCH  62  63
ENDBRANCH  61  62
ENDBRANCH  58  61
ENDBRANCH  56  57
BRANCH  56  66
ATOM     66  C   UNL     1      -5.603  -1.856   2.024  1.00  0.00     0.157 C 
BRANCH  66  67
ATOM     67  C   UNL     1      -5.549  -3.042   1.105  1.00  0.00     0.305 C 
ATOM     68  O   UNL     1      -5.571  -4.220   1.427  1.00  0.00    -0.252 OA
BRANCH  67  69
ATOM     69  O   UNL     1      -5.521  -2.683  -0.193  1.00  0.00    -0.481 OA
ATOM     70  H   UNL     1      -6.382  -2.240  -0.348  1.00  0.00     0.296 HD
ENDBRANCH  67  69
ENDBRANCH  66  67
ENDBRANCH  56  66
ENDBRANCH  53  56
ENDBRANCH  50  52
ENDBRANCH  47  50
ENDBRANCH  45  46
BRANCH  45  71
ATOM     71  C   UNL     1      -5.850  -4.276   8.811  1.00  0.00     0.037 C 
BRANCH  71  72
ATOM     72  C   UNL     1      -6.110  -5.268   9.947  1.00  0.00     0.026 C 
BRANCH  72  73
ATOM     73  C   UNL     1      -6.690  -6.580   9.424  1.00  0.00     0.146 C 
BRANCH  73  74
ATOM     74  N   UNL     1      -6.816  -6.466   7.974  1.00  0.00    -0.254 NA
ATOM     75  C   UNL     1      -7.992  -6.540   7.468  1.00  0.00     0.185 C 
ATOM     76  N   UNL     1      -8.140  -6.437   6.137  1.00  0.00    -0.370 N 
ATOM     77  N   UNL     1      -9.170  -6.713   8.090  1.00  0.00    -0.370 N 
ATOM     78  H   UNL     1      -7.300  -6.312   5.591  1.00  0.00     0.159 HD
ATOM     79  H   UNL     1      -9.004  -6.629   5.660  1.00  0.00     0.159 HD
ATOM     80  H   UNL     1      -9.213  -6.802   9.094  1.00  0.00     0.159 HD
ATOM     81  H   UNL     1     -10.045  -6.640   7.596  1.00  0.00     0.159 HD
ENDBRANCH  73  74
ENDBRANCH  72  73
ENDBRANCH  71  72
ENDBRANCH  45  71
ENDBRANCH   3  45
TORSDOF 20
ENDMDL
MODEL 6
REMARK VINA RESULT:    -6.440      2.829      7.928
REMARK INTER + INTRA:         -25.874
REMARK INTER:                 -17.439
REMARK INTRA:                  -8.436
REMARK UNBOUND:                -7.386
REMARK SMILES CCCCCC(=O)N[C@H](CC(=O)O)C(=O)N[C@H]1C(=O)N[C@H](CCCN=C(N)N)C(=O)N[C@@H]2CC[C@H](O)N(C2=O)[C@@H](CC(C)C)C(=O)N(C)[C@@H](Cc2ccccc2)C(=O)N[C@H](C(C)C)C(=O)O[C@@H]1C
REMARK SMILES IDX 30 1 31 2 29 3 32 5 35 6 37 7 34 8 38 9 33 10 39 11 36 12
REMARK SMILES IDX 40 14 41 15 42 16 43 17 44 18 45 19 46 20 47 21 48 22 49 23
REMARK SMILES IDX 50 24 51 25 52 26 56 27 53 28 55 29 54 30 57 31 58 32 59 33
REMARK SMILES IDX 60 35 61 36 62 37 63 38 64 39 65 40 66 41 67 42 68 43 21 45
REMARK SMILES IDX 20 46 18 47 19 48 17 50 16 52 14 53 15 54 9 56 8 57 6 58
REMARK SMILES IDX 7 59 5 61 4 62 3 63 2 64 1 65 10 66 11 67 12 68 13 69 22 71
REMARK SMILES IDX 23 72 24 73 25 74 26 75 27 76 28 77
REMARK H PARENT 31 4 36 13 59 34 20 49 16 55 8 60 13 70 27 78 27 79 28 80
REMARK H PARENT 28 81
REMARK Flexibility Score:  259.900
ROOT
ATOM      1  O   UNL     1      -3.424  -6.492   8.591  1.00  0.00    -0.273 OA
ATOM      2  N   UNL     1      -5.294  -6.177   9.871  1.00  0.00    -0.343 N 
ATOM      3  C   UNL     1      -4.542  -5.994   8.730  1.00  0.00     0.243 C 
ATOM      4  H   UNL     1      -6.216  -5.764   9.944  1.00  0.00     0.164 HD
ENDROOT
BRANCH   2   5
ATOM      5  C   UNL     1      -4.737  -6.878  11.022  1.00  0.00     0.171 C 
ATOM      6  C   UNL     1      -5.942  -8.476  13.120  1.00  0.00     0.214 C 
ATOM      7  N   UNL     1      -5.774  -7.055  13.317  1.00  0.00    -0.303 N 
ATOM      8  C   UNL     1      -4.885  -9.087  12.215  1.00  0.00     0.057 C 
ATOM      9  C   UNL     1      -5.252  -6.226  12.337  1.00  0.00     0.247 C 
ATOM     10  C   UNL     1      -4.895  -8.391  10.871  1.00  0.00     0.040 C 
ATOM     11  O   UNL     1      -5.191  -4.998  12.481  1.00  0.00    -0.272 OA
BRANCH   6  12
ATOM     12  O   UNL     1      -7.229  -8.687  12.586  1.00  0.00    -0.373 OA
ATOM     13  H   UNL     1      -7.130  -8.746  11.612  1.00  0.00     0.213 HD
ENDBRANCH   6  12
BRANCH   7  14
ATOM     14  C   UNL     1      -6.320  -6.482  14.566  1.00  0.00     0.177 C 
BRANCH  14  15
ATOM     15  C   UNL     1      -5.349  -6.471  15.762  1.00  0.00     0.038 C 
BRANCH  15  16
ATOM     16  C   UNL     1      -5.718  -7.242  17.049  1.00  0.00    -0.015 C 
ATOM     17  C   UNL     1      -4.670  -8.295  17.420  1.00  0.00     0.007 C 
ATOM     18  C   UNL     1      -7.066  -7.950  16.861  1.00  0.00     0.007 C 
ENDBRANCH  15  16
ENDBRANCH  14  15
BRANCH  14  19
ATOM     19  C   UNL     1      -7.367  -5.363  14.238  1.00  0.00     0.245 C 
ATOM     20  O   UNL     1      -8.288  -5.669  13.461  1.00  0.00    -0.272 OA
BRANCH  19  21
ATOM     21  N   UNL     1      -7.257  -4.053  14.668  1.00  0.00    -0.332 N 
ATOM     22  C   UNL     1      -6.025  -3.401  15.077  1.00  0.00     0.147 C 
BRANCH  21  23
ATOM     23  C   UNL     1      -8.499  -3.235  14.734  1.00  0.00     0.178 C 
BRANCH  23  24
ATOM     24  C   UNL     1      -8.903  -2.786  16.153  1.00  0.00     0.070 C 
BRANCH  24  25
ATOM     25  C   UNL     1      -8.763  -3.803  17.262  1.00  0.00    -0.045 A 
ATOM     26  C   UNL     1      -9.611  -4.916  17.326  1.00  0.00     0.004 A 
ATOM     27  C   UNL     1      -7.779  -3.642  18.249  1.00  0.00     0.004 A 
ATOM     28  C   UNL     1      -9.486  -5.842  18.364  1.00  0.00     0.000 A 
ATOM     29  C   UNL     1      -7.655  -4.569  19.285  1.00  0.00     0.000 A 
ATOM     30  C   UNL     1      -8.510  -5.667  19.343  1.00  0.00     0.000 A 
ENDBRANCH  24  25
ENDBRANCH  23  24
BRANCH  23  31
ATOM     31  C   UNL     1      -8.545  -2.120  13.661  1.00  0.00     0.243 C 
ATOM     32  O   UNL     1      -9.180  -1.076  13.782  1.00  0.00    -0.273 OA
ATOM     33  N   UNL     1      -7.954  -2.482  12.462  1.00  0.00    -0.341 N 
ATOM     34  H   UNL     1      -7.444  -3.368  12.420  1.00  0.00     0.164 HD
BRANCH  33  35
ATOM     35  C   UNL     1      -7.984  -1.632  11.269  1.00  0.00     0.194 C 
BRANCH  35  36
ATOM     36  C   UNL     1      -9.070  -2.032  10.231  1.00  0.00     0.017 C 
ATOM     37  C   UNL     1     -10.247  -1.042  10.243  1.00  0.00     0.010 C 
ATOM     38  C   UNL     1      -9.646  -3.433  10.469  1.00  0.00     0.010 C 
ENDBRANCH  35  36
BRANCH  35  39
ATOM     39  C   UNL     1      -6.583  -1.475  10.612  1.00  0.00     0.329 C 
ATOM     40  O   UNL     1      -5.561  -1.208  11.232  1.00  0.00    -0.250 OA
BRANCH  39  41
ATOM     41  O   UNL     1      -6.603  -1.754   9.274  1.00  0.00    -0.458 OA
BRANCH  41  42
ATOM     42  C   UNL     1      -6.038  -0.747   8.401  1.00  0.00     0.205 CG0
ATOM     43  C   UNL     1      -7.100  -0.401   7.359  1.00  0.00     0.056 C 
ATOM     44  G   UNL     1      -4.751  -1.312   7.766  1.00  0.00     0.000 G0
ENDBRANCH  41  42
ENDBRANCH  39  41
ENDBRANCH  35  39
ENDBRANCH  33  35
ENDBRANCH  23  31
ENDBRANCH  21  23
ENDBRANCH  19  21
ENDBRANCH  14  19
ENDBRANCH   7  14
ENDBRANCH   2   5
BRANCH   3  45
ATOM     45  C   UNL     1      -5.204  -5.146   7.636  1.00  0.00     0.171 C 
BRANCH  45  46
ATOM     46  N   UNL     1      -5.011  -3.760   8.041  1.00  0.00    -0.342 N 
ATOM     47  C   UNL     1      -5.085  -2.716   7.154  1.00  0.00     0.247 C 
ATOM     48  O   UNL     1      -5.391  -2.865   5.970  1.00  0.00    -0.273 OA
ATOM     49  H   UNL     1      -4.811  -3.586   9.024  1.00  0.00     0.164 HD
BRANCH  47  50
ATOM     50  C   UNL     1      -4.730  -1.340   7.737  1.00  0.00     0.212 CG0
ATOM     51  G   UNL     1      -6.013  -0.750   8.355  1.00  0.00     0.000 G0
BRANCH  50  52
ATOM     52  N   UNL     1      -3.679  -1.593   8.719  1.00  0.00    -0.339 N 
ATOM     53  C   UNL     1      -2.364  -1.246   8.526  1.00  0.00     0.243 C 
ATOM     54  O   UNL     1      -1.960  -0.741   7.482  1.00  0.00    -0.273 OA
ATOM     55  H   UNL     1      -3.932  -2.110   9.559  1.00  0.00     0.164 HD
BRANCH  53  56
ATOM     56  C   UNL     1      -1.424  -1.691   9.664  1.00  0.00     0.182 C 
BRANCH  56  57
ATOM     57  N   UNL     1      -0.933  -3.054   9.438  1.00  0.00    -0.344 N 
ATOM     58  C   UNL     1       0.365  -3.421   9.698  1.00  0.00     0.220 C 
ATOM     59  O   UNL     1       1.220  -2.622  10.066  1.00  0.00    -0.275 OA
ATOM     60  H   UNL     1      -1.628  -3.766   9.232  1.00  0.00     0.164 HD
BRANCH  58  61
ATOM     61  C   UNL     1       0.636  -4.893   9.447  1.00  0.00     0.100 C 
BRANCH  61  62
ATOM     62  C   UNL     1       0.873  -5.702  10.722  1.00  0.00     0.010 C 
BRANCH  62  63
ATOM     63  C   UNL     1       0.218  -5.106  11.974  1.00  0.00     0.000 C 
BRANCH  63  64
ATOM     64  C   UNL     1      -0.289  -6.146  12.972  1.00  0.00    -0.003 C 
ATOM     65  C   UNL     1      -1.372  -7.022  12.358  1.00  0.00     0.004 C 
ENDBRANCH  63  64
ENDBRANCH  62  63
ENDBRANCH  61  62
ENDBRANCH  58  61
ENDBRANCH  56  57
BRANCH  56  66
ATOM     66  C   UNL     1      -2.087  -1.537  11.031  1.00  0.00     0.157 C 
BRANCH  66  67
ATOM     67  C   UNL     1      -2.531  -2.865  11.574  1.00  0.00     0.305 C 
ATOM     68  O   UNL     1      -2.173  -3.386  12.619  1.00  0.00    -0.252 OA
BRANCH  67  69
ATOM     69  O   UNL     1      -3.453  -3.455  10.790  1.00  0.00    -0.481 OA
ATOM     70  H   UNL     1      -4.297  -3.011  11.018  1.00  0.00     0.296 HD
ENDBRANCH  67  69
ENDBRANCH  66  67
ENDBRANCH  56  66
ENDBRANCH  53  56
ENDBRANCH  50  52
ENDBRANCH  47  50
ENDBRANCH  45  46
BRANCH  45  71
ATOM     71  C   UNL     1      -6.691  -5.497   7.514  1.00  0.00     0.037 C 
BRANCH  71  72
ATOM     72  C   UNL     1      -6.915  -6.786   6.720  1.00  0.00     0.026 C 
BRANCH  72  73
ATOM     73  C   UNL     1      -7.731  -7.801   7.518  1.00  0.00     0.146 C 
BRANCH  73  74
ATOM     74  N   UNL     1      -8.335  -7.100   8.647  1.00  0.00    -0.254 NA
ATOM     75  C   UNL     1      -8.505  -7.754   9.736  1.00  0.00     0.185 C 
ATOM     76  N   UNL     1      -9.057  -7.136  10.793  1.00  0.00    -0.370 N 
ATOM     77  N   UNL     1      -8.200  -9.035  10.010  1.00  0.00    -0.370 N 
ATOM     78  H   UNL     1      -9.323  -6.170  10.670  1.00  0.00     0.159 HD
ATOM     79  H   UNL     1      -9.352  -7.617  11.624  1.00  0.00     0.159 HD
ATOM     80  H   UNL     1      -7.774  -9.622   9.309  1.00  0.00     0.159 HD
ATOM     81  H   UNL     1      -8.274  -9.408  10.942  1.00  0.00     0.159 HD
ENDBRANCH  73  74
ENDBRANCH  72  73
ENDBRANCH  71  72
ENDBRANCH  45  71
ENDBRANCH   3  45
TORSDOF 20
ENDMDL
MODEL 7
REMARK VINA RESULT:    -6.401      2.201      3.760
REMARK INTER + INTRA:         -25.762
REMARK INTER:                 -18.267
REMARK INTRA:                  -7.495
REMARK UNBOUND:                -7.386
REMARK SMILES CCCCCC(=O)N[C@H](CC(=O)O)C(=O)N[C@H]1C(=O)N[C@H](CCCN=C(N)N)C(=O)N[C@@H]2CC[C@H](O)N(C2=O)[C@@H](CC(C)C)C(=O)N(C)[C@@H](Cc2ccccc2)C(=O)N[C@H](C(C)C)C(=O)O[C@@H]1C
REMARK SMILES IDX 30 1 31 2 29 3 32 5 35 6 37 7 34 8 38 9 33 10 39 11 36 12
REMARK SMILES IDX 40 14 41 15 42 16 43 17 44 18 45 19 46 20 47 21 48 22 49 23
REMARK SMILES IDX 50 24 51 25 52 26 56 27 53 28 55 29 54 30 57 31 58 32 59 33
REMARK SMILES IDX 60 35 61 36 62 37 63 38 64 39 65 40 66 41 67 42 68 43 21 45
REMARK SMILES IDX 20 46 18 47 19 48 17 50 16 52 14 53 15 54 9 56 8 57 6 58
REMARK SMILES IDX 7 59 5 61 4 62 3 63 2 64 1 65 10 66 11 67 12 68 13 69 22 71
REMARK SMILES IDX 23 72 24 73 25 74 26 75 27 76 28 77
REMARK H PARENT 31 4 36 13 59 34 20 49 16 55 8 60 13 70 27 78 27 79 28 80
REMARK H PARENT 28 81
REMARK Flexibility Score:  259.900
ROOT
ATOM      1  O   UNL     1     -10.167  -6.809   7.926  1.00  0.00    -0.273 OA
ATOM      2  N   UNL     1      -7.937  -6.365   8.169  1.00  0.00    -0.343 N 
ATOM      3  C   UNL     1      -9.232  -6.437   8.636  1.00  0.00     0.243 C 
ATOM      4  H   UNL     1      -7.190  -6.068   8.785  1.00  0.00     0.164 HD
ENDROOT
BRANCH   2   5
ATOM      5  C   UNL     1      -7.639  -6.616   6.763  1.00  0.00     0.171 C 
ATOM      6  C   UNL     1      -5.179  -6.537   5.232  1.00  0.00     0.214 C 
ATOM      7  N   UNL     1      -5.995  -5.349   5.327  1.00  0.00    -0.303 N 
ATOM      8  C   UNL     1      -5.982  -7.826   5.310  1.00  0.00     0.057 C 
ATOM      9  C   UNL     1      -7.155  -5.304   6.083  1.00  0.00     0.247 C 
ATOM     10  C   UNL     1      -6.769  -7.862   6.601  1.00  0.00     0.040 C 
ATOM     11  O   UNL     1      -7.802  -4.258   6.230  1.00  0.00    -0.272 OA
BRANCH   6  12
ATOM     12  O   UNL     1      -4.224  -6.488   6.266  1.00  0.00    -0.373 OA
ATOM     13  H   UNL     1      -4.389  -7.262   6.847  1.00  0.00     0.213 HD
ENDBRANCH   6  12
BRANCH   7  14
ATOM     14  C   UNL     1      -5.466  -4.120   4.698  1.00  0.00     0.177 C 
BRANCH  14  15
ATOM     15  C   UNL     1      -6.312  -3.559   3.540  1.00  0.00     0.038 C 
BRANCH  15  16
ATOM     16  C   UNL     1      -5.720  -3.520   2.113  1.00  0.00    -0.015 C 
ATOM     17  C   UNL     1      -4.215  -3.805   2.098  1.00  0.00     0.007 C 
ATOM     18  C   UNL     1      -5.953  -2.137   1.492  1.00  0.00     0.007 C 
ENDBRANCH  15  16
ENDBRANCH  14  15
BRANCH  14  19
ATOM     19  C   UNL     1      -4.691  -3.260   5.755  1.00  0.00     0.245 C 
ATOM     20  O   UNL     1      -3.589  -3.695   6.131  1.00  0.00    -0.272 OA
BRANCH  19  21
ATOM     21  N   UNL     1      -5.210  -2.128   6.358  1.00  0.00    -0.332 N 
ATOM     22  C   UNL     1      -5.817  -1.007   5.664  1.00  0.00     0.147 C 
BRANCH  21  23
ATOM     23  C   UNL     1      -5.136  -2.035   7.843  1.00  0.00     0.178 C 
BRANCH  23  24
ATOM     24  C   UNL     1      -4.207  -0.923   8.374  1.00  0.00     0.070 C 
BRANCH  24  25
ATOM     25  C   UNL     1      -2.929  -1.360   9.051  1.00  0.00    -0.045 A 
ATOM     26  C   UNL     1      -2.504  -2.693   8.991  1.00  0.00     0.004 A 
ATOM     27  C   UNL     1      -2.149  -0.431   9.756  1.00  0.00     0.004 A 
ATOM     28  C   UNL     1      -1.330  -3.092   9.634  1.00  0.00     0.000 A 
ATOM     29  C   UNL     1      -0.975  -0.830  10.396  1.00  0.00     0.000 A 
ATOM     30  C   UNL     1      -0.568  -2.162  10.337  1.00  0.00     0.000 A 
ENDBRANCH  24  25
ENDBRANCH  23  24
BRANCH  23  31
ATOM     31  C   UNL     1      -6.524  -2.104   8.522  1.00  0.00     0.243 C 
ATOM     32  O   UNL     1      -7.257  -3.089   8.488  1.00  0.00    -0.273 OA
ATOM     33  N   UNL     1      -6.957  -0.887   9.021  1.00  0.00    -0.341 N 
ATOM     34  H   UNL     1      -6.303  -0.100   9.016  1.00  0.00     0.164 HD
BRANCH  33  35
ATOM     35  C   UNL     1      -8.289  -0.689   9.599  1.00  0.00     0.194 C 
BRANCH  35  36
ATOM     36  C   UNL     1      -9.031   0.570   9.069  1.00  0.00     0.017 C 
ATOM     37  C   UNL     1      -8.865   0.717   7.547  1.00  0.00     0.010 C 
ATOM     38  C   UNL     1      -8.544   1.874   9.712  1.00  0.00     0.010 C 
ENDBRANCH  35  36
BRANCH  35  39
ATOM     39  C   UNL     1      -8.280  -0.746  11.152  1.00  0.00     0.329 C 
ATOM     40  O   UNL     1      -9.217  -0.390  11.857  1.00  0.00    -0.250 OA
BRANCH  39  41
ATOM     41  O   UNL     1      -7.142  -1.322  11.645  1.00  0.00    -0.458 OA
BRANCH  41  42
ATOM     42  C   UNL     1      -7.327  -2.434  12.553  1.00  0.00     0.205 CG0
ATOM     43  C   UNL     1      -6.527  -2.128  13.817  1.00  0.00     0.056 C 
ATOM     44  G   UNL     1      -6.853  -3.724  11.853  1.00  0.00     0.000 G0
ENDBRANCH  41  42
ENDBRANCH  39  41
ENDBRANCH  35  39
ENDBRANCH  33  35
ENDBRANCH  23  31
ENDBRANCH  21  23
ENDBRANCH  19  21
ENDBRANCH  14  19
ENDBRANCH   7  14
ENDBRANCH   2   5
BRANCH   3  45
ATOM     45  C   UNL     1      -9.423  -6.042  10.106  1.00  0.00     0.171 C 
BRANCH  45  46
ATOM     46  N   UNL     1      -8.255  -5.244  10.455  1.00  0.00    -0.342 N 
ATOM     47  C   UNL     1      -8.109  -4.651  11.684  1.00  0.00     0.247 C 
ATOM     48  O   UNL     1      -8.914  -4.810  12.602  1.00  0.00    -0.273 OA
ATOM     49  H   UNL     1      -7.537  -5.133   9.742  1.00  0.00     0.164 HD
BRANCH  47  50
ATOM     50  C   UNL     1      -6.876  -3.747  11.827  1.00  0.00     0.212 CG0
ATOM     51  G   UNL     1      -7.317  -2.471  12.571  1.00  0.00     0.000 G0
BRANCH  50  52
ATOM     52  N   UNL     1      -5.897  -4.538  12.568  1.00  0.00    -0.339 N 
ATOM     53  C   UNL     1      -4.762  -5.061  11.999  1.00  0.00     0.243 C 
ATOM     54  O   UNL     1      -4.508  -4.947  10.802  1.00  0.00    -0.273 OA
ATOM     55  H   UNL     1      -6.107  -4.761  13.539  1.00  0.00     0.164 HD
BRANCH  53  56
ATOM     56  C   UNL     1      -3.924  -5.932  12.956  1.00  0.00     0.182 C 
BRANCH  56  57
ATOM     57  N   UNL     1      -4.565  -6.036  14.271  1.00  0.00    -0.344 N 
ATOM     58  C   UNL     1      -5.101  -7.212  14.738  1.00  0.00     0.220 C 
ATOM     59  O   UNL     1      -5.146  -8.234  14.063  1.00  0.00    -0.275 OA
ATOM     60  H   UNL     1      -4.459  -5.244  14.899  1.00  0.00     0.164 HD
BRANCH  58  61
ATOM     61  C   UNL     1      -5.659  -7.101  16.144  1.00  0.00     0.100 C 
BRANCH  61  62
ATOM     62  C   UNL     1      -7.082  -7.642  16.287  1.00  0.00     0.010 C 
BRANCH  62  63
ATOM     63  C   UNL     1      -8.168  -6.700  15.753  1.00  0.00     0.000 C 
BRANCH  63  64
ATOM     64  C   UNL     1      -9.596  -7.184  16.002  1.00  0.00    -0.003 C 
ATOM     65  C   UNL     1     -10.533  -6.750  14.885  1.00  0.00     0.004 C 
ENDBRANCH  63  64
ENDBRANCH  62  63
ENDBRANCH  61  62
ENDBRANCH  58  61
ENDBRANCH  56  57
BRANCH  56  66
ATOM     66  C   UNL     1      -2.484  -5.431  13.055  1.00  0.00     0.157 C 
BRANCH  66  67
ATOM     67  C   UNL     1      -1.508  -6.496  12.644  1.00  0.00     0.305 C 
ATOM     68  O   UNL     1      -0.350  -6.610  13.014  1.00  0.00    -0.252 OA
BRANCH  67  69
ATOM     69  O   UNL     1      -2.060  -7.404  11.817  1.00  0.00    -0.481 OA
ATOM     70  H   UNL     1      -2.332  -6.891  11.027  1.00  0.00     0.296 HD
ENDBRANCH  67  69
ENDBRANCH  66  67
ENDBRANCH  56  66
ENDBRANCH  53  56
ENDBRANCH  50  52
ENDBRANCH  47  50
ENDBRANCH  45  46
BRANCH  45  71
ATOM     71  C   UNL     1      -9.536  -7.293  10.984  1.00  0.00     0.037 C 
BRANCH  71  72
ATOM     72  C   UNL     1      -8.651  -8.435  10.476  1.00  0.00     0.026 C 
BRANCH  72  73
ATOM     73  C   UNL     1      -7.273  -8.411  11.132  1.00  0.00     0.146 C 
BRANCH  73  74
ATOM     74  N   UNL     1      -6.321  -7.891  10.155  1.00  0.00    -0.254 NA
ATOM     75  C   UNL     1      -5.095  -8.248  10.263  1.00  0.00     0.185 C 
ATOM     76  N   UNL     1      -4.196  -7.787   9.378  1.00  0.00    -0.370 N 
ATOM     77  N   UNL     1      -4.529  -9.059  11.174  1.00  0.00    -0.370 N 
ATOM     78  H   UNL     1      -4.539  -7.163   8.662  1.00  0.00     0.159 HD
ATOM     79  H   UNL     1      -3.204  -7.905   9.484  1.00  0.00     0.159 HD
ATOM     80  H   UNL     1      -5.086  -9.483  11.901  1.00  0.00     0.159 HD
ATOM     81  H   UNL     1      -3.572  -9.360  11.091  1.00  0.00     0.159 HD
ENDBRANCH  73  74
ENDBRANCH  72  73
ENDBRANCH  71  72
ENDBRANCH  45  71
ENDBRANCH   3  45
TORSDOF 20
ENDMDL
MODEL 8
REMARK VINA RESULT:    -6.395      2.441      8.411
REMARK INTER + INTRA:         -25.744
REMARK INTER:                 -18.712
REMARK INTRA:                  -7.031
REMARK UNBOUND:                -7.386
REMARK SMILES CCCCCC(=O)N[C@H](CC(=O)O)C(=O)N[C@H]1C(=O)N[C@H](CCCN=C(N)N)C(=O)N[C@@H]2CC[C@H](O)N(C2=O)[C@@H](CC(C)C)C(=O)N(C)[C@@H](Cc2ccccc2)C(=O)N[C@H](C(C)C)C(=O)O[C@@H]1C
REMARK SMILES IDX 30 1 31 2 29 3 32 5 35 6 37 7 34 8 38 9 33 10 39 11 36 12
REMARK SMILES IDX 40 14 41 15 42 16 43 17 44 18 45 19 46 20 47 21 48 22 49 23
REMARK SMILES IDX 50 24 51 25 52 26 56 27 53 28 55 29 54 30 57 31 58 32 59 33
REMARK SMILES IDX 60 35 61 36 62 37 63 38 64 39 65 40 66 41 67 42 68 43 21 45
REMARK SMILES IDX 20 46 18 47 19 48 17 50 16 52 14 53 15 54 9 56 8 57 6 58
REMARK SMILES IDX 7 59 5 61 4 62 3 63 2 64 1 65 10 66 11 67 12 68 13 69 22 71
REMARK SMILES IDX 23 72 24 73 25 74 26 75 27 76 28 77
REMARK H PARENT 31 4 36 13 59 34 20 49 16 55 8 60 13 70 27 78 27 79 28 80
REMARK H PARENT 28 81
REMARK Flexibility Score:  259.900
ROOT
ATOM      1  O   UNL     1      -9.065  -4.482   6.185  1.00  0.00    -0.273 OA
ATOM      2  N   UNL     1      -7.537  -3.232   7.339  1.00  0.00    -0.343 N 
ATOM      3  C   UNL     1      -7.912  -4.325   6.588  1.00  0.00     0.243 C 
ATOM      4  H   UNL     1      -6.577  -3.128   7.641  1.00  0.00     0.164 HD
ENDROOT
BRANCH   2   5
ATOM      5  C   UNL     1      -8.532  -2.266   7.792  1.00  0.00     0.171 C 
ATOM      6  C   UNL     1      -8.521  -0.277   9.902  1.00  0.00     0.214 C 
ATOM      7  N   UNL     1      -9.006  -1.608  10.183  1.00  0.00    -0.303 N 
ATOM      8  C   UNL     1      -8.738   0.150   8.459  1.00  0.00     0.057 C 
ATOM      9  C   UNL     1      -8.992  -2.619   9.236  1.00  0.00     0.247 C 
ATOM     10  C   UNL     1      -8.068  -0.835   7.526  1.00  0.00     0.040 C 
ATOM     11  O   UNL     1      -9.328  -3.779   9.509  1.00  0.00    -0.272 OA
BRANCH   6  12
ATOM     12  O   UNL     1      -7.151  -0.241  10.225  1.00  0.00    -0.373 OA
ATOM     13  H   UNL     1      -6.882  -1.160  10.440  1.00  0.00     0.213 HD
ENDBRANCH   6  12
BRANCH   7  14
ATOM     14  C   UNL     1      -9.390  -1.900  11.580  1.00  0.00     0.177 C 
BRANCH  14  15
ATOM     15  C   UNL     1     -10.891  -1.745  11.895  1.00  0.00     0.038 C 
BRANCH  15  16
ATOM     16  C   UNL     1     -11.334  -0.825  13.053  1.00  0.00    -0.015 C 
ATOM     17  C   UNL     1     -10.405   0.380  13.231  1.00  0.00     0.007 C 
ATOM     18  C   UNL     1     -11.350  -1.616  14.367  1.00  0.00     0.007 C 
ENDBRANCH  15  16
ENDBRANCH  14  15
BRANCH  14  19
ATOM     19  C   UNL     1      -8.445  -2.995  12.186  1.00  0.00     0.245 C 
ATOM     20  O   UNL     1      -7.238  -2.909  11.904  1.00  0.00    -0.272 OA
BRANCH  19  21
ATOM     21  N   UNL     1      -8.893  -4.088  12.906  1.00  0.00    -0.332 N 
ATOM     22  C   UNL     1     -10.006  -4.943  12.535  1.00  0.00     0.147 C 
BRANCH  21  23
ATOM     23  C   UNL     1      -8.191  -4.419  14.176  1.00  0.00     0.178 C 
BRANCH  23  24
ATOM     24  C   UNL     1      -8.671  -3.622  15.406  1.00  0.00     0.070 C 
BRANCH  24  25
ATOM     25  C   UNL     1      -7.701  -2.630  16.005  1.00  0.00    -0.045 A 
ATOM     26  C   UNL     1      -7.733  -2.331  17.373  1.00  0.00     0.004 A 
ATOM     27  C   UNL     1      -6.755  -1.987  15.192  1.00  0.00     0.004 A 
ATOM     28  C   UNL     1      -6.845  -1.399  17.915  1.00  0.00     0.000 A 
ATOM     29  C   UNL     1      -5.867  -1.058  15.735  1.00  0.00     0.000 A 
ATOM     30  C   UNL     1      -5.915  -0.762  17.096  1.00  0.00     0.000 A 
ENDBRANCH  24  25
ENDBRANCH  23  24
BRANCH  23  31
ATOM     31  C   UNL     1      -8.042  -5.942  14.404  1.00  0.00     0.243 C 
ATOM     32  O   UNL     1      -8.476  -6.535  15.389  1.00  0.00    -0.273 OA
ATOM     33  N   UNL     1      -7.210  -6.561  13.486  1.00  0.00    -0.341 N 
ATOM     34  H   UNL     1      -6.874  -6.013  12.690  1.00  0.00     0.164 HD
BRANCH  33  35
ATOM     35  C   UNL     1      -6.830  -7.973  13.577  1.00  0.00     0.194 C 
BRANCH  35  36
ATOM     36  C   UNL     1      -5.538  -8.231  14.403  1.00  0.00     0.017 C 
ATOM     37  C   UNL     1      -5.867  -8.828  15.783  1.00  0.00     0.010 C 
ATOM     38  C   UNL     1      -4.707  -6.964  14.637  1.00  0.00     0.010 C 
ENDBRANCH  35  36
BRANCH  35  39
ATOM     39  C   UNL     1      -6.780  -8.669  12.188  1.00  0.00     0.329 C 
ATOM     40  O   UNL     1      -7.681  -9.365  11.736  1.00  0.00    -0.250 OA
BRANCH  39  41
ATOM     41  O   UNL     1      -5.651  -8.347  11.486  1.00  0.00    -0.458 OA
BRANCH  41  42
ATOM     42  C   UNL     1      -5.818  -8.142  10.063  1.00  0.00     0.205 CG0
ATOM     43  C   UNL     1      -4.536  -8.619   9.382  1.00  0.00     0.056 C 
ATOM     44  G   UNL     1      -6.098  -6.647   9.811  1.00  0.00     0.000 G0
ENDBRANCH  41  42
ENDBRANCH  39  41
ENDBRANCH  35  39
ENDBRANCH  33  35
ENDBRANCH  23  31
ENDBRANCH  21  23
ENDBRANCH  19  21
ENDBRANCH  14  19
ENDBRANCH   7  14
ENDBRANCH   2   5
BRANCH   3  45
ATOM     45  C   UNL     1      -6.789  -5.321   6.271  1.00  0.00     0.171 C 
BRANCH  45  46
ATOM     46  N   UNL     1      -6.193  -5.664   7.556  1.00  0.00    -0.342 N 
ATOM     47  C   UNL     1      -6.816  -6.486   8.460  1.00  0.00     0.247 C 
ATOM     48  O   UNL     1      -7.886  -7.050   8.225  1.00  0.00    -0.273 OA
ATOM     49  H   UNL     1      -5.281  -5.264   7.768  1.00  0.00     0.164 HD
BRANCH  47  50
ATOM     50  C   UNL     1      -6.096  -6.634   9.808  1.00  0.00     0.212 CG0
ATOM     51  G   UNL     1      -5.840  -8.137  10.039  1.00  0.00     0.000 G0
BRANCH  50  52
ATOM     52  N   UNL     1      -4.869  -5.852   9.682  1.00  0.00    -0.339 N 
ATOM     53  C   UNL     1      -4.340  -5.106  10.707  1.00  0.00     0.243 C 
ATOM     54  O   UNL     1      -4.890  -4.996  11.799  1.00  0.00    -0.273 OA
ATOM     55  H   UNL     1      -4.425  -5.813   8.767  1.00  0.00     0.164 HD
BRANCH  53  56
ATOM     56  C   UNL     1      -3.087  -4.298  10.312  1.00  0.00     0.182 C 
BRANCH  56  57
ATOM     57  N   UNL     1      -3.456  -3.071   9.598  1.00  0.00    -0.344 N 
ATOM     58  C   UNL     1      -3.341  -1.826  10.167  1.00  0.00     0.220 C 
ATOM     59  O   UNL     1      -2.993  -1.657  11.330  1.00  0.00    -0.275 OA
ATOM     60  H   UNL     1      -3.650  -3.157   8.604  1.00  0.00     0.164 HD
BRANCH  58  61
ATOM     61  C   UNL     1      -3.723  -0.698   9.226  1.00  0.00     0.100 C 
BRANCH  61  62
ATOM     62  C   UNL     1      -4.486  -1.162   7.985  1.00  0.00     0.010 C 
BRANCH  62  63
ATOM     63  C   UNL     1      -4.539  -0.124   6.857  1.00  0.00     0.000 C 
BRANCH  63  64
ATOM     64  C   UNL     1      -4.925  -0.698   5.495  1.00  0.00    -0.003 C 
ATOM     65  C   UNL     1      -6.123   0.031   4.904  1.00  0.00     0.004 C 
ENDBRANCH  63  64
ENDBRANCH  62  63
ENDBRANCH  61  62
ENDBRANCH  58  61
ENDBRANCH  56  57
BRANCH  56  66
ATOM     66  C   UNL     1      -2.097  -5.150   9.521  1.00  0.00     0.157 C 
BRANCH  66  67
ATOM     67  C   UNL     1      -2.251  -4.932   8.043  1.00  0.00     0.305 C 
ATOM     68  O   UNL     1      -2.963  -5.566   7.279  1.00  0.00    -0.252 OA
BRANCH  67  69
ATOM     69  O   UNL     1      -1.533  -3.881   7.603  1.00  0.00    -0.481 OA
ATOM     70  H   UNL     1      -0.746  -3.853   8.187  1.00  0.00     0.296 HD
ENDBRANCH  67  69
ENDBRANCH  66  67
ENDBRANCH  56  66
ENDBRANCH  53  56
ENDBRANCH  50  52
ENDBRANCH  47  50
ENDBRANCH  45  46
BRANCH  45  71
ATOM     71  C   UNL     1      -5.764  -4.686   5.324  1.00  0.00     0.037 C 
BRANCH  71  72
ATOM     72  C   UNL     1      -6.261  -4.653   3.877  1.00  0.00     0.026 C 
BRANCH  72  73
ATOM     73  C   UNL     1      -5.989  -3.300   3.222  1.00  0.00     0.146 C 
BRANCH  73  74
ATOM     74  N   UNL     1      -5.773  -3.530   1.796  1.00  0.00    -0.254 NA
ATOM     75  C   UNL     1      -5.708  -2.506   1.028  1.00  0.00     0.185 C 
ATOM     76  N   UNL     1      -5.509  -2.684  -0.288  1.00  0.00    -0.370 N 
ATOM     77  N   UNL     1      -5.812  -1.203   1.345  1.00  0.00    -0.370 N 
ATOM     78  H   UNL     1      -5.427  -3.637  -0.613  1.00  0.00     0.159 HD
ATOM     79  H   UNL     1      -5.591  -1.947  -0.965  1.00  0.00     0.159 HD
ATOM     80  H   UNL     1      -5.959  -0.918   2.302  1.00  0.00     0.159 HD
ATOM     81  H   UNL     1      -5.628  -0.479   0.671  1.00  0.00     0.159 HD
ENDBRANCH  73  74
ENDBRANCH  72  73
ENDBRANCH  71  72
ENDBRANCH  45  71
ENDBRANCH   3  45
TORSDOF 20
ENDMDL
MODEL 9
REMARK VINA RESULT:    -6.379      2.050      3.623
REMARK INTER + INTRA:         -25.698
REMARK INTER:                 -19.213
REMARK INTRA:                  -6.486
REMARK UNBOUND:                -7.386
REMARK SMILES CCCCCC(=O)N[C@H](CC(=O)O)C(=O)N[C@H]1C(=O)N[C@H](CCCN=C(N)N)C(=O)N[C@@H]2CC[C@H](O)N(C2=O)[C@@H](CC(C)C)C(=O)N(C)[C@@H](Cc2ccccc2)C(=O)N[C@H](C(C)C)C(=O)O[C@@H]1C
REMARK SMILES IDX 30 1 31 2 29 3 32 5 35 6 37 7 34 8 38 9 33 10 39 11 36 12
REMARK SMILES IDX 40 14 41 15 42 16 43 17 44 18 45 19 46 20 47 21 48 22 49 23
REMARK SMILES IDX 50 24 51 25 52 26 56 27 53 28 55 29 54 30 57 31 58 32 59 33
REMARK SMILES IDX 60 35 61 36 62 37 63 38 64 39 65 40 66 41 67 42 68 43 21 45
REMARK SMILES IDX 20 46 18 47 19 48 17 50 16 52 14 53 15 54 9 56 8 57 6 58
REMARK SMILES IDX 7 59 5 61 4 62 3 63 2 64 1 65 10 66 11 67 12 68 13 69 22 71
REMARK SMILES IDX 23 72 24 73 25 74 26 75 27 76 28 77
REMARK H PARENT 31 4 36 13 59 34 20 49 16 55 8 60 13 70 27 78 27 79 28 80
REMARK H PARENT 28 81
REMARK Flexibility Score:  259.900
ROOT
ATOM      1  O   UNL     1      -9.689  -6.440   8.205  1.00  0.00    -0.273 OA
ATOM      2  N   UNL     1      -7.504  -7.109   8.304  1.00  0.00    -0.343 N 
ATOM      3  C   UNL     1      -8.733  -6.843   8.868  1.00  0.00     0.243 C 
ATOM      4  H   UNL     1      -6.745  -7.453   8.878  1.00  0.00     0.164 HD
ENDROOT
BRANCH   2   5
ATOM      5  C   UNL     1      -7.251  -6.805   6.900  1.00  0.00     0.171 C 
ATOM      6  C   UNL     1      -4.849  -6.874   5.277  1.00  0.00     0.214 C 
ATOM      7  N   UNL     1      -5.213  -5.652   5.957  1.00  0.00    -0.303 N 
ATOM      8  C   UNL     1      -6.047  -7.728   4.894  1.00  0.00     0.057 C 
ATOM      9  C   UNL     1      -6.318  -5.565   6.788  1.00  0.00     0.247 C 
ATOM     10  C   UNL     1      -6.854  -8.063   6.129  1.00  0.00     0.040 C 
ATOM     11  O   UNL     1      -6.574  -4.541   7.435  1.00  0.00    -0.272 OA
BRANCH   6  12
ATOM     12  O   UNL     1      -3.981  -7.594   6.120  1.00  0.00    -0.373 OA
ATOM     13  H   UNL     1      -4.309  -7.478   7.038  1.00  0.00     0.213 HD
ENDBRANCH   6  12
BRANCH   7  14
ATOM     14  C   UNL     1      -4.268  -4.520   5.851  1.00  0.00     0.177 C 
BRANCH  14  15
ATOM     15  C   UNL     1      -4.666  -3.426   4.841  1.00  0.00     0.038 C 
BRANCH  15  16
ATOM     16  C   UNL     1      -5.992  -3.558   4.059  1.00  0.00    -0.015 C 
ATOM     17  C   UNL     1      -5.879  -4.526   2.877  1.00  0.00     0.007 C 
ATOM     18  C   UNL     1      -6.414  -2.186   3.518  1.00  0.00     0.007 C 
ENDBRANCH  15  16
ENDBRANCH  14  15
BRANCH  14  19
ATOM     19  C   UNL     1      -3.564  -4.268   7.229  1.00  0.00     0.245 C 
ATOM     20  O   UNL     1      -3.649  -5.175   8.074  1.00  0.00    -0.272 OA
BRANCH  19  21
ATOM     21  N   UNL     1      -2.965  -3.072   7.582  1.00  0.00    -0.332 N 
ATOM     22  C   UNL     1      -1.677  -2.602   7.104  1.00  0.00     0.147 C 
BRANCH  21  23
ATOM     23  C   UNL     1      -3.685  -2.189   8.540  1.00  0.00     0.178 C 
BRANCH  23  24
ATOM     24  C   UNL     1      -2.785  -1.200   9.308  1.00  0.00     0.070 C 
BRANCH  24  25
ATOM     25  C   UNL     1      -2.064  -1.728  10.526  1.00  0.00    -0.045 A 
ATOM     26  C   UNL     1      -0.844  -1.174  10.934  1.00  0.00     0.004 A 
ATOM     27  C   UNL     1      -2.607  -2.791  11.264  1.00  0.00     0.004 A 
ATOM     28  C   UNL     1      -0.175  -1.680  12.051  1.00  0.00     0.000 A 
ATOM     29  C   UNL     1      -1.938  -3.295  12.380  1.00  0.00     0.000 A 
ATOM     30  C   UNL     1      -0.721  -2.740  12.771  1.00  0.00     0.000 A 
ENDBRANCH  24  25
ENDBRANCH  23  24
BRANCH  23  31
ATOM     31  C   UNL     1      -4.971  -1.570   7.940  1.00  0.00     0.243 C 
ATOM     32  O   UNL     1      -4.976  -0.751   7.024  1.00  0.00    -0.273 OA
ATOM     33  N   UNL     1      -6.117  -1.879   8.652  1.00  0.00    -0.341 N 
ATOM     34  H   UNL     1      -6.049  -2.563   9.409  1.00  0.00     0.164 HD
BRANCH  33  35
ATOM     35  C   UNL     1      -7.430  -1.308   8.338  1.00  0.00     0.194 C 
BRANCH  35  36
ATOM     36  C   UNL     1      -7.558   0.207   8.660  1.00  0.00     0.017 C 
ATOM     37  C   UNL     1      -6.997   0.531  10.056  1.00  0.00     0.010 C 
ATOM     38  C   UNL     1      -9.004   0.715   8.617  1.00  0.00     0.010 C 
ENDBRANCH  35  36
BRANCH  35  39
ATOM     39  C   UNL     1      -8.600  -2.131   8.946  1.00  0.00     0.329 C 
ATOM     40  O   UNL     1      -9.575  -2.513   8.309  1.00  0.00    -0.250 OA
BRANCH  39  41
ATOM     41  O   UNL     1      -8.380  -2.458  10.256  1.00  0.00    -0.458 OA
BRANCH  41  42
ATOM     42  C   UNL     1      -9.558  -2.690  11.065  1.00  0.00     0.205 CG0
ATOM     43  C   UNL     1      -9.990  -1.341  11.635  1.00  0.00     0.056 C 
ATOM     44  G   UNL     1      -9.205  -3.710  12.166  1.00  0.00     0.000 G0
ENDBRANCH  41  42
ENDBRANCH  39  41
ENDBRANCH  35  39
ENDBRANCH  33  35
ENDBRANCH  23  31
ENDBRANCH  21  23
ENDBRANCH  19  21
ENDBRANCH  14  19
ENDBRANCH   7  14
ENDBRANCH   2   5
BRANCH   3  45
ATOM     45  C   UNL     1      -8.834  -7.106  10.377  1.00  0.00     0.171 C 
BRANCH  45  46
ATOM     46  N   UNL     1      -8.592  -5.819  11.017  1.00  0.00    -0.342 N 
ATOM     47  C   UNL     1      -9.587  -5.109  11.642  1.00  0.00     0.247 C 
ATOM     48  O   UNL     1     -10.734  -5.538  11.770  1.00  0.00    -0.273 OA
ATOM     49  H   UNL     1      -7.643  -5.453  10.983  1.00  0.00     0.164 HD
BRANCH  47  50
ATOM     50  C   UNL     1      -9.174  -3.721  12.149  1.00  0.00     0.212 CG0
ATOM     51  G   UNL     1      -9.581  -2.691  11.076  1.00  0.00     0.000 G0
BRANCH  50  52
ATOM     52  N   UNL     1      -9.878  -3.543  13.416  1.00  0.00    -0.339 N 
ATOM     53  C   UNL     1      -9.362  -3.932  14.629  1.00  0.00     0.243 C 
ATOM     54  O   UNL     1      -8.284  -4.510  14.734  1.00  0.00    -0.273 OA
ATOM     55  H   UNL     1     -10.825  -3.171  13.383  1.00  0.00     0.164 HD
BRANCH  53  56
ATOM     56  C   UNL     1     -10.324  -3.722  15.816  1.00  0.00     0.182 C 
BRANCH  56  57
ATOM     57  N   UNL     1     -10.164  -4.783  16.816  1.00  0.00    -0.344 N 
ATOM     58  C   UNL     1      -9.251  -4.698  17.839  1.00  0.00     0.220 C 
ATOM     59  O   UNL     1      -8.458  -3.768  17.945  1.00  0.00    -0.275 OA
ATOM     60  H   UNL     1     -10.865  -5.518  16.824  1.00  0.00     0.164 HD
BRANCH  58  61
ATOM     61  C   UNL     1      -9.299  -5.881  18.788  1.00  0.00     0.100 C 
BRANCH  61  62
ATOM     62  C   UNL     1      -8.233  -5.837  19.883  1.00  0.00     0.010 C 
BRANCH  62  63
ATOM     63  C   UNL     1      -7.749  -7.218  20.344  1.00  0.00     0.000 C 
BRANCH  63  64
ATOM     64  C   UNL     1      -7.582  -7.351  21.856  1.00  0.00    -0.003 C 
ATOM     65  C   UNL     1      -6.138  -7.655  22.230  1.00  0.00     0.004 C 
ENDBRANCH  63  64
ENDBRANCH  62  63
ENDBRANCH  61  62
ENDBRANCH  58  61
ENDBRANCH  56  57
BRANCH  56  66
ATOM     66  C   UNL     1     -11.771  -3.586  15.347  1.00  0.00     0.157 C 
BRANCH  66  67
ATOM     67  C   UNL     1     -12.447  -4.924  15.271  1.00  0.00     0.305 C 
ATOM     68  O   UNL     1     -12.936  -5.552  16.198  1.00  0.00    -0.252 OA
BRANCH  67  69
ATOM     69  O   UNL     1     -12.521  -5.390  14.010  1.00  0.00    -0.481 OA
ATOM     70  H   UNL     1     -13.420  -5.145  13.705  1.00  0.00     0.296 HD
ENDBRANCH  67  69
ENDBRANCH  66  67
ENDBRANCH  56  66
ENDBRANCH  53  56
ENDBRANCH  50  52
ENDBRANCH  47  50
ENDBRANCH  45  46
BRANCH  45  71
ATOM     71  C   UNL     1      -7.802  -8.154  10.806  1.00  0.00     0.037 C 
BRANCH  71  72
ATOM     72  C   UNL     1      -7.271  -7.894  12.218  1.00  0.00     0.026 C 
BRANCH  72  73
ATOM     73  C   UNL     1      -5.840  -7.360  12.189  1.00  0.00     0.146 C 
BRANCH  73  74
ATOM     74  N   UNL     1      -5.464  -7.163  10.793  1.00  0.00    -0.254 NA
ATOM     75  C   UNL     1      -4.628  -7.986  10.276  1.00  0.00     0.185 C 
ATOM     76  N   UNL     1      -4.264  -7.832   8.993  1.00  0.00    -0.370 N 
ATOM     77  N   UNL     1      -4.020  -9.042  10.845  1.00  0.00    -0.370 N 
ATOM     78  H   UNL     1      -4.670  -7.055   8.492  1.00  0.00     0.159 HD
ATOM     79  H   UNL     1      -3.512  -8.343   8.566  1.00  0.00     0.159 HD
ATOM     80  H   UNL     1      -4.202  -9.281  11.808  1.00  0.00     0.159 HD
ATOM     81  H   UNL     1      -3.468  -9.687  10.305  1.00  0.00     0.159 HD
ENDBRANCH  73  74
ENDBRANCH  72  73
ENDBRANCH  71  72
ENDBRANCH  45  71
ENDBRANCH   3  45
TORSDOF 20
ENDMDL
MODEL 10
REMARK VINA RESULT:    -6.353      2.882      9.953
REMARK INTER + INTRA:         -25.624
REMARK INTER:                 -18.173
REMARK INTRA:                  -7.451
REMARK UNBOUND:                -7.386
REMARK SMILES CCCCCC(=O)N[C@H](CC(=O)O)C(=O)N[C@H]1C(=O)N[C@H](CCCN=C(N)N)C(=O)N[C@@H]2CC[C@H](O)N(C2=O)[C@@H](CC(C)C)C(=O)N(C)[C@@H](Cc2ccccc2)C(=O)N[C@H](C(C)C)C(=O)O[C@@H]1C
REMARK SMILES IDX 30 1 31 2 29 3 32 5 35 6 37 7 34 8 38 9 33 10 39 11 36 12
REMARK SMILES IDX 40 14 41 15 42 16 43 17 44 18 45 19 46 20 47 21 48 22 49 23
REMARK SMILES IDX 50 24 51 25 52 26 56 27 53 28 55 29 54 30 57 31 58 32 59 33
REMARK SMILES IDX 60 35 61 36 62 37 63 38 64 39 65 40 66 41 67 42 68 43 21 45
REMARK SMILES IDX 20 46 18 47 19 48 17 50 16 52 14 53 15 54 9 56 8 57 6 58
REMARK SMILES IDX 7 59 5 61 4 62 3 63 2 64 1 65 10 66 11 67 12 68 13 69 22 71
REMARK SMILES IDX 23 72 24 73 25 74 26 75 27 76 28 77
REMARK H PARENT 31 4 36 13 59 34 20 49 16 55 8 60 13 70 27 78 27 79 28 80
REMARK H PARENT 28 81
REMARK Flexibility Score:  259.900
ROOT
ATOM      1  O   UNL     1      -8.466  -2.904   7.517  1.00  0.00    -0.273 OA
ATOM      2  N   UNL     1      -8.189  -1.698   9.440  1.00  0.00    -0.343 N 
ATOM      3  C   UNL     1      -7.981  -1.933   8.098  1.00  0.00     0.243 C 
ATOM      4  H   UNL     1      -7.786  -0.880   9.881  1.00  0.00     0.164 HD
ENDROOT
BRANCH   2   5
ATOM      5  C   UNL     1      -8.905  -2.667  10.261  1.00  0.00     0.171 C 
ATOM      6  C   UNL     1     -10.091  -2.510  12.902  1.00  0.00     0.214 C 
ATOM      7  N   UNL     1      -8.720  -2.942  12.764  1.00  0.00    -0.303 N 
ATOM      8  C   UNL     1     -10.956  -2.862  11.702  1.00  0.00     0.057 C 
ATOM      9  C   UNL     1      -8.076  -2.991  11.538  1.00  0.00     0.247 C 
ATOM     10  C   UNL     1     -10.364  -2.256  10.448  1.00  0.00     0.040 C 
ATOM     11  O   UNL     1      -6.877  -3.279  11.437  1.00  0.00    -0.272 OA
BRANCH   6  12
ATOM     12  O   UNL     1     -10.084  -1.117  13.113  1.00  0.00    -0.373 OA
ATOM     13  H   UNL     1     -10.588  -0.948  13.937  1.00  0.00     0.213 HD
ENDBRANCH   6  12
BRANCH   7  14
ATOM     14  C   UNL     1      -7.967  -3.195  14.011  1.00  0.00     0.177 C 
BRANCH  14  15
ATOM     15  C   UNL     1      -7.449  -1.935  14.732  1.00  0.00     0.038 C 
BRANCH  15  16
ATOM     16  C   UNL     1      -6.444  -2.084  15.896  1.00  0.00    -0.015 C 
ATOM     17  C   UNL     1      -7.108  -1.909  17.265  1.00  0.00     0.007 C 
ATOM     18  C   UNL     1      -5.335  -1.033  15.761  1.00  0.00     0.007 C 
ENDBRANCH  15  16
ENDBRANCH  14  15
BRANCH  14  19
ATOM     19  C   UNL     1      -8.505  -4.487  14.717  1.00  0.00     0.245 C 
ATOM     20  O   UNL     1      -9.208  -4.321  15.728  1.00  0.00    -0.272 OA
BRANCH  19  21
ATOM     21  N   UNL     1      -8.151  -5.772  14.347  1.00  0.00    -0.332 N 
ATOM     22  C   UNL     1      -9.008  -6.716  13.651  1.00  0.00     0.147 C 
BRANCH  21  23
ATOM     23  C   UNL     1      -6.782  -6.244  14.695  1.00  0.00     0.178 C 
BRANCH  23  24
ATOM     24  C   UNL     1      -5.649  -5.605  13.867  1.00  0.00     0.070 C 
BRANCH  24  25
ATOM     25  C   UNL     1      -4.956  -6.485  12.852  1.00  0.00    -0.045 A 
ATOM     26  C   UNL     1      -4.074  -5.938  11.911  1.00  0.00     0.004 A 
ATOM     27  C   UNL     1      -5.193  -7.868  12.837  1.00  0.00     0.004 A 
ATOM     28  C   UNL     1      -3.451  -6.756  10.966  1.00  0.00     0.000 A 
ATOM     29  C   UNL     1      -4.568  -8.684  11.892  1.00  0.00     0.000 A 
ATOM     30  C   UNL     1      -3.700  -8.127  10.956  1.00  0.00     0.000 A 
ENDBRANCH  24  25
ENDBRANCH  23  24
BRANCH  23  31
ATOM     31  C   UNL     1      -6.528  -6.290  16.220  1.00  0.00     0.243 C 
ATOM     32  O   UNL     1      -5.892  -5.438  16.836  1.00  0.00    -0.273 OA
ATOM     33  N   UNL     1      -6.924  -7.477  16.812  1.00  0.00    -0.341 N 
ATOM     34  H   UNL     1      -7.445  -8.151  16.246  1.00  0.00     0.164 HD
BRANCH  33  35
ATOM     35  C   UNL     1      -6.675  -7.789  18.222  1.00  0.00     0.194 C 
BRANCH  35  36
ATOM     36  C   UNL     1      -5.477  -8.752  18.457  1.00  0.00     0.017 C 
ATOM     37  C   UNL     1      -4.202  -7.978  18.833  1.00  0.00     0.010 C 
ATOM     38  C   UNL     1      -5.146  -9.614  17.233  1.00  0.00     0.010 C 
ENDBRANCH  35  36
BRANCH  35  39
ATOM     39  C   UNL     1      -7.955  -8.263  18.965  1.00  0.00     0.329 C 
ATOM     40  O   UNL     1      -8.958  -8.688  18.402  1.00  0.00    -0.250 OA
BRANCH  39  41
ATOM     41  O   UNL     1      -7.807  -8.237  20.324  1.00  0.00    -0.458 OA
BRANCH  41  42
ATOM     42  C   UNL     1      -8.689  -9.100  21.082  1.00  0.00     0.205 CG0
ATOM     43  C   UNL     1      -9.615  -8.200  21.897  1.00  0.00     0.056 C 
ATOM     44  G   UNL     1      -7.830 -10.021  21.971  1.00  0.00     0.000 G0
ENDBRANCH  41  42
ENDBRANCH  39  41
ENDBRANCH  35  39
ENDBRANCH  33  35
ENDBRANCH  23  31
ENDBRANCH  21  23
ENDBRANCH  19  21
ENDBRANCH  14  19
ENDBRANCH   7  14
ENDBRANCH   2   5
BRANCH   3  45
ATOM     45  C   UNL     1      -7.120  -0.889   7.373  1.00  0.00     0.171 C 
BRANCH  45  46
ATOM     46  N   UNL     1      -6.649  -1.542   6.159  1.00  0.00    -0.342 N 
ATOM     47  C   UNL     1      -6.302  -0.839   5.033  1.00  0.00     0.247 C 
ATOM     48  O   UNL     1      -6.293   0.392   4.989  1.00  0.00    -0.273 OA
ATOM     49  H   UNL     1      -6.587  -2.558   6.170  1.00  0.00     0.164 HD
BRANCH  47  50
ATOM     50  C   UNL     1      -5.949  -1.700   3.812  1.00  0.00     0.212 CG0
ATOM     51  G   UNL     1      -4.959  -0.897   2.944  1.00  0.00     0.000 G0
BRANCH  50  52
ATOM     52  N   UNL     1      -5.375  -2.928   4.354  1.00  0.00    -0.339 N 
ATOM     53  C   UNL     1      -5.361  -4.121   3.673  1.00  0.00     0.243 C 
ATOM     54  O   UNL     1      -5.880  -4.259   2.569  1.00  0.00    -0.273 OA
ATOM     55  H   UNL     1      -5.028  -2.906   5.311  1.00  0.00     0.164 HD
BRANCH  53  56
ATOM     56  C   UNL     1      -4.781  -5.299   4.482  1.00  0.00     0.182 C 
BRANCH  56  57
ATOM     57  N   UNL     1      -5.757  -5.801   5.454  1.00  0.00    -0.344 N 
ATOM     58  C   UNL     1      -6.598  -6.851   5.177  1.00  0.00     0.220 C 
ATOM     59  O   UNL     1      -6.643  -7.393   4.077  1.00  0.00    -0.275 OA
ATOM     60  H   UNL     1      -5.682  -5.450   6.405  1.00  0.00     0.164 HD
BRANCH  58  61
ATOM     61  C   UNL     1      -7.482  -7.239   6.348  1.00  0.00     0.100 C 
BRANCH  61  62
ATOM     62  C   UNL     1      -7.021  -8.502   7.076  1.00  0.00     0.010 C 
BRANCH  62  63
ATOM     63  C   UNL     1      -6.988  -8.368   8.604  1.00  0.00     0.000 C 
BRANCH  63  64
ATOM     64  C   UNL     1      -6.687  -6.956   9.103  1.00  0.00    -0.003 C 
ATOM     65  C   UNL     1      -7.597  -6.570  10.261  1.00  0.00     0.004 C 
ENDBRANCH  63  64
ENDBRANCH  62  63
ENDBRANCH  61  62
ENDBRANCH  58  61
ENDBRANCH  56  57
BRANCH  56  66
ATOM     66  C   UNL     1      -3.452  -4.928   5.138  1.00  0.00     0.157 C 
BRANCH  66  67
ATOM     67  C   UNL     1      -2.947  -6.040   6.012  1.00  0.00     0.305 C 
ATOM     68  O   UNL     1      -2.466  -5.933   7.129  1.00  0.00    -0.252 OA
BRANCH  67  69
ATOM     69  O   UNL     1      -3.123  -7.251   5.450  1.00  0.00    -0.481 OA
ATOM     70  H   UNL     1      -3.561  -7.068   4.592  1.00  0.00     0.296 HD
ENDBRANCH  67  69
ENDBRANCH  66  67
ENDBRANCH  56  66
ENDBRANCH  53  56
ENDBRANCH  50  52
ENDBRANCH  47  50
ENDBRANCH  45  46
BRANCH  45  71
ATOM     71  C   UNL     1      -5.955  -0.446   8.266  1.00  0.00     0.037 C 
BRANCH  71  72
ATOM     72  C   UNL     1      -4.803  -1.454   8.251  1.00  0.00     0.026 C 
BRANCH  72  73
ATOM     73  C   UNL     1      -3.533  -0.845   7.659  1.00  0.00     0.146 C 
BRANCH  73  74
ATOM     74  N   UNL     1      -2.731  -1.932   7.107  1.00  0.00    -0.254 NA
ATOM     75  C   UNL     1      -1.776  -2.396   7.826  1.00  0.00     0.185 C 
ATOM     76  N   UNL     1      -1.021  -3.398   7.346  1.00  0.00    -0.370 N 
ATOM     77  N   UNL     1      -1.385  -2.020   9.056  1.00  0.00    -0.370 N 
ATOM     78  H   UNL     1      -1.244  -3.736   6.421  1.00  0.00     0.159 HD
ATOM     79  H   UNL     1      -0.173  -3.711   7.785  1.00  0.00     0.159 HD
ATOM     80  H   UNL     1      -1.865  -1.279   9.543  1.00  0.00     0.159 HD
ATOM     81  H   UNL     1      -0.691  -2.537   9.570  1.00  0.00     0.159 HD
ENDBRANCH  73  74
ENDBRANCH  72  73
ENDBRANCH  71  72
ENDBRANCH  45  71
ENDBRANCH   3  45
TORSDOF 20
ENDMDL
MODEL 11
REMARK VINA RESULT:    -6.353      3.429      6.278
REMARK INTER + INTRA:         -25.624
REMARK INTER:                 -17.980
REMARK INTRA:                  -7.643
REMARK UNBOUND:                -7.386
REMARK SMILES CCCCCC(=O)N[C@H](CC(=O)O)C(=O)N[C@H]1C(=O)N[C@H](CCCN=C(N)N)C(=O)N[C@@H]2CC[C@H](O)N(C2=O)[C@@H](CC(C)C)C(=O)N(C)[C@@H](Cc2ccccc2)C(=O)N[C@H](C(C)C)C(=O)O[C@@H]1C
REMARK SMILES IDX 30 1 31 2 29 3 32 5 35 6 37 7 34 8 38 9 33 10 39 11 36 12
REMARK SMILES IDX 40 14 41 15 42 16 43 17 44 18 45 19 46 20 47 21 48 22 49 23
REMARK SMILES IDX 50 24 51 25 52 26 56 27 53 28 55 29 54 30 57 31 58 32 59 33
REMARK SMILES IDX 60 35 61 36 62 37 63 38 64 39 65 40 66 41 67 42 68 43 21 45
REMARK SMILES IDX 20 46 18 47 19 48 17 50 16 52 14 53 15 54 9 56 8 57 6 58
REMARK SMILES IDX 7 59 5 61 4 62 3 63 2 64 1 65 10 66 11 67 12 68 13 69 22 71
REMARK SMILES IDX 23 72 24 73 25 74 26 75 27 76 28 77
REMARK H PARENT 31 4 36 13 59 34 20 49 16 55 8 60 13 70 27 78 27 79 28 80
REMARK H PARENT 28 81
REMARK Flexibility Score:  259.900
ROOT
ATOM      1  O   UNL     1      -4.491  -8.892   9.740  1.00  0.00    -0.273 OA
ATOM      2  N   UNL     1      -4.168  -6.858  10.736  1.00  0.00    -0.343 N 
ATOM      3  C   UNL     1      -4.948  -7.812  10.118  1.00  0.00     0.243 C 
ATOM      4  H   UNL     1      -4.582  -5.988  11.047  1.00  0.00     0.164 HD
ENDROOT
BRANCH   2   5
ATOM      5  C   UNL     1      -2.727  -7.044  10.861  1.00  0.00     0.171 C 
ATOM      6  C   UNL     1      -0.685  -5.621  12.348  1.00  0.00     0.214 C 
ATOM      7  N   UNL     1      -0.985  -5.222  10.993  1.00  0.00    -0.303 N 
ATOM      8  C   UNL     1      -0.915  -7.102  12.604  1.00  0.00     0.057 C 
ATOM      9  C   UNL     1      -1.983  -5.825  10.244  1.00  0.00     0.247 C 
ATOM     10  C   UNL     1      -2.349  -7.461  12.282  1.00  0.00     0.040 C 
ATOM     11  O   UNL     1      -2.292  -5.421   9.116  1.00  0.00    -0.272 OA
BRANCH   6  12
ATOM     12  O   UNL     1      -1.480  -4.842  13.212  1.00  0.00    -0.373 OA
ATOM     13  H   UNL     1      -1.001  -4.000  13.363  1.00  0.00     0.213 HD
ENDBRANCH   6  12
BRANCH   7  14
ATOM     14  C   UNL     1      -0.279  -4.032  10.472  1.00  0.00     0.177 C 
BRANCH  14  15
ATOM     15  C   UNL     1       0.774  -4.317   9.383  1.00  0.00     0.038 C 
BRANCH  15  16
ATOM     16  C   UNL     1       2.273  -4.321   9.756  1.00  0.00    -0.015 C 
ATOM     17  C   UNL     1       2.523  -3.807  11.177  1.00  0.00     0.007 C 
ATOM     18  C   UNL     1       3.052  -3.430   8.779  1.00  0.00     0.007 C 
ENDBRANCH  15  16
ENDBRANCH  14  15
BRANCH  14  19
ATOM     19  C   UNL     1      -1.219  -2.778  10.519  1.00  0.00     0.245 C 
ATOM     20  O   UNL     1      -1.331  -2.204  11.615  1.00  0.00    -0.272 OA
BRANCH  19  21
ATOM     21  N   UNL     1      -1.998  -2.359   9.455  1.00  0.00    -0.332 N 
ATOM     22  C   UNL     1      -1.579  -2.325   8.065  1.00  0.00     0.147 C 
BRANCH  21  23
ATOM     23  C   UNL     1      -3.380  -1.889   9.748  1.00  0.00     0.178 C 
BRANCH  23  24
ATOM     24  C   UNL     1      -3.995  -0.979   8.665  1.00  0.00     0.070 C 
BRANCH  24  25
ATOM     25  C   UNL     1      -5.472  -0.676   8.778  1.00  0.00    -0.045 A 
ATOM     26  C   UNL     1      -5.974   0.052   9.864  1.00  0.00     0.004 A 
ATOM     27  C   UNL     1      -6.364  -1.127   7.793  1.00  0.00     0.004 A 
ATOM     28  C   UNL     1      -7.342   0.313   9.969  1.00  0.00     0.000 A 
ATOM     29  C   UNL     1      -7.730  -0.865   7.899  1.00  0.00     0.000 A 
ATOM     30  C   UNL     1      -8.219  -0.147   8.989  1.00  0.00     0.000 A 
ENDBRANCH  24  25
ENDBRANCH  23  24
BRANCH  23  31
ATOM     31  C   UNL     1      -4.308  -3.020  10.252  1.00  0.00     0.243 C 
ATOM     32  O   UNL     1      -4.863  -3.833   9.517  1.00  0.00    -0.273 OA
ATOM     33  N   UNL     1      -4.612  -2.926  11.600  1.00  0.00    -0.341 N 
ATOM     34  H   UNL     1      -4.122  -2.224  12.160  1.00  0.00     0.164 HD
BRANCH  33  35
ATOM     35  C   UNL     1      -5.564  -3.817  12.268  1.00  0.00     0.194 C 
BRANCH  35  36
ATOM     36  C   UNL     1      -6.898  -3.131  12.676  1.00  0.00     0.017 C 
ATOM     37  C   UNL     1      -7.830  -2.955  11.464  1.00  0.00     0.010 C 
ATOM     38  C   UNL     1      -6.698  -1.747  13.305  1.00  0.00     0.010 C 
ENDBRANCH  35  36
BRANCH  35  39
ATOM     39  C   UNL     1      -4.926  -4.594  13.453  1.00  0.00     0.329 C 
ATOM     40  O   UNL     1      -4.272  -4.067  14.346  1.00  0.00    -0.250 OA
BRANCH  39  41
ATOM     41  O   UNL     1      -5.248  -5.923  13.438  1.00  0.00    -0.458 OA
BRANCH  41  42
ATOM     42  C   UNL     1      -6.232  -6.355  14.407  1.00  0.00     0.205 CG0
ATOM     43  C   UNL     1      -5.510  -7.234  15.426  1.00  0.00     0.056 C 
ATOM     44  G   UNL     1      -7.353  -7.110  13.666  1.00  0.00     0.000 G0
ENDBRANCH  41  42
ENDBRANCH  39  41
ENDBRANCH  35  39
ENDBRANCH  33  35
ENDBRANCH  23  31
ENDBRANCH  21  23
ENDBRANCH  19  21
ENDBRANCH  14  19
ENDBRANCH   7  14
ENDBRANCH   2   5
BRANCH   3  45
ATOM     45  C   UNL     1      -6.428  -7.446   9.953  1.00  0.00     0.171 C 
BRANCH  45  46
ATOM     46  N   UNL     1      -6.863  -6.967  11.259  1.00  0.00    -0.342 N 
ATOM     47  C   UNL     1      -6.770  -7.734  12.393  1.00  0.00     0.247 C 
ATOM     48  O   UNL     1      -6.248  -8.849  12.404  1.00  0.00    -0.273 OA
ATOM     49  H   UNL     1      -7.250  -6.026  11.304  1.00  0.00     0.164 HD
BRANCH  47  50
ATOM     50  C   UNL     1      -7.392  -7.111  13.651  1.00  0.00     0.212 CG0
ATOM     51  G   UNL     1      -6.272  -6.368  14.407  1.00  0.00     0.000 G0
BRANCH  50  52
ATOM     52  N   UNL     1      -8.448  -6.226  13.167  1.00  0.00    -0.339 N 
ATOM     53  C   UNL     1      -9.494  -5.800  13.949  1.00  0.00     0.243 C 
ATOM     54  O   UNL     1      -9.651  -6.176  15.107  1.00  0.00    -0.273 OA
ATOM     55  H   UNL     1      -8.434  -5.968  12.182  1.00  0.00     0.164 HD
BRANCH  53  56
ATOM     56  C   UNL     1     -10.531  -4.942  13.196  1.00  0.00     0.182 C 
BRANCH  56  57
ATOM     57  N   UNL     1     -11.855  -5.051  13.817  1.00  0.00    -0.344 N 
ATOM     58  C   UNL     1     -12.314  -4.138  14.734  1.00  0.00     0.220 C 
ATOM     59  O   UNL     1     -11.626  -3.212  15.152  1.00  0.00    -0.275 OA
ATOM     60  H   UNL     1     -12.492  -5.740  13.426  1.00  0.00     0.164 HD
BRANCH  58  61
ATOM     61  C   UNL     1     -13.732  -4.414  15.200  1.00  0.00     0.100 C 
BRANCH  61  62
ATOM     62  C   UNL     1     -14.634  -4.999  14.114  1.00  0.00     0.010 C 
BRANCH  62  63
ATOM     63  C   UNL     1     -15.598  -6.082  14.615  1.00  0.00     0.000 C 
BRANCH  63  64
ATOM     64  C   UNL     1     -17.068  -5.666  14.607  1.00  0.00    -0.003 C 
ATOM     65  C   UNL     1     -17.904  -6.560  15.511  1.00  0.00     0.004 C 
ENDBRANCH  63  64
ENDBRANCH  62  63
ENDBRANCH  61  62
ENDBRANCH  58  61
ENDBRANCH  56  57
BRANCH  56  66
ATOM     66  C   UNL     1     -10.564  -5.282  11.707  1.00  0.00     0.157 C 
BRANCH  66  67
ATOM     67  C   UNL     1     -11.498  -4.373  10.962  1.00  0.00     0.305 C 
ATOM     68  O   UNL     1     -11.234  -3.277  10.491  1.00  0.00    -0.252 OA
BRANCH  67  69
ATOM     69  O   UNL     1     -12.719  -4.916  10.799  1.00  0.00    -0.481 OA
ATOM     70  H   UNL     1     -12.624  -5.523  10.035  1.00  0.00     0.296 HD
ENDBRANCH  67  69
ENDBRANCH  66  67
ENDBRANCH  56  66
ENDBRANCH  53  56
ENDBRANCH  50  52
ENDBRANCH  47  50
ENDBRANCH  45  46
BRANCH  45  71
ATOM     71  C   UNL     1      -7.235  -8.669   9.503  1.00  0.00     0.037 C 
BRANCH  71  72
ATOM     72  C   UNL     1      -7.384  -8.731   7.981  1.00  0.00     0.026 C 
BRANCH  72  73
ATOM     73  C   UNL     1      -6.947  -7.425   7.321  1.00  0.00     0.146 C 
BRANCH  73  74
ATOM     74  N   UNL     1      -5.815  -7.722   6.449  1.00  0.00    -0.254 NA
ATOM     75  C   UNL     1      -4.816  -6.918   6.470  1.00  0.00     0.185 C 
ATOM     76  N   UNL     1      -3.759  -7.165   5.680  1.00  0.00    -0.370 N 
ATOM     77  N   UNL     1      -4.645  -5.802   7.199  1.00  0.00    -0.370 N 
ATOM     78  H   UNL     1      -3.809  -7.984   5.091  1.00  0.00     0.159 HD
ATOM     79  H   UNL     1      -3.010  -6.510   5.536  1.00  0.00     0.159 HD
ATOM     80  H   UNL     1      -5.359  -5.494   7.843  1.00  0.00     0.159 HD
ATOM     81  H   UNL     1      -3.765  -5.312   7.218  1.00  0.00     0.159 HD
ENDBRANCH  73  74
ENDBRANCH  72  73
ENDBRANCH  71  72
ENDBRANCH  45  71
ENDBRANCH   3  45
TORSDOF 20
ENDMDL
MODEL 12
REMARK VINA RESULT:    -6.329      2.650      8.158
REMARK INTER + INTRA:         -25.554
REMARK INTER:                 -18.458
REMARK INTRA:                  -7.096
REMARK UNBOUND:                -7.386
REMARK SMILES CCCCCC(=O)N[C@H](CC(=O)O)C(=O)N[C@H]1C(=O)N[C@H](CCCN=C(N)N)C(=O)N[C@@H]2CC[C@H](O)N(C2=O)[C@@H](CC(C)C)C(=O)N(C)[C@@H](Cc2ccccc2)C(=O)N[C@H](C(C)C)C(=O)O[C@@H]1C
REMARK SMILES IDX 30 1 31 2 29 3 32 5 35 6 37 7 34 8 38 9 33 10 39 11 36 12
REMARK SMILES IDX 40 14 41 15 42 16 43 17 44 18 45 19 46 20 47 21 48 22 49 23
REMARK SMILES IDX 50 24 51 25 52 26 56 27 53 28 55 29 54 30 57 31 58 32 59 33
REMARK SMILES IDX 60 35 61 36 62 37 63 38 64 39 65 40 66 41 67 42 68 43 21 45
REMARK SMILES IDX 20 46 18 47 19 48 17 50 16 52 14 53 15 54 9 56 8 57 6 58
REMARK SMILES IDX 7 59 5 61 4 62 3 63 2 64 1 65 10 66 11 67 12 68 13 69 22 71
REMARK SMILES IDX 23 72 24 73 25 74 26 75 27 76 28 77
REMARK H PARENT 31 4 36 13 59 34 20 49 16 55 8 60 13 70 27 78 27 79 28 80
REMARK H PARENT 28 81
REMARK Flexibility Score:  259.900
ROOT
ATOM      1  O   UNL     1      -6.139  -2.207   7.744  1.00  0.00    -0.273 OA
ATOM      2  N   UNL     1      -8.230  -3.090   7.459  1.00  0.00    -0.343 N 
ATOM      3  C   UNL     1      -6.878  -3.026   7.197  1.00  0.00     0.243 C 
ATOM      4  H   UNL     1      -8.804  -3.787   7.001  1.00  0.00     0.164 HD
ENDROOT
BRANCH   2   5
ATOM      5  C   UNL     1      -8.867  -2.098   8.318  1.00  0.00     0.171 C 
ATOM      6  C   UNL     1      -7.816   0.077   9.921  1.00  0.00     0.214 C 
ATOM      7  N   UNL     1      -7.984  -1.228  10.517  1.00  0.00    -0.303 N 
ATOM      8  C   UNL     1      -8.818   0.367   8.815  1.00  0.00     0.057 C 
ATOM      9  C   UNL     1      -8.432  -2.322   9.795  1.00  0.00     0.247 C 
ATOM     10  C   UNL     1      -8.714  -0.692   7.739  1.00  0.00     0.040 C 
ATOM     11  O   UNL     1      -8.491  -3.456  10.289  1.00  0.00    -0.272 OA
BRANCH   6  12
ATOM     12  O   UNL     1      -6.499   0.158   9.427  1.00  0.00    -0.373 OA
ATOM     13  H   UNL     1      -6.096  -0.729   9.537  1.00  0.00     0.213 HD
ENDBRANCH   6  12
BRANCH   7  14
ATOM     14  C   UNL     1      -7.515  -1.395  11.909  1.00  0.00     0.177 C 
BRANCH  14  15
ATOM     15  C   UNL     1      -8.617  -1.714  12.939  1.00  0.00     0.038 C 
BRANCH  15  16
ATOM     16  C   UNL     1     -10.000  -1.040  12.806  1.00  0.00    -0.015 C 
ATOM     17  C   UNL     1     -10.349  -0.179  14.024  1.00  0.00     0.007 C 
ATOM     18  C   UNL     1     -11.086  -2.112  12.649  1.00  0.00     0.007 C 
ENDBRANCH  15  16
ENDBRANCH  14  15
BRANCH  14  19
ATOM     19  C   UNL     1      -6.060  -1.979  11.927  1.00  0.00     0.245 C 
ATOM     20  O   UNL     1      -5.232  -1.440  11.174  1.00  0.00    -0.272 OA
BRANCH  19  21
ATOM     21  N   UNL     1      -5.692  -3.109  12.635  1.00  0.00    -0.332 N 
ATOM     22  C   UNL     1      -6.521  -4.283  12.840  1.00  0.00     0.147 C 
BRANCH  21  23
ATOM     23  C   UNL     1      -4.337  -3.130  13.254  1.00  0.00     0.178 C 
BRANCH  23  24
ATOM     24  C   UNL     1      -4.333  -3.219  14.794  1.00  0.00     0.070 C 
BRANCH  24  25
ATOM     25  C   UNL     1      -5.100  -2.157  15.547  1.00  0.00    -0.045 A 
ATOM     26  C   UNL     1      -4.619  -0.844  15.625  1.00  0.00     0.004 A 
ATOM     27  C   UNL     1      -6.308  -2.476  16.186  1.00  0.00     0.004 A 
ATOM     28  C   UNL     1      -5.325   0.128  16.337  1.00  0.00     0.000 A 
ATOM     29  C   UNL     1      -7.013  -1.503  16.896  1.00  0.00     0.000 A 
ATOM     30  C   UNL     1      -6.519  -0.202  16.974  1.00  0.00     0.000 A 
ENDBRANCH  24  25
ENDBRANCH  23  24
BRANCH  23  31
ATOM     31  C   UNL     1      -3.364  -4.100  12.543  1.00  0.00     0.243 C 
ATOM     32  O   UNL     1      -2.728  -4.980  13.118  1.00  0.00    -0.273 OA
ATOM     33  N   UNL     1      -3.125  -3.772  11.219  1.00  0.00    -0.341 N 
ATOM     34  H   UNL     1      -3.682  -3.025  10.796  1.00  0.00     0.164 HD
BRANCH  33  35
ATOM     35  C   UNL     1      -2.149  -4.478  10.385  1.00  0.00     0.194 C 
BRANCH  35  36
ATOM     36  C   UNL     1      -1.532  -3.607   9.254  1.00  0.00     0.017 C 
ATOM     37  C   UNL     1      -0.095  -3.180   9.599  1.00  0.00     0.010 C 
ATOM     38  C   UNL     1      -2.334  -2.332   8.968  1.00  0.00     0.010 C 
ENDBRANCH  35  36
BRANCH  35  39
ATOM     39  C   UNL     1      -2.693  -5.830   9.844  1.00  0.00     0.329 C 
ATOM     40  O   UNL     1      -2.674  -6.880  10.477  1.00  0.00    -0.250 OA
BRANCH  39  41
ATOM     41  O   UNL     1      -3.275  -5.702   8.613  1.00  0.00    -0.458 OA
BRANCH  41  42
ATOM     42  C   UNL     1      -3.304  -6.893   7.790  1.00  0.00     0.205 CG0
ATOM     43  C   UNL     1      -2.541  -6.575   6.506  1.00  0.00     0.056 C 
ATOM     44  G   UNL     1      -4.774  -7.271   7.524  1.00  0.00     0.000 G0
ENDBRANCH  41  42
ENDBRANCH  39  41
ENDBRANCH  35  39
ENDBRANCH  33  35
ENDBRANCH  23  31
ENDBRANCH  21  23
ENDBRANCH  19  21
ENDBRANCH  14  19
ENDBRANCH   7  14
ENDBRANCH   2   5
BRANCH   3  45
ATOM     45  C   UNL     1      -6.354  -4.061   6.192  1.00  0.00     0.171 C 
BRANCH  45  46
ATOM     46  N   UNL     1      -5.672  -5.073   6.988  1.00  0.00    -0.342 N 
ATOM     47  C   UNL     1      -5.405  -6.331   6.509  1.00  0.00     0.247 C 
ATOM     48  O   UNL     1      -5.655  -6.672   5.352  1.00  0.00    -0.273 OA
ATOM     49  H   UNL     1      -5.397  -4.814   7.934  1.00  0.00     0.164 HD
BRANCH  47  50
ATOM     50  C   UNL     1      -4.793  -7.300   7.531  1.00  0.00     0.212 CG0
ATOM     51  G   UNL     1      -3.331  -6.871   7.764  1.00  0.00     0.000 G0
BRANCH  50  52
ATOM     52  N   UNL     1      -5.626  -7.184   8.725  1.00  0.00    -0.339 N 
ATOM     53  C   UNL     1      -6.544  -8.134   9.101  1.00  0.00     0.243 C 
ATOM     54  O   UNL     1      -6.773  -9.136   8.430  1.00  0.00    -0.273 OA
ATOM     55  H   UNL     1      -5.562  -6.322   9.264  1.00  0.00     0.164 HD
BRANCH  53  56
ATOM     56  C   UNL     1      -7.366  -7.752  10.349  1.00  0.00     0.182 C 
BRANCH  56  57
ATOM     57  N   UNL     1      -7.039  -8.624  11.482  1.00  0.00    -0.344 N 
ATOM     58  C   UNL     1      -5.994  -8.362  12.334  1.00  0.00     0.220 C 
ATOM     59  O   UNL     1      -5.219  -7.427  12.165  1.00  0.00    -0.275 OA
ATOM     60  H   UNL     1      -7.714  -9.348  11.716  1.00  0.00     0.164 HD
BRANCH  58  61
ATOM     61  C   UNL     1      -5.878  -9.364  13.468  1.00  0.00     0.100 C 
BRANCH  61  62
ATOM     62  C   UNL     1      -5.861  -8.724  14.856  1.00  0.00     0.010 C 
BRANCH  62  63
ATOM     63  C   UNL     1      -7.022  -7.756  15.115  1.00  0.00     0.000 C 
BRANCH  63  64
ATOM     64  C   UNL     1      -6.680  -6.603  16.058  1.00  0.00    -0.003 C 
ATOM     65  C   UNL     1      -7.789  -5.561  16.086  1.00  0.00     0.004 C 
ENDBRANCH  63  64
ENDBRANCH  62  63
ENDBRANCH  61  62
ENDBRANCH  58  61
ENDBRANCH  56  57
BRANCH  56  66
ATOM     66  C   UNL     1      -8.864  -7.735  10.048  1.00  0.00     0.157 C 
BRANCH  66  67
ATOM     67  C   UNL     1      -9.181  -6.800   8.917  1.00  0.00     0.305 C 
ATOM     68  O   UNL     1      -8.420  -6.002   8.391  1.00  0.00    -0.252 OA
BRANCH  67  69
ATOM     69  O   UNL     1     -10.439  -6.953   8.463  1.00  0.00    -0.481 OA
ATOM     70  H   UNL     1     -10.953  -6.245   8.905  1.00  0.00     0.296 HD
ENDBRANCH  67  69
ENDBRANCH  66  67
ENDBRANCH  56  66
ENDBRANCH  53  56
ENDBRANCH  50  52
ENDBRANCH  47  50
ENDBRANCH  45  46
BRANCH  45  71
ATOM     71  C   UNL     1      -5.405  -3.398   5.188  1.00  0.00     0.037 C 
BRANCH  71  72
ATOM     72  C   UNL     1      -6.161  -2.601   4.121  1.00  0.00     0.026 C 
BRANCH  72  73
ATOM     73  C   UNL     1      -5.256  -1.577   3.441  1.00  0.00     0.146 C 
BRANCH  73  74
ATOM     74  N   UNL     1      -6.018  -0.953   2.363  1.00  0.00    -0.254 NA
ATOM     75  C   UNL     1      -6.279   0.298   2.460  1.00  0.00     0.185 C 
ATOM     76  N   UNL     1      -6.977   0.900   1.484  1.00  0.00    -0.370 N 
ATOM     77  N   UNL     1      -5.947   1.157   3.440  1.00  0.00    -0.370 N 
ATOM     78  H   UNL     1      -7.274   0.323   0.711  1.00  0.00     0.159 HD
ATOM     79  H   UNL     1      -7.342   1.834   1.559  1.00  0.00     0.159 HD
ATOM     80  H   UNL     1      -5.416   0.844   4.239  1.00  0.00     0.159 HD
ATOM     81  H   UNL     1      -6.109   2.146   3.352  1.00  0.00     0.159 HD
ENDBRANCH  73  74
ENDBRANCH  72  73
ENDBRANCH  71  72
ENDBRANCH  45  71
ENDBRANCH   3  45
TORSDOF 20
ENDMDL
MODEL 13
REMARK VINA RESULT:    -6.311      1.693      2.646
REMARK INTER + INTRA:         -25.504
REMARK INTER:                 -17.797
REMARK INTRA:                  -7.706
REMARK UNBOUND:                -7.386
REMARK SMILES CCCCCC(=O)N[C@H](CC(=O)O)C(=O)N[C@H]1C(=O)N[C@H](CCCN=C(N)N)C(=O)N[C@@H]2CC[C@H](O)N(C2=O)[C@@H](CC(C)C)C(=O)N(C)[C@@H](Cc2ccccc2)C(=O)N[C@H](C(C)C)C(=O)O[C@@H]1C
REMARK SMILES IDX 30 1 31 2 29 3 32 5 35 6 37 7 34 8 38 9 33 10 39 11 36 12
REMARK SMILES IDX 40 14 41 15 42 16 43 17 44 18 45 19 46 20 47 21 48 22 49 23
REMARK SMILES IDX 50 24 51 25 52 26 56 27 53 28 55 29 54 30 57 31 58 32 59 33
REMARK SMILES IDX 60 35 61 36 62 37 63 38 64 39 65 40 66 41 67 42 68 43 21 45
REMARK SMILES IDX 20 46 18 47 19 48 17 50 16 52 14 53 15 54 9 56 8 57 6 58
REMARK SMILES IDX 7 59 5 61 4 62 3 63 2 64 1 65 10 66 11 67 12 68 13 69 22 71
REMARK SMILES IDX 23 72 24 73 25 74 26 75 27 76 28 77
REMARK H PARENT 31 4 36 13 59 34 20 49 16 55 8 60 13 70 27 78 27 79 28 80
REMARK H PARENT 28 81
REMARK Flexibility Score:  259.900
ROOT
ATOM      1  O   UNL     1      -9.596  -6.492   8.570  1.00  0.00    -0.273 OA
ATOM      2  N   UNL     1      -7.361  -6.891   8.848  1.00  0.00    -0.343 N 
ATOM      3  C   UNL     1      -8.672  -6.899   9.275  1.00  0.00     0.243 C 
ATOM      4  H   UNL     1      -6.628  -7.248   9.449  1.00  0.00     0.164 HD
ENDROOT
BRANCH   2   5
ATOM      5  C   UNL     1      -6.999  -6.281   7.573  1.00  0.00     0.171 C 
ATOM      6  C   UNL     1      -4.503  -6.128   6.107  1.00  0.00     0.214 C 
ATOM      7  N   UNL     1      -4.844  -5.080   7.041  1.00  0.00    -0.303 N 
ATOM      8  C   UNL     1      -5.718  -6.783   5.468  1.00  0.00     0.057 C 
ATOM      9  C   UNL     1      -5.995  -5.117   7.811  1.00  0.00     0.247 C 
ATOM     10  C   UNL     1      -6.621  -7.345   6.544  1.00  0.00     0.040 C 
ATOM     11  O   UNL     1      -6.237  -4.261   8.671  1.00  0.00    -0.272 OA
BRANCH   6  12
ATOM     12  O   UNL     1      -3.732  -7.085   6.795  1.00  0.00    -0.373 OA
ATOM     13  H   UNL     1      -3.333  -7.673   6.119  1.00  0.00     0.213 HD
ENDBRANCH   6  12
BRANCH   7  14
ATOM     14  C   UNL     1      -3.834  -4.023   7.260  1.00  0.00     0.177 C 
BRANCH  14  15
ATOM     15  C   UNL     1      -2.368  -4.491   7.195  1.00  0.00     0.038 C 
BRANCH  15  16
ATOM     16  C   UNL     1      -1.449  -4.289   8.420  1.00  0.00    -0.015 C 
ATOM     17  C   UNL     1       0.036  -4.399   8.062  1.00  0.00     0.007 C 
ATOM     18  C   UNL     1      -1.766  -5.345   9.486  1.00  0.00     0.007 C 
ENDBRANCH  15  16
ENDBRANCH  14  15
BRANCH  14  19
ATOM     19  C   UNL     1      -4.370  -2.645   6.738  1.00  0.00     0.245 C 
ATOM     20  O   UNL     1      -4.899  -2.639   5.614  1.00  0.00    -0.272 OA
BRANCH  19  21
ATOM     21  N   UNL     1      -4.186  -1.445   7.402  1.00  0.00    -0.332 N 
ATOM     22  C   UNL     1      -3.373  -0.337   6.931  1.00  0.00     0.147 C 
BRANCH  21  23
ATOM     23  C   UNL     1      -4.863  -1.265   8.716  1.00  0.00     0.178 C 
BRANCH  23  24
ATOM     24  C   UNL     1      -4.106  -0.368   9.716  1.00  0.00     0.070 C 
BRANCH  24  25
ATOM     25  C   UNL     1      -2.991  -1.010  10.508  1.00  0.00    -0.045 A 
ATOM     26  C   UNL     1      -1.656  -0.875  10.107  1.00  0.00     0.004 A 
ATOM     27  C   UNL     1      -3.281  -1.757  11.660  1.00  0.00     0.004 A 
ATOM     28  C   UNL     1      -0.633  -1.486  10.836  1.00  0.00     0.000 A 
ATOM     29  C   UNL     1      -2.258  -2.365  12.388  1.00  0.00     0.000 A 
ATOM     30  C   UNL     1      -0.934  -2.232  11.973  1.00  0.00     0.000 A 
ENDBRANCH  24  25
ENDBRANCH  23  24
BRANCH  23  31
ATOM     31  C   UNL     1      -6.374  -0.957   8.579  1.00  0.00     0.243 C 
ATOM     32  O   UNL     1      -6.865  -0.332   7.642  1.00  0.00    -0.273 OA
ATOM     33  N   UNL     1      -7.110  -1.288   9.704  1.00  0.00    -0.341 N 
ATOM     34  H   UNL     1      -6.644  -1.803  10.454  1.00  0.00     0.164 HD
BRANCH  33  35
ATOM     35  C   UNL     1      -8.535  -0.978   9.845  1.00  0.00     0.194 C 
BRANCH  35  36
ATOM     36  C   UNL     1      -8.823   0.434  10.428  1.00  0.00     0.017 C 
ATOM     37  C   UNL     1      -9.910   0.379  11.516  1.00  0.00     0.010 C 
ATOM     38  C   UNL     1      -9.285   1.443   9.369  1.00  0.00     0.010 C 
ENDBRANCH  35  36
BRANCH  35  39
ATOM     39  C   UNL     1      -9.316  -2.089  10.602  1.00  0.00     0.329 C 
ATOM     40  O   UNL     1     -10.367  -2.579  10.207  1.00  0.00    -0.250 OA
BRANCH  39  41
ATOM     41  O   UNL     1      -8.654  -2.521  11.718  1.00  0.00    -0.458 OA
BRANCH  41  42
ATOM     42  C   UNL     1      -9.458  -3.184  12.723  1.00  0.00     0.205 CG0
ATOM     43  C   UNL     1      -9.588  -2.225  13.905  1.00  0.00     0.056 C 
ATOM     44  G   UNL     1      -8.769  -4.507  13.110  1.00  0.00     0.000 G0
ENDBRANCH  41  42
ENDBRANCH  39  41
ENDBRANCH  35  39
ENDBRANCH  33  35
ENDBRANCH  23  31
ENDBRANCH  21  23
ENDBRANCH  19  21
ENDBRANCH  14  19
ENDBRANCH   7  14
ENDBRANCH   2   5
BRANCH   3  45
ATOM     45  C   UNL     1      -8.901  -7.471  10.680  1.00  0.00     0.171 C 
BRANCH  45  46
ATOM     46  N   UNL     1      -8.483  -6.425  11.604  1.00  0.00    -0.342 N 
ATOM     47  C   UNL     1      -9.380  -5.627  12.267  1.00  0.00     0.247 C 
ATOM     48  O   UNL     1     -10.599  -5.782  12.188  1.00  0.00    -0.273 OA
ATOM     49  H   UNL     1      -7.481  -6.300  11.743  1.00  0.00     0.164 HD
BRANCH  47  50
ATOM     50  C   UNL     1      -8.754  -4.499  13.101  1.00  0.00     0.212 CG0
ATOM     51  G   UNL     1      -9.495  -3.193  12.752  1.00  0.00     0.000 G0
BRANCH  50  52
ATOM     52  N   UNL     1      -8.923  -4.905  14.494  1.00  0.00    -0.339 N 
ATOM     53  C   UNL     1      -8.019  -5.690  15.168  1.00  0.00     0.243 C 
ATOM     54  O   UNL     1      -7.019  -6.157  14.631  1.00  0.00    -0.273 OA
ATOM     55  H   UNL     1      -9.788  -4.641  14.961  1.00  0.00     0.164 HD
BRANCH  53  56
ATOM     56  C   UNL     1      -8.454  -6.059  16.600  1.00  0.00     0.182 C 
BRANCH  56  57
ATOM     57  N   UNL     1      -7.587  -5.419  17.595  1.00  0.00    -0.344 N 
ATOM     58  C   UNL     1      -7.752  -4.112  17.984  1.00  0.00     0.220 C 
ATOM     59  O   UNL     1      -8.585  -3.369  17.476  1.00  0.00    -0.275 OA
ATOM     60  H   UNL     1      -6.954  -6.025  18.111  1.00  0.00     0.164 HD
BRANCH  58  61
ATOM     61  C   UNL     1      -6.780  -3.679  19.066  1.00  0.00     0.100 C 
BRANCH  61  62
ATOM     62  C   UNL     1      -6.452  -4.780  20.076  1.00  0.00     0.010 C 
BRANCH  62  63
ATOM     63  C   UNL     1      -7.489  -4.933  21.196  1.00  0.00     0.000 C 
BRANCH  63  64
ATOM     64  C   UNL     1      -8.362  -6.181  21.075  1.00  0.00    -0.003 C 
ATOM     65  C   UNL     1      -7.525  -7.451  21.127  1.00  0.00     0.004 C 
ENDBRANCH  63  64
ENDBRANCH  62  63
ENDBRANCH  61  62
ENDBRANCH  58  61
ENDBRANCH  56  57
BRANCH  56  66
ATOM     66  C   UNL     1      -8.531  -7.573  16.790  1.00  0.00     0.157 C 
BRANCH  66  67
ATOM     67  C   UNL     1      -7.164  -8.168  16.967  1.00  0.00     0.305 C 
ATOM     68  O   UNL     1      -6.470  -8.124  17.972  1.00  0.00    -0.252 OA
BRANCH  67  69
ATOM     69  O   UNL     1      -6.753  -8.842  15.876  1.00  0.00    -0.481 OA
ATOM     70  H   UNL     1      -7.559  -8.941  15.326  1.00  0.00     0.296 HD
ENDBRANCH  67  69
ENDBRANCH  66  67
ENDBRANCH  56  66
ENDBRANCH  53  56
ENDBRANCH  50  52
ENDBRANCH  47  50
ENDBRANCH  45  46
BRANCH  45  71
ATOM     71  C   UNL     1      -8.087  -8.755  10.873  1.00  0.00     0.037 C 
BRANCH  71  72
ATOM     72  C   UNL     1      -7.133  -8.658  12.066  1.00  0.00     0.026 C 
BRANCH  72  73
ATOM     73  C   UNL     1      -5.684  -8.493  11.612  1.00  0.00     0.146 C 
BRANCH  73  74
ATOM     74  N   UNL     1      -5.538  -7.150  11.061  1.00  0.00    -0.254 NA
ATOM     75  C   UNL     1      -4.941  -6.270  11.776  1.00  0.00     0.185 C 
ATOM     76  N   UNL     1      -4.790  -5.025  11.295  1.00  0.00    -0.370 N 
ATOM     77  N   UNL     1      -4.407  -6.399  13.003  1.00  0.00    -0.370 N 
ATOM     78  H   UNL     1      -5.171  -4.840  10.378  1.00  0.00     0.159 HD
ATOM     79  H   UNL     1      -4.466  -4.253  11.850  1.00  0.00     0.159 HD
ATOM     80  H   UNL     1      -4.442  -7.283  13.488  1.00  0.00     0.159 HD
ATOM     81  H   UNL     1      -3.858  -5.666  13.421  1.00  0.00     0.159 HD
ENDBRANCH  73  74
ENDBRANCH  72  73
ENDBRANCH  71  72
ENDBRANCH  45  71
ENDBRANCH   3  45
TORSDOF 20
ENDMDL
MODEL 14
REMARK VINA RESULT:    -6.299      2.878      7.027
REMARK INTER + INTRA:         -25.470
REMARK INTER:                 -20.215
REMARK INTRA:                  -5.254
REMARK UNBOUND:                -7.386
REMARK SMILES CCCCCC(=O)N[C@H](CC(=O)O)C(=O)N[C@H]1C(=O)N[C@H](CCCN=C(N)N)C(=O)N[C@@H]2CC[C@H](O)N(C2=O)[C@@H](CC(C)C)C(=O)N(C)[C@@H](Cc2ccccc2)C(=O)N[C@H](C(C)C)C(=O)O[C@@H]1C
REMARK SMILES IDX 30 1 31 2 29 3 32 5 35 6 37 7 34 8 38 9 33 10 39 11 36 12
REMARK SMILES IDX 40 14 41 15 42 16 43 17 44 18 45 19 46 20 47 21 48 22 49 23
REMARK SMILES IDX 50 24 51 25 52 26 56 27 53 28 55 29 54 30 57 31 58 32 59 33
REMARK SMILES IDX 60 35 61 36 62 37 63 38 64 39 65 40 66 41 67 42 68 43 21 45
REMARK SMILES IDX 20 46 18 47 19 48 17 50 16 52 14 53 15 54 9 56 8 57 6 58
REMARK SMILES IDX 7 59 5 61 4 62 3 63 2 64 1 65 10 66 11 67 12 68 13 69 22 71
REMARK SMILES IDX 23 72 24 73 25 74 26 75 27 76 28 77
REMARK H PARENT 31 4 36 13 59 34 20 49 16 55 8 60 13 70 27 78 27 79 28 80
REMARK H PARENT 28 81
REMARK Flexibility Score:  259.900
ROOT
ATOM      1  O   UNL     1      -4.658  -3.015   8.636  1.00  0.00    -0.273 OA
ATOM      2  N   UNL     1      -5.483  -0.894   8.864  1.00  0.00    -0.343 N 
ATOM      3  C   UNL     1      -5.559  -2.201   8.432  1.00  0.00     0.243 C 
ATOM      4  H   UNL     1      -6.250  -0.256   8.692  1.00  0.00     0.164 HD
ENDROOT
BRANCH   2   5
ATOM      5  C   UNL     1      -4.264  -0.387   9.485  1.00  0.00     0.171 C 
ATOM      6  C   UNL     1      -1.704  -1.613  10.075  1.00  0.00     0.214 C 
ATOM      7  N   UNL     1      -2.752  -1.643  11.069  1.00  0.00    -0.303 N 
ATOM      8  C   UNL     1      -1.770  -0.394   9.168  1.00  0.00     0.057 C 
ATOM      9  C   UNL     1      -4.014  -1.122  10.833  1.00  0.00     0.247 C 
ATOM     10  C   UNL     1      -3.116  -0.340   8.479  1.00  0.00     0.040 C 
ATOM     11  O   UNL     1      -4.932  -1.228  11.657  1.00  0.00    -0.272 OA
BRANCH   6  12
ATOM     12  O   UNL     1      -1.796  -2.797   9.317  1.00  0.00    -0.373 OA
ATOM     13  H   UNL     1      -2.445  -3.378   9.768  1.00  0.00     0.213 HD
ENDBRANCH   6  12
BRANCH   7  14
ATOM     14  C   UNL     1      -2.475  -2.390  12.314  1.00  0.00     0.177 C 
BRANCH  14  15
ATOM     15  C   UNL     1      -2.557  -1.561  13.609  1.00  0.00     0.038 C 
BRANCH  15  16
ATOM     16  C   UNL     1      -1.267  -0.961  14.212  1.00  0.00    -0.015 C 
ATOM     17  C   UNL     1      -0.031  -1.254  13.356  1.00  0.00     0.007 C 
ATOM     18  C   UNL     1      -1.030  -1.542  15.612  1.00  0.00     0.007 C 
ENDBRANCH  15  16
ENDBRANCH  14  15
BRANCH  14  19
ATOM     19  C   UNL     1      -2.926  -3.884  12.163  1.00  0.00     0.245 C 
ATOM     20  O   UNL     1      -4.144  -4.089  12.026  1.00  0.00    -0.272 OA
BRANCH  19  21
ATOM     21  N   UNL     1      -2.071  -4.964  12.286  1.00  0.00    -0.332 N 
ATOM     22  C   UNL     1      -1.299  -5.298  13.469  1.00  0.00     0.147 C 
BRANCH  21  23
ATOM     23  C   UNL     1      -1.910  -5.862  11.109  1.00  0.00     0.178 C 
BRANCH  23  24
ATOM     24  C   UNL     1      -0.479  -6.396  10.894  1.00  0.00     0.070 C 
BRANCH  24  25
ATOM     25  C   UNL     1       0.535  -5.434  10.320  1.00  0.00    -0.045 A 
ATOM     26  C   UNL     1       1.341  -4.656  11.160  1.00  0.00     0.004 A 
ATOM     27  C   UNL     1       0.679  -5.304   8.930  1.00  0.00     0.004 A 
ATOM     28  C   UNL     1       2.264  -3.757  10.621  1.00  0.00     0.000 A 
ATOM     29  C   UNL     1       1.603  -4.406   8.393  1.00  0.00     0.000 A 
ATOM     30  C   UNL     1       2.393  -3.631   9.240  1.00  0.00     0.000 A 
ENDBRANCH  24  25
ENDBRANCH  23  24
BRANCH  23  31
ATOM     31  C   UNL     1      -3.026  -6.930  11.007  1.00  0.00     0.243 C 
ATOM     32  O   UNL     1      -2.892  -8.099  11.360  1.00  0.00    -0.273 OA
ATOM     33  N   UNL     1      -4.141  -6.500  10.308  1.00  0.00    -0.341 N 
ATOM     34  H   UNL     1      -4.193  -5.516  10.034  1.00  0.00     0.164 HD
BRANCH  33  35
ATOM     35  C   UNL     1      -5.269  -7.378   9.986  1.00  0.00     0.194 C 
BRANCH  35  36
ATOM     36  C   UNL     1      -5.907  -7.109   8.594  1.00  0.00     0.017 C 
ATOM     37  C   UNL     1      -6.623  -8.360   8.055  1.00  0.00     0.010 C 
ATOM     38  C   UNL     1      -4.886  -6.673   7.536  1.00  0.00     0.010 C 
ENDBRANCH  35  36
BRANCH  35  39
ATOM     39  C   UNL     1      -6.337  -7.418  11.116  1.00  0.00     0.329 C 
ATOM     40  O   UNL     1      -6.193  -8.017  12.175  1.00  0.00    -0.250 OA
BRANCH  39  41
ATOM     41  O   UNL     1      -7.422  -6.635  10.833  1.00  0.00    -0.458 OA
BRANCH  41  42
ATOM     42  C   UNL     1      -7.324  -5.242  11.212  1.00  0.00     0.205 CG0
ATOM     43  C   UNL     1      -7.323  -5.185  12.738  1.00  0.00     0.056 C 
ATOM     44  G   UNL     1      -8.513  -4.479  10.594  1.00  0.00     0.000 G0
ENDBRANCH  41  42
ENDBRANCH  39  41
ENDBRANCH  35  39
ENDBRANCH  33  35
ENDBRANCH  23  31
ENDBRANCH  21  23
ENDBRANCH  19  21
ENDBRANCH  14  19
ENDBRANCH   7  14
ENDBRANCH   2   5
BRANCH   3  45
ATOM     45  C   UNL     1      -6.854  -2.576   7.699  1.00  0.00     0.171 C 
BRANCH  45  46
ATOM     46  N   UNL     1      -7.515  -3.561   8.545  1.00  0.00    -0.342 N 
ATOM     47  C   UNL     1      -7.980  -3.258   9.801  1.00  0.00     0.247 C 
ATOM     48  O   UNL     1      -7.939  -2.122  10.273  1.00  0.00    -0.273 OA
ATOM     49  H   UNL     1      -7.621  -4.502   8.170  1.00  0.00     0.164 HD
BRANCH  47  50
ATOM     50  C   UNL     1      -8.535  -4.451  10.593  1.00  0.00     0.212 CG0
ATOM     51  G   UNL     1      -7.335  -5.223  11.177  1.00  0.00     0.000 G0
BRANCH  50  52
ATOM     52  N   UNL     1      -9.401  -3.870  11.615  1.00  0.00    -0.339 N 
ATOM     53  C   UNL     1     -10.767  -4.016  11.620  1.00  0.00     0.243 C 
ATOM     54  O   UNL     1     -11.373  -4.604  10.730  1.00  0.00    -0.273 OA
ATOM     55  H   UNL     1      -8.968  -3.277  12.320  1.00  0.00     0.164 HD
BRANCH  53  56
ATOM     56  C   UNL     1     -11.476  -3.241  12.750  1.00  0.00     0.182 C 
BRANCH  56  57
ATOM     57  N   UNL     1     -10.527  -2.403  13.490  1.00  0.00    -0.344 N 
ATOM     58  C   UNL     1     -10.806  -1.103  13.833  1.00  0.00     0.220 C 
ATOM     59  O   UNL     1     -11.833  -0.530  13.484  1.00  0.00    -0.275 OA
ATOM     60  H   UNL     1      -9.713  -2.867  13.885  1.00  0.00     0.164 HD
BRANCH  58  61
ATOM     61  C   UNL     1      -9.706  -0.446  14.647  1.00  0.00     0.100 C 
BRANCH  61  62
ATOM     62  C   UNL     1      -9.261  -1.267  15.857  1.00  0.00     0.010 C 
BRANCH  62  63
ATOM     63  C   UNL     1      -7.763  -1.163  16.170  1.00  0.00     0.000 C 
BRANCH  63  64
ATOM     64  C   UNL     1      -7.435  -1.131  17.662  1.00  0.00    -0.003 C 
ATOM     65  C   UNL     1      -6.435  -2.217  18.034  1.00  0.00     0.004 C 
ENDBRANCH  63  64
ENDBRANCH  62  63
ENDBRANCH  61  62
ENDBRANCH  58  61
ENDBRANCH  56  57
BRANCH  56  66
ATOM     66  C   UNL     1     -12.255  -4.181  13.669  1.00  0.00     0.157 C 
BRANCH  66  67
ATOM     67  C   UNL     1     -11.386  -5.300  14.165  1.00  0.00     0.305 C 
ATOM     68  O   UNL     1     -11.561  -6.497  13.990  1.00  0.00    -0.252 OA
BRANCH  67  69
ATOM     69  O   UNL     1     -10.298  -4.852  14.820  1.00  0.00    -0.481 OA
ATOM     70  H   UNL     1     -10.002  -5.614  15.363  1.00  0.00     0.296 HD
ENDBRANCH  67  69
ENDBRANCH  66  67
ENDBRANCH  56  66
ENDBRANCH  53  56
ENDBRANCH  50  52
ENDBRANCH  47  50
ENDBRANCH  45  46
BRANCH  45  71
ATOM     71  C   UNL     1      -6.536  -3.146   6.312  1.00  0.00     0.037 C 
BRANCH  71  72
ATOM     72  C   UNL     1      -5.729  -2.165   5.458  1.00  0.00     0.026 C 
BRANCH  72  73
ATOM     73  C   UNL     1      -6.151  -2.221   3.991  1.00  0.00     0.146 C 
BRANCH  73  74
ATOM     74  N   UNL     1      -6.380  -0.851   3.540  1.00  0.00    -0.254 NA
ATOM     75  C   UNL     1      -6.118  -0.572   2.316  1.00  0.00     0.185 C 
ATOM     76  N   UNL     1      -6.320   0.678   1.871  1.00  0.00    -0.370 N 
ATOM     77  N   UNL     1      -5.647  -1.378   1.348  1.00  0.00    -0.370 N 
ATOM     78  H   UNL     1      -6.667   1.351   2.539  1.00  0.00     0.159 HD
ATOM     79  H   UNL     1      -6.005   1.004   0.974  1.00  0.00     0.159 HD
ATOM     80  H   UNL     1      -5.453  -2.349   1.537  1.00  0.00     0.159 HD
ATOM     81  H   UNL     1      -5.590  -1.074   0.390  1.00  0.00     0.159 HD
ENDBRANCH  73  74
ENDBRANCH  72  73
ENDBRANCH  71  72
ENDBRANCH  45  71
ENDBRANCH   3  45
TORSDOF 20
ENDMDL
MODEL 15
REMARK VINA RESULT:    -6.249      1.984      2.804
REMARK INTER + INTRA:         -25.327
REMARK INTER:                 -17.818
REMARK INTRA:                  -7.509
REMARK UNBOUND:                -7.386
REMARK SMILES CCCCCC(=O)N[C@H](CC(=O)O)C(=O)N[C@H]1C(=O)N[C@H](CCCN=C(N)N)C(=O)N[C@@H]2CC[C@H](O)N(C2=O)[C@@H](CC(C)C)C(=O)N(C)[C@@H](Cc2ccccc2)C(=O)N[C@H](C(C)C)C(=O)O[C@@H]1C
REMARK SMILES IDX 30 1 31 2 29 3 32 5 35 6 37 7 34 8 38 9 33 10 39 11 36 12
REMARK SMILES IDX 40 14 41 15 42 16 43 17 44 18 45 19 46 20 47 21 48 22 49 23
REMARK SMILES IDX 50 24 51 25 52 26 56 27 53 28 55 29 54 30 57 31 58 32 59 33
REMARK SMILES IDX 60 35 61 36 62 37 63 38 64 39 65 40 66 41 67 42 68 43 21 45
REMARK SMILES IDX 20 46 18 47 19 48 17 50 16 52 14 53 15 54 9 56 8 57 6 58
REMARK SMILES IDX 7 59 5 61 4 62 3 63 2 64 1 65 10 66 11 67 12 68 13 69 22 71
REMARK SMILES IDX 23 72 24 73 25 74 26 75 27 76 28 77
REMARK H PARENT 31 4 36 13 59 34 20 49 16 55 8 60 13 70 27 78 27 79 28 80
REMARK H PARENT 28 81
REMARK Flexibility Score:  259.900
ROOT
ATOM      1  O   UNL     1      -6.361  -8.554   9.632  1.00  0.00    -0.273 OA
ATOM      2  N   UNL     1      -5.060  -6.709   9.267  1.00  0.00    -0.343 N 
ATOM      3  C   UNL     1      -5.725  -7.600  10.081  1.00  0.00     0.243 C 
ATOM      4  H   UNL     1      -4.534  -5.944   9.672  1.00  0.00     0.164 HD
ENDROOT
BRANCH   2   5
ATOM      5  C   UNL     1      -5.184  -6.794   7.816  1.00  0.00     0.171 C 
ATOM      6  C   UNL     1      -3.610  -5.697   5.642  1.00  0.00     0.214 C 
ATOM      7  N   UNL     1      -4.729  -4.944   6.160  1.00  0.00    -0.303 N 
ATOM      8  C   UNL     1      -3.791  -7.202   5.763  1.00  0.00     0.057 C 
ATOM      9  C   UNL     1      -5.491  -5.386   7.229  1.00  0.00     0.247 C 
ATOM     10  C   UNL     1      -4.019  -7.576   7.211  1.00  0.00     0.040 C 
ATOM     11  O   UNL     1      -6.392  -4.696   7.722  1.00  0.00    -0.272 OA
BRANCH   6  12
ATOM     12  O   UNL     1      -2.455  -5.282   6.335  1.00  0.00    -0.373 OA
ATOM     13  H   UNL     1      -2.114  -4.487   5.873  1.00  0.00     0.213 HD
ENDBRANCH   6  12
BRANCH   7  14
ATOM     14  C   UNL     1      -4.948  -3.595   5.595  1.00  0.00     0.177 C 
BRANCH  14  15
ATOM     15  C   UNL     1      -6.278  -3.408   4.840  1.00  0.00     0.038 C 
BRANCH  15  16
ATOM     16  C   UNL     1      -6.272  -3.322   3.297  1.00  0.00    -0.015 C 
ATOM     17  C   UNL     1      -5.888  -4.651   2.640  1.00  0.00     0.007 C 
ATOM     18  C   UNL     1      -5.270  -2.253   2.842  1.00  0.00     0.007 C 
ENDBRANCH  15  16
ENDBRANCH  14  15
BRANCH  14  19
ATOM     19  C   UNL     1      -4.254  -2.512   6.490  1.00  0.00     0.245 C 
ATOM     20  O   UNL     1      -3.092  -2.752   6.859  1.00  0.00    -0.272 OA
BRANCH  19  21
ATOM     21  N   UNL     1      -4.893  -1.384   6.972  1.00  0.00    -0.332 N 
ATOM     22  C   UNL     1      -5.111  -0.156   6.228  1.00  0.00     0.147 C 
BRANCH  21  23
ATOM     23  C   UNL     1      -5.396  -1.413   8.373  1.00  0.00     0.178 C 
BRANCH  23  24
ATOM     24  C   UNL     1      -4.793  -0.337   9.298  1.00  0.00     0.070 C 
BRANCH  24  25
ATOM     25  C   UNL     1      -3.503  -0.682  10.006  1.00  0.00    -0.045 A 
ATOM     26  C   UNL     1      -2.264  -0.378   9.429  1.00  0.00     0.004 A 
ATOM     27  C   UNL     1      -3.531  -1.319  11.256  1.00  0.00     0.004 A 
ATOM     28  C   UNL     1      -1.076  -0.716  10.081  1.00  0.00     0.000 A 
ATOM     29  C   UNL     1      -2.343  -1.654  11.908  1.00  0.00     0.000 A 
ATOM     30  C   UNL     1      -1.117  -1.355  11.318  1.00  0.00     0.000 A 
ENDBRANCH  24  25
ENDBRANCH  23  24
BRANCH  23  31
ATOM     31  C   UNL     1      -6.934  -1.560   8.460  1.00  0.00     0.243 C 
ATOM     32  O   UNL     1      -7.647  -1.892   7.516  1.00  0.00    -0.273 OA
ATOM     33  N   UNL     1      -7.467  -1.102   9.653  1.00  0.00    -0.341 N 
ATOM     34  H   UNL     1      -6.822  -0.833  10.401  1.00  0.00     0.164 HD
BRANCH  33  35
ATOM     35  C   UNL     1      -8.908  -1.033   9.911  1.00  0.00     0.194 C 
BRANCH  35  36
ATOM     36  C   UNL     1      -9.338   0.171  10.795  1.00  0.00     0.017 C 
ATOM     37  C   UNL     1     -10.852   0.151  11.069  1.00  0.00     0.010 C 
ATOM     38  C   UNL     1      -9.002   1.531  10.170  1.00  0.00     0.010 C 
ENDBRANCH  35  36
BRANCH  35  39
ATOM     39  C   UNL     1      -9.486  -2.376  10.437  1.00  0.00     0.329 C 
ATOM     40  O   UNL     1     -10.107  -3.174   9.745  1.00  0.00    -0.250 OA
BRANCH  39  41
ATOM     41  O   UNL     1      -9.149  -2.611  11.742  1.00  0.00    -0.458 OA
BRANCH  41  42
ATOM     42  C   UNL     1      -8.931  -3.995  12.108  1.00  0.00     0.205 CG0
ATOM     43  C   UNL     1      -9.945  -4.341  13.197  1.00  0.00     0.056 C 
ATOM     44  G   UNL     1      -7.475  -4.154  12.587  1.00  0.00     0.000 G0
ENDBRANCH  41  42
ENDBRANCH  39  41
ENDBRANCH  35  39
ENDBRANCH  33  35
ENDBRANCH  23  31
ENDBRANCH  21  23
ENDBRANCH  19  21
ENDBRANCH  14  19
ENDBRANCH   7  14
ENDBRANCH   2   5
BRANCH   3  45
ATOM     45  C   UNL     1      -5.599  -7.334  11.587  1.00  0.00     0.171 C 
BRANCH  45  46
ATOM     46  N   UNL     1      -6.030  -5.956  11.781  1.00  0.00    -0.342 N 
ATOM     47  C   UNL     1      -7.071  -5.619  12.609  1.00  0.00     0.247 C 
ATOM     48  O   UNL     1      -7.667  -6.443  13.302  1.00  0.00    -0.273 OA
ATOM     49  H   UNL     1      -5.526  -5.234  11.268  1.00  0.00     0.164 HD
BRANCH  47  50
ATOM     50  C   UNL     1      -7.461  -4.134  12.591  1.00  0.00     0.212 CG0
ATOM     51  G   UNL     1      -8.912  -4.039  12.076  1.00  0.00     0.000 G0
BRANCH  50  52
ATOM     52  N   UNL     1      -7.306  -3.673  13.968  1.00  0.00    -0.339 N 
ATOM     53  C   UNL     1      -6.700  -2.487  14.304  1.00  0.00     0.243 C 
ATOM     54  O   UNL     1      -6.192  -1.744  13.470  1.00  0.00    -0.273 OA
ATOM     55  H   UNL     1      -7.608  -4.299  14.712  1.00  0.00     0.164 HD
BRANCH  53  56
ATOM     56  C   UNL     1      -6.575  -2.255  15.824  1.00  0.00     0.182 C 
BRANCH  56  57
ATOM     57  N   UNL     1      -6.013  -0.931  16.110  1.00  0.00    -0.344 N 
ATOM     58  C   UNL     1      -6.461  -0.150  17.147  1.00  0.00     0.220 C 
ATOM     59  O   UNL     1      -7.407  -0.470  17.858  1.00  0.00    -0.275 OA
ATOM     60  H   UNL     1      -5.165  -0.674  15.611  1.00  0.00     0.164 HD
BRANCH  58  61
ATOM     61  C   UNL     1      -5.696   1.153  17.292  1.00  0.00     0.100 C 
BRANCH  61  62
ATOM     62  C   UNL     1      -4.271   0.976  17.817  1.00  0.00     0.010 C 
BRANCH  62  63
ATOM     63  C   UNL     1      -3.189   1.580  16.913  1.00  0.00     0.000 C 
BRANCH  63  64
ATOM     64  C   UNL     1      -2.475   0.561  16.026  1.00  0.00    -0.003 C 
ATOM     65  C   UNL     1      -2.416  -0.808  16.688  1.00  0.00     0.004 C 
ENDBRANCH  63  64
ENDBRANCH  62  63
ENDBRANCH  61  62
ENDBRANCH  58  61
ENDBRANCH  56  57
BRANCH  56  66
ATOM     66  C   UNL     1      -5.784  -3.375  16.498  1.00  0.00     0.157 C 
BRANCH  66  67
ATOM     67  C   UNL     1      -6.619  -4.089  17.523  1.00  0.00     0.305 C 
ATOM     68  O   UNL     1      -6.789  -3.760  18.687  1.00  0.00    -0.252 OA
BRANCH  67  69
ATOM     69  O   UNL     1      -7.246  -5.165  17.012  1.00  0.00    -0.481 OA
ATOM     70  H   UNL     1      -6.569  -5.874  17.013  1.00  0.00     0.296 HD
ENDBRANCH  67  69
ENDBRANCH  66  67
ENDBRANCH  56  66
ENDBRANCH  53  56
ENDBRANCH  50  52
ENDBRANCH  47  50
ENDBRANCH  45  46
BRANCH  45  71
ATOM     71  C   UNL     1      -4.153  -7.545  12.048  1.00  0.00     0.037 C 
BRANCH  71  72
ATOM     72  C   UNL     1      -3.681  -6.434  12.990  1.00  0.00     0.026 C 
BRANCH  72  73
ATOM     73  C   UNL     1      -2.515  -5.650  12.391  1.00  0.00     0.146 C 
BRANCH  73  74
ATOM     74  N   UNL     1      -2.916  -5.200  11.062  1.00  0.00    -0.254 NA
ATOM     75  C   UNL     1      -1.994  -4.822  10.255  1.00  0.00     0.185 C 
ATOM     76  N   UNL     1      -2.331  -4.403   9.024  1.00  0.00    -0.370 N 
ATOM     77  N   UNL     1      -0.665  -4.773  10.453  1.00  0.00    -0.370 N 
ATOM     78  H   UNL     1      -3.315  -4.401   8.795  1.00  0.00     0.159 HD
ATOM     79  H   UNL     1      -1.686  -3.960   8.394  1.00  0.00     0.159 HD
ATOM     80  H   UNL     1      -0.266  -5.063  11.333  1.00  0.00     0.159 HD
ATOM     81  H   UNL     1      -0.027  -4.567   9.702  1.00  0.00     0.159 HD
ENDBRANCH  73  74
ENDBRANCH  72  73
ENDBRANCH  71  72
ENDBRANCH  45  71
ENDBRANCH   3  45
TORSDOF 20
ENDMDL
MODEL 16
REMARK VINA RESULT:    -6.233      2.927      8.699
REMARK INTER + INTRA:         -25.278
REMARK INTER:                 -18.928
REMARK INTRA:                  -6.350
REMARK UNBOUND:                -7.386
REMARK SMILES CCCCCC(=O)N[C@H](CC(=O)O)C(=O)N[C@H]1C(=O)N[C@H](CCCN=C(N)N)C(=O)N[C@@H]2CC[C@H](O)N(C2=O)[C@@H](CC(C)C)C(=O)N(C)[C@@H](Cc2ccccc2)C(=O)N[C@H](C(C)C)C(=O)O[C@@H]1C
REMARK SMILES IDX 30 1 31 2 29 3 32 5 35 6 37 7 34 8 38 9 33 10 39 11 36 12
REMARK SMILES IDX 40 14 41 15 42 16 43 17 44 18 45 19 46 20 47 21 48 22 49 23
REMARK SMILES IDX 50 24 51 25 52 26 56 27 53 28 55 29 54 30 57 31 58 32 59 33
REMARK SMILES IDX 60 35 61 36 62 37 63 38 64 39 65 40 66 41 67 42 68 43 21 45
REMARK SMILES IDX 20 46 18 47 19 48 17 50 16 52 14 53 15 54 9 56 8 57 6 58
REMARK SMILES IDX 7 59 5 61 4 62 3 63 2 64 1 65 10 66 11 67 12 68 13 69 22 71
REMARK SMILES IDX 23 72 24 73 25 74 26 75 27 76 28 77
REMARK H PARENT 31 4 36 13 59 34 20 49 16 55 8 60 13 70 27 78 27 79 28 80
REMARK H PARENT 28 81
REMARK Flexibility Score:  259.900
ROOT
ATOM      1  O   UNL     1      -9.271  -3.852   6.209  1.00  0.00    -0.273 OA
ATOM      2  N   UNL     1      -7.784  -2.397   7.158  1.00  0.00    -0.343 N 
ATOM      3  C   UNL     1      -8.110  -3.472   6.359  1.00  0.00     0.243 C 
ATOM      4  H   UNL     1      -6.819  -2.103   7.246  1.00  0.00     0.164 HD
ENDROOT
BRANCH   2   5
ATOM      5  C   UNL     1      -8.804  -1.733   7.962  1.00  0.00     0.171 C 
ATOM      6  C   UNL     1      -8.700  -0.319  10.490  1.00  0.00     0.214 C 
ATOM      7  N   UNL     1      -8.968  -1.738  10.481  1.00  0.00    -0.303 N 
ATOM      8  C   UNL     1      -9.194   0.396   9.242  1.00  0.00     0.057 C 
ATOM      9  C   UNL     1      -8.982  -2.483   9.313  1.00  0.00     0.247 C 
ATOM     10  C   UNL     1      -8.566  -0.225   8.014  1.00  0.00     0.040 C 
ATOM     11  O   UNL     1      -9.126  -3.713   9.321  1.00  0.00    -0.272 OA
BRANCH   6  12
ATOM     12  O   UNL     1      -7.310  -0.145  10.639  1.00  0.00    -0.373 OA
ATOM     13  H   UNL     1      -7.170   0.758  10.996  1.00  0.00     0.213 HD
ENDBRANCH   6  12
BRANCH   7  14
ATOM     14  C   UNL     1      -9.086  -2.407  11.794  1.00  0.00     0.177 C 
BRANCH  14  15
ATOM     15  C   UNL     1     -10.519  -2.799  12.204  1.00  0.00     0.038 C 
BRANCH  15  16
ATOM     16  C   UNL     1     -11.113  -2.245  13.517  1.00  0.00    -0.015 C 
ATOM     17  C   UNL     1     -10.548  -0.869  13.880  1.00  0.00     0.007 C 
ATOM     18  C   UNL     1     -10.809  -3.208  14.672  1.00  0.00     0.007 C 
ENDBRANCH  15  16
ENDBRANCH  14  15
BRANCH  14  19
ATOM     19  C   UNL     1      -7.795  -3.243  12.096  1.00  0.00     0.245 C 
ATOM     20  O   UNL     1      -6.707  -2.710  11.821  1.00  0.00    -0.272 OA
BRANCH  19  21
ATOM     21  N   UNL     1      -7.811  -4.555  12.535  1.00  0.00    -0.332 N 
ATOM     22  C   UNL     1      -8.639  -5.616  11.990  1.00  0.00     0.147 C 
BRANCH  21  23
ATOM     23  C   UNL     1      -6.917  -4.920  13.668  1.00  0.00     0.178 C 
BRANCH  23  24
ATOM     24  C   UNL     1      -7.597  -4.918  15.053  1.00  0.00     0.070 C 
BRANCH  24  25
ATOM     25  C   UNL     1      -7.489  -3.651  15.871  1.00  0.00    -0.045 A 
ATOM     26  C   UNL     1      -7.371  -2.403  15.247  1.00  0.00     0.004 A 
ATOM     27  C   UNL     1      -7.500  -3.711  17.272  1.00  0.00     0.004 A 
ATOM     28  C   UNL     1      -7.254  -1.239  16.010  1.00  0.00     0.000 A 
ATOM     29  C   UNL     1      -7.384  -2.546  18.033  1.00  0.00     0.000 A 
ATOM     30  C   UNL     1      -7.258  -1.311  17.401  1.00  0.00     0.000 A 
ENDBRANCH  24  25
ENDBRANCH  23  24
BRANCH  23  31
ATOM     31  C   UNL     1      -6.045  -6.164  13.373  1.00  0.00     0.243 C 
ATOM     32  O   UNL     1      -6.169  -7.242  13.948  1.00  0.00    -0.273 OA
ATOM     33  N   UNL     1      -4.980  -5.904  12.528  1.00  0.00    -0.341 N 
ATOM     34  H   UNL     1      -4.926  -4.984  12.083  1.00  0.00     0.164 HD
BRANCH  33  35
ATOM     35  C   UNL     1      -3.955  -6.901  12.204  1.00  0.00     0.194 C 
BRANCH  35  36
ATOM     36  C   UNL     1      -2.520  -6.318  12.076  1.00  0.00     0.017 C 
ATOM     37  C   UNL     1      -1.453  -7.404  12.296  1.00  0.00     0.010 C 
ATOM     38  C   UNL     1      -2.236  -5.187  13.072  1.00  0.00     0.010 C 
ENDBRANCH  35  36
BRANCH  35  39
ATOM     39  C   UNL     1      -4.339  -7.774  10.977  1.00  0.00     0.329 C 
ATOM     40  O   UNL     1      -5.157  -8.686  11.012  1.00  0.00    -0.250 OA
BRANCH  39  41
ATOM     41  O   UNL     1      -3.725  -7.356   9.829  1.00  0.00    -0.458 OA
BRANCH  41  42
ATOM     42  C   UNL     1      -4.576  -7.194   8.669  1.00  0.00     0.205 CG0
ATOM     43  C   UNL     1      -3.744  -7.559   7.441  1.00  0.00     0.056 C 
ATOM     44  G   UNL     1      -5.081  -5.738   8.628  1.00  0.00     0.000 G0
ENDBRANCH  41  42
ENDBRANCH  39  41
ENDBRANCH  35  39
ENDBRANCH  33  35
ENDBRANCH  23  31
ENDBRANCH  21  23
ENDBRANCH  19  21
ENDBRANCH  14  19
ENDBRANCH   7  14
ENDBRANCH   2   5
BRANCH   3  45
ATOM     45  C   UNL     1      -6.927  -4.148   5.652  1.00  0.00     0.171 C 
BRANCH  45  46
ATOM     46  N   UNL     1      -5.977  -4.480   6.705  1.00  0.00    -0.342 N 
ATOM     47  C   UNL     1      -6.100  -5.606   7.480  1.00  0.00     0.247 C 
ATOM     48  O   UNL     1      -6.976  -6.451   7.295  1.00  0.00    -0.273 OA
ATOM     49  H   UNL     1      -5.203  -3.835   6.854  1.00  0.00     0.164 HD
BRANCH  47  50
ATOM     50  C   UNL     1      -5.078  -5.726   8.619  1.00  0.00     0.212 CG0
ATOM     51  G   UNL     1      -4.605  -7.192   8.670  1.00  0.00     0.000 G0
BRANCH  50  52
ATOM     52  N   UNL     1      -4.011  -4.786   8.286  1.00  0.00    -0.339 N 
ATOM     53  C   UNL     1      -3.520  -3.856   9.169  1.00  0.00     0.243 C 
ATOM     54  O   UNL     1      -3.981  -3.706  10.298  1.00  0.00    -0.273 OA
ATOM     55  H   UNL     1      -3.663  -4.786   7.329  1.00  0.00     0.164 HD
BRANCH  53  56
ATOM     56  C   UNL     1      -2.456  -2.917   8.565  1.00  0.00     0.182 C 
BRANCH  56  57
ATOM     57  N   UNL     1      -1.606  -2.341   9.612  1.00  0.00    -0.344 N 
ATOM     58  C   UNL     1      -0.408  -2.903   9.979  1.00  0.00     0.220 C 
ATOM     59  O   UNL     1      -0.000  -3.961   9.511  1.00  0.00    -0.275 OA
ATOM     60  H   UNL     1      -1.856  -1.416   9.952  1.00  0.00     0.164 HD
BRANCH  58  61
ATOM     61  C   UNL     1       0.330  -2.108  11.040  1.00  0.00     0.100 C 
BRANCH  61  62
ATOM     62  C   UNL     1       1.824  -2.426  11.121  1.00  0.00     0.010 C 
BRANCH  62  63
ATOM     63  C   UNL     1       2.635  -1.422  11.950  1.00  0.00     0.000 C 
BRANCH  63  64
ATOM     64  C   UNL     1       3.932  -0.964  11.286  1.00  0.00    -0.003 C 
ATOM     65  C   UNL     1       4.240  -1.786  10.043  1.00  0.00     0.004 C 
ENDBRANCH  63  64
ENDBRANCH  62  63
ENDBRANCH  61  62
ENDBRANCH  58  61
ENDBRANCH  56  57
BRANCH  56  66
ATOM     66  C   UNL     1      -3.093  -1.843   7.684  1.00  0.00     0.157 C 
BRANCH  66  67
ATOM     67  C   UNL     1      -4.024  -0.971   8.476  1.00  0.00     0.305 C 
ATOM     68  O   UNL     1      -5.244  -1.020   8.484  1.00  0.00    -0.252 OA
BRANCH  67  69
ATOM     69  O   UNL     1      -3.364  -0.105   9.269  1.00  0.00    -0.481 OA
ATOM     70  H   UNL     1      -2.679  -0.646   9.715  1.00  0.00     0.296 HD
ENDBRANCH  67  69
ENDBRANCH  66  67
ENDBRANCH  56  66
ENDBRANCH  53  56
ENDBRANCH  50  52
ENDBRANCH  47  50
ENDBRANCH  45  46
BRANCH  45  71
ATOM     71  C   UNL     1      -6.313  -3.201   4.614  1.00  0.00     0.037 C 
BRANCH  71  72
ATOM     72  C   UNL     1      -6.022  -3.910   3.289  1.00  0.00     0.026 C 
BRANCH  72  73
ATOM     73  C   UNL     1      -5.681  -2.913   2.184  1.00  0.00     0.146 C 
BRANCH  73  74
ATOM     74  N   UNL     1      -5.364  -1.636   2.816  1.00  0.00    -0.254 NA
ATOM     75  C   UNL     1      -5.998  -0.596   2.416  1.00  0.00     0.185 C 
ATOM     76  N   UNL     1      -5.730   0.593   2.979  1.00  0.00    -0.370 N 
ATOM     77  N   UNL     1      -6.946  -0.497   1.467  1.00  0.00    -0.370 N 
ATOM     78  H   UNL     1      -5.022   0.609   3.699  1.00  0.00     0.159 HD
ATOM     79  H   UNL     1      -6.077   1.466   2.622  1.00  0.00     0.159 HD
ATOM     80  H   UNL     1      -7.252  -1.314   0.960  1.00  0.00     0.159 HD
ATOM     81  H   UNL     1      -7.457   0.357   1.318  1.00  0.00     0.159 HD
ENDBRANCH  73  74
ENDBRANCH  72  73
ENDBRANCH  71  72
ENDBRANCH  45  71
ENDBRANCH   3  45
TORSDOF 20
ENDMDL
MODEL 17
REMARK VINA RESULT:    -6.174      2.935      9.367
REMARK INTER + INTRA:         -25.110
REMARK INTER:                 -19.304
REMARK INTRA:                  -5.807
REMARK UNBOUND:                -7.386
REMARK SMILES CCCCCC(=O)N[C@H](CC(=O)O)C(=O)N[C@H]1C(=O)N[C@H](CCCN=C(N)N)C(=O)N[C@@H]2CC[C@H](O)N(C2=O)[C@@H](CC(C)C)C(=O)N(C)[C@@H](Cc2ccccc2)C(=O)N[C@H](C(C)C)C(=O)O[C@@H]1C
REMARK SMILES IDX 30 1 31 2 29 3 32 5 35 6 37 7 34 8 38 9 33 10 39 11 36 12
REMARK SMILES IDX 40 14 41 15 42 16 43 17 44 18 45 19 46 20 47 21 48 22 49 23
REMARK SMILES IDX 50 24 51 25 52 26 56 27 53 28 55 29 54 30 57 31 58 32 59 33
REMARK SMILES IDX 60 35 61 36 62 37 63 38 64 39 65 40 66 41 67 42 68 43 21 45
REMARK SMILES IDX 20 46 18 47 19 48 17 50 16 52 14 53 15 54 9 56 8 57 6 58
REMARK SMILES IDX 7 59 5 61 4 62 3 63 2 64 1 65 10 66 11 67 12 68 13 69 22 71
REMARK SMILES IDX 23 72 24 73 25 74 26 75 27 76 28 77
REMARK H PARENT 31 4 36 13 59 34 20 49 16 55 8 60 13 70 27 78 27 79 28 80
REMARK H PARENT 28 81
REMARK Flexibility Score:  259.900
ROOT
ATOM      1  O   UNL     1      -9.637  -1.929   7.453  1.00  0.00    -0.273 OA
ATOM      2  N   UNL     1      -8.317  -1.173   9.160  1.00  0.00    -0.343 N 
ATOM      3  C   UNL     1      -8.520  -1.629   7.876  1.00  0.00     0.243 C 
ATOM      4  H   UNL     1      -7.386  -0.922   9.469  1.00  0.00     0.164 HD
ENDROOT
BRANCH   2   5
ATOM      5  C   UNL     1      -9.415  -1.140  10.119  1.00  0.00     0.171 C 
ATOM      6  C   UNL     1      -9.508  -1.357  13.009  1.00  0.00     0.214 C 
ATOM      7  N   UNL     1      -9.631  -2.549  12.203  1.00  0.00    -0.303 N 
ATOM      8  C   UNL     1     -10.046  -0.110  12.325  1.00  0.00     0.057 C 
ATOM      9  C   UNL     1      -9.545  -2.523  10.820  1.00  0.00     0.247 C 
ATOM     10  C   UNL     1      -9.332   0.100  11.007  1.00  0.00     0.040 C 
ATOM     11  O   UNL     1      -9.565  -3.559  10.142  1.00  0.00    -0.272 OA
BRANCH   6  12
ATOM     12  O   UNL     1      -8.146  -1.194  13.330  1.00  0.00    -0.373 OA
ATOM     13  H   UNL     1      -8.040  -1.451  14.271  1.00  0.00     0.213 HD
ENDBRANCH   6  12
BRANCH   7  14
ATOM     14  C   UNL     1      -9.709  -3.839  12.921  1.00  0.00     0.177 C 
BRANCH  14  15
ATOM     15  C   UNL     1     -11.130  -4.409  13.094  1.00  0.00     0.038 C 
BRANCH  15  16
ATOM     16  C   UNL     1     -12.140  -3.673  14.002  1.00  0.00    -0.015 C 
ATOM     17  C   UNL     1     -11.558  -3.349  15.381  1.00  0.00     0.007 C 
ATOM     18  C   UNL     1     -13.389  -4.541  14.199  1.00  0.00     0.007 C 
ENDBRANCH  15  16
ENDBRANCH  14  15
BRANCH  14  19
ATOM     19  C   UNL     1      -8.418  -4.687  12.656  1.00  0.00     0.245 C 
ATOM     20  O   UNL     1      -7.370  -4.057  12.436  1.00  0.00    -0.272 OA
BRANCH  19  21
ATOM     21  N   UNL     1      -8.410  -6.066  12.544  1.00  0.00    -0.332 N 
ATOM     22  C   UNL     1      -9.276  -6.847  11.679  1.00  0.00     0.147 C 
BRANCH  21  23
ATOM     23  C   UNL     1      -7.445  -6.827  13.385  1.00  0.00     0.178 C 
BRANCH  23  24
ATOM     24  C   UNL     1      -8.065  -7.512  14.621  1.00  0.00     0.070 C 
BRANCH  24  25
ATOM     25  C   UNL     1      -8.478  -6.618  15.767  1.00  0.00    -0.045 A 
ATOM     26  C   UNL     1      -9.672  -6.849  16.462  1.00  0.00     0.004 A 
ATOM     27  C   UNL     1      -7.669  -5.537  16.149  1.00  0.00     0.004 A 
ATOM     28  C   UNL     1     -10.055  -6.009  17.510  1.00  0.00     0.000 A 
ATOM     29  C   UNL     1      -8.053  -4.699  17.197  1.00  0.00     0.000 A 
ATOM     30  C   UNL     1      -9.248  -4.934  17.874  1.00  0.00     0.000 A 
ENDBRANCH  24  25
ENDBRANCH  23  24
BRANCH  23  31
ATOM     31  C   UNL     1      -6.494  -7.721  12.554  1.00  0.00     0.243 C 
ATOM     32  O   UNL     1      -6.183  -8.868  12.864  1.00  0.00    -0.273 OA
ATOM     33  N   UNL     1      -5.870  -7.050  11.516  1.00  0.00    -0.341 N 
ATOM     34  H   UNL     1      -6.167  -6.093  11.309  1.00  0.00     0.164 HD
BRANCH  33  35
ATOM     35  C   UNL     1      -4.841  -7.663  10.672  1.00  0.00     0.194 C 
BRANCH  35  36
ATOM     36  C   UNL     1      -3.416  -7.078  10.880  1.00  0.00     0.017 C 
ATOM     37  C   UNL     1      -2.499  -8.081  11.601  1.00  0.00     0.010 C 
ATOM     38  C   UNL     1      -3.410  -5.780  11.698  1.00  0.00     0.010 C 
ENDBRANCH  35  36
BRANCH  35  39
ATOM     39  C   UNL     1      -5.242  -7.696   9.170  1.00  0.00     0.329 C 
ATOM     40  O   UNL     1      -6.252  -8.240   8.741  1.00  0.00    -0.250 OA
BRANCH  39  41
ATOM     41  O   UNL     1      -4.384  -6.972   8.388  1.00  0.00    -0.458 OA
BRANCH  41  42
ATOM     42  C   UNL     1      -4.993  -6.092   7.413  1.00  0.00     0.205 CG0
ATOM     43  C   UNL     1      -4.212  -6.248   6.110  1.00  0.00     0.056 C 
ATOM     44  G   UNL     1      -4.951  -4.651   7.957  1.00  0.00     0.000 G0
ENDBRANCH  41  42
ENDBRANCH  39  41
ENDBRANCH  35  39
ENDBRANCH  33  35
ENDBRANCH  23  31
ENDBRANCH  21  23
ENDBRANCH  19  21
ENDBRANCH  14  19
ENDBRANCH   7  14
ENDBRANCH   2   5
BRANCH   3  45
ATOM     45  C   UNL     1      -7.261  -1.716   7.002  1.00  0.00     0.171 C 
BRANCH  45  46
ATOM     46  N   UNL     1      -6.365  -2.633   7.694  1.00  0.00    -0.342 N 
ATOM     47  C   UNL     1      -5.771  -3.698   7.063  1.00  0.00     0.247 C 
ATOM     48  O   UNL     1      -5.893  -3.912   5.856  1.00  0.00    -0.273 OA
ATOM     49  H   UNL     1      -6.192  -2.459   8.682  1.00  0.00     0.164 HD
BRANCH  47  50
ATOM     50  C   UNL     1      -4.960  -4.626   7.978  1.00  0.00     0.212 CG0
ATOM     51  G   UNL     1      -5.016  -6.043   7.374  1.00  0.00     0.000 G0
BRANCH  50  52
ATOM     52  N   UNL     1      -3.613  -4.064   8.008  1.00  0.00    -0.339 N 
ATOM     53  C   UNL     1      -3.189  -3.165   8.956  1.00  0.00     0.243 C 
ATOM     54  O   UNL     1      -3.933  -2.721   9.826  1.00  0.00    -0.273 OA
ATOM     55  H   UNL     1      -2.982  -4.308   7.246  1.00  0.00     0.164 HD
BRANCH  53  56
ATOM     56  C   UNL     1      -1.755  -2.646   8.732  1.00  0.00     0.182 C 
BRANCH  56  57
ATOM     57  N   UNL     1      -0.766  -3.570   9.298  1.00  0.00    -0.344 N 
ATOM     58  C   UNL     1       0.030  -4.367   8.512  1.00  0.00     0.220 C 
ATOM     59  O   UNL     1      -0.079  -4.416   7.291  1.00  0.00    -0.275 OA
ATOM     60  H   UNL     1      -0.574  -3.487  10.292  1.00  0.00     0.164 HD
BRANCH  58  61
ATOM     61  C   UNL     1       1.019  -5.199   9.307  1.00  0.00     0.100 C 
BRANCH  61  62
ATOM     62  C   UNL     1       0.390  -5.948  10.482  1.00  0.00     0.010 C 
BRANCH  62  63
ATOM     63  C   UNL     1       1.217  -5.898  11.773  1.00  0.00     0.000 C 
BRANCH  63  64
ATOM     64  C   UNL     1       0.851  -6.974  12.794  1.00  0.00    -0.003 C 
ATOM     65  C   UNL     1      -0.102  -6.434  13.852  1.00  0.00     0.004 C 
ENDBRANCH  63  64
ENDBRANCH  62  63
ENDBRANCH  61  62
ENDBRANCH  58  61
ENDBRANCH  56  57
BRANCH  56  66
ATOM     66  C   UNL     1      -1.584  -1.224   9.264  1.00  0.00     0.157 C 
BRANCH  66  67
ATOM     67  C   UNL     1      -2.270  -0.225   8.376  1.00  0.00     0.305 C 
ATOM     68  O   UNL     1      -2.286  -0.221   7.155  1.00  0.00    -0.252 OA
BRANCH  67  69
ATOM     69  O   UNL     1      -2.952   0.700   9.078  1.00  0.00    -0.481 OA
ATOM     70  H   UNL     1      -2.264   1.295   9.443  1.00  0.00     0.296 HD
ENDBRANCH  67  69
ENDBRANCH  66  67
ENDBRANCH  56  66
ENDBRANCH  53  56
ENDBRANCH  50  52
ENDBRANCH  47  50
ENDBRANCH  45  46
BRANCH  45  71
ATOM     71  C   UNL     1      -6.631  -0.329   6.835  1.00  0.00     0.037 C 
BRANCH  71  72
ATOM     72  C   UNL     1      -6.642   0.136   5.376  1.00  0.00     0.026 C 
BRANCH  72  73
ATOM     73  C   UNL     1      -5.359  -0.264   4.651  1.00  0.00     0.146 C 
BRANCH  73  74
ATOM     74  N   UNL     1      -5.646  -0.296   3.220  1.00  0.00    -0.254 NA
ATOM     75  C   UNL     1      -5.666  -1.438   2.638  1.00  0.00     0.185 C 
ATOM     76  N   UNL     1      -5.929  -1.499   1.322  1.00  0.00    -0.370 N 
ATOM     77  N   UNL     1      -5.456  -2.657   3.162  1.00  0.00    -0.370 N 
ATOM     78  H   UNL     1      -6.092  -0.622   0.847  1.00  0.00     0.159 HD
ATOM     79  H   UNL     1      -5.820  -2.334   0.774  1.00  0.00     0.159 HD
ATOM     80  H   UNL     1      -5.252  -2.766   4.144  1.00  0.00     0.159 HD
ATOM     81  H   UNL     1      -5.613  -3.496   2.629  1.00  0.00     0.159 HD
ENDBRANCH  73  74
ENDBRANCH  72  73
ENDBRANCH  71  72
ENDBRANCH  45  71
ENDBRANCH   3  45
TORSDOF 20
ENDMDL
MODEL 18
REMARK VINA RESULT:    -6.154      2.568      6.525
REMARK INTER + INTRA:         -25.051
REMARK INTER:                 -17.945
REMARK INTRA:                  -7.107
REMARK UNBOUND:                -7.386
REMARK SMILES CCCCCC(=O)N[C@H](CC(=O)O)C(=O)N[C@H]1C(=O)N[C@H](CCCN=C(N)N)C(=O)N[C@@H]2CC[C@H](O)N(C2=O)[C@@H](CC(C)C)C(=O)N(C)[C@@H](Cc2ccccc2)C(=O)N[C@H](C(C)C)C(=O)O[C@@H]1C
REMARK SMILES IDX 30 1 31 2 29 3 32 5 35 6 37 7 34 8 38 9 33 10 39 11 36 12
REMARK SMILES IDX 40 14 41 15 42 16 43 17 44 18 45 19 46 20 47 21 48 22 49 23
REMARK SMILES IDX 50 24 51 25 52 26 56 27 53 28 55 29 54 30 57 31 58 32 59 33
REMARK SMILES IDX 60 35 61 36 62 37 63 38 64 39 65 40 66 41 67 42 68 43 21 45
REMARK SMILES IDX 20 46 18 47 19 48 17 50 16 52 14 53 15 54 9 56 8 57 6 58
REMARK SMILES IDX 7 59 5 61 4 62 3 63 2 64 1 65 10 66 11 67 12 68 13 69 22 71
REMARK SMILES IDX 23 72 24 73 25 74 26 75 27 76 28 77
REMARK H PARENT 31 4 36 13 59 34 20 49 16 55 8 60 13 70 27 78 27 79 28 80
REMARK H PARENT 28 81
REMARK Flexibility Score:  259.900
ROOT
ATOM      1  O   UNL     1      -7.223  -1.344   8.095  1.00  0.00    -0.273 OA
ATOM      2  N   UNL     1      -5.206  -0.270   8.182  1.00  0.00    -0.343 N 
ATOM      3  C   UNL     1      -6.458  -0.572   8.673  1.00  0.00     0.243 C 
ATOM      4  H   UNL     1      -4.598   0.359   8.693  1.00  0.00     0.164 HD
ENDROOT
BRANCH   2   5
ATOM      5  C   UNL     1      -4.779  -0.768   6.880  1.00  0.00     0.171 C 
ATOM      6  C   UNL     1      -6.048  -2.491   4.923  1.00  0.00     0.214 C 
ATOM      7  N   UNL     1      -5.205  -3.073   5.942  1.00  0.00    -0.303 N 
ATOM      8  C   UNL     1      -5.637  -1.079   4.536  1.00  0.00     0.057 C 
ATOM      9  C   UNL     1      -4.610  -2.314   6.936  1.00  0.00     0.247 C 
ATOM     10  C   UNL     1      -5.643  -0.190   5.761  1.00  0.00     0.040 C 
ATOM     11  O   UNL     1      -3.961  -2.830   7.855  1.00  0.00    -0.272 OA
BRANCH   6  12
ATOM     12  O   UNL     1      -7.373  -2.504   5.402  1.00  0.00    -0.373 OA
ATOM     13  H   UNL     1      -7.953  -2.708   4.638  1.00  0.00     0.213 HD
ENDBRANCH   6  12
BRANCH   7  14
ATOM     14  C   UNL     1      -5.115  -4.548   5.975  1.00  0.00     0.177 C 
BRANCH  14  15
ATOM     15  C   UNL     1      -6.285  -5.292   5.302  1.00  0.00     0.038 C 
BRANCH  15  16
ATOM     16  C   UNL     1      -7.072  -6.355   6.101  1.00  0.00    -0.015 C 
ATOM     17  C   UNL     1      -7.072  -7.722   5.412  1.00  0.00     0.007 C 
ATOM     18  C   UNL     1      -8.527  -5.902   6.272  1.00  0.00     0.007 C 
ENDBRANCH  15  16
ENDBRANCH  14  15
BRANCH  14  19
ATOM     19  C   UNL     1      -3.615  -5.002   5.945  1.00  0.00     0.245 C 
ATOM     20  O   UNL     1      -2.861  -4.390   5.170  1.00  0.00    -0.272 OA
BRANCH  19  21
ATOM     21  N   UNL     1      -3.126  -6.095   6.637  1.00  0.00    -0.332 N 
ATOM     22  C   UNL     1      -2.370  -7.191   6.057  1.00  0.00     0.147 C 
BRANCH  21  23
ATOM     23  C   UNL     1      -3.401  -6.174   8.098  1.00  0.00     0.178 C 
BRANCH  23  24
ATOM     24  C   UNL     1      -4.041  -7.497   8.565  1.00  0.00     0.070 C 
BRANCH  24  25
ATOM     25  C   UNL     1      -5.479  -7.441   9.027  1.00  0.00    -0.045 A 
ATOM     26  C   UNL     1      -5.964  -6.330   9.728  1.00  0.00     0.004 A 
ATOM     27  C   UNL     1      -6.349  -8.509   8.763  1.00  0.00     0.004 A 
ATOM     28  C   UNL     1      -7.290  -6.293  10.166  1.00  0.00     0.000 A 
ATOM     29  C   UNL     1      -7.674  -8.471   9.201  1.00  0.00     0.000 A 
ATOM     30  C   UNL     1      -8.142  -7.364   9.905  1.00  0.00     0.000 A 
ENDBRANCH  24  25
ENDBRANCH  23  24
BRANCH  23  31
ATOM     31  C   UNL     1      -2.215  -5.683   8.963  1.00  0.00     0.243 C 
ATOM     32  O   UNL     1      -1.051  -5.647   8.574  1.00  0.00    -0.273 OA
ATOM     33  N   UNL     1      -2.551  -5.461  10.288  1.00  0.00    -0.341 N 
ATOM     34  H   UNL     1      -3.538  -5.512  10.553  1.00  0.00     0.164 HD
BRANCH  33  35
ATOM     35  C   UNL     1      -1.566  -5.107  11.313  1.00  0.00     0.194 C 
BRANCH  35  36
ATOM     36  C   UNL     1      -1.112  -6.302  12.197  1.00  0.00     0.017 C 
ATOM     37  C   UNL     1       0.267  -6.827  11.763  1.00  0.00     0.010 C 
ATOM     38  C   UNL     1      -2.086  -7.486  12.159  1.00  0.00     0.010 C 
ENDBRANCH  35  36
BRANCH  35  39
ATOM     39  C   UNL     1      -2.007  -3.886  12.169  1.00  0.00     0.329 C 
ATOM     40  O   UNL     1      -1.260  -2.970  12.494  1.00  0.00    -0.250 OA
BRANCH  39  41
ATOM     41  O   UNL     1      -3.345  -3.903  12.448  1.00  0.00    -0.458 OA
BRANCH  41  42
ATOM     42  C   UNL     1      -3.912  -2.667  12.944  1.00  0.00     0.205 CG0
ATOM     43  C   UNL     1      -3.868  -2.726  14.469  1.00  0.00     0.056 C 
ATOM     44  G   UNL     1      -5.349  -2.532  12.401  1.00  0.00     0.000 G0
ENDBRANCH  41  42
ENDBRANCH  39  41
ENDBRANCH  35  39
ENDBRANCH  33  35
ENDBRANCH  23  31
ENDBRANCH  21  23
ENDBRANCH  19  21
ENDBRANCH  14  19
ENDBRANCH   7  14
ENDBRANCH   2   5
BRANCH   3  45
ATOM     45  C   UNL     1      -6.824   0.105  10.001  1.00  0.00     0.171 C 
BRANCH  45  46
ATOM     46  N   UNL     1      -6.620  -0.908  11.028  1.00  0.00    -0.342 N 
ATOM     47  C   UNL     1      -5.373  -1.364  11.376  1.00  0.00     0.247 C 
ATOM     48  O   UNL     1      -4.336  -0.900  10.901  1.00  0.00    -0.273 OA
ATOM     49  H   UNL     1      -7.450  -1.279  11.488  1.00  0.00     0.164 HD
BRANCH  47  50
ATOM     50  C   UNL     1      -5.362  -2.519  12.387  1.00  0.00     0.212 CG0
ATOM     51  G   UNL     1      -3.922  -2.662  12.917  1.00  0.00     0.000 G0
BRANCH  50  52
ATOM     52  N   UNL     1      -6.323  -2.142  13.421  1.00  0.00    -0.339 N 
ATOM     53  C   UNL     1      -7.493  -2.824  13.650  1.00  0.00     0.243 C 
ATOM     54  O   UNL     1      -7.849  -3.778  12.963  1.00  0.00    -0.273 OA
ATOM     55  H   UNL     1      -6.138  -1.293  13.950  1.00  0.00     0.164 HD
BRANCH  53  56
ATOM     56  C   UNL     1      -8.387  -2.189  14.734  1.00  0.00     0.182 C 
BRANCH  56  57
ATOM     57  N   UNL     1      -7.731  -2.225  16.045  1.00  0.00    -0.344 N 
ATOM     58  C   UNL     1      -7.718  -1.144  16.892  1.00  0.00     0.220 C 
ATOM     59  O   UNL     1      -8.187  -0.054  16.583  1.00  0.00    -0.275 OA
ATOM     60  H   UNL     1      -7.422  -3.134  16.380  1.00  0.00     0.164 HD
BRANCH  58  61
ATOM     61  C   UNL     1      -7.035  -1.426  18.217  1.00  0.00     0.100 C 
BRANCH  61  62
ATOM     62  C   UNL     1      -6.485  -2.847  18.337  1.00  0.00     0.010 C 
BRANCH  62  63
ATOM     63  C   UNL     1      -7.389  -3.806  19.122  1.00  0.00     0.000 C 
BRANCH  63  64
ATOM     64  C   UNL     1      -7.762  -5.078  18.364  1.00  0.00    -0.003 C 
ATOM     65  C   UNL     1      -9.269  -5.295  18.351  1.00  0.00     0.004 C 
ENDBRANCH  63  64
ENDBRANCH  62  63
ENDBRANCH  61  62
ENDBRANCH  58  61
ENDBRANCH  56  57
BRANCH  56  66
ATOM     66  C   UNL     1      -9.773  -2.831  14.764  1.00  0.00     0.157 C 
BRANCH  66  67
ATOM     67  C   UNL     1     -10.854  -1.799  14.620  1.00  0.00     0.305 C 
ATOM     68  O   UNL     1     -12.034  -2.003  14.379  1.00  0.00    -0.252 OA
BRANCH  67  69
ATOM     69  O   UNL     1     -10.402  -0.550  14.840  1.00  0.00    -0.481 OA
ATOM     70  H   UNL     1     -10.607  -0.060  14.016  1.00  0.00     0.296 HD
ENDBRANCH  67  69
ENDBRANCH  66  67
ENDBRANCH  56  66
ENDBRANCH  53  56
ENDBRANCH  50  52
ENDBRANCH  47  50
ENDBRANCH  45  46
BRANCH  45  71
ATOM     71  C   UNL     1      -8.276   0.593   9.969  1.00  0.00     0.037 C 
BRANCH  71  72
ATOM     72  C   UNL     1      -9.115  -0.020  11.093  1.00  0.00     0.026 C 
BRANCH  72  73
ATOM     73  C   UNL     1     -10.411  -0.625  10.558  1.00  0.00     0.146 C 
BRANCH  73  74
ATOM     74  N   UNL     1     -10.632  -1.891  11.250  1.00  0.00    -0.254 NA
ATOM     75  C   UNL     1     -10.072  -2.941  10.772  1.00  0.00     0.185 C 
ATOM     76  N   UNL     1     -10.255  -4.120  11.387  1.00  0.00    -0.370 N 
ATOM     77  N   UNL     1      -9.283  -3.059   9.690  1.00  0.00    -0.370 N 
ATOM     78  H   UNL     1     -10.843  -4.122  12.208  1.00  0.00     0.159 HD
ATOM     79  H   UNL     1      -9.971  -5.000  10.993  1.00  0.00     0.159 HD
ATOM     80  H   UNL     1      -9.055  -2.251   9.130  1.00  0.00     0.159 HD
ATOM     81  H   UNL     1      -8.804  -3.918   9.476  1.00  0.00     0.159 HD
ENDBRANCH  73  74
ENDBRANCH  72  73
ENDBRANCH  71  72
ENDBRANCH  45  71
ENDBRANCH   3  45
TORSDOF 20
ENDMDL
MODEL 19
REMARK VINA RESULT:    -6.141      3.269      8.031
REMARK INTER + INTRA:         -25.014
REMARK INTER:                 -16.526
REMARK INTRA:                  -8.488
REMARK UNBOUND:                -7.386
REMARK SMILES CCCCCC(=O)N[C@H](CC(=O)O)C(=O)N[C@H]1C(=O)N[C@H](CCCN=C(N)N)C(=O)N[C@@H]2CC[C@H](O)N(C2=O)[C@@H](CC(C)C)C(=O)N(C)[C@@H](Cc2ccccc2)C(=O)N[C@H](C(C)C)C(=O)O[C@@H]1C
REMARK SMILES IDX 30 1 31 2 29 3 32 5 35 6 37 7 34 8 38 9 33 10 39 11 36 12
REMARK SMILES IDX 40 14 41 15 42 16 43 17 44 18 45 19 46 20 47 21 48 22 49 23
REMARK SMILES IDX 50 24 51 25 52 26 56 27 53 28 55 29 54 30 57 31 58 32 59 33
REMARK SMILES IDX 60 35 61 36 62 37 63 38 64 39 65 40 66 41 67 42 68 43 21 45
REMARK SMILES IDX 20 46 18 47 19 48 17 50 16 52 14 53 15 54 9 56 8 57 6 58
REMARK SMILES IDX 7 59 5 61 4 62 3 63 2 64 1 65 10 66 11 67 12 68 13 69 22 71
REMARK SMILES IDX 23 72 24 73 25 74 26 75 27 76 28 77
REMARK H PARENT 31 4 36 13 59 34 20 49 16 55 8 60 13 70 27 78 27 79 28 80
REMARK H PARENT 28 81
REMARK Flexibility Score:  259.900
ROOT
ATOM      1  O   UNL     1      -2.394  -6.331   9.847  1.00  0.00    -0.273 OA
ATOM      2  N   UNL     1      -4.631  -6.473  10.300  1.00  0.00    -0.343 N 
ATOM      3  C   UNL     1      -3.557  -6.075   9.534  1.00  0.00     0.243 C 
ATOM      4  H   UNL     1      -5.575  -6.257  10.004  1.00  0.00     0.164 HD
ENDROOT
BRANCH   2   5
ATOM      5  C   UNL     1      -4.423  -7.120  11.591  1.00  0.00     0.171 C 
ATOM      6  C   UNL     1      -6.220  -8.458  13.431  1.00  0.00     0.214 C 
ATOM      7  N   UNL     1      -5.978  -7.042  13.578  1.00  0.00    -0.303 N 
ATOM      8  C   UNL     1      -5.038  -9.212  12.843  1.00  0.00     0.057 C 
ATOM      9  C   UNL     1      -5.172  -6.331  12.703  1.00  0.00     0.247 C 
ATOM     10  C   UNL     1      -4.673  -8.624  11.497  1.00  0.00     0.040 C 
ATOM     11  O   UNL     1      -5.039  -5.103  12.784  1.00  0.00    -0.272 OA
BRANCH   6  12
ATOM     12  O   UNL     1      -7.360  -8.618  12.618  1.00  0.00    -0.373 OA
ATOM     13  H   UNL     1      -7.228  -9.438  12.096  1.00  0.00     0.213 HD
ENDBRANCH   6  12
BRANCH   7  14
ATOM     14  C   UNL     1      -6.749  -6.335  14.623  1.00  0.00     0.177 C 
BRANCH  14  15
ATOM     15  C   UNL     1      -6.011  -6.139  15.962  1.00  0.00     0.038 C 
BRANCH  15  16
ATOM     16  C   UNL     1      -6.374  -7.033  17.168  1.00  0.00    -0.015 C 
ATOM     17  C   UNL     1      -5.361  -8.161  17.385  1.00  0.00     0.007 C 
ATOM     18  C   UNL     1      -7.756  -7.663  16.950  1.00  0.00     0.007 C 
ENDBRANCH  15  16
ENDBRANCH  14  15
BRANCH  14  19
ATOM     19  C   UNL     1      -7.732  -5.303  13.970  1.00  0.00     0.245 C 
ATOM     20  O   UNL     1      -8.456  -5.725  13.052  1.00  0.00    -0.272 OA
BRANCH  19  21
ATOM     21  N   UNL     1      -7.752  -3.955  14.279  1.00  0.00    -0.332 N 
ATOM     22  C   UNL     1      -6.774  -3.264  15.100  1.00  0.00     0.147 C 
BRANCH  21  23
ATOM     23  C   UNL     1      -8.872  -3.134  13.740  1.00  0.00     0.178 C 
BRANCH  23  24
ATOM     24  C   UNL     1      -9.920  -2.704  14.787  1.00  0.00     0.070 C 
BRANCH  24  25
ATOM     25  C   UNL     1     -11.005  -3.700  15.123  1.00  0.00    -0.045 A 
ATOM     26  C   UNL     1     -10.774  -4.732  16.042  1.00  0.00     0.004 A 
ATOM     27  C   UNL     1     -12.265  -3.607  14.512  1.00  0.00     0.004 A 
ATOM     28  C   UNL     1     -11.777  -5.658  16.334  1.00  0.00     0.000 A 
ATOM     29  C   UNL     1     -13.267  -4.533  14.806  1.00  0.00     0.000 A 
ATOM     30  C   UNL     1     -13.021  -5.559  15.715  1.00  0.00     0.000 A 
ENDBRANCH  24  25
ENDBRANCH  23  24
BRANCH  23  31
ATOM     31  C   UNL     1      -8.393  -2.005  12.796  1.00  0.00     0.243 C 
ATOM     32  O   UNL     1      -8.569  -0.809  13.012  1.00  0.00    -0.273 OA
ATOM     33  N   UNL     1      -7.907  -2.467  11.584  1.00  0.00    -0.341 N 
ATOM     34  H   UNL     1      -7.789  -3.475  11.461  1.00  0.00     0.164 HD
BRANCH  33  35
ATOM     35  C   UNL     1      -7.509  -1.574  10.492  1.00  0.00     0.194 C 
BRANCH  35  36
ATOM     36  C   UNL     1      -8.168  -1.911   9.125  1.00  0.00     0.017 C 
ATOM     37  C   UNL     1      -9.326  -0.949   8.810  1.00  0.00     0.010 C 
ATOM     38  C   UNL     1      -8.726  -3.338   9.058  1.00  0.00     0.010 C 
ENDBRANCH  35  36
BRANCH  35  39
ATOM     39  C   UNL     1      -5.966  -1.428  10.372  1.00  0.00     0.329 C 
ATOM     40  O   UNL     1      -5.236  -1.085  11.294  1.00  0.00    -0.250 OA
BRANCH  39  41
ATOM     41  O   UNL     1      -5.501  -1.810   9.144  1.00  0.00    -0.458 OA
BRANCH  41  42
ATOM     42  C   UNL     1      -4.647  -0.863   8.459  1.00  0.00     0.205 CG0
ATOM     43  C   UNL     1      -5.358  -0.463   7.167  1.00  0.00     0.056 C 
ATOM     44  G   UNL     1      -3.282  -1.530   8.199  1.00  0.00     0.000 G0
ENDBRANCH  41  42
ENDBRANCH  39  41
ENDBRANCH  35  39
ENDBRANCH  33  35
ENDBRANCH  23  31
ENDBRANCH  21  23
ENDBRANCH  19  21
ENDBRANCH  14  19
ENDBRANCH   7  14
ENDBRANCH   2   5
BRANCH   3  45
ATOM     45  C   UNL     1      -3.912  -5.309   8.253  1.00  0.00     0.171 C 
BRANCH  45  46
ATOM     46  N   UNL     1      -3.769  -3.898   8.585  1.00  0.00    -0.342 N 
ATOM     47  C   UNL     1      -3.507  -2.941   7.637  1.00  0.00     0.247 C 
ATOM     48  O   UNL     1      -3.446  -3.192   6.433  1.00  0.00    -0.273 OA
ATOM     49  H   UNL     1      -3.869  -3.637   9.565  1.00  0.00     0.164 HD
BRANCH  47  50
ATOM     50  C   UNL     1      -3.266  -1.528   8.188  1.00  0.00     0.212 CG0
ATOM     51  G   UNL     1      -4.643  -0.879   8.429  1.00  0.00     0.000 G0
BRANCH  50  52
ATOM     52  N   UNL     1      -2.494  -1.715   9.414  1.00  0.00    -0.339 N 
ATOM     53  C   UNL     1      -1.646  -0.763   9.925  1.00  0.00     0.243 C 
ATOM     54  O   UNL     1      -1.430   0.305   9.358  1.00  0.00    -0.273 OA
ATOM     55  H   UNL     1      -2.545  -2.623   9.871  1.00  0.00     0.164 HD
BRANCH  53  56
ATOM     56  C   UNL     1      -0.874  -1.219  11.180  1.00  0.00     0.182 C 
BRANCH  56  57
ATOM     57  N   UNL     1       0.070  -2.294  10.855  1.00  0.00    -0.344 N 
ATOM     58  C   UNL     1       1.382  -2.268  11.259  1.00  0.00     0.220 C 
ATOM     59  O   UNL     1       1.875  -1.315  11.853  1.00  0.00    -0.275 OA
ATOM     60  H   UNL     1      -0.320  -3.144  10.455  1.00  0.00     0.164 HD
BRANCH  58  61
ATOM     61  C   UNL     1       2.158  -3.510  10.862  1.00  0.00     0.100 C 
BRANCH  61  62
ATOM     62  C   UNL     1       1.578  -4.806  11.428  1.00  0.00     0.010 C 
BRANCH  62  63
ATOM     63  C   UNL     1       0.864  -5.680  10.388  1.00  0.00     0.000 C 
BRANCH  63  64
ATOM     64  C   UNL     1       1.174  -5.309   8.939  1.00  0.00    -0.003 C 
ATOM     65  C   UNL     1       0.079  -4.437   8.342  1.00  0.00     0.004 C 
ENDBRANCH  63  64
ENDBRANCH  62  63
ENDBRANCH  61  62
ENDBRANCH  58  61
ENDBRANCH  56  57
BRANCH  56  66
ATOM     66  C   UNL     1      -1.824  -1.608  12.311  1.00  0.00     0.157 C 
BRANCH  66  67
ATOM     67  C   UNL     1      -2.107  -3.082  12.301  1.00  0.00     0.305 C 
ATOM     68  O   UNL     1      -1.464  -3.956  12.862  1.00  0.00    -0.252 OA
BRANCH  67  69
ATOM     69  O   UNL     1      -3.230  -3.383  11.621  1.00  0.00    -0.481 OA
ATOM     70  H   UNL     1      -3.285  -4.361  11.649  1.00  0.00     0.296 HD
ENDBRANCH  67  69
ENDBRANCH  66  67
ENDBRANCH  56  66
ENDBRANCH  53  56
ENDBRANCH  50  52
ENDBRANCH  47  50
ENDBRANCH  45  46
BRANCH  45  71
ATOM     71  C   UNL     1      -5.341  -5.644   7.809  1.00  0.00     0.037 C 
BRANCH  71  72
ATOM     72  C   UNL     1      -5.390  -6.886   6.916  1.00  0.00     0.026 C 
BRANCH  72  73
ATOM     73  C   UNL     1      -6.472  -7.862   7.373  1.00  0.00     0.146 C 
BRANCH  73  74
ATOM     74  N   UNL     1      -7.295  -7.183   8.369  1.00  0.00    -0.254 NA
ATOM     75  C   UNL     1      -7.771  -7.883   9.331  1.00  0.00     0.185 C 
ATOM     76  N   UNL     1      -8.531  -7.286  10.264  1.00  0.00    -0.370 N 
ATOM     77  N   UNL     1      -7.624  -9.197   9.573  1.00  0.00    -0.370 N 
ATOM     78  H   UNL     1      -8.698  -6.296  10.153  1.00  0.00     0.159 HD
ATOM     79  H   UNL     1      -9.053  -7.790  10.959  1.00  0.00     0.159 HD
ATOM     80  H   UNL     1      -7.073  -9.775   8.956  1.00  0.00     0.159 HD
ATOM     81  H   UNL     1      -7.950  -9.617  10.428  1.00  0.00     0.159 HD
ENDBRANCH  73  74
ENDBRANCH  72  73
ENDBRANCH  71  72
ENDBRANCH  45  71
ENDBRANCH   3  45
TORSDOF 20
ENDMDL
MODEL 20
REMARK VINA RESULT:    -6.137      2.647      8.980
REMARK INTER + INTRA:         -25.005
REMARK INTER:                 -18.784
REMARK INTRA:                  -6.221
REMARK UNBOUND:                -7.386
REMARK SMILES CCCCCC(=O)N[C@H](CC(=O)O)C(=O)N[C@H]1C(=O)N[C@H](CCCN=C(N)N)C(=O)N[C@@H]2CC[C@H](O)N(C2=O)[C@@H](CC(C)C)C(=O)N(C)[C@@H](Cc2ccccc2)C(=O)N[C@H](C(C)C)C(=O)O[C@@H]1C
REMARK SMILES IDX 30 1 31 2 29 3 32 5 35 6 37 7 34 8 38 9 33 10 39 11 36 12
REMARK SMILES IDX 40 14 41 15 42 16 43 17 44 18 45 19 46 20 47 21 48 22 49 23
REMARK SMILES IDX 50 24 51 25 52 26 56 27 53 28 55 29 54 30 57 31 58 32 59 33
REMARK SMILES IDX 60 35 61 36 62 37 63 38 64 39 65 40 66 41 67 42 68 43 21 45
REMARK SMILES IDX 20 46 18 47 19 48 17 50 16 52 14 53 15 54 9 56 8 57 6 58
REMARK SMILES IDX 7 59 5 61 4 62 3 63 2 64 1 65 10 66 11 67 12 68 13 69 22 71
REMARK SMILES IDX 23 72 24 73 25 74 26 75 27 76 28 77
REMARK H PARENT 31 4 36 13 59 34 20 49 16 55 8 60 13 70 27 78 27 79 28 80
REMARK H PARENT 28 81
REMARK Flexibility Score:  259.900
ROOT
ATOM      1  O   UNL     1      -9.272  -4.078   6.591  1.00  0.00    -0.273 OA
ATOM      2  N   UNL     1      -7.846  -3.163   8.127  1.00  0.00    -0.343 N 
ATOM      3  C   UNL     1      -8.147  -4.019   7.090  1.00  0.00     0.243 C 
ATOM      4  H   UNL     1      -6.906  -3.130   8.502  1.00  0.00     0.164 HD
ENDROOT
BRANCH   2   5
ATOM      5  C   UNL     1      -8.891  -2.368   8.762  1.00  0.00     0.171 C 
ATOM      6  C   UNL     1      -8.843  -0.397  10.888  1.00  0.00     0.214 C 
ATOM      7  N   UNL     1      -9.056  -1.788  11.213  1.00  0.00    -0.303 N 
ATOM      8  C   UNL     1      -9.365  -0.015   9.512  1.00  0.00     0.057 C 
ATOM      9  C   UNL     1      -9.040  -2.787  10.253  1.00  0.00     0.247 C 
ATOM     10  C   UNL     1      -8.712  -0.882   8.457  1.00  0.00     0.040 C 
ATOM     11  O   UNL     1      -9.136  -3.985  10.550  1.00  0.00    -0.272 OA
BRANCH   6  12
ATOM     12  O   UNL     1      -7.461  -0.140  10.979  1.00  0.00    -0.373 OA
ATOM     13  H   UNL     1      -7.044  -0.523  10.178  1.00  0.00     0.213 HD
ENDBRANCH   6  12
BRANCH   7  14
ATOM     14  C   UNL     1      -9.147  -2.135  12.648  1.00  0.00     0.177 C 
BRANCH  14  15
ATOM     15  C   UNL     1     -10.467  -2.805  13.078  1.00  0.00     0.038 C 
BRANCH  15  16
ATOM     16  C   UNL     1     -11.432  -2.051  14.019  1.00  0.00    -0.015 C 
ATOM     17  C   UNL     1     -10.733  -0.932  14.798  1.00  0.00     0.007 C 
ATOM     18  C   UNL     1     -12.041  -3.031  15.030  1.00  0.00     0.007 C 
ENDBRANCH  15  16
ENDBRANCH  14  15
BRANCH  14  19
ATOM     19  C   UNL     1      -7.727  -2.480  13.215  1.00  0.00     0.245 C 
ATOM     20  O   UNL     1      -6.893  -2.918  12.406  1.00  0.00    -0.272 OA
BRANCH  19  21
ATOM     21  N   UNL     1      -7.401  -2.429  14.559  1.00  0.00    -0.332 N 
ATOM     22  C   UNL     1      -6.865  -1.272  15.253  1.00  0.00     0.147 C 
BRANCH  21  23
ATOM     23  C   UNL     1      -7.601  -3.662  15.370  1.00  0.00     0.178 C 
BRANCH  23  24
ATOM     24  C   UNL     1      -8.550  -3.494  16.575  1.00  0.00     0.070 C 
BRANCH  24  25
ATOM     25  C   UNL     1      -8.012  -3.876  17.934  1.00  0.00    -0.045 A 
ATOM     26  C   UNL     1      -8.573  -4.937  18.656  1.00  0.00     0.004 A 
ATOM     27  C   UNL     1      -6.939  -3.167  18.495  1.00  0.00     0.004 A 
ATOM     28  C   UNL     1      -8.081  -5.272  19.919  1.00  0.00     0.000 A 
ATOM     29  C   UNL     1      -6.447  -3.504  19.756  1.00  0.00     0.000 A 
ATOM     30  C   UNL     1      -7.020  -4.555  20.469  1.00  0.00     0.000 A 
ENDBRANCH  24  25
ENDBRANCH  23  24
BRANCH  23  31
ATOM     31  C   UNL     1      -7.862  -4.918  14.506  1.00  0.00     0.243 C 
ATOM     32  O   UNL     1      -8.970  -5.422  14.342  1.00  0.00    -0.273 OA
ATOM     33  N   UNL     1      -6.703  -5.544  14.076  1.00  0.00    -0.341 N 
ATOM     34  H   UNL     1      -5.808  -5.078  14.248  1.00  0.00     0.164 HD
BRANCH  33  35
ATOM     35  C   UNL     1      -6.705  -6.814  13.345  1.00  0.00     0.194 C 
BRANCH  35  36
ATOM     36  C   UNL     1      -5.687  -7.858  13.884  1.00  0.00     0.017 C 
ATOM     37  C   UNL     1      -5.796  -9.190  13.122  1.00  0.00     0.010 C 
ATOM     38  C   UNL     1      -5.869  -8.166  15.375  1.00  0.00     0.010 C 
ENDBRANCH  35  36
BRANCH  35  39
ATOM     39  C   UNL     1      -6.578  -6.619  11.808  1.00  0.00     0.329 C 
ATOM     40  O   UNL     1      -7.483  -6.841  11.012  1.00  0.00    -0.250 OA
BRANCH  39  41
ATOM     41  O   UNL     1      -5.371  -6.088  11.449  1.00  0.00    -0.458 OA
BRANCH  41  42
ATOM     42  C   UNL     1      -4.674  -6.751  10.368  1.00  0.00     0.205 CG0
ATOM     43  C   UNL     1      -3.423  -7.395  10.961  1.00  0.00     0.056 C 
ATOM     44  G   UNL     1      -4.342  -5.708   9.283  1.00  0.00     0.000 G0
ENDBRANCH  41  42
ENDBRANCH  39  41
ENDBRANCH  35  39
ENDBRANCH  33  35
ENDBRANCH  23  31
ENDBRANCH  21  23
ENDBRANCH  19  21
ENDBRANCH  14  19
ENDBRANCH   7  14
ENDBRANCH   2   5
BRANCH   3  45
ATOM     45  C   UNL     1      -6.980  -4.876   6.585  1.00  0.00     0.171 C 
BRANCH  45  46
ATOM     46  N   UNL     1      -5.966  -4.817   7.630  1.00  0.00    -0.342 N 
ATOM     47  C   UNL     1      -5.287  -5.929   8.061  1.00  0.00     0.247 C 
ATOM     48  O   UNL     1      -5.429  -7.039   7.548  1.00  0.00    -0.273 OA
ATOM     49  H   UNL     1      -5.776  -3.906   8.043  1.00  0.00     0.164 HD
BRANCH  47  50
ATOM     50  C   UNL     1      -4.349  -5.696   9.254  1.00  0.00     0.212 CG0
ATOM     51  G   UNL     1      -4.688  -6.749  10.327  1.00  0.00     0.000 G0
BRANCH  50  52
ATOM     52  N   UNL     1      -2.997  -5.831   8.719  1.00  0.00    -0.339 N 
ATOM     53  C   UNL     1      -2.134  -4.773   8.567  1.00  0.00     0.243 C 
ATOM     54  O   UNL     1      -2.456  -3.616   8.822  1.00  0.00    -0.273 OA
ATOM     55  H   UNL     1      -2.711  -6.750   8.385  1.00  0.00     0.164 HD
BRANCH  53  56
ATOM     56  C   UNL     1      -0.794  -5.146   7.902  1.00  0.00     0.182 C 
BRANCH  56  57
ATOM     57  N   UNL     1       0.329  -4.481   8.570  1.00  0.00    -0.344 N 
ATOM     58  C   UNL     1       0.943  -5.010   9.679  1.00  0.00     0.220 C 
ATOM     59  O   UNL     1       0.552  -6.033  10.229  1.00  0.00    -0.275 OA
ATOM     60  H   UNL     1       0.747  -3.688   8.090  1.00  0.00     0.164 HD
BRANCH  58  61
ATOM     61  C   UNL     1       2.118  -4.183  10.167  1.00  0.00     0.100 C 
BRANCH  61  62
ATOM     62  C   UNL     1       1.826  -2.684  10.245  1.00  0.00     0.010 C 
BRANCH  62  63
ATOM     63  C   UNL     1       1.329  -2.212  11.618  1.00  0.00     0.000 C 
BRANCH  63  64
ATOM     64  C   UNL     1      -0.189  -2.249  11.781  1.00  0.00    -0.003 C 
ATOM     65  C   UNL     1      -0.627  -1.556  13.063  1.00  0.00     0.004 C 
ENDBRANCH  63  64
ENDBRANCH  62  63
ENDBRANCH  61  62
ENDBRANCH  58  61
ENDBRANCH  56  57
BRANCH  56  66
ATOM     66  C   UNL     1      -0.818  -4.868   6.400  1.00  0.00     0.157 C 
BRANCH  66  67
ATOM     67  C   UNL     1      -1.893  -5.663   5.716  1.00  0.00     0.305 C 
ATOM     68  O   UNL     1      -2.202  -6.823   5.941  1.00  0.00    -0.252 OA
BRANCH  67  69
ATOM     69  O   UNL     1      -2.570  -4.934   4.809  1.00  0.00    -0.481 OA
ATOM     70  H   UNL     1      -1.898  -4.335   4.418  1.00  0.00     0.296 HD
ENDBRANCH  67  69
ENDBRANCH  66  67
ENDBRANCH  56  66
ENDBRANCH  53  56
ENDBRANCH  50  52
ENDBRANCH  47  50
ENDBRANCH  45  46
BRANCH  45  71
ATOM     71  C   UNL     1      -6.452  -4.329   5.254  1.00  0.00     0.037 C 
BRANCH  71  72
ATOM     72  C   UNL     1      -6.621  -2.812   5.147  1.00  0.00     0.026 C 
BRANCH  72  73
ATOM     73  C   UNL     1      -5.377  -2.073   5.639  1.00  0.00     0.146 C 
BRANCH  73  74
ATOM     74  N   UNL     1      -5.711  -1.431   6.907  1.00  0.00    -0.254 NA
ATOM     75  C   UNL     1      -4.745  -1.098   7.681  1.00  0.00     0.185 C 
ATOM     76  N   UNL     1      -5.020  -0.504   8.854  1.00  0.00    -0.370 N 
ATOM     77  N   UNL     1      -3.422  -1.254   7.498  1.00  0.00    -0.370 N 
ATOM     78  H   UNL     1      -5.994  -0.355   9.074  1.00  0.00     0.159 HD
ATOM     79  H   UNL     1      -4.332  -0.347   9.570  1.00  0.00     0.159 HD
ATOM     80  H   UNL     1      -3.068  -1.683   6.657  1.00  0.00     0.159 HD
ATOM     81  H   UNL     1      -2.750  -0.847   8.127  1.00  0.00     0.159 HD
ENDBRANCH  73  74
ENDBRANCH  72  73
ENDBRANCH  71  72
ENDBRANCH  45  71
ENDBRANCH   3  45
TORSDOF 20
ENDMDL
MODEL 21
REMARK VINA RESULT:    -6.136      2.880      8.481
REMARK INTER + INTRA:         -25.000
REMARK INTER:                 -19.378
REMARK INTRA:                  -5.621
REMARK UNBOUND:                -7.386
REMARK SMILES CCCCCC(=O)N[C@H](CC(=O)O)C(=O)N[C@H]1C(=O)N[C@H](CCCN=C(N)N)C(=O)N[C@@H]2CC[C@H](O)N(C2=O)[C@@H](CC(C)C)C(=O)N(C)[C@@H](Cc2ccccc2)C(=O)N[C@H](C(C)C)C(=O)O[C@@H]1C
REMARK SMILES IDX 30 1 31 2 29 3 32 5 35 6 37 7 34 8 38 9 33 10 39 11 36 12
REMARK SMILES IDX 40 14 41 15 42 16 43 17 44 18 45 19 46 20 47 21 48 22 49 23
REMARK SMILES IDX 50 24 51 25 52 26 56 27 53 28 55 29 54 30 57 31 58 32 59 33
REMARK SMILES IDX 60 35 61 36 62 37 63 38 64 39 65 40 66 41 67 42 68 43 21 45
REMARK SMILES IDX 20 46 18 47 19 48 17 50 16 52 14 53 15 54 9 56 8 57 6 58
REMARK SMILES IDX 7 59 5 61 4 62 3 63 2 64 1 65 10 66 11 67 12 68 13 69 22 71
REMARK SMILES IDX 23 72 24 73 25 74 26 75 27 76 28 77
REMARK H PARENT 31 4 36 13 59 34 20 49 16 55 8 60 13 70 27 78 27 79 28 80
REMARK H PARENT 28 81
REMARK Flexibility Score:  259.900
ROOT
ATOM      1  O   UNL     1      -8.945  -7.936  11.565  1.00  0.00    -0.273 OA
ATOM      2  N   UNL     1      -8.378  -5.768  11.107  1.00  0.00    -0.343 N 
ATOM      3  C   UNL     1      -8.210  -7.131  10.991  1.00  0.00     0.243 C 
ATOM      4  H   UNL     1      -7.763  -5.136  10.609  1.00  0.00     0.164 HD
ENDROOT
BRANCH   2   5
ATOM      5  C   UNL     1      -9.374  -5.217  12.020  1.00  0.00     0.171 C 
ATOM      6  C   UNL     1     -11.133  -2.919  11.853  1.00  0.00     0.214 C 
ATOM      7  N   UNL     1      -9.826  -2.771  12.449  1.00  0.00    -0.303 N 
ATOM      8  C   UNL     1     -11.719  -4.311  12.027  1.00  0.00     0.057 C 
ATOM      9  C   UNL     1      -8.917  -3.815  12.514  1.00  0.00     0.247 C 
ATOM     10  C   UNL     1     -10.780  -5.340  11.436  1.00  0.00     0.040 C 
ATOM     11  O   UNL     1      -7.768  -3.658  12.948  1.00  0.00    -0.272 OA
BRANCH   6  12
ATOM     12  O   UNL     1     -11.021  -2.598  10.486  1.00  0.00    -0.373 OA
ATOM     13  H   UNL     1     -11.425  -1.712  10.364  1.00  0.00     0.213 HD
ENDBRANCH   6  12
BRANCH   7  14
ATOM     14  C   UNL     1      -9.428  -1.409  12.863  1.00  0.00     0.177 C 
BRANCH  14  15
ATOM     15  C   UNL     1      -9.525  -0.334  11.762  1.00  0.00     0.038 C 
BRANCH  15  16
ATOM     16  C   UNL     1      -8.283  -0.009  10.904  1.00  0.00    -0.015 C 
ATOM     17  C   UNL     1      -8.540   1.127   9.910  1.00  0.00     0.007 C 
ATOM     18  C   UNL     1      -7.860  -1.253  10.111  1.00  0.00     0.007 C 
ENDBRANCH  15  16
ENDBRANCH  14  15
BRANCH  14  19
ATOM     19  C   UNL     1      -9.751  -1.185  14.380  1.00  0.00     0.245 C 
ATOM     20  O   UNL     1     -10.558  -0.280  14.652  1.00  0.00    -0.272 OA
BRANCH  19  21
ATOM     21  N   UNL     1      -9.114  -1.852  15.411  1.00  0.00    -0.332 N 
ATOM     22  C   UNL     1      -9.532  -3.120  15.980  1.00  0.00     0.147 C 
BRANCH  21  23
ATOM     23  C   UNL     1      -7.902  -1.221  16.003  1.00  0.00     0.178 C 
BRANCH  23  24
ATOM     24  C   UNL     1      -8.147  -0.470  17.328  1.00  0.00     0.070 C 
BRANCH  24  25
ATOM     25  C   UNL     1      -7.392   0.822  17.537  1.00  0.00    -0.045 A 
ATOM     26  C   UNL     1      -8.031   1.948  18.071  1.00  0.00     0.004 A 
ATOM     27  C   UNL     1      -6.035   0.912  17.193  1.00  0.00     0.004 A 
ATOM     28  C   UNL     1      -7.331   3.144  18.245  1.00  0.00     0.000 A 
ATOM     29  C   UNL     1      -5.336   2.107  17.368  1.00  0.00     0.000 A 
ATOM     30  C   UNL     1      -5.985   3.223  17.892  1.00  0.00     0.000 A 
ENDBRANCH  24  25
ENDBRANCH  23  24
BRANCH  23  31
ATOM     31  C   UNL     1      -6.672  -2.159  16.005  1.00  0.00     0.243 C 
ATOM     32  O   UNL     1      -6.396  -2.929  16.922  1.00  0.00    -0.273 OA
ATOM     33  N   UNL     1      -5.797  -1.926  14.957  1.00  0.00    -0.341 N 
ATOM     34  H   UNL     1      -6.080  -1.269  14.226  1.00  0.00     0.164 HD
BRANCH  33  35
ATOM     35  C   UNL     1      -4.509  -2.613  14.823  1.00  0.00     0.194 C 
BRANCH  35  36
ATOM     36  C   UNL     1      -3.404  -1.763  14.136  1.00  0.00     0.017 C 
ATOM     37  C   UNL     1      -2.649  -0.896  15.158  1.00  0.00     0.010 C 
ATOM     38  C   UNL     1      -3.949  -0.825  13.052  1.00  0.00     0.010 C 
ENDBRANCH  35  36
BRANCH  35  39
ATOM     39  C   UNL     1      -4.647  -4.019  14.175  1.00  0.00     0.329 C 
ATOM     40  O   UNL     1      -5.183  -4.977  14.720  1.00  0.00    -0.250 OA
BRANCH  39  41
ATOM     41  O   UNL     1      -4.180  -4.047  12.890  1.00  0.00    -0.458 OA
BRANCH  41  42
ATOM     42  C   UNL     1      -3.592  -5.294  12.449  1.00  0.00     0.205 CG0
ATOM     43  C   UNL     1      -2.085  -5.191  12.676  1.00  0.00     0.056 C 
ATOM     44  G   UNL     1      -3.951  -5.510  10.965  1.00  0.00     0.000 G0
ENDBRANCH  41  42
ENDBRANCH  39  41
ENDBRANCH  35  39
ENDBRANCH  33  35
ENDBRANCH  23  31
ENDBRANCH  21  23
ENDBRANCH  19  21
ENDBRANCH  14  19
ENDBRANCH   7  14
ENDBRANCH   2   5
BRANCH   3  45
ATOM     45  C   UNL     1      -7.057  -7.576  10.082  1.00  0.00     0.171 C 
BRANCH  45  46
ATOM     46  N   UNL     1      -6.043  -6.536  10.193  1.00  0.00    -0.342 N 
ATOM     47  C   UNL     1      -4.845  -6.741  10.830  1.00  0.00     0.247 C 
ATOM     48  O   UNL     1      -4.510  -7.834  11.287  1.00  0.00    -0.273 OA
ATOM     49  H   UNL     1      -6.257  -5.631   9.778  1.00  0.00     0.164 HD
BRANCH  47  50
ATOM     50  C   UNL     1      -3.956  -5.496  10.958  1.00  0.00     0.212 CG0
ATOM     51  G   UNL     1      -3.598  -5.328  12.448  1.00  0.00     0.000 G0
BRANCH  50  52
ATOM     52  N   UNL     1      -2.795  -5.758  10.112  1.00  0.00    -0.339 N 
ATOM     53  C   UNL     1      -2.796  -5.577   8.750  1.00  0.00     0.243 C 
ATOM     54  O   UNL     1      -3.796  -5.229   8.129  1.00  0.00    -0.273 OA
ATOM     55  H   UNL     1      -1.968  -6.155  10.553  1.00  0.00     0.164 HD
BRANCH  53  56
ATOM     56  C   UNL     1      -1.484  -6.002   8.060  1.00  0.00     0.182 C 
BRANCH  56  57
ATOM     57  N   UNL     1      -0.426  -5.012   8.284  1.00  0.00    -0.344 N 
ATOM     58  C   UNL     1       0.495  -5.135   9.296  1.00  0.00     0.220 C 
ATOM     59  O   UNL     1       0.454  -6.039  10.124  1.00  0.00    -0.275 OA
ATOM     60  H   UNL     1      -0.295  -4.306   7.564  1.00  0.00     0.164 HD
BRANCH  58  61
ATOM     61  C   UNL     1       1.532  -4.027   9.304  1.00  0.00     0.100 C 
BRANCH  61  62
ATOM     62  C   UNL     1       2.190  -3.809  10.666  1.00  0.00     0.010 C 
BRANCH  62  63
ATOM     63  C   UNL     1       2.015  -2.393  11.229  1.00  0.00     0.000 C 
BRANCH  63  64
ATOM     64  C   UNL     1       0.571  -1.894  11.233  1.00  0.00    -0.003 C 
ATOM     65  C   UNL     1       0.156  -1.406  12.613  1.00  0.00     0.004 C 
ENDBRANCH  63  64
ENDBRANCH  62  63
ENDBRANCH  61  62
ENDBRANCH  58  61
ENDBRANCH  56  57
BRANCH  56  66
ATOM     66  C   UNL     1      -1.699  -6.288   6.574  1.00  0.00     0.157 C 
BRANCH  66  67
ATOM     67  C   UNL     1      -1.428  -5.069   5.741  1.00  0.00     0.305 C 
ATOM     68  O   UNL     1      -0.340  -4.559   5.521  1.00  0.00    -0.252 OA
BRANCH  67  69
ATOM     69  O   UNL     1      -2.546  -4.577   5.175  1.00  0.00    -0.481 OA
ATOM     70  H   UNL     1      -2.542  -3.623   5.403  1.00  0.00     0.296 HD
ENDBRANCH  67  69
ENDBRANCH  66  67
ENDBRANCH  56  66
ENDBRANCH  53  56
ENDBRANCH  50  52
ENDBRANCH  47  50
ENDBRANCH  45  46
BRANCH  45  71
ATOM     71  C   UNL     1      -7.547  -7.736   8.638  1.00  0.00     0.037 C 
BRANCH  71  72
ATOM     72  C   UNL     1      -7.208  -6.518   7.777  1.00  0.00     0.026 C 
BRANCH  72  73
ATOM     73  C   UNL     1      -8.233  -6.317   6.662  1.00  0.00     0.146 C 
BRANCH  73  74
ATOM     74  N   UNL     1      -7.540  -5.731   5.519  1.00  0.00    -0.254 NA
ATOM     75  C   UNL     1      -7.021  -6.529   4.660  1.00  0.00     0.185 C 
ATOM     76  N   UNL     1      -6.378  -6.020   3.596  1.00  0.00    -0.370 N 
ATOM     77  N   UNL     1      -7.017  -7.873   4.650  1.00  0.00    -0.370 N 
ATOM     78  H   UNL     1      -6.329  -5.014   3.530  1.00  0.00     0.159 HD
ATOM     79  H   UNL     1      -5.827  -6.575   2.965  1.00  0.00     0.159 HD
ATOM     80  H   UNL     1      -7.467  -8.394   5.388  1.00  0.00     0.159 HD
ATOM     81  H   UNL     1      -6.676  -8.395   3.859  1.00  0.00     0.159 HD
ENDBRANCH  73  74
ENDBRANCH  72  73
ENDBRANCH  71  72
ENDBRANCH  45  71
ENDBRANCH   3  45
TORSDOF 20
ENDMDL
MODEL 22
REMARK VINA RESULT:    -6.123      2.959     10.156
REMARK INTER + INTRA:         -24.963
REMARK INTER:                 -18.991
REMARK INTRA:                  -5.972
REMARK UNBOUND:                -7.386
REMARK SMILES CCCCCC(=O)N[C@H](CC(=O)O)C(=O)N[C@H]1C(=O)N[C@H](CCCN=C(N)N)C(=O)N[C@@H]2CC[C@H](O)N(C2=O)[C@@H](CC(C)C)C(=O)N(C)[C@@H](Cc2ccccc2)C(=O)N[C@H](C(C)C)C(=O)O[C@@H]1C
REMARK SMILES IDX 30 1 31 2 29 3 32 5 35 6 37 7 34 8 38 9 33 10 39 11 36 12
REMARK SMILES IDX 40 14 41 15 42 16 43 17 44 18 45 19 46 20 47 21 48 22 49 23
REMARK SMILES IDX 50 24 51 25 52 26 56 27 53 28 55 29 54 30 57 31 58 32 59 33
REMARK SMILES IDX 60 35 61 36 62 37 63 38 64 39 65 40 66 41 67 42 68 43 21 45
REMARK SMILES IDX 20 46 18 47 19 48 17 50 16 52 14 53 15 54 9 56 8 57 6 58
REMARK SMILES IDX 7 59 5 61 4 62 3 63 2 64 1 65 10 66 11 67 12 68 13 69 22 71
REMARK SMILES IDX 23 72 24 73 25 74 26 75 27 76 28 77
REMARK H PARENT 31 4 36 13 59 34 20 49 16 55 8 60 13 70 27 78 27 79 28 80
REMARK H PARENT 28 81
REMARK Flexibility Score:  259.900
ROOT
ATOM      1  O   UNL     1      -9.275  -2.305   7.409  1.00  0.00    -0.273 OA
ATOM      2  N   UNL     1      -8.486  -1.442   9.374  1.00  0.00    -0.343 N 
ATOM      3  C   UNL     1      -8.479  -1.578   8.002  1.00  0.00     0.243 C 
ATOM      4  H   UNL     1      -7.825  -0.824   9.827  1.00  0.00     0.164 HD
ENDROOT
BRANCH   2   5
ATOM      5  C   UNL     1      -9.372  -2.259  10.196  1.00  0.00     0.171 C 
ATOM      6  C   UNL     1      -9.809  -2.413  13.058  1.00  0.00     0.214 C 
ATOM      7  N   UNL     1      -8.826  -3.273  12.442  1.00  0.00    -0.303 N 
ATOM      8  C   UNL     1     -10.963  -2.060  12.133  1.00  0.00     0.057 C 
ATOM      9  C   UNL     1      -8.532  -3.215  11.090  1.00  0.00     0.247 C 
ATOM     10  C   UNL     1     -10.432  -1.397  10.881  1.00  0.00     0.040 C 
ATOM     11  O   UNL     1      -7.628  -3.894  10.585  1.00  0.00    -0.272 OA
BRANCH   6  12
ATOM     12  O   UNL     1      -9.150  -1.245  13.490  1.00  0.00    -0.373 OA
ATOM     13  H   UNL     1      -8.290  -1.209  13.018  1.00  0.00     0.213 HD
ENDBRANCH   6  12
BRANCH   7  14
ATOM     14  C   UNL     1      -8.027  -4.130  13.343  1.00  0.00     0.177 C 
BRANCH  14  15
ATOM     15  C   UNL     1      -6.808  -3.445  13.991  1.00  0.00     0.038 C 
BRANCH  15  16
ATOM     16  C   UNL     1      -5.542  -4.275  14.298  1.00  0.00    -0.015 C 
ATOM     17  C   UNL     1      -5.624  -4.987  15.651  1.00  0.00     0.007 C 
ATOM     18  C   UNL     1      -4.311  -3.359  14.310  1.00  0.00     0.007 C 
ENDBRANCH  15  16
ENDBRANCH  14  15
BRANCH  14  19
ATOM     19  C   UNL     1      -8.946  -5.193  14.039  1.00  0.00     0.245 C 
ATOM     20  O   UNL     1      -9.022  -6.308  13.496  1.00  0.00    -0.272 OA
BRANCH  19  21
ATOM     21  N   UNL     1      -9.744  -4.921  15.136  1.00  0.00    -0.332 N 
ATOM     22  C   UNL     1     -11.195  -4.975  15.156  1.00  0.00     0.147 C 
BRANCH  21  23
ATOM     23  C   UNL     1      -9.073  -4.530  16.406  1.00  0.00     0.178 C 
BRANCH  23  24
ATOM     24  C   UNL     1      -9.204  -3.037  16.772  1.00  0.00     0.070 C 
BRANCH  24  25
ATOM     25  C   UNL     1      -7.943  -2.318  17.191  1.00  0.00    -0.045 A 
ATOM     26  C   UNL     1      -7.122  -2.836  18.200  1.00  0.00     0.004 A 
ATOM     27  C   UNL     1      -7.579  -1.112  16.573  1.00  0.00     0.004 A 
ATOM     28  C   UNL     1      -5.967  -2.156  18.593  1.00  0.00     0.000 A 
ATOM     29  C   UNL     1      -6.424  -0.434  16.966  1.00  0.00     0.000 A 
ATOM     30  C   UNL     1      -5.620  -0.955  17.978  1.00  0.00     0.000 A 
ENDBRANCH  24  25
ENDBRANCH  23  24
BRANCH  23  31
ATOM     31  C   UNL     1      -9.356  -5.513  17.567  1.00  0.00     0.243 C 
ATOM     32  O   UNL     1     -10.481  -5.774  17.987  1.00  0.00    -0.273 OA
ATOM     33  N   UNL     1      -8.213  -5.939  18.222  1.00  0.00    -0.341 N 
ATOM     34  H   UNL     1      -7.304  -5.685  17.828  1.00  0.00     0.164 HD
BRANCH  33  35
ATOM     35  C   UNL     1      -8.247  -6.778  19.423  1.00  0.00     0.194 C 
BRANCH  35  36
ATOM     36  C   UNL     1      -7.094  -6.496  20.427  1.00  0.00     0.017 C 
ATOM     37  C   UNL     1      -7.406  -5.273  21.307  1.00  0.00     0.010 C 
ATOM     38  C   UNL     1      -5.746  -6.238  19.743  1.00  0.00     0.010 C 
ENDBRANCH  35  36
BRANCH  35  39
ATOM     39  C   UNL     1      -8.371  -8.292  19.092  1.00  0.00     0.329 C 
ATOM     40  O   UNL     1      -7.599  -8.899  18.358  1.00  0.00    -0.250 OA
BRANCH  39  41
ATOM     41  O   UNL     1      -9.388  -8.894  19.780  1.00  0.00    -0.458 OA
BRANCH  41  42
ATOM     42  C   UNL     1      -9.069 -10.149  20.427  1.00  0.00     0.205 CG0
ATOM     43  C   UNL     1     -10.021 -11.203  19.867  1.00  0.00     0.056 C 
ATOM     44  G   UNL     1      -9.219  -9.968  21.951  1.00  0.00     0.000 G0
ENDBRANCH  41  42
ENDBRANCH  39  41
ENDBRANCH  35  39
ENDBRANCH  33  35
ENDBRANCH  23  31
ENDBRANCH  21  23
ENDBRANCH  19  21
ENDBRANCH  14  19
ENDBRANCH   7  14
ENDBRANCH   2   5
BRANCH   3  45
ATOM     45  C   UNL     1      -7.424  -0.742   7.265  1.00  0.00     0.171 C 
BRANCH  45  46
ATOM     46  N   UNL     1      -7.020  -1.542   6.116  1.00  0.00    -0.342 N 
ATOM     47  C   UNL     1      -6.523  -0.981   4.967  1.00  0.00     0.247 C 
ATOM     48  O   UNL     1      -6.313   0.227   4.849  1.00  0.00    -0.273 OA
ATOM     49  H   UNL     1      -7.125  -2.552   6.192  1.00  0.00     0.164 HD
BRANCH  47  50
ATOM     50  C   UNL     1      -6.270  -1.968   3.819  1.00  0.00     0.212 CG0
ATOM     51  G   UNL     1      -5.382  -1.257   2.778  1.00  0.00     0.000 G0
BRANCH  50  52
ATOM     52  N   UNL     1      -5.625  -3.125   4.434  1.00  0.00    -0.339 N 
ATOM     53  C   UNL     1      -5.334  -4.281   3.751  1.00  0.00     0.243 C 
ATOM     54  O   UNL     1      -5.646  -4.451   2.575  1.00  0.00    -0.273 OA
ATOM     55  H   UNL     1      -5.442  -3.087   5.435  1.00  0.00     0.164 HD
BRANCH  53  56
ATOM     56  C   UNL     1      -4.733  -5.395   4.631  1.00  0.00     0.182 C 
BRANCH  56  57
ATOM     57  N   UNL     1      -5.688  -5.833   5.653  1.00  0.00    -0.344 N 
ATOM     58  C   UNL     1      -6.501  -6.927   5.481  1.00  0.00     0.220 C 
ATOM     59  O   UNL     1      -6.537  -7.568   4.437  1.00  0.00    -0.275 OA
ATOM     60  H   UNL     1      -5.618  -5.393   6.567  1.00  0.00     0.164 HD
BRANCH  58  61
ATOM     61  C   UNL     1      -7.367  -7.229   6.690  1.00  0.00     0.100 C 
BRANCH  61  62
ATOM     62  C   UNL     1      -7.171  -8.637   7.252  1.00  0.00     0.010 C 
BRANCH  62  63
ATOM     63  C   UNL     1      -6.947  -8.683   8.769  1.00  0.00     0.000 C 
BRANCH  63  64
ATOM     64  C   UNL     1      -8.083  -8.074   9.588  1.00  0.00    -0.003 C 
ATOM     65  C   UNL     1      -8.152  -8.684  10.981  1.00  0.00     0.004 C 
ENDBRANCH  63  64
ENDBRANCH  62  63
ENDBRANCH  61  62
ENDBRANCH  58  61
ENDBRANCH  56  57
BRANCH  56  66
ATOM     66  C   UNL     1      -3.395  -4.971   5.235  1.00  0.00     0.157 C 
BRANCH  66  67
ATOM     67  C   UNL     1      -2.728  -6.118   5.938  1.00  0.00     0.305 C 
ATOM     68  O   UNL     1      -3.240  -7.180   6.256  1.00  0.00    -0.252 OA
BRANCH  67  69
ATOM     69  O   UNL     1      -1.420  -5.889   6.162  1.00  0.00    -0.481 OA
ATOM     70  H   UNL     1      -0.955  -6.366   5.442  1.00  0.00     0.296 HD
ENDBRANCH  67  69
ENDBRANCH  66  67
ENDBRANCH  56  66
ENDBRANCH  53  56
ENDBRANCH  50  52
ENDBRANCH  47  50
ENDBRANCH  45  46
BRANCH  45  71
ATOM     71  C   UNL     1      -6.238  -0.443   8.190  1.00  0.00     0.037 C 
BRANCH  71  72
ATOM     72  C   UNL     1      -5.118  -1.475   8.042  1.00  0.00     0.026 C 
BRANCH  72  73
ATOM     73  C   UNL     1      -3.810  -0.822   7.597  1.00  0.00     0.146 C 
BRANCH  73  74
ATOM     74  N   UNL     1      -2.928  -1.877   7.107  1.00  0.00    -0.254 NA
ATOM     75  C   UNL     1      -1.941  -2.224   7.847  1.00  0.00     0.185 C 
ATOM     76  N   UNL     1      -1.112  -3.193   7.424  1.00  0.00    -0.370 N 
ATOM     77  N   UNL     1      -1.579  -1.747   9.051  1.00  0.00    -0.370 N 
ATOM     78  H   UNL     1      -1.309  -3.601   6.522  1.00  0.00     0.159 HD
ATOM     79  H   UNL     1      -0.243  -3.415   7.877  1.00  0.00     0.159 HD
ATOM     80  H   UNL     1      -2.113  -1.017   9.496  1.00  0.00     0.159 HD
ATOM     81  H   UNL     1      -0.848  -2.179   9.592  1.00  0.00     0.159 HD
ENDBRANCH  73  74
ENDBRANCH  72  73
ENDBRANCH  71  72
ENDBRANCH  45  71
ENDBRANCH   3  45
TORSDOF 20
ENDMDL
MODEL 23
REMARK VINA RESULT:    -6.112      2.604      6.350
REMARK INTER + INTRA:         -24.931
REMARK INTER:                 -17.357
REMARK INTRA:                  -7.573
REMARK UNBOUND:                -7.386
REMARK SMILES CCCCCC(=O)N[C@H](CC(=O)O)C(=O)N[C@H]1C(=O)N[C@H](CCCN=C(N)N)C(=O)N[C@@H]2CC[C@H](O)N(C2=O)[C@@H](CC(C)C)C(=O)N(C)[C@@H](Cc2ccccc2)C(=O)N[C@H](C(C)C)C(=O)O[C@@H]1C
REMARK SMILES IDX 30 1 31 2 29 3 32 5 35 6 37 7 34 8 38 9 33 10 39 11 36 12
REMARK SMILES IDX 40 14 41 15 42 16 43 17 44 18 45 19 46 20 47 21 48 22 49 23
REMARK SMILES IDX 50 24 51 25 52 26 56 27 53 28 55 29 54 30 57 31 58 32 59 33
REMARK SMILES IDX 60 35 61 36 62 37 63 38 64 39 65 40 66 41 67 42 68 43 21 45
REMARK SMILES IDX 20 46 18 47 19 48 17 50 16 52 14 53 15 54 9 56 8 57 6 58
REMARK SMILES IDX 7 59 5 61 4 62 3 63 2 64 1 65 10 66 11 67 12 68 13 69 22 71
REMARK SMILES IDX 23 72 24 73 25 74 26 75 27 76 28 77
REMARK H PARENT 31 4 36 13 59 34 20 49 16 55 8 60 13 70 27 78 27 79 28 80
REMARK H PARENT 28 81
REMARK Flexibility Score:  259.900
ROOT
ATOM      1  O   UNL     1      -5.532  -2.886   9.623  1.00  0.00    -0.273 OA
ATOM      2  N   UNL     1      -5.718  -1.413  11.363  1.00  0.00    -0.343 N 
ATOM      3  C   UNL     1      -6.218  -2.370  10.506  1.00  0.00     0.243 C 
ATOM      4  H   UNL     1      -6.307  -1.021  12.087  1.00  0.00     0.164 HD
ENDROOT
BRANCH   2   5
ATOM      5  C   UNL     1      -4.372  -0.881  11.177  1.00  0.00     0.171 C 
ATOM      6  C   UNL     1      -2.319  -1.381   9.192  1.00  0.00     0.214 C 
ATOM      7  N   UNL     1      -2.343  -2.168  10.403  1.00  0.00    -0.303 N 
ATOM      8  C   UNL     1      -2.867   0.025   9.377  1.00  0.00     0.057 C 
ATOM      9  C   UNL     1      -3.325  -2.016  11.368  1.00  0.00     0.247 C 
ATOM     10  C   UNL     1      -4.285  -0.043   9.902  1.00  0.00     0.040 C 
ATOM     11  O   UNL     1      -3.389  -2.752  12.361  1.00  0.00    -0.272 OA
BRANCH   6  12
ATOM     12  O   UNL     1      -3.059  -2.074   8.214  1.00  0.00    -0.373 OA
ATOM     13  H   UNL     1      -3.950  -1.665   8.185  1.00  0.00     0.213 HD
ENDBRANCH   6  12
BRANCH   7  14
ATOM     14  C   UNL     1      -1.352  -3.260  10.513  1.00  0.00     0.177 C 
BRANCH  14  15
ATOM     15  C   UNL     1      -0.260  -3.049  11.579  1.00  0.00     0.038 C 
BRANCH  15  16
ATOM     16  C   UNL     1       1.020  -2.266  11.213  1.00  0.00    -0.015 C 
ATOM     17  C   UNL     1       2.250  -3.173  11.104  1.00  0.00     0.007 C 
ATOM     18  C   UNL     1       1.301  -1.202  12.282  1.00  0.00     0.007 C 
ENDBRANCH  15  16
ENDBRANCH  14  15
BRANCH  14  19
ATOM     19  C   UNL     1      -2.015  -4.634  10.153  1.00  0.00     0.245 C 
ATOM     20  O   UNL     1      -2.326  -5.371  11.103  1.00  0.00    -0.272 OA
BRANCH  19  21
ATOM     21  N   UNL     1      -2.163  -5.103   8.860  1.00  0.00    -0.332 N 
ATOM     22  C   UNL     1      -1.087  -5.291   7.903  1.00  0.00     0.147 C 
BRANCH  21  23
ATOM     23  C   UNL     1      -3.538  -5.437   8.394  1.00  0.00     0.178 C 
BRANCH  23  24
ATOM     24  C   UNL     1      -3.752  -5.307   6.872  1.00  0.00     0.070 C 
BRANCH  24  25
ATOM     25  C   UNL     1      -5.166  -5.458   6.361  1.00  0.00    -0.045 A 
ATOM     26  C   UNL     1      -5.583  -6.642   5.739  1.00  0.00     0.004 A 
ATOM     27  C   UNL     1      -6.085  -4.406   6.500  1.00  0.00     0.004 A 
ATOM     28  C   UNL     1      -6.886  -6.767   5.254  1.00  0.00     0.000 A 
ATOM     29  C   UNL     1      -7.388  -4.533   6.016  1.00  0.00     0.000 A 
ATOM     30  C   UNL     1      -7.786  -5.712   5.391  1.00  0.00     0.000 A 
ENDBRANCH  24  25
ENDBRANCH  23  24
BRANCH  23  31
ATOM     31  C   UNL     1      -4.088  -6.740   9.021  1.00  0.00     0.243 C 
ATOM     32  O   UNL     1      -3.586  -7.848   8.852  1.00  0.00    -0.273 OA
ATOM     33  N   UNL     1      -5.313  -6.579   9.645  1.00  0.00    -0.341 N 
ATOM     34  H   UNL     1      -5.683  -5.631   9.751  1.00  0.00     0.164 HD
BRANCH  33  35
ATOM     35  C   UNL     1      -6.078  -7.697  10.205  1.00  0.00     0.194 C 
BRANCH  35  36
ATOM     36  C   UNL     1      -7.353  -8.063   9.394  1.00  0.00     0.017 C 
ATOM     37  C   UNL     1      -7.018  -9.000   8.220  1.00  0.00     0.010 C 
ATOM     38  C   UNL     1      -8.073  -6.840   8.815  1.00  0.00     0.010 C 
ENDBRANCH  35  36
BRANCH  35  39
ATOM     39  C   UNL     1      -6.385  -7.513  11.718  1.00  0.00     0.329 C 
ATOM     40  O   UNL     1      -5.894  -8.200  12.606  1.00  0.00    -0.250 OA
BRANCH  39  41
ATOM     41  O   UNL     1      -7.199  -6.440  11.956  1.00  0.00    -0.458 OA
BRANCH  41  42
ATOM     42  C   UNL     1      -8.183  -6.603  13.006  1.00  0.00     0.205 CG0
ATOM     43  C   UNL     1      -9.376  -7.341  12.400  1.00  0.00     0.056 C 
ATOM     44  G   UNL     1      -8.563  -5.210  13.544  1.00  0.00     0.000 G0
ENDBRANCH  41  42
ENDBRANCH  39  41
ENDBRANCH  35  39
ENDBRANCH  33  35
ENDBRANCH  23  31
ENDBRANCH  21  23
ENDBRANCH  19  21
ENDBRANCH  14  19
ENDBRANCH   7  14
ENDBRANCH   2   5
BRANCH   3  45
ATOM     45  C   UNL     1      -7.682  -2.764  10.744  1.00  0.00     0.171 C 
BRANCH  45  46
ATOM     46  N   UNL     1      -7.653  -3.767  11.801  1.00  0.00    -0.342 N 
ATOM     47  C   UNL     1      -8.795  -4.242  12.396  1.00  0.00     0.247 C 
ATOM     48  O   UNL     1      -9.925  -3.912  12.033  1.00  0.00    -0.273 OA
ATOM     49  H   UNL     1      -6.740  -4.109  12.093  1.00  0.00     0.164 HD
BRANCH  47  50
ATOM     50  C   UNL     1      -8.564  -5.200  13.573  1.00  0.00     0.212 CG0
ATOM     51  G   UNL     1      -8.179  -6.573  12.989  1.00  0.00     0.000 G0
BRANCH  50  52
ATOM     52  N   UNL     1      -7.500  -4.591  14.367  1.00  0.00    -0.339 N 
ATOM     53  C   UNL     1      -7.586  -4.399  15.725  1.00  0.00     0.243 C 
ATOM     54  O   UNL     1      -8.592  -4.678  16.370  1.00  0.00    -0.273 OA
ATOM     55  H   UNL     1      -6.684  -4.238  13.872  1.00  0.00     0.164 HD
BRANCH  53  56
ATOM     56  C   UNL     1      -6.376  -3.660  16.332  1.00  0.00     0.182 C 
BRANCH  56  57
ATOM     57  N   UNL     1      -6.795  -2.426  17.004  1.00  0.00    -0.344 N 
ATOM     58  C   UNL     1      -6.247  -2.013  18.193  1.00  0.00     0.220 C 
ATOM     59  O   UNL     1      -5.424  -2.680  18.811  1.00  0.00    -0.275 OA
ATOM     60  H   UNL     1      -7.397  -1.798  16.479  1.00  0.00     0.164 HD
BRANCH  58  61
ATOM     61  C   UNL     1      -6.789  -0.680  18.675  1.00  0.00     0.100 C 
BRANCH  61  62
ATOM     62  C   UNL     1      -6.702   0.434  17.632  1.00  0.00     0.010 C 
BRANCH  62  63
ATOM     63  C   UNL     1      -7.281   1.776  18.097  1.00  0.00     0.000 C 
BRANCH  63  64
ATOM     64  C   UNL     1      -6.350   2.579  19.005  1.00  0.00    -0.003 C 
ATOM     65  C   UNL     1      -7.021   3.851  19.501  1.00  0.00     0.004 C 
ENDBRANCH  63  64
ENDBRANCH  62  63
ENDBRANCH  61  62
ENDBRANCH  58  61
ENDBRANCH  56  57
BRANCH  56  66
ATOM     66  C   UNL     1      -5.292  -3.407  15.285  1.00  0.00     0.157 C 
BRANCH  66  67
ATOM     67  C   UNL     1      -5.226  -1.954  14.912  1.00  0.00     0.305 C 
ATOM     68  O   UNL     1      -4.325  -1.170  15.173  1.00  0.00    -0.252 OA
BRANCH  67  69
ATOM     69  O   UNL     1      -6.284  -1.566  14.175  1.00  0.00    -0.481 OA
ATOM     70  H   UNL     1      -7.067  -1.815  14.711  1.00  0.00     0.296 HD
ENDBRANCH  67  69
ENDBRANCH  66  67
ENDBRANCH  56  66
ENDBRANCH  53  56
ENDBRANCH  50  52
ENDBRANCH  47  50
ENDBRANCH  45  46
BRANCH  45  71
ATOM     71  C   UNL     1      -8.302  -3.317   9.456  1.00  0.00     0.037 C 
BRANCH  71  72
ATOM     72  C   UNL     1      -9.140  -2.266   8.723  1.00  0.00     0.026 C 
BRANCH  72  73
ATOM     73  C   UNL     1      -9.685  -1.213   9.686  1.00  0.00     0.146 C 
BRANCH  73  74
ATOM     74  N   UNL     1      -9.272   0.098   9.195  1.00  0.00    -0.254 NA
ATOM     75  C   UNL     1      -9.266   1.074  10.026  1.00  0.00     0.185 C 
ATOM     76  N   UNL     1      -8.889   2.292   9.604  1.00  0.00    -0.370 N 
ATOM     77  N   UNL     1      -9.595   1.076  11.329  1.00  0.00    -0.370 N 
ATOM     78  H   UNL     1      -8.632   2.380   8.631  1.00  0.00     0.159 HD
ATOM     79  H   UNL     1      -8.997   3.126  10.154  1.00  0.00     0.159 HD
ATOM     80  H   UNL     1      -9.894   0.227  11.785  1.00  0.00     0.159 HD
ATOM     81  H   UNL     1      -9.440   1.883  11.912  1.00  0.00     0.159 HD
ENDBRANCH  73  74
ENDBRANCH  72  73
ENDBRANCH  71  72
ENDBRANCH  45  71
ENDBRANCH   3  45
TORSDOF 20
ENDMDL
MODEL 24
REMARK VINA RESULT:    -6.039      2.769      9.579
REMARK INTER + INTRA:         -24.722
REMARK INTER:                 -19.801
REMARK INTRA:                  -4.922
REMARK UNBOUND:                -7.386
REMARK SMILES CCCCCC(=O)N[C@H](CC(=O)O)C(=O)N[C@H]1C(=O)N[C@H](CCCN=C(N)N)C(=O)N[C@@H]2CC[C@H](O)N(C2=O)[C@@H](CC(C)C)C(=O)N(C)[C@@H](Cc2ccccc2)C(=O)N[C@H](C(C)C)C(=O)O[C@@H]1C
REMARK SMILES IDX 30 1 31 2 29 3 32 5 35 6 37 7 34 8 38 9 33 10 39 11 36 12
REMARK SMILES IDX 40 14 41 15 42 16 43 17 44 18 45 19 46 20 47 21 48 22 49 23
REMARK SMILES IDX 50 24 51 25 52 26 56 27 53 28 55 29 54 30 57 31 58 32 59 33
REMARK SMILES IDX 60 35 61 36 62 37 63 38 64 39 65 40 66 41 67 42 68 43 21 45
REMARK SMILES IDX 20 46 18 47 19 48 17 50 16 52 14 53 15 54 9 56 8 57 6 58
REMARK SMILES IDX 7 59 5 61 4 62 3 63 2 64 1 65 10 66 11 67 12 68 13 69 22 71
REMARK SMILES IDX 23 72 24 73 25 74 26 75 27 76 28 77
REMARK H PARENT 31 4 36 13 59 34 20 49 16 55 8 60 13 70 27 78 27 79 28 80
REMARK H PARENT 28 81
REMARK Flexibility Score:  259.900
ROOT
ATOM      1  O   UNL     1      -7.343  -1.601  10.330  1.00  0.00    -0.273 OA
ATOM      2  N   UNL     1      -9.090  -1.021   8.972  1.00  0.00    -0.343 N 
ATOM      3  C   UNL     1      -7.775  -1.365   9.201  1.00  0.00     0.243 C 
ATOM      4  H   UNL     1      -9.413  -0.847   8.028  1.00  0.00     0.164 HD
ENDROOT
BRANCH   2   5
ATOM      5  C   UNL     1     -10.005  -0.805  10.087  1.00  0.00     0.171 C 
ATOM      6  C   UNL     1      -9.717  -1.118  12.955  1.00  0.00     0.214 C 
ATOM      7  N   UNL     1     -10.202  -2.225  12.164  1.00  0.00    -0.303 N 
ATOM      8  C   UNL     1     -10.078   0.240  12.373  1.00  0.00     0.057 C 
ATOM      9  C   UNL     1     -10.315  -2.160  10.785  1.00  0.00     0.247 C 
ATOM     10  C   UNL     1      -9.537   0.355  10.965  1.00  0.00     0.040 C 
ATOM     11  O   UNL     1     -10.648  -3.141  10.107  1.00  0.00    -0.272 OA
BRANCH   6  12
ATOM     12  O   UNL     1      -8.319  -1.249  13.067  1.00  0.00    -0.373 OA
ATOM     13  H   UNL     1      -8.000  -1.652  12.232  1.00  0.00     0.213 HD
ENDBRANCH   6  12
BRANCH   7  14
ATOM     14  C   UNL     1     -10.439  -3.501  12.873  1.00  0.00     0.177 C 
BRANCH  14  15
ATOM     15  C   UNL     1     -11.910  -3.959  12.925  1.00  0.00     0.038 C 
BRANCH  15  16
ATOM     16  C   UNL     1     -12.553  -4.299  14.287  1.00  0.00    -0.015 C 
ATOM     17  C   UNL     1     -12.362  -3.182  15.318  1.00  0.00     0.007 C 
ATOM     18  C   UNL     1     -11.931  -5.583  14.849  1.00  0.00     0.007 C 
ENDBRANCH  15  16
ENDBRANCH  14  15
BRANCH  14  19
ATOM     19  C   UNL     1      -9.200  -4.448  12.717  1.00  0.00     0.245 C 
ATOM     20  O   UNL     1      -8.990  -4.913  11.584  1.00  0.00    -0.272 OA
BRANCH  19  21
ATOM     21  N   UNL     1      -8.415  -4.871  13.775  1.00  0.00    -0.332 N 
ATOM     22  C   UNL     1      -8.258  -6.248  14.210  1.00  0.00     0.147 C 
BRANCH  21  23
ATOM     23  C   UNL     1      -7.674  -3.837  14.549  1.00  0.00     0.178 C 
BRANCH  23  24
ATOM     24  C   UNL     1      -8.044  -3.762  16.044  1.00  0.00     0.070 C 
BRANCH  24  25
ATOM     25  C   UNL     1      -7.572  -2.547  16.809  1.00  0.00    -0.045 A 
ATOM     26  C   UNL     1      -8.173  -1.297  16.613  1.00  0.00     0.004 A 
ATOM     27  C   UNL     1      -6.517  -2.655  17.728  1.00  0.00     0.004 A 
ATOM     28  C   UNL     1      -7.720  -0.176  17.311  1.00  0.00     0.000 A 
ATOM     29  C   UNL     1      -6.066  -1.533  18.426  1.00  0.00     0.000 A 
ATOM     30  C   UNL     1      -6.666  -0.294  18.214  1.00  0.00     0.000 A 
ENDBRANCH  24  25
ENDBRANCH  23  24
BRANCH  23  31
ATOM     31  C   UNL     1      -6.155  -3.835  14.253  1.00  0.00     0.243 C 
ATOM     32  O   UNL     1      -5.407  -4.779  14.494  1.00  0.00    -0.273 OA
ATOM     33  N   UNL     1      -5.670  -2.600  13.858  1.00  0.00    -0.341 N 
ATOM     34  H   UNL     1      -6.342  -1.850  13.678  1.00  0.00     0.164 HD
BRANCH  33  35
ATOM     35  C   UNL     1      -4.246  -2.334  13.639  1.00  0.00     0.194 C 
BRANCH  35  36
ATOM     36  C   UNL     1      -3.557  -1.566  14.803  1.00  0.00     0.017 C 
ATOM     37  C   UNL     1      -4.100  -0.132  14.926  1.00  0.00     0.010 C 
ATOM     38  C   UNL     1      -2.035  -1.468  14.644  1.00  0.00     0.010 C 
ENDBRANCH  35  36
BRANCH  35  39
ATOM     39  C   UNL     1      -3.967  -1.671  12.261  1.00  0.00     0.329 C 
ATOM     40  O   UNL     1      -4.451  -0.604  11.902  1.00  0.00    -0.250 OA
BRANCH  39  41
ATOM     41  O   UNL     1      -3.049  -2.368  11.525  1.00  0.00    -0.458 OA
BRANCH  41  42
ATOM     42  C   UNL     1      -3.582  -3.304  10.557  1.00  0.00     0.205 CG0
ATOM     43  C   UNL     1      -2.797  -4.606  10.705  1.00  0.00     0.056 C 
ATOM     44  G   UNL     1      -3.443  -2.689   9.151  1.00  0.00     0.000 G0
ENDBRANCH  41  42
ENDBRANCH  39  41
ENDBRANCH  35  39
ENDBRANCH  33  35
ENDBRANCH  23  31
ENDBRANCH  21  23
ENDBRANCH  19  21
ENDBRANCH  14  19
ENDBRANCH   7  14
ENDBRANCH   2   5
BRANCH   3  45
ATOM     45  C   UNL     1      -6.891  -1.453   7.949  1.00  0.00     0.171 C 
BRANCH  45  46
ATOM     46  N   UNL     1      -5.523  -1.553   8.439  1.00  0.00    -0.342 N 
ATOM     47  C   UNL     1      -4.837  -2.741   8.470  1.00  0.00     0.247 C 
ATOM     48  O   UNL     1      -5.298  -3.791   8.021  1.00  0.00    -0.273 OA
ATOM     49  H   UNL     1      -5.083  -0.696   8.769  1.00  0.00     0.164 HD
BRANCH  47  50
ATOM     50  C   UNL     1      -3.454  -2.676   9.134  1.00  0.00     0.212 CG0
ATOM     51  G   UNL     1      -3.578  -3.307  10.535  1.00  0.00     0.000 G0
BRANCH  50  52
ATOM     52  N   UNL     1      -2.560  -3.414   8.246  1.00  0.00    -0.339 N 
ATOM     53  C   UNL     1      -1.764  -2.811   7.303  1.00  0.00     0.243 C 
ATOM     54  O   UNL     1      -1.783  -1.600   7.097  1.00  0.00    -0.273 OA
ATOM     55  H   UNL     1      -2.582  -4.431   8.292  1.00  0.00     0.164 HD
BRANCH  53  56
ATOM     56  C   UNL     1      -0.972  -3.800   6.425  1.00  0.00     0.182 C 
BRANCH  56  57
ATOM     57  N   UNL     1      -1.557  -5.144   6.486  1.00  0.00    -0.344 N 
ATOM     58  C   UNL     1      -2.732  -5.464   5.852  1.00  0.00     0.220 C 
ATOM     59  O   UNL     1      -3.410  -4.636   5.254  1.00  0.00    -0.275 OA
ATOM     60  H   UNL     1      -0.979  -5.880   6.883  1.00  0.00     0.164 HD
BRANCH  58  61
ATOM     61  C   UNL     1      -3.117  -6.924   6.002  1.00  0.00     0.100 C 
BRANCH  61  62
ATOM     62  C   UNL     1      -4.244  -7.164   7.007  1.00  0.00     0.010 C 
BRANCH  62  63
ATOM     63  C   UNL     1      -5.614  -7.420   6.365  1.00  0.00     0.000 C 
BRANCH  63  64
ATOM     64  C   UNL     1      -5.644  -7.218   4.851  1.00  0.00    -0.003 C 
ATOM     65  C   UNL     1      -7.021  -6.775   4.377  1.00  0.00     0.004 C 
ENDBRANCH  63  64
ENDBRANCH  62  63
ENDBRANCH  61  62
ENDBRANCH  58  61
ENDBRANCH  56  57
BRANCH  56  66
ATOM     66  C   UNL     1       0.514  -3.801   6.782  1.00  0.00     0.157 C 
BRANCH  66  67
ATOM     67  C   UNL     1       0.834  -4.883   7.774  1.00  0.00     0.305 C 
ATOM     68  O   UNL     1       0.774  -6.088   7.587  1.00  0.00    -0.252 OA
BRANCH  67  69
ATOM     69  O   UNL     1       1.268  -4.388   8.949  1.00  0.00    -0.481 OA
ATOM     70  H   UNL     1       0.533  -3.822   9.269  1.00  0.00     0.296 HD
ENDBRANCH  67  69
ENDBRANCH  66  67
ENDBRANCH  56  66
ENDBRANCH  53  56
ENDBRANCH  50  52
ENDBRANCH  47  50
ENDBRANCH  45  46
BRANCH  45  71
ATOM     71  C   UNL     1      -7.088  -0.215   7.068  1.00  0.00     0.037 C 
BRANCH  71  72
ATOM     72  C   UNL     1      -6.024  -0.114   5.972  1.00  0.00     0.026 C 
BRANCH  72  73
ATOM     73  C   UNL     1      -6.641   0.260   4.626  1.00  0.00     0.146 C 
BRANCH  73  74
ATOM     74  N   UNL     1      -6.310  -0.797   3.674  1.00  0.00    -0.254 NA
ATOM     75  C   UNL     1      -6.216  -0.479   2.436  1.00  0.00     0.185 C 
ATOM     76  N   UNL     1      -5.912  -1.429   1.536  1.00  0.00    -0.370 N 
ATOM     77  N   UNL     1      -6.383   0.722   1.856  1.00  0.00    -0.370 N 
ATOM     78  H   UNL     1      -5.778  -2.366   1.888  1.00  0.00     0.159 HD
ATOM     79  H   UNL     1      -5.964  -1.288   0.543  1.00  0.00     0.159 HD
ATOM     80  H   UNL     1      -6.611   1.533   2.412  1.00  0.00     0.159 HD
ATOM     81  H   UNL     1      -6.169   0.874   0.884  1.00  0.00     0.159 HD
ENDBRANCH  73  74
ENDBRANCH  72  73
ENDBRANCH  71  72
ENDBRANCH  45  71
ENDBRANCH   3  45
TORSDOF 20
ENDMDL
MODEL 25
REMARK VINA RESULT:    -6.036      2.637      9.022
REMARK INTER + INTRA:         -24.715
REMARK INTER:                 -17.805
REMARK INTRA:                  -6.910
REMARK UNBOUND:                -7.386
REMARK SMILES CCCCCC(=O)N[C@H](CC(=O)O)C(=O)N[C@H]1C(=O)N[C@H](CCCN=C(N)N)C(=O)N[C@@H]2CC[C@H](O)N(C2=O)[C@@H](CC(C)C)C(=O)N(C)[C@@H](Cc2ccccc2)C(=O)N[C@H](C(C)C)C(=O)O[C@@H]1C
REMARK SMILES IDX 30 1 31 2 29 3 32 5 35 6 37 7 34 8 38 9 33 10 39 11 36 12
REMARK SMILES IDX 40 14 41 15 42 16 43 17 44 18 45 19 46 20 47 21 48 22 49 23
REMARK SMILES IDX 50 24 51 25 52 26 56 27 53 28 55 29 54 30 57 31 58 32 59 33
REMARK SMILES IDX 60 35 61 36 62 37 63 38 64 39 65 40 66 41 67 42 68 43 21 45
REMARK SMILES IDX 20 46 18 47 19 48 17 50 16 52 14 53 15 54 9 56 8 57 6 58
REMARK SMILES IDX 7 59 5 61 4 62 3 63 2 64 1 65 10 66 11 67 12 68 13 69 22 71
REMARK SMILES IDX 23 72 24 73 25 74 26 75 27 76 28 77
REMARK H PARENT 31 4 36 13 59 34 20 49 16 55 8 60 13 70 27 78 27 79 28 80
REMARK H PARENT 28 81
REMARK Flexibility Score:  259.900
ROOT
ATOM      1  O   UNL     1      -5.146  -8.493   9.929  1.00  0.00    -0.273 OA
ATOM      2  N   UNL     1      -6.595  -6.752  10.246  1.00  0.00    -0.343 N 
ATOM      3  C   UNL     1      -5.496  -7.343   9.661  1.00  0.00     0.243 C 
ATOM      4  H   UNL     1      -6.862  -5.810   9.991  1.00  0.00     0.164 HD
ENDROOT
BRANCH   2   5
ATOM      5  C   UNL     1      -7.327  -7.434  11.308  1.00  0.00     0.171 C 
ATOM      6  C   UNL     1      -9.983  -7.068  12.412  1.00  0.00     0.214 C 
ATOM      7  N   UNL     1      -8.867  -6.362  12.997  1.00  0.00    -0.303 N 
ATOM      8  C   UNL     1      -9.594  -8.404  11.798  1.00  0.00     0.057 C 
ATOM      9  C   UNL     1      -7.582  -6.452  12.488  1.00  0.00     0.247 C 
ATOM     10  C   UNL     1      -8.527  -8.195  10.747  1.00  0.00     0.040 C 
ATOM     11  O   UNL     1      -6.648  -5.777  12.941  1.00  0.00    -0.272 OA
BRANCH   6  12
ATOM     12  O   UNL     1     -10.560  -6.229  11.438  1.00  0.00    -0.373 OA
ATOM     13  H   UNL     1     -10.087  -5.371  11.482  1.00  0.00     0.213 HD
ENDBRANCH   6  12
BRANCH   7  14
ATOM     14  C   UNL     1      -9.173  -5.410  14.086  1.00  0.00     0.177 C 
BRANCH  14  15
ATOM     15  C   UNL     1     -10.625  -4.895  14.119  1.00  0.00     0.038 C 
BRANCH  15  16
ATOM     16  C   UNL     1     -11.443  -5.009  15.424  1.00  0.00    -0.015 C 
ATOM     17  C   UNL     1     -11.946  -6.433  15.676  1.00  0.00     0.007 C 
ATOM     18  C   UNL     1     -12.658  -4.075  15.357  1.00  0.00     0.007 C 
ENDBRANCH  15  16
ENDBRANCH  14  15
BRANCH  14  19
ATOM     19  C   UNL     1      -8.293  -5.724  15.345  1.00  0.00     0.245 C 
ATOM     20  O   UNL     1      -8.414  -6.856  15.844  1.00  0.00    -0.272 OA
BRANCH  19  21
ATOM     21  N   UNL     1      -7.494  -4.790  15.980  1.00  0.00    -0.332 N 
ATOM     22  C   UNL     1      -7.030  -4.872  17.353  1.00  0.00     0.147 C 
BRANCH  21  23
ATOM     23  C   UNL     1      -7.077  -3.589  15.205  1.00  0.00     0.178 C 
BRANCH  23  24
ATOM     24  C   UNL     1      -7.716  -2.265  15.673  1.00  0.00     0.070 C 
BRANCH  24  25
ATOM     25  C   UNL     1      -8.831  -1.701  14.823  1.00  0.00    -0.045 A 
ATOM     26  C   UNL     1     -10.048  -1.315  15.400  1.00  0.00     0.004 A 
ATOM     27  C   UNL     1      -8.662  -1.559  13.437  1.00  0.00     0.004 A 
ATOM     28  C   UNL     1     -11.079  -0.810  14.605  1.00  0.00     0.000 A 
ATOM     29  C   UNL     1      -9.694  -1.053  12.645  1.00  0.00     0.000 A 
ATOM     30  C   UNL     1     -10.903  -0.682  13.230  1.00  0.00     0.000 A 
ENDBRANCH  24  25
ENDBRANCH  23  24
BRANCH  23  31
ATOM     31  C   UNL     1      -5.550  -3.526  14.963  1.00  0.00     0.243 C 
ATOM     32  O   UNL     1      -4.777  -4.448  15.210  1.00  0.00    -0.273 OA
ATOM     33  N   UNL     1      -5.097  -2.265  14.614  1.00  0.00    -0.341 N 
ATOM     34  H   UNL     1      -5.789  -1.535  14.427  1.00  0.00     0.164 HD
BRANCH  33  35
ATOM     35  C   UNL     1      -3.676  -1.944  14.452  1.00  0.00     0.194 C 
BRANCH  35  36
ATOM     36  C   UNL     1      -3.268  -0.560  15.032  1.00  0.00     0.017 C 
ATOM     37  C   UNL     1      -2.071  -0.686  15.990  1.00  0.00     0.010 C 
ATOM     38  C   UNL     1      -4.401   0.130  15.801  1.00  0.00     0.010 C 
ENDBRANCH  35  36
BRANCH  35  39
ATOM     39  C   UNL     1      -3.185  -2.127  12.989  1.00  0.00     0.329 C 
ATOM     40  O   UNL     1      -2.070  -2.536  12.686  1.00  0.00    -0.250 OA
BRANCH  39  41
ATOM     41  O   UNL     1      -4.166  -1.865  12.074  1.00  0.00    -0.458 OA
BRANCH  41  42
ATOM     42  C   UNL     1      -3.801  -2.013  10.681  1.00  0.00     0.205 CG0
ATOM     43  C   UNL     1      -3.715  -0.611  10.082  1.00  0.00     0.056 C 
ATOM     44  G   UNL     1      -4.862  -2.889   9.985  1.00  0.00     0.000 G0
ENDBRANCH  41  42
ENDBRANCH  39  41
ENDBRANCH  35  39
ENDBRANCH  33  35
ENDBRANCH  23  31
ENDBRANCH  21  23
ENDBRANCH  19  21
ENDBRANCH  14  19
ENDBRANCH   7  14
ENDBRANCH   2   5
BRANCH   3  45
ATOM     45  C   UNL     1      -4.752  -6.476   8.637  1.00  0.00     0.171 C 
BRANCH  45  46
ATOM     46  N   UNL     1      -5.114  -5.100   8.948  1.00  0.00    -0.342 N 
ATOM     47  C   UNL     1      -4.286  -4.262   9.652  1.00  0.00     0.247 C 
ATOM     48  O   UNL     1      -3.152  -4.585  10.006  1.00  0.00    -0.273 OA
ATOM     49  H   UNL     1      -6.022  -4.773   8.624  1.00  0.00     0.164 HD
BRANCH  47  50
ATOM     50  C   UNL     1      -4.887  -2.891   9.993  1.00  0.00     0.212 CG0
ATOM     51  G   UNL     1      -3.774  -2.039  10.635  1.00  0.00     0.000 G0
BRANCH  50  52
ATOM     52  N   UNL     1      -5.368  -2.350   8.724  1.00  0.00    -0.339 N 
ATOM     53  C   UNL     1      -6.684  -2.398   8.333  1.00  0.00     0.243 C 
ATOM     54  O   UNL     1      -7.554  -2.950   9.001  1.00  0.00    -0.273 OA
ATOM     55  H   UNL     1      -4.677  -1.977   8.076  1.00  0.00     0.164 HD
BRANCH  53  56
ATOM     56  C   UNL     1      -6.939  -1.841   6.917  1.00  0.00     0.182 C 
BRANCH  56  57
ATOM     57  N   UNL     1      -6.478  -2.783   5.891  1.00  0.00    -0.344 N 
ATOM     58  C   UNL     1      -7.176  -3.922   5.571  1.00  0.00     0.220 C 
ATOM     59  O   UNL     1      -8.189  -4.269   6.168  1.00  0.00    -0.275 OA
ATOM     60  H   UNL     1      -5.703  -2.483   5.306  1.00  0.00     0.164 HD
BRANCH  58  61
ATOM     61  C   UNL     1      -6.546  -4.716   4.442  1.00  0.00     0.100 C 
BRANCH  61  62
ATOM     62  C   UNL     1      -5.396  -3.988   3.744  1.00  0.00     0.010 C 
BRANCH  62  63
ATOM     63  C   UNL     1      -5.315  -4.246   2.234  1.00  0.00     0.000 C 
BRANCH  63  64
ATOM     64  C   UNL     1      -5.152  -2.983   1.391  1.00  0.00    -0.003 C 
ATOM     65  C   UNL     1      -6.077  -1.873   1.868  1.00  0.00     0.004 C 
ENDBRANCH  63  64
ENDBRANCH  62  63
ENDBRANCH  61  62
ENDBRANCH  58  61
ENDBRANCH  56  57
BRANCH  56  66
ATOM     66  C   UNL     1      -6.326  -0.453   6.743  1.00  0.00     0.157 C 
BRANCH  66  67
ATOM     67  C   UNL     1      -5.152  -0.490   5.807  1.00  0.00     0.305 C 
ATOM     68  O   UNL     1      -5.140  -0.151   4.633  1.00  0.00    -0.252 OA
BRANCH  67  69
ATOM     69  O   UNL     1      -4.026  -0.909   6.414  1.00  0.00    -0.481 OA
ATOM     70  H   UNL     1      -4.189  -1.854   6.620  1.00  0.00     0.296 HD
ENDBRANCH  67  69
ENDBRANCH  66  67
ENDBRANCH  56  66
ENDBRANCH  53  56
ENDBRANCH  50  52
ENDBRANCH  47  50
ENDBRANCH  45  46
BRANCH  45  71
ATOM     71  C   UNL     1      -5.164  -6.861   7.212  1.00  0.00     0.037 C 
BRANCH  71  72
ATOM     72  C   UNL     1      -3.955  -7.179   6.328  1.00  0.00     0.026 C 
BRANCH  72  73
ATOM     73  C   UNL     1      -3.149  -5.922   6.008  1.00  0.00     0.146 C 
BRANCH  73  74
ATOM     74  N   UNL     1      -1.800  -6.110   6.533  1.00  0.00    -0.254 NA
ATOM     75  C   UNL     1      -1.222  -5.102   7.074  1.00  0.00     0.185 C 
ATOM     76  N   UNL     1       0.019  -5.244   7.568  1.00  0.00    -0.370 N 
ATOM     77  N   UNL     1      -1.684  -3.850   7.237  1.00  0.00    -0.370 N 
ATOM     78  H   UNL     1       0.445  -6.155   7.479  1.00  0.00     0.159 HD
ATOM     79  H   UNL     1       0.586  -4.472   7.871  1.00  0.00     0.159 HD
ATOM     80  H   UNL     1      -2.607  -3.597   6.917  1.00  0.00     0.159 HD
ATOM     81  H   UNL     1      -1.183  -3.168   7.783  1.00  0.00     0.159 HD
ENDBRANCH  73  74
ENDBRANCH  72  73
ENDBRANCH  71  72
ENDBRANCH  45  71
ENDBRANCH   3  45
TORSDOF 20
ENDMDL
MODEL 26
REMARK VINA RESULT:    -6.017      2.934      9.108
REMARK INTER + INTRA:         -24.660
REMARK INTER:                 -20.106
REMARK INTRA:                  -4.554
REMARK UNBOUND:                -7.386
REMARK SMILES CCCCCC(=O)N[C@H](CC(=O)O)C(=O)N[C@H]1C(=O)N[C@H](CCCN=C(N)N)C(=O)N[C@@H]2CC[C@H](O)N(C2=O)[C@@H](CC(C)C)C(=O)N(C)[C@@H](Cc2ccccc2)C(=O)N[C@H](C(C)C)C(=O)O[C@@H]1C
REMARK SMILES IDX 30 1 31 2 29 3 32 5 35 6 37 7 34 8 38 9 33 10 39 11 36 12
REMARK SMILES IDX 40 14 41 15 42 16 43 17 44 18 45 19 46 20 47 21 48 22 49 23
REMARK SMILES IDX 50 24 51 25 52 26 56 27 53 28 55 29 54 30 57 31 58 32 59 33
REMARK SMILES IDX 60 35 61 36 62 37 63 38 64 39 65 40 66 41 67 42 68 43 21 45
REMARK SMILES IDX 20 46 18 47 19 48 17 50 16 52 14 53 15 54 9 56 8 57 6 58
REMARK SMILES IDX 7 59 5 61 4 62 3 63 2 64 1 65 10 66 11 67 12 68 13 69 22 71
REMARK SMILES IDX 23 72 24 73 25 74 26 75 27 76 28 77
REMARK H PARENT 31 4 36 13 59 34 20 49 16 55 8 60 13 70 27 78 27 79 28 80
REMARK H PARENT 28 81
REMARK Flexibility Score:  259.900
ROOT
ATOM      1  O   UNL     1      -9.024  -4.011   6.128  1.00  0.00    -0.273 OA
ATOM      2  N   UNL     1      -7.541  -2.724   7.300  1.00  0.00    -0.343 N 
ATOM      3  C   UNL     1      -7.875  -3.812   6.523  1.00  0.00     0.243 C 
ATOM      4  H   UNL     1      -6.582  -2.585   7.594  1.00  0.00     0.164 HD
ENDROOT
BRANCH   2   5
ATOM      5  C   UNL     1      -8.573  -1.817   7.790  1.00  0.00     0.171 C 
ATOM      6  C   UNL     1      -8.622   0.121   9.946  1.00  0.00     0.214 C 
ATOM      7  N   UNL     1      -9.039  -1.238  10.203  1.00  0.00    -0.303 N 
ATOM      8  C   UNL     1      -8.883   0.570   8.517  1.00  0.00     0.057 C 
ATOM      9  C   UNL     1      -8.992  -2.225   9.232  1.00  0.00     0.247 C 
ATOM     10  C   UNL     1      -8.181  -0.360   7.551  1.00  0.00     0.040 C 
ATOM     11  O   UNL     1      -9.269  -3.406   9.483  1.00  0.00    -0.272 OA
BRANCH   6  12
ATOM     12  O   UNL     1      -7.250   0.214  10.249  1.00  0.00    -0.373 OA
ATOM     13  H   UNL     1      -7.117   1.065  10.719  1.00  0.00     0.213 HD
ENDBRANCH   6  12
BRANCH   7  14
ATOM     14  C   UNL     1      -9.386  -1.580  11.598  1.00  0.00     0.177 C 
BRANCH  14  15
ATOM     15  C   UNL     1     -10.811  -2.129  11.805  1.00  0.00     0.038 C 
BRANCH  15  16
ATOM     16  C   UNL     1     -11.014  -3.443  12.591  1.00  0.00    -0.015 C 
ATOM     17  C   UNL     1     -11.527  -4.581  11.704  1.00  0.00     0.007 C 
ATOM     18  C   UNL     1     -12.028  -3.220  13.720  1.00  0.00     0.007 C 
ENDBRANCH  15  16
ENDBRANCH  14  15
BRANCH  14  19
ATOM     19  C   UNL     1      -8.110  -2.056  12.374  1.00  0.00     0.245 C 
ATOM     20  O   UNL     1      -7.147  -2.437  11.688  1.00  0.00    -0.272 OA
BRANCH  19  21
ATOM     21  N   UNL     1      -8.045  -2.178  13.751  1.00  0.00    -0.332 N 
ATOM     22  C   UNL     1      -8.791  -1.375  14.704  1.00  0.00     0.147 C 
BRANCH  21  23
ATOM     23  C   UNL     1      -7.129  -3.206  14.317  1.00  0.00     0.178 C 
BRANCH  23  24
ATOM     24  C   UNL     1      -6.692  -2.951  15.773  1.00  0.00     0.070 C 
BRANCH  24  25
ATOM     25  C   UNL     1      -7.072  -3.993  16.799  1.00  0.00    -0.045 A 
ATOM     26  C   UNL     1      -6.184  -5.021  17.141  1.00  0.00     0.004 A 
ATOM     27  C   UNL     1      -8.328  -3.947  17.422  1.00  0.00     0.004 A 
ATOM     28  C   UNL     1      -6.550  -5.990  18.078  1.00  0.00     0.000 A 
ATOM     29  C   UNL     1      -8.692  -4.916  18.359  1.00  0.00     0.000 A 
ATOM     30  C   UNL     1      -7.803  -5.938  18.684  1.00  0.00     0.000 A 
ENDBRANCH  24  25
ENDBRANCH  23  24
BRANCH  23  31
ATOM     31  C   UNL     1      -7.589  -4.653  14.019  1.00  0.00     0.243 C 
ATOM     32  O   UNL     1      -8.649  -5.132  14.413  1.00  0.00    -0.273 OA
ATOM     33  N   UNL     1      -6.613  -5.432  13.421  1.00  0.00    -0.341 N 
ATOM     34  H   UNL     1      -5.747  -4.978  13.120  1.00  0.00     0.164 HD
BRANCH  33  35
ATOM     35  C   UNL     1      -6.784  -6.863  13.155  1.00  0.00     0.194 C 
BRANCH  35  36
ATOM     36  C   UNL     1      -5.998  -7.788  14.128  1.00  0.00     0.017 C 
ATOM     37  C   UNL     1      -6.855  -8.175  15.346  1.00  0.00     0.010 C 
ATOM     38  C   UNL     1      -4.709  -7.150  14.658  1.00  0.00     0.010 C 
ENDBRANCH  35  36
BRANCH  35  39
ATOM     39  C   UNL     1      -6.524  -7.231  11.668  1.00  0.00     0.329 C 
ATOM     40  O   UNL     1      -6.938  -8.251  11.131  1.00  0.00    -0.250 OA
BRANCH  39  41
ATOM     41  O   UNL     1      -5.853  -6.245  10.998  1.00  0.00    -0.458 OA
BRANCH  41  42
ATOM     42  C   UNL     1      -4.733  -6.669  10.186  1.00  0.00     0.205 CG0
ATOM     43  C   UNL     1      -3.566  -6.948  11.132  1.00  0.00     0.056 C 
ATOM     44  G   UNL     1      -4.413  -5.555   9.169  1.00  0.00     0.000 G0
ENDBRANCH  41  42
ENDBRANCH  39  41
ENDBRANCH  35  39
ENDBRANCH  33  35
ENDBRANCH  23  31
ENDBRANCH  21  23
ENDBRANCH  19  21
ENDBRANCH  14  19
ENDBRANCH   7  14
ENDBRANCH   2   5
BRANCH   3  45
ATOM     45  C   UNL     1      -6.711  -4.747   6.166  1.00  0.00     0.171 C 
BRANCH  45  46
ATOM     46  N   UNL     1      -5.794  -4.682   7.295  1.00  0.00    -0.342 N 
ATOM     47  C   UNL     1      -5.288  -5.806   7.899  1.00  0.00     0.247 C 
ATOM     48  O   UNL     1      -5.513  -6.945   7.486  1.00  0.00    -0.273 OA
ATOM     49  H   UNL     1      -5.536  -3.757   7.633  1.00  0.00     0.164 HD
BRANCH  47  50
ATOM     50  C   UNL     1      -4.437  -5.546   9.150  1.00  0.00     0.212 CG0
ATOM     51  G   UNL     1      -4.746  -6.664  10.166  1.00  0.00     0.000 G0
BRANCH  50  52
ATOM     52  N   UNL     1      -3.052  -5.552   8.687  1.00  0.00    -0.339 N 
ATOM     53  C   UNL     1      -2.358  -4.411   8.365  1.00  0.00     0.243 C 
ATOM     54  O   UNL     1      -2.869  -3.295   8.391  1.00  0.00    -0.273 OA
ATOM     55  H   UNL     1      -2.607  -6.456   8.539  1.00  0.00     0.164 HD
BRANCH  53  56
ATOM     56  C   UNL     1      -0.940  -4.673   7.819  1.00  0.00     0.182 C 
BRANCH  56  57
ATOM     57  N   UNL     1       0.050  -3.829   8.497  1.00  0.00    -0.344 N 
ATOM     58  C   UNL     1       0.785  -4.273   9.569  1.00  0.00     0.220 C 
ATOM     59  O   UNL     1       0.614  -5.375  10.079  1.00  0.00    -0.275 OA
ATOM     60  H   UNL     1       0.293  -2.951   8.045  1.00  0.00     0.164 HD
BRANCH  58  61
ATOM     61  C   UNL     1       1.789  -3.253  10.073  1.00  0.00     0.100 C 
BRANCH  61  62
ATOM     62  C   UNL     1       2.859  -3.844  10.991  1.00  0.00     0.010 C 
BRANCH  62  63
ATOM     63  C   UNL     1       4.238  -3.186  10.851  1.00  0.00     0.000 C 
BRANCH  63  64
ATOM     64  C   UNL     1       4.192  -1.716  10.436  1.00  0.00    -0.003 C 
ATOM     65  C   UNL     1       5.354  -0.934  11.031  1.00  0.00     0.004 C 
ENDBRANCH  63  64
ENDBRANCH  62  63
ENDBRANCH  61  62
ENDBRANCH  58  61
ENDBRANCH  56  57
BRANCH  56  66
ATOM     66  C   UNL     1      -0.887  -4.517   6.300  1.00  0.00     0.157 C 
BRANCH  66  67
ATOM     67  C   UNL     1      -1.945  -5.346   5.631  1.00  0.00     0.305 C 
ATOM     68  O   UNL     1      -2.756  -4.968   4.800  1.00  0.00    -0.252 OA
BRANCH  67  69
ATOM     69  O   UNL     1      -1.896  -6.639   6.007  1.00  0.00    -0.481 OA
ATOM     70  H   UNL     1      -2.649  -6.747   6.626  1.00  0.00     0.296 HD
ENDBRANCH  67  69
ENDBRANCH  66  67
ENDBRANCH  56  66
ENDBRANCH  53  56
ENDBRANCH  50  52
ENDBRANCH  47  50
ENDBRANCH  45  46
BRANCH  45  71
ATOM     71  C   UNL     1      -6.040  -4.291   4.865  1.00  0.00     0.037 C 
BRANCH  71  72
ATOM     72  C   UNL     1      -6.608  -2.963   4.359  1.00  0.00     0.026 C 
BRANCH  72  73
ATOM     73  C   UNL     1      -5.534  -1.878   4.307  1.00  0.00     0.146 C 
BRANCH  73  74
ATOM     74  N   UNL     1      -5.656  -1.189   3.026  1.00  0.00    -0.254 NA
ATOM     75  C   UNL     1      -6.164  -0.013   3.025  1.00  0.00     0.185 C 
ATOM     76  N   UNL     1      -6.289   0.647   1.862  1.00  0.00    -0.370 N 
ATOM     77  N   UNL     1      -6.620   0.712   4.062  1.00  0.00    -0.370 N 
ATOM     78  H   UNL     1      -5.976   0.170   1.029  1.00  0.00     0.159 HD
ATOM     79  H   UNL     1      -6.805   1.504   1.764  1.00  0.00     0.159 HD
ATOM     80  H   UNL     1      -6.586   0.343   5.001  1.00  0.00     0.159 HD
ATOM     81  H   UNL     1      -6.893   1.675   3.954  1.00  0.00     0.159 HD
ENDBRANCH  73  74
ENDBRANCH  72  73
ENDBRANCH  71  72
ENDBRANCH  45  71
ENDBRANCH   3  45
TORSDOF 20
ENDMDL
MODEL 27
REMARK VINA RESULT:    -6.003      3.061      7.277
REMARK INTER + INTRA:         -24.620
REMARK INTER:                 -16.759
REMARK INTRA:                  -7.861
REMARK UNBOUND:                -7.386
REMARK SMILES CCCCCC(=O)N[C@H](CC(=O)O)C(=O)N[C@H]1C(=O)N[C@H](CCCN=C(N)N)C(=O)N[C@@H]2CC[C@H](O)N(C2=O)[C@@H](CC(C)C)C(=O)N(C)[C@@H](Cc2ccccc2)C(=O)N[C@H](C(C)C)C(=O)O[C@@H]1C
REMARK SMILES IDX 30 1 31 2 29 3 32 5 35 6 37 7 34 8 38 9 33 10 39 11 36 12
REMARK SMILES IDX 40 14 41 15 42 16 43 17 44 18 45 19 46 20 47 21 48 22 49 23
REMARK SMILES IDX 50 24 51 25 52 26 56 27 53 28 55 29 54 30 57 31 58 32 59 33
REMARK SMILES IDX 60 35 61 36 62 37 63 38 64 39 65 40 66 41 67 42 68 43 21 45
REMARK SMILES IDX 20 46 18 47 19 48 17 50 16 52 14 53 15 54 9 56 8 57 6 58
REMARK SMILES IDX 7 59 5 61 4 62 3 63 2 64 1 65 10 66 11 67 12 68 13 69 22 71
REMARK SMILES IDX 23 72 24 73 25 74 26 75 27 76 28 77
REMARK H PARENT 31 4 36 13 59 34 20 49 16 55 8 60 13 70 27 78 27 79 28 80
REMARK H PARENT 28 81
REMARK Flexibility Score:  259.900
ROOT
ATOM      1  O   UNL     1      -2.891  -6.726   8.831  1.00  0.00    -0.273 OA
ATOM      2  N   UNL     1      -4.970  -5.831   8.499  1.00  0.00    -0.343 N 
ATOM      3  C   UNL     1      -3.606  -5.872   8.304  1.00  0.00     0.243 C 
ATOM      4  H   UNL     1      -5.528  -5.124   8.038  1.00  0.00     0.164 HD
ENDROOT
BRANCH   2   5
ATOM      5  C   UNL     1      -5.612  -6.738   9.445  1.00  0.00     0.171 C 
ATOM      6  C   UNL     1      -8.391  -7.339  10.011  1.00  0.00     0.214 C 
ATOM      7  N   UNL     1      -7.725  -6.292  10.752  1.00  0.00    -0.303 N 
ATOM      8  C   UNL     1      -7.452  -8.447   9.560  1.00  0.00     0.057 C 
ATOM      9  C   UNL     1      -6.415  -5.920  10.496  1.00  0.00     0.247 C 
ATOM     10  C   UNL     1      -6.341  -7.865   8.715  1.00  0.00     0.040 C 
ATOM     11  O   UNL     1      -5.880  -4.965  11.075  1.00  0.00    -0.272 OA
BRANCH   6  12
ATOM     12  O   UNL     1      -9.022  -6.746   8.900  1.00  0.00    -0.373 OA
ATOM     13  H   UNL     1      -9.209  -5.813   9.140  1.00  0.00     0.213 HD
ENDBRANCH   6  12
BRANCH   7  14
ATOM     14  C   UNL     1      -8.548  -5.520  11.707  1.00  0.00     0.177 C 
BRANCH  14  15
ATOM     15  C   UNL     1      -8.110  -5.622  13.181  1.00  0.00     0.038 C 
BRANCH  15  16
ATOM     16  C   UNL     1      -9.157  -5.433  14.301  1.00  0.00    -0.015 C 
ATOM     17  C   UNL     1      -8.612  -4.621  15.480  1.00  0.00     0.007 C 
ATOM     18  C   UNL     1      -9.607  -6.802  14.827  1.00  0.00     0.007 C 
ENDBRANCH  15  16
ENDBRANCH  14  15
BRANCH  14  19
ATOM     19  C   UNL     1      -9.118  -4.233  11.017  1.00  0.00     0.245 C 
ATOM     20  O   UNL     1      -9.947  -4.407  10.108  1.00  0.00    -0.272 OA
BRANCH  19  21
ATOM     21  N   UNL     1      -8.672  -2.952  11.286  1.00  0.00    -0.332 N 
ATOM     22  C   UNL     1      -7.687  -2.596  12.292  1.00  0.00     0.147 C 
BRANCH  21  23
ATOM     23  C   UNL     1      -9.250  -1.833  10.492  1.00  0.00     0.178 C 
BRANCH  23  24
ATOM     24  C   UNL     1     -10.475  -1.151  11.134  1.00  0.00     0.070 C 
BRANCH  24  25
ATOM     25  C   UNL     1     -10.784  -1.503  12.571  1.00  0.00    -0.045 A 
ATOM     26  C   UNL     1     -10.349  -0.682  13.620  1.00  0.00     0.004 A 
ATOM     27  C   UNL     1     -11.510  -2.664  12.875  1.00  0.00     0.004 A 
ATOM     28  C   UNL     1     -10.624  -1.023  14.946  1.00  0.00     0.000 A 
ATOM     29  C   UNL     1     -11.785  -3.003  14.201  1.00  0.00     0.000 A 
ATOM     30  C   UNL     1     -11.339  -2.183  15.236  1.00  0.00     0.000 A 
ENDBRANCH  24  25
ENDBRANCH  23  24
BRANCH  23  31
ATOM     31  C   UNL     1      -8.176  -0.861   9.947  1.00  0.00     0.243 C 
ATOM     32  O   UNL     1      -8.188   0.353  10.136  1.00  0.00    -0.273 OA
ATOM     33  N   UNL     1      -7.290  -1.455   9.064  1.00  0.00    -0.341 N 
ATOM     34  H   UNL     1      -7.332  -2.470   8.943  1.00  0.00     0.164 HD
BRANCH  33  35
ATOM     35  C   UNL     1      -6.264  -0.704   8.335  1.00  0.00     0.194 C 
BRANCH  35  36
ATOM     36  C   UNL     1      -6.021  -1.206   6.884  1.00  0.00     0.017 C 
ATOM     37  C   UNL     1      -6.082  -0.047   5.873  1.00  0.00     0.010 C 
ATOM     38  C   UNL     1      -7.035  -2.263   6.432  1.00  0.00     0.010 C 
ENDBRANCH  35  36
BRANCH  35  39
ATOM     39  C   UNL     1      -4.938  -0.573   9.134  1.00  0.00     0.329 C 
ATOM     40  O   UNL     1      -4.870  -0.179  10.293  1.00  0.00    -0.250 OA
BRANCH  39  41
ATOM     41  O   UNL     1      -3.859  -1.030   8.429  1.00  0.00    -0.458 OA
BRANCH  41  42
ATOM     42  C   UNL     1      -2.575  -0.459   8.779  1.00  0.00     0.205 CG0
ATOM     43  C   UNL     1      -2.200   0.526   7.674  1.00  0.00     0.056 C 
ATOM     44  G   UNL     1      -1.551  -1.603   8.923  1.00  0.00     0.000 G0
ENDBRANCH  41  42
ENDBRANCH  39  41
ENDBRANCH  35  39
ENDBRANCH  33  35
ENDBRANCH  23  31
ENDBRANCH  21  23
ENDBRANCH  19  21
ENDBRANCH  14  19
ENDBRANCH   7  14
ENDBRANCH   2   5
BRANCH   3  45
ATOM     45  C   UNL     1      -3.043  -4.795   7.368  1.00  0.00     0.171 C 
BRANCH  45  46
ATOM     46  N   UNL     1      -2.717  -3.661   8.223  1.00  0.00    -0.342 N 
ATOM     47  C   UNL     1      -1.875  -2.655   7.823  1.00  0.00     0.247 C 
ATOM     48  O   UNL     1      -1.392  -2.598   6.691  1.00  0.00    -0.273 OA
ATOM     49  H   UNL     1      -3.141  -3.640   9.149  1.00  0.00     0.164 HD
BRANCH  47  50
ATOM     50  C   UNL     1      -1.550  -1.611   8.901  1.00  0.00     0.212 CG0
ATOM     51  G   UNL     1      -2.590  -0.479   8.783  1.00  0.00     0.000 G0
BRANCH  50  52
ATOM     52  N   UNL     1      -1.620  -2.328  10.171  1.00  0.00    -0.339 N 
ATOM     53  C   UNL     1      -0.598  -2.340  11.089  1.00  0.00     0.243 C 
ATOM     54  O   UNL     1       0.480  -1.788  10.887  1.00  0.00    -0.273 OA
ATOM     55  H   UNL     1      -2.445  -2.897  10.349  1.00  0.00     0.164 HD
BRANCH  53  56
ATOM     56  C   UNL     1      -0.866  -3.236  12.315  1.00  0.00     0.182 C 
BRANCH  56  57
ATOM     57  N   UNL     1      -1.224  -4.597  11.904  1.00  0.00    -0.344 N 
ATOM     58  C   UNL     1      -0.293  -5.601  11.789  1.00  0.00     0.220 C 
ATOM     59  O   UNL     1       0.908  -5.413  11.950  1.00  0.00    -0.275 OA
ATOM     60  H   UNL     1      -2.215  -4.819  11.861  1.00  0.00     0.164 HD
BRANCH  58  61
ATOM     61  C   UNL     1      -0.897  -6.940  11.408  1.00  0.00     0.100 C 
BRANCH  61  62
ATOM     62  C   UNL     1      -1.766  -7.559  12.504  1.00  0.00     0.010 C 
BRANCH  62  63
ATOM     63  C   UNL     1      -3.229  -7.774  12.096  1.00  0.00     0.000 C 
BRANCH  63  64
ATOM     64  C   UNL     1      -4.245  -7.171  13.065  1.00  0.00    -0.003 C 
ATOM     65  C   UNL     1      -5.356  -8.158  13.390  1.00  0.00     0.004 C 
ENDBRANCH  63  64
ENDBRANCH  62  63
ENDBRANCH  61  62
ENDBRANCH  58  61
ENDBRANCH  56  57
BRANCH  56  66
ATOM     66  C   UNL     1      -1.912  -2.619  13.242  1.00  0.00     0.157 C 
BRANCH  66  67
ATOM     67  C   UNL     1      -3.292  -3.107  12.906  1.00  0.00     0.305 C 
ATOM     68  O   UNL     1      -3.801  -4.162  13.253  1.00  0.00    -0.252 OA
BRANCH  67  69
ATOM     69  O   UNL     1      -3.990  -2.210  12.184  1.00  0.00    -0.481 OA
ATOM     70  H   UNL     1      -3.350  -1.492  11.991  1.00  0.00     0.296 HD
ENDBRANCH  67  69
ENDBRANCH  66  67
ENDBRANCH  56  66
ENDBRANCH  53  56
ENDBRANCH  50  52
ENDBRANCH  47  50
ENDBRANCH  45  46
BRANCH  45  71
ATOM     71  C   UNL     1      -4.079  -4.419   6.302  1.00  0.00     0.037 C 
BRANCH  71  72
ATOM     72  C   UNL     1      -3.859  -5.181   4.993  1.00  0.00     0.026 C 
BRANCH  72  73
ATOM     73  C   UNL     1      -5.179  -5.670   4.400  1.00  0.00     0.146 C 
BRANCH  73  74
ATOM     74  N   UNL     1      -6.237  -5.374   5.362  1.00  0.00    -0.254 NA
ATOM     75  C   UNL     1      -7.203  -6.211   5.466  1.00  0.00     0.185 C 
ATOM     76  N   UNL     1      -8.190  -5.967   6.343  1.00  0.00    -0.370 N 
ATOM     77  N   UNL     1      -7.398  -7.363   4.801  1.00  0.00    -0.370 N 
ATOM     78  H   UNL     1      -8.124  -5.115   6.881  1.00  0.00     0.159 HD
ATOM     79  H   UNL     1      -9.044  -6.496   6.377  1.00  0.00     0.159 HD
ATOM     80  H   UNL     1      -6.733  -7.677   4.111  1.00  0.00     0.159 HD
ATOM     81  H   UNL     1      -8.138  -7.998   5.051  1.00  0.00     0.159 HD
ENDBRANCH  73  74
ENDBRANCH  72  73
ENDBRANCH  71  72
ENDBRANCH  45  71
ENDBRANCH   3  45
TORSDOF 20
ENDMDL
MODEL 28
REMARK VINA RESULT:    -5.961      2.788      9.814
REMARK INTER + INTRA:         -24.498
REMARK INTER:                 -16.838
REMARK INTRA:                  -7.660
REMARK UNBOUND:                -7.386
REMARK SMILES CCCCCC(=O)N[C@H](CC(=O)O)C(=O)N[C@H]1C(=O)N[C@H](CCCN=C(N)N)C(=O)N[C@@H]2CC[C@H](O)N(C2=O)[C@@H](CC(C)C)C(=O)N(C)[C@@H](Cc2ccccc2)C(=O)N[C@H](C(C)C)C(=O)O[C@@H]1C
REMARK SMILES IDX 30 1 31 2 29 3 32 5 35 6 37 7 34 8 38 9 33 10 39 11 36 12
REMARK SMILES IDX 40 14 41 15 42 16 43 17 44 18 45 19 46 20 47 21 48 22 49 23
REMARK SMILES IDX 50 24 51 25 52 26 56 27 53 28 55 29 54 30 57 31 58 32 59 33
REMARK SMILES IDX 60 35 61 36 62 37 63 38 64 39 65 40 66 41 67 42 68 43 21 45
REMARK SMILES IDX 20 46 18 47 19 48 17 50 16 52 14 53 15 54 9 56 8 57 6 58
REMARK SMILES IDX 7 59 5 61 4 62 3 63 2 64 1 65 10 66 11 67 12 68 13 69 22 71
REMARK SMILES IDX 23 72 24 73 25 74 26 75 27 76 28 77
REMARK H PARENT 31 4 36 13 59 34 20 49 16 55 8 60 13 70 27 78 27 79 28 80
REMARK H PARENT 28 81
REMARK Flexibility Score:  259.900
ROOT
ATOM      1  O   UNL     1      -8.313  -1.074  11.747  1.00  0.00    -0.273 OA
ATOM      2  N   UNL     1     -10.093  -1.962  10.618  1.00  0.00    -0.343 N 
ATOM      3  C   UNL     1      -8.892  -1.288  10.682  1.00  0.00     0.243 C 
ATOM      4  H   UNL     1     -10.533  -2.133   9.722  1.00  0.00     0.164 HD
ENDROOT
BRANCH   2   5
ATOM      5  C   UNL     1     -10.793  -2.348  11.838  1.00  0.00     0.171 C 
ATOM      6  C   UNL     1      -9.978  -2.463  14.618  1.00  0.00     0.214 C 
ATOM      7  N   UNL     1      -9.822  -3.631  13.783  1.00  0.00    -0.303 N 
ATOM      8  C   UNL     1     -11.147  -1.581  14.207  1.00  0.00     0.057 C 
ATOM      9  C   UNL     1     -10.144  -3.630  12.436  1.00  0.00     0.247 C 
ATOM     10  C   UNL     1     -10.980  -1.149  12.766  1.00  0.00     0.040 C 
ATOM     11  O   UNL     1      -9.926  -4.607  11.708  1.00  0.00    -0.272 OA
BRANCH   6  12
ATOM     12  O   UNL     1      -8.772  -1.736  14.571  1.00  0.00    -0.373 OA
ATOM     13  H   UNL     1      -8.984  -0.851  14.204  1.00  0.00     0.213 HD
ENDBRANCH   6  12
BRANCH   7  14
ATOM     14  C   UNL     1      -9.161  -4.806  14.391  1.00  0.00     0.177 C 
BRANCH  14  15
ATOM     15  C   UNL     1     -10.110  -5.933  14.841  1.00  0.00     0.038 C 
BRANCH  15  16
ATOM     16  C   UNL     1     -10.846  -5.814  16.194  1.00  0.00    -0.015 C 
ATOM     17  C   UNL     1     -12.225  -5.162  16.053  1.00  0.00     0.007 C 
ATOM     18  C   UNL     1     -10.012  -4.969  17.165  1.00  0.00     0.007 C 
ENDBRANCH  15  16
ENDBRANCH  14  15
BRANCH  14  19
ATOM     19  C   UNL     1      -7.739  -5.013  13.765  1.00  0.00     0.245 C 
ATOM     20  O   UNL     1      -7.072  -3.989  13.540  1.00  0.00    -0.272 OA
BRANCH  19  21
ATOM     21  N   UNL     1      -7.248  -6.240  13.355  1.00  0.00    -0.332 N 
ATOM     22  C   UNL     1      -7.970  -7.212  12.553  1.00  0.00     0.147 C 
BRANCH  21  23
ATOM     23  C   UNL     1      -5.868  -6.613  13.774  1.00  0.00     0.178 C 
BRANCH  23  24
ATOM     24  C   UNL     1      -5.796  -7.730  14.835  1.00  0.00     0.070 C 
BRANCH  24  25
ATOM     25  C   UNL     1      -6.369  -7.421  16.199  1.00  0.00    -0.045 A 
ATOM     26  C   UNL     1      -7.387  -8.213  16.746  1.00  0.00     0.004 A 
ATOM     27  C   UNL     1      -5.889  -6.329  16.938  1.00  0.00     0.004 A 
ATOM     28  C   UNL     1      -7.923  -7.911  18.000  1.00  0.00     0.000 A 
ATOM     29  C   UNL     1      -6.425  -6.029  18.191  1.00  0.00     0.000 A 
ATOM     30  C   UNL     1      -7.443  -6.819  18.720  1.00  0.00     0.000 A 
ENDBRANCH  24  25
ENDBRANCH  23  24
BRANCH  23  31
ATOM     31  C   UNL     1      -4.900  -6.785  12.579  1.00  0.00     0.243 C 
ATOM     32  O   UNL     1      -4.894  -7.763  11.836  1.00  0.00    -0.273 OA
ATOM     33  N   UNL     1      -3.908  -5.821  12.528  1.00  0.00    -0.341 N 
ATOM     34  H   UNL     1      -3.963  -5.033  13.178  1.00  0.00     0.164 HD
BRANCH  33  35
ATOM     35  C   UNL     1      -2.813  -5.853  11.554  1.00  0.00     0.194 C 
BRANCH  35  36
ATOM     36  C   UNL     1      -1.395  -5.805  12.191  1.00  0.00     0.017 C 
ATOM     37  C   UNL     1      -0.863  -7.220  12.477  1.00  0.00     0.010 C 
ATOM     38  C   UNL     1      -1.351  -5.022  13.509  1.00  0.00     0.010 C 
ENDBRANCH  35  36
BRANCH  35  39
ATOM     39  C   UNL     1      -2.981  -4.792  10.431  1.00  0.00     0.329 C 
ATOM     40  O   UNL     1      -2.132  -3.957  10.143  1.00  0.00    -0.250 OA
BRANCH  39  41
ATOM     41  O   UNL     1      -4.150  -4.948   9.738  1.00  0.00    -0.458 OA
BRANCH  41  42
ATOM     42  C   UNL     1      -5.160  -3.933   9.948  1.00  0.00     0.205 CG0
ATOM     43  C   UNL     1      -6.487  -4.653  10.179  1.00  0.00     0.056 C 
ATOM     44  G   UNL     1      -5.196  -3.013   8.711  1.00  0.00     0.000 G0
ENDBRANCH  41  42
ENDBRANCH  39  41
ENDBRANCH  35  39
ENDBRANCH  33  35
ENDBRANCH  23  31
ENDBRANCH  21  23
ENDBRANCH  19  21
ENDBRANCH  14  19
ENDBRANCH   7  14
ENDBRANCH   2   5
BRANCH   3  45
ATOM     45  C   UNL     1      -8.316  -0.844   9.331  1.00  0.00     0.171 C 
BRANCH  45  46
ATOM     46  N   UNL     1      -6.967  -1.393   9.278  1.00  0.00    -0.342 N 
ATOM     47  C   UNL     1      -6.649  -2.490   8.517  1.00  0.00     0.247 C 
ATOM     48  O   UNL     1      -7.457  -3.044   7.771  1.00  0.00    -0.273 OA
ATOM     49  H   UNL     1      -6.254  -0.930   9.837  1.00  0.00     0.164 HD
BRANCH  47  50
ATOM     50  C   UNL     1      -5.210  -3.000   8.683  1.00  0.00     0.212 CG0
ATOM     51  G   UNL     1      -5.171  -3.885   9.945  1.00  0.00     0.000 G0
BRANCH  50  52
ATOM     52  N   UNL     1      -4.913  -3.733   7.455  1.00  0.00    -0.339 N 
ATOM     53  C   UNL     1      -3.951  -3.342   6.556  1.00  0.00     0.243 C 
ATOM     54  O   UNL     1      -3.299  -2.310   6.691  1.00  0.00    -0.273 OA
ATOM     55  H   UNL     1      -5.496  -4.537   7.231  1.00  0.00     0.164 HD
BRANCH  53  56
ATOM     56  C   UNL     1      -3.877  -4.223   5.293  1.00  0.00     0.182 C 
BRANCH  56  57
ATOM     57  N   UNL     1      -4.969  -5.201   5.269  1.00  0.00    -0.344 N 
ATOM     58  C   UNL     1      -6.037  -5.091   4.412  1.00  0.00     0.220 C 
ATOM     59  O   UNL     1      -6.188  -4.134   3.661  1.00  0.00    -0.275 OA
ATOM     60  H   UNL     1      -4.832  -6.057   5.800  1.00  0.00     0.164 HD
BRANCH  58  61
ATOM     61  C   UNL     1      -7.016  -6.245   4.519  1.00  0.00     0.100 C 
BRANCH  61  62
ATOM     62  C   UNL     1      -6.406  -7.519   5.106  1.00  0.00     0.010 C 
BRANCH  62  63
ATOM     63  C   UNL     1      -7.221  -8.136   6.249  1.00  0.00     0.000 C 
BRANCH  63  64
ATOM     64  C   UNL     1      -6.931  -7.534   7.623  1.00  0.00    -0.003 C 
ATOM     65  C   UNL     1      -5.439  -7.531   7.923  1.00  0.00     0.004 C 
ENDBRANCH  63  64
ENDBRANCH  62  63
ENDBRANCH  61  62
ENDBRANCH  58  61
ENDBRANCH  56  57
BRANCH  56  66
ATOM     66  C   UNL     1      -2.507  -4.885   5.151  1.00  0.00     0.157 C 
BRANCH  66  67
ATOM     67  C   UNL     1      -2.356  -6.033   6.108  1.00  0.00     0.305 C 
ATOM     68  O   UNL     1      -1.895  -5.989   7.238  1.00  0.00    -0.252 OA
BRANCH  67  69
ATOM     69  O   UNL     1      -2.847  -7.183   5.608  1.00  0.00    -0.481 OA
ATOM     70  H   UNL     1      -2.155  -7.502   4.990  1.00  0.00     0.296 HD
ENDBRANCH  67  69
ENDBRANCH  66  67
ENDBRANCH  56  66
ENDBRANCH  53  56
ENDBRANCH  50  52
ENDBRANCH  47  50
ENDBRANCH  45  46
BRANCH  45  71
ATOM     71  C   UNL     1      -8.308   0.686   9.232  1.00  0.00     0.037 C 
BRANCH  71  72
ATOM     72  C   UNL     1      -8.896   1.180   7.908  1.00  0.00     0.026 C 
BRANCH  72  73
ATOM     73  C   UNL     1      -8.477   0.289   6.741  1.00  0.00     0.146 C 
BRANCH  73  74
ATOM     74  N   UNL     1      -7.060   0.527   6.483  1.00  0.00    -0.254 NA
ATOM     75  C   UNL     1      -6.435  -0.317   5.747  1.00  0.00     0.185 C 
ATOM     76  N   UNL     1      -5.131  -0.124   5.491  1.00  0.00    -0.370 N 
ATOM     77  N   UNL     1      -6.902  -1.429   5.154  1.00  0.00    -0.370 N 
ATOM     78  H   UNL     1      -4.698   0.688   5.907  1.00  0.00     0.159 HD
ATOM     79  H   UNL     1      -4.546  -0.811   5.049  1.00  0.00     0.159 HD
ATOM     80  H   UNL     1      -7.869  -1.699   5.256  1.00  0.00     0.159 HD
ATOM     81  H   UNL     1      -6.343  -1.955   4.502  1.00  0.00     0.159 HD
ENDBRANCH  73  74
ENDBRANCH  72  73
ENDBRANCH  71  72
ENDBRANCH  45  71
ENDBRANCH   3  45
TORSDOF 20
ENDMDL
MODEL 29
REMARK VINA RESULT:    -5.938      2.867      7.893
REMARK INTER + INTRA:         -24.431
REMARK INTER:                 -19.996
REMARK INTRA:                  -4.435
REMARK UNBOUND:                -7.386
REMARK SMILES CCCCCC(=O)N[C@H](CC(=O)O)C(=O)N[C@H]1C(=O)N[C@H](CCCN=C(N)N)C(=O)N[C@@H]2CC[C@H](O)N(C2=O)[C@@H](CC(C)C)C(=O)N(C)[C@@H](Cc2ccccc2)C(=O)N[C@H](C(C)C)C(=O)O[C@@H]1C
REMARK SMILES IDX 30 1 31 2 29 3 32 5 35 6 37 7 34 8 38 9 33 10 39 11 36 12
REMARK SMILES IDX 40 14 41 15 42 16 43 17 44 18 45 19 46 20 47 21 48 22 49 23
REMARK SMILES IDX 50 24 51 25 52 26 56 27 53 28 55 29 54 30 57 31 58 32 59 33
REMARK SMILES IDX 60 35 61 36 62 37 63 38 64 39 65 40 66 41 67 42 68 43 21 45
REMARK SMILES IDX 20 46 18 47 19 48 17 50 16 52 14 53 15 54 9 56 8 57 6 58
REMARK SMILES IDX 7 59 5 61 4 62 3 63 2 64 1 65 10 66 11 67 12 68 13 69 22 71
REMARK SMILES IDX 23 72 24 73 25 74 26 75 27 76 28 77
REMARK H PARENT 31 4 36 13 59 34 20 49 16 55 8 60 13 70 27 78 27 79 28 80
REMARK H PARENT 28 81
REMARK Flexibility Score:  259.900
ROOT
ATOM      1  O   UNL     1      -3.359  -6.502   5.917  1.00  0.00    -0.273 OA
ATOM      2  N   UNL     1      -5.201  -5.885   7.123  1.00  0.00    -0.343 N 
ATOM      3  C   UNL     1      -4.141  -5.624   6.282  1.00  0.00     0.243 C 
ATOM      4  H   UNL     1      -5.833  -5.140   7.391  1.00  0.00     0.164 HD
ENDROOT
BRANCH   2   5
ATOM      5  C   UNL     1      -5.371  -7.207   7.716  1.00  0.00     0.171 C 
ATOM      6  C   UNL     1      -7.467  -8.376   9.342  1.00  0.00     0.214 C 
ATOM      7  N   UNL     1      -6.352  -7.720   9.984  1.00  0.00    -0.303 N 
ATOM      8  C   UNL     1      -7.107  -9.003   8.005  1.00  0.00     0.057 C 
ATOM      9  C   UNL     1      -5.343  -7.097   9.267  1.00  0.00     0.247 C 
ATOM     10  C   UNL     1      -6.546  -7.947   7.078  1.00  0.00     0.040 C 
ATOM     11  O   UNL     1      -4.437  -6.464   9.824  1.00  0.00    -0.272 OA
BRANCH   6  12
ATOM     12  O   UNL     1      -8.491  -7.423   9.180  1.00  0.00    -0.373 OA
ATOM     13  H   UNL     1      -8.125  -6.698   8.630  1.00  0.00     0.213 HD
ENDBRANCH   6  12
BRANCH   7  14
ATOM     14  C   UNL     1      -6.398  -7.608  11.458  1.00  0.00     0.177 C 
BRANCH  14  15
ATOM     15  C   UNL     1      -7.787  -7.823  12.089  1.00  0.00     0.038 C 
BRANCH  15  16
ATOM     16  C   UNL     1      -8.537  -6.622  12.707  1.00  0.00    -0.015 C 
ATOM     17  C   UNL     1     -10.047  -6.684  12.458  1.00  0.00     0.007 C 
ATOM     18  C   UNL     1      -8.005  -5.314  12.107  1.00  0.00     0.007 C 
ENDBRANCH  15  16
ENDBRANCH  14  15
BRANCH  14  19
ATOM     19  C   UNL     1      -5.037  -8.072  12.081  1.00  0.00     0.245 C 
ATOM     20  O   UNL     1      -4.551  -9.127  11.641  1.00  0.00    -0.272 OA
BRANCH  19  21
ATOM     21  N   UNL     1      -4.423  -7.442  13.149  1.00  0.00    -0.332 N 
ATOM     22  C   UNL     1      -4.900  -7.451  14.521  1.00  0.00     0.147 C 
BRANCH  21  23
ATOM     23  C   UNL     1      -3.173  -6.677  12.881  1.00  0.00     0.178 C 
BRANCH  23  24
ATOM     24  C   UNL     1      -2.226  -7.328  11.853  1.00  0.00     0.070 C 
BRANCH  24  25
ATOM     25  C   UNL     1      -0.893  -6.655  11.622  1.00  0.00    -0.045 A 
ATOM     26  C   UNL     1       0.088  -6.646  12.622  1.00  0.00     0.004 A 
ATOM     27  C   UNL     1      -0.622  -6.023  10.399  1.00  0.00     0.004 A 
ATOM     28  C   UNL     1       1.311  -6.007  12.407  1.00  0.00     0.000 A 
ATOM     29  C   UNL     1       0.602  -5.386  10.186  1.00  0.00     0.000 A 
ATOM     30  C   UNL     1       1.566  -5.376  11.191  1.00  0.00     0.000 A 
ENDBRANCH  24  25
ENDBRANCH  23  24
BRANCH  23  31
ATOM     31  C   UNL     1      -3.425  -5.165  12.670  1.00  0.00     0.243 C 
ATOM     32  O   UNL     1      -4.134  -4.705  11.779  1.00  0.00    -0.273 OA
ATOM     33  N   UNL     1      -2.628  -4.356  13.463  1.00  0.00    -0.341 N 
ATOM     34  H   UNL     1      -2.053  -4.799  14.184  1.00  0.00     0.164 HD
BRANCH  33  35
ATOM     35  C   UNL     1      -2.610  -2.895  13.349  1.00  0.00     0.194 C 
BRANCH  35  36
ATOM     36  C   UNL     1      -3.967  -2.215  13.682  1.00  0.00     0.017 C 
ATOM     37  C   UNL     1      -3.767  -0.756  14.129  1.00  0.00     0.010 C 
ATOM     38  C   UNL     1      -4.746  -2.932  14.793  1.00  0.00     0.010 C 
ENDBRANCH  35  36
BRANCH  35  39
ATOM     39  C   UNL     1      -2.036  -2.409  11.988  1.00  0.00     0.329 C 
ATOM     40  O   UNL     1      -0.932  -2.722  11.558  1.00  0.00    -0.250 OA
BRANCH  39  41
ATOM     41  O   UNL     1      -2.937  -1.661  11.282  1.00  0.00    -0.458 OA
BRANCH  41  42
ATOM     42  C   UNL     1      -2.854  -1.751   9.839  1.00  0.00     0.205 CG0
ATOM     43  C   UNL     1      -2.876  -0.325   9.293  1.00  0.00     0.056 C 
ATOM     44  G   UNL     1      -4.039  -2.596   9.330  1.00  0.00     0.000 G0
ENDBRANCH  41  42
ENDBRANCH  39  41
ENDBRANCH  35  39
ENDBRANCH  33  35
ENDBRANCH  23  31
ENDBRANCH  21  23
ENDBRANCH  19  21
ENDBRANCH  14  19
ENDBRANCH   7  14
ENDBRANCH   2   5
BRANCH   3  45
ATOM     45  C   UNL     1      -4.015  -4.167   5.816  1.00  0.00     0.171 C 
BRANCH  45  46
ATOM     46  N   UNL     1      -4.283  -3.352   6.994  1.00  0.00    -0.342 N 
ATOM     47  C   UNL     1      -3.536  -3.449   8.141  1.00  0.00     0.247 C 
ATOM     48  O   UNL     1      -2.546  -4.175   8.235  1.00  0.00    -0.273 OA
ATOM     49  H   UNL     1      -5.060  -2.696   6.940  1.00  0.00     0.164 HD
BRANCH  47  50
ATOM     50  C   UNL     1      -4.042  -2.604   9.319  1.00  0.00     0.212 CG0
ATOM     51  G   UNL     1      -2.861  -1.750   9.822  1.00  0.00     0.000 G0
BRANCH  50  52
ATOM     52  N   UNL     1      -5.143  -1.808   8.783  1.00  0.00    -0.339 N 
ATOM     53  C   UNL     1      -6.185  -1.346   9.550  1.00  0.00     0.243 C 
ATOM     54  O   UNL     1      -6.298  -1.613  10.743  1.00  0.00    -0.273 OA
ATOM     55  H   UNL     1      -5.164  -1.647   7.778  1.00  0.00     0.164 HD
BRANCH  53  56
ATOM     56  C   UNL     1      -7.273  -0.603   8.749  1.00  0.00     0.182 C 
BRANCH  56  57
ATOM     57  N   UNL     1      -8.555  -0.621   9.460  1.00  0.00    -0.344 N 
ATOM     58  C   UNL     1      -9.085   0.501  10.049  1.00  0.00     0.220 C 
ATOM     59  O   UNL     1      -8.493   1.574  10.086  1.00  0.00    -0.275 OA
ATOM     60  H   UNL     1      -9.122  -1.459   9.365  1.00  0.00     0.164 HD
BRANCH  58  61
ATOM     61  C   UNL     1     -10.447   0.264  10.677  1.00  0.00     0.100 C 
BRANCH  61  62
ATOM     62  C   UNL     1     -10.790  -1.214  10.863  1.00  0.00     0.010 C 
BRANCH  62  63
ATOM     63  C   UNL     1     -10.400  -1.781  12.235  1.00  0.00     0.000 C 
BRANCH  63  64
ATOM     64  C   UNL     1     -10.708  -0.852  13.407  1.00  0.00    -0.003 C 
ATOM     65  C   UNL     1     -10.807  -1.623  14.716  1.00  0.00     0.004 C 
ENDBRANCH  63  64
ENDBRANCH  62  63
ENDBRANCH  61  62
ENDBRANCH  58  61
ENDBRANCH  56  57
BRANCH  56  66
ATOM     66  C   UNL     1      -7.394  -1.151   7.328  1.00  0.00     0.157 C 
BRANCH  66  67
ATOM     67  C   UNL     1      -7.929  -2.554   7.329  1.00  0.00     0.305 C 
ATOM     68  O   UNL     1      -7.277  -3.587   7.354  1.00  0.00    -0.252 OA
BRANCH  67  69
ATOM     69  O   UNL     1      -9.275  -2.588   7.352  1.00  0.00    -0.481 OA
ATOM     70  H   UNL     1      -9.530  -2.970   6.486  1.00  0.00     0.296 HD
ENDBRANCH  67  69
ENDBRANCH  66  67
ENDBRANCH  56  66
ENDBRANCH  53  56
ENDBRANCH  50  52
ENDBRANCH  47  50
ENDBRANCH  45  46
BRANCH  45  71
ATOM     71  C   UNL     1      -5.014  -3.879   4.690  1.00  0.00     0.037 C 
BRANCH  71  72
ATOM     72  C   UNL     1      -5.200  -2.378   4.456  1.00  0.00     0.026 C 
BRANCH  72  73
ATOM     73  C   UNL     1      -5.540  -2.076   2.998  1.00  0.00     0.146 C 
BRANCH  73  74
ATOM     74  N   UNL     1      -5.335  -0.647   2.778  1.00  0.00    -0.254 NA
ATOM     75  C   UNL     1      -6.204  -0.019   2.075  1.00  0.00     0.185 C 
ATOM     76  N   UNL     1      -6.044   1.296   1.856  1.00  0.00    -0.370 N 
ATOM     77  N   UNL     1      -7.316  -0.492   1.485  1.00  0.00    -0.370 N 
ATOM     78  H   UNL     1      -5.226   1.731   2.259  1.00  0.00     0.159 HD
ATOM     79  H   UNL     1      -6.597   1.820   1.201  1.00  0.00     0.159 HD
ATOM     80  H   UNL     1      -7.566  -1.466   1.568  1.00  0.00     0.159 HD
ATOM     81  H   UNL     1      -7.986   0.122   1.052  1.00  0.00     0.159 HD
ENDBRANCH  73  74
ENDBRANCH  72  73
ENDBRANCH  71  72
ENDBRANCH  45  71
ENDBRANCH   3  45
TORSDOF 20
ENDMDL
MODEL 30
REMARK VINA RESULT:    -5.922      2.951      6.188
REMARK INTER + INTRA:         -24.387
REMARK INTER:                 -18.970
REMARK INTRA:                  -5.417
REMARK UNBOUND:                -7.386
REMARK SMILES CCCCCC(=O)N[C@H](CC(=O)O)C(=O)N[C@H]1C(=O)N[C@H](CCCN=C(N)N)C(=O)N[C@@H]2CC[C@H](O)N(C2=O)[C@@H](CC(C)C)C(=O)N(C)[C@@H](Cc2ccccc2)C(=O)N[C@H](C(C)C)C(=O)O[C@@H]1C
REMARK SMILES IDX 30 1 31 2 29 3 32 5 35 6 37 7 34 8 38 9 33 10 39 11 36 12
REMARK SMILES IDX 40 14 41 15 42 16 43 17 44 18 45 19 46 20 47 21 48 22 49 23
REMARK SMILES IDX 50 24 51 25 52 26 56 27 53 28 55 29 54 30 57 31 58 32 59 33
REMARK SMILES IDX 60 35 61 36 62 37 63 38 64 39 65 40 66 41 67 42 68 43 21 45
REMARK SMILES IDX 20 46 18 47 19 48 17 50 16 52 14 53 15 54 9 56 8 57 6 58
REMARK SMILES IDX 7 59 5 61 4 62 3 63 2 64 1 65 10 66 11 67 12 68 13 69 22 71
REMARK SMILES IDX 23 72 24 73 25 74 26 75 27 76 28 77
REMARK H PARENT 31 4 36 13 59 34 20 49 16 55 8 60 13 70 27 78 27 79 28 80
REMARK H PARENT 28 81
REMARK Flexibility Score:  259.900
ROOT
ATOM      1  O   UNL     1      -4.624  -0.074   9.165  1.00  0.00    -0.273 OA
ATOM      2  N   UNL     1      -6.278  -0.863   7.797  1.00  0.00    -0.343 N 
ATOM      3  C   UNL     1      -5.810  -0.355   8.990  1.00  0.00     0.243 C 
ATOM      4  H   UNL     1      -7.263  -1.069   7.684  1.00  0.00     0.164 HD
ENDROOT
BRANCH   2   5
ATOM      5  C   UNL     1      -5.354  -1.204   6.721  1.00  0.00     0.171 C 
ATOM      6  C   UNL     1      -5.657  -2.749   4.287  1.00  0.00     0.214 C 
ATOM      7  N   UNL     1      -5.223  -3.408   5.497  1.00  0.00    -0.303 N 
ATOM      8  C   UNL     1      -5.233  -1.291   4.211  1.00  0.00     0.057 C 
ATOM      9  C   UNL     1      -5.107  -2.740   6.705  1.00  0.00     0.247 C 
ATOM     10  C   UNL     1      -5.769  -0.539   5.410  1.00  0.00     0.040 C 
ATOM     11  O   UNL     1      -4.819  -3.329   7.755  1.00  0.00    -0.272 OA
BRANCH   6  12
ATOM     12  O   UNL     1      -7.060  -2.859   4.216  1.00  0.00    -0.373 OA
ATOM     13  H   UNL     1      -7.411  -1.955   4.068  1.00  0.00     0.213 HD
ENDBRANCH   6  12
BRANCH   7  14
ATOM     14  C   UNL     1      -5.045  -4.874   5.435  1.00  0.00     0.177 C 
BRANCH  14  15
ATOM     15  C   UNL     1      -6.068  -5.623   4.559  1.00  0.00     0.038 C 
BRANCH  15  16
ATOM     16  C   UNL     1      -7.253  -6.354   5.228  1.00  0.00    -0.015 C 
ATOM     17  C   UNL     1      -7.617  -5.751   6.588  1.00  0.00     0.007 C 
ATOM     18  C   UNL     1      -6.900  -7.832   5.436  1.00  0.00     0.007 C 
ENDBRANCH  15  16
ENDBRANCH  14  15
BRANCH  14  19
ATOM     19  C   UNL     1      -3.528  -5.244   5.575  1.00  0.00     0.245 C 
ATOM     20  O   UNL     1      -2.755  -4.763   4.729  1.00  0.00    -0.272 OA
BRANCH  19  21
ATOM     21  N   UNL     1      -3.036  -6.146   6.501  1.00  0.00    -0.332 N 
ATOM     22  C   UNL     1      -3.356  -7.562   6.550  1.00  0.00     0.147 C 
BRANCH  21  23
ATOM     23  C   UNL     1      -2.109  -5.634   7.547  1.00  0.00     0.178 C 
BRANCH  23  24
ATOM     24  C   UNL     1      -1.601  -4.197   7.312  1.00  0.00     0.070 C 
BRANCH  24  25
ATOM     25  C   UNL     1      -0.884  -3.524   8.460  1.00  0.00    -0.045 A 
ATOM     26  C   UNL     1      -1.507  -2.510   9.198  1.00  0.00     0.004 A 
ATOM     27  C   UNL     1       0.423  -3.905   8.799  1.00  0.00     0.004 A 
ATOM     28  C   UNL     1      -0.831  -1.881  10.247  1.00  0.00     0.000 A 
ATOM     29  C   UNL     1       1.096  -3.276   9.847  1.00  0.00     0.000 A 
ATOM     30  C   UNL     1       0.469  -2.262  10.569  1.00  0.00     0.000 A 
ENDBRANCH  24  25
ENDBRANCH  23  24
BRANCH  23  31
ATOM     31  C   UNL     1      -2.603  -5.923   8.985  1.00  0.00     0.243 C 
ATOM     32  O   UNL     1      -1.884  -6.348   9.886  1.00  0.00    -0.273 OA
ATOM     33  N   UNL     1      -3.978  -5.837   9.125  1.00  0.00    -0.341 N 
ATOM     34  H   UNL     1      -4.525  -5.482   8.337  1.00  0.00     0.164 HD
BRANCH  33  35
ATOM     35  C   UNL     1      -4.677  -6.184  10.366  1.00  0.00     0.194 C 
BRANCH  35  36
ATOM     36  C   UNL     1      -5.360  -7.581  10.340  1.00  0.00     0.017 C 
ATOM     37  C   UNL     1      -4.392  -8.684  10.804  1.00  0.00     0.010 C 
ATOM     38  C   UNL     1      -5.876  -7.977   8.951  1.00  0.00     0.010 C 
ENDBRANCH  35  36
BRANCH  35  39
ATOM     39  C   UNL     1      -5.655  -5.069  10.833  1.00  0.00     0.329 C 
ATOM     40  O   UNL     1      -6.649  -4.723  10.207  1.00  0.00    -0.250 OA
BRANCH  39  41
ATOM     41  O   UNL     1      -5.329  -4.576  12.066  1.00  0.00    -0.458 OA
BRANCH  41  42
ATOM     42  C   UNL     1      -4.523  -3.374  12.083  1.00  0.00     0.205 CG0
ATOM     43  C   UNL     1      -3.200  -3.724  12.760  1.00  0.00     0.056 C 
ATOM     44  G   UNL     1      -5.297  -2.273  12.835  1.00  0.00     0.000 G0
ENDBRANCH  41  42
ENDBRANCH  39  41
ENDBRANCH  35  39
ENDBRANCH  33  35
ENDBRANCH  23  31
ENDBRANCH  21  23
ENDBRANCH  19  21
ENDBRANCH  14  19
ENDBRANCH   7  14
ENDBRANCH   2   5
BRANCH   3  45
ATOM     45  C   UNL     1      -6.873  -0.143  10.076  1.00  0.00     0.171 C 
BRANCH  45  46
ATOM     46  N   UNL     1      -6.599  -1.146  11.096  1.00  0.00    -0.342 N 
ATOM     47  C   UNL     1      -5.508  -1.075  11.925  1.00  0.00     0.247 C 
ATOM     48  O   UNL     1      -4.724  -0.125  11.917  1.00  0.00    -0.273 OA
ATOM     49  H   UNL     1      -7.255  -1.922  11.175  1.00  0.00     0.164 HD
BRANCH  47  50
ATOM     50  C   UNL     1      -5.315  -2.284  12.851  1.00  0.00     0.212 CG0
ATOM     51  G   UNL     1      -4.539  -3.358  12.062  1.00  0.00     0.000 G0
BRANCH  50  52
ATOM     52  N   UNL     1      -4.583  -1.776  14.008  1.00  0.00    -0.339 N 
ATOM     53  C   UNL     1      -5.192  -1.380  15.174  1.00  0.00     0.243 C 
ATOM     54  O   UNL     1      -6.412  -1.374  15.314  1.00  0.00    -0.273 OA
ATOM     55  H   UNL     1      -3.576  -1.653  13.913  1.00  0.00     0.164 HD
BRANCH  53  56
ATOM     56  C   UNL     1      -4.222  -0.798  16.222  1.00  0.00     0.182 C 
BRANCH  56  57
ATOM     57  N   UNL     1      -4.409   0.649  16.366  1.00  0.00    -0.344 N 
ATOM     58  C   UNL     1      -5.155   1.197  17.381  1.00  0.00     0.220 C 
ATOM     59  O   UNL     1      -5.774   0.516  18.192  1.00  0.00    -0.275 OA
ATOM     60  H   UNL     1      -3.834   1.248  15.781  1.00  0.00     0.164 HD
BRANCH  58  61
ATOM     61  C   UNL     1      -5.163   2.714  17.370  1.00  0.00     0.100 C 
BRANCH  61  62
ATOM     62  C   UNL     1      -4.310   3.327  16.259  1.00  0.00     0.010 C 
BRANCH  62  63
ATOM     63  C   UNL     1      -3.024   4.000  16.754  1.00  0.00     0.000 C 
BRANCH  63  64
ATOM     64  C   UNL     1      -1.747   3.469  16.103  1.00  0.00    -0.003 C 
ATOM     65  C   UNL     1      -1.005   4.570  15.358  1.00  0.00     0.004 C 
ENDBRANCH  63  64
ENDBRANCH  62  63
ENDBRANCH  61  62
ENDBRANCH  58  61
ENDBRANCH  56  57
BRANCH  56  66
ATOM     66  C   UNL     1      -2.772  -1.164  15.908  1.00  0.00     0.157 C 
BRANCH  66  67
ATOM     67  C   UNL     1      -1.815  -0.237  16.601  1.00  0.00     0.305 C 
ATOM     68  O   UNL     1      -1.951   0.263  17.707  1.00  0.00    -0.252 OA
BRANCH  67  69
ATOM     69  O   UNL     1      -0.698  -0.024  15.881  1.00  0.00    -0.481 OA
ATOM     70  H   UNL     1      -0.580   0.950  15.884  1.00  0.00     0.296 HD
ENDBRANCH  67  69
ENDBRANCH  66  67
ENDBRANCH  56  66
ENDBRANCH  53  56
ENDBRANCH  50  52
ENDBRANCH  47  50
ENDBRANCH  45  46
BRANCH  45  71
ATOM     71  C   UNL     1      -8.278  -0.305   9.486  1.00  0.00     0.037 C 
BRANCH  71  72
ATOM     72  C   UNL     1      -9.316   0.538  10.232  1.00  0.00     0.026 C 
BRANCH  72  73
ATOM     73  C   UNL     1     -10.255  -0.335  11.063  1.00  0.00     0.146 C 
BRANCH  73  74
ATOM     74  N   UNL     1      -9.551  -0.711  12.285  1.00  0.00    -0.254 NA
ATOM     75  C   UNL     1     -10.217  -0.723  13.380  1.00  0.00     0.185 C 
ATOM     76  N   UNL     1      -9.597  -1.066  14.521  1.00  0.00    -0.370 N 
ATOM     77  N   UNL     1     -11.513  -0.430  13.584  1.00  0.00    -0.370 N 
ATOM     78  H   UNL     1      -8.616  -1.294  14.458  1.00  0.00     0.159 HD
ATOM     79  H   UNL     1     -10.012  -0.958  15.430  1.00  0.00     0.159 HD
ATOM     80  H   UNL     1     -12.106  -0.159  12.814  1.00  0.00     0.159 HD
ATOM     81  H   UNL     1     -11.956  -0.587  14.474  1.00  0.00     0.159 HD
ENDBRANCH  73  74
ENDBRANCH  72  73
ENDBRANCH  71  72
ENDBRANCH  45  71
ENDBRANCH   3  45
TORSDOF 20
ENDMDL
MODEL 31
REMARK VINA RESULT:    -5.912      3.305      9.736
REMARK INTER + INTRA:         -24.357
REMARK INTER:                 -20.198
REMARK INTRA:                  -4.159
REMARK UNBOUND:                -7.386
REMARK SMILES CCCCCC(=O)N[C@H](CC(=O)O)C(=O)N[C@H]1C(=O)N[C@H](CCCN=C(N)N)C(=O)N[C@@H]2CC[C@H](O)N(C2=O)[C@@H](CC(C)C)C(=O)N(C)[C@@H](Cc2ccccc2)C(=O)N[C@H](C(C)C)C(=O)O[C@@H]1C
REMARK SMILES IDX 30 1 31 2 29 3 32 5 35 6 37 7 34 8 38 9 33 10 39 11 36 12
REMARK SMILES IDX 40 14 41 15 42 16 43 17 44 18 45 19 46 20 47 21 48 22 49 23
REMARK SMILES IDX 50 24 51 25 52 26 56 27 53 28 55 29 54 30 57 31 58 32 59 33
REMARK SMILES IDX 60 35 61 36 62 37 63 38 64 39 65 40 66 41 67 42 68 43 21 45
REMARK SMILES IDX 20 46 18 47 19 48 17 50 16 52 14 53 15 54 9 56 8 57 6 58
REMARK SMILES IDX 7 59 5 61 4 62 3 63 2 64 1 65 10 66 11 67 12 68 13 69 22 71
REMARK SMILES IDX 23 72 24 73 25 74 26 75 27 76 28 77
REMARK H PARENT 31 4 36 13 59 34 20 49 16 55 8 60 13 70 27 78 27 79 28 80
REMARK H PARENT 28 81
REMARK Flexibility Score:  259.900
ROOT
ATOM      1  O   UNL     1      -9.409  -2.404   7.302  1.00  0.00    -0.273 OA
ATOM      2  N   UNL     1      -8.422  -1.732   9.253  1.00  0.00    -0.343 N 
ATOM      3  C   UNL     1      -8.386  -2.155   7.941  1.00  0.00     0.243 C 
ATOM      4  H   UNL     1      -7.561  -1.523   9.743  1.00  0.00     0.164 HD
ENDROOT
BRANCH   2   5
ATOM      5  C   UNL     1      -9.685  -1.677   9.981  1.00  0.00     0.171 C 
ATOM      6  C   UNL     1     -10.318  -1.422  12.798  1.00  0.00     0.214 C 
ATOM      7  N   UNL     1     -10.175  -2.737  12.219  1.00  0.00    -0.303 N 
ATOM      8  C   UNL     1     -10.823  -0.381  11.811  1.00  0.00     0.057 C 
ATOM      9  C   UNL     1      -9.823  -2.930  10.892  1.00  0.00     0.247 C 
ATOM     10  C   UNL     1      -9.888  -0.306  10.624  1.00  0.00     0.040 C 
ATOM     11  O   UNL     1      -9.618  -4.058  10.425  1.00  0.00    -0.272 OA
BRANCH   6  12
ATOM     12  O   UNL     1      -9.065  -1.042  13.318  1.00  0.00    -0.373 OA
ATOM     13  H   UNL     1      -8.466  -1.812  13.216  1.00  0.00     0.213 HD
ENDBRANCH   6  12
BRANCH   7  14
ATOM     14  C   UNL     1     -10.274  -3.890  13.139  1.00  0.00     0.177 C 
BRANCH  14  15
ATOM     15  C   UNL     1     -11.646  -4.593  13.165  1.00  0.00     0.038 C 
BRANCH  15  16
ATOM     16  C   UNL     1     -12.486  -4.573  14.461  1.00  0.00    -0.015 C 
ATOM     17  C   UNL     1     -12.093  -3.426  15.396  1.00  0.00     0.007 C 
ATOM     18  C   UNL     1     -12.301  -5.894  15.219  1.00  0.00     0.007 C 
ENDBRANCH  15  16
ENDBRANCH  14  15
BRANCH  14  19
ATOM     19  C   UNL     1      -8.886  -4.607  13.264  1.00  0.00     0.245 C 
ATOM     20  O   UNL     1      -7.880  -3.877  13.287  1.00  0.00    -0.272 OA
BRANCH  19  21
ATOM     21  N   UNL     1      -8.721  -5.980  13.237  1.00  0.00    -0.332 N 
ATOM     22  C   UNL     1      -9.519  -6.909  12.457  1.00  0.00     0.147 C 
BRANCH  21  23
ATOM     23  C   UNL     1      -7.647  -6.570  14.083  1.00  0.00     0.178 C 
BRANCH  23  24
ATOM     24  C   UNL     1      -8.121  -7.107  15.448  1.00  0.00     0.070 C 
BRANCH  24  25
ATOM     25  C   UNL     1      -8.101  -6.143  16.612  1.00  0.00    -0.045 A 
ATOM     26  C   UNL     1      -8.799  -4.930  16.551  1.00  0.00     0.004 A 
ATOM     27  C   UNL     1      -7.376  -6.451  17.773  1.00  0.00     0.004 A 
ATOM     28  C   UNL     1      -8.761  -4.037  17.624  1.00  0.00     0.000 A 
ATOM     29  C   UNL     1      -7.340  -5.558  18.845  1.00  0.00     0.000 A 
ATOM     30  C   UNL     1      -8.031  -4.350  18.768  1.00  0.00     0.000 A 
ENDBRANCH  24  25
ENDBRANCH  23  24
BRANCH  23  31
ATOM     31  C   UNL     1      -6.714  -7.521  13.297  1.00  0.00     0.243 C 
ATOM     32  O   UNL     1      -6.531  -8.700  13.589  1.00  0.00    -0.273 OA
ATOM     33  N   UNL     1      -5.951  -6.879  12.336  1.00  0.00    -0.341 N 
ATOM     34  H   UNL     1      -6.145  -5.894  12.141  1.00  0.00     0.164 HD
BRANCH  33  35
ATOM     35  C   UNL     1      -4.915  -7.559  11.553  1.00  0.00     0.194 C 
BRANCH  35  36
ATOM     36  C   UNL     1      -3.543  -6.828  11.546  1.00  0.00     0.017 C 
ATOM     37  C   UNL     1      -2.377  -7.827  11.645  1.00  0.00     0.010 C 
ATOM     38  C   UNL     1      -3.386  -5.824  12.695  1.00  0.00     0.010 C 
ENDBRANCH  35  36
BRANCH  35  39
ATOM     39  C   UNL     1      -5.389  -7.917  10.117  1.00  0.00     0.329 C 
ATOM     40  O   UNL     1      -6.364  -8.617   9.871  1.00  0.00    -0.250 OA
BRANCH  39  41
ATOM     41  O   UNL     1      -4.648  -7.290   9.153  1.00  0.00    -0.458 OA
BRANCH  41  42
ATOM     42  C   UNL     1      -5.306  -6.220   8.434  1.00  0.00     0.205 CG0
ATOM     43  C   UNL     1      -5.314  -6.604   6.956  1.00  0.00     0.056 C 
ATOM     44  G   UNL     1      -4.540  -4.908   8.698  1.00  0.00     0.000 G0
ENDBRANCH  41  42
ENDBRANCH  39  41
ENDBRANCH  35  39
ENDBRANCH  33  35
ENDBRANCH  23  31
ENDBRANCH  21  23
ENDBRANCH  19  21
ENDBRANCH  14  19
ENDBRANCH   7  14
ENDBRANCH   2   5
BRANCH   3  45
ATOM     45  C   UNL     1      -6.985  -2.272   7.327  1.00  0.00     0.171 C 
BRANCH  45  46
ATOM     46  N   UNL     1      -6.274  -3.242   8.149  1.00  0.00    -0.342 N 
ATOM     47  C   UNL     1      -5.077  -3.794   7.768  1.00  0.00     0.247 C 
ATOM     48  O   UNL     1      -4.482  -3.458   6.744  1.00  0.00    -0.273 OA
ATOM     49  H   UNL     1      -6.704  -3.506   9.034  1.00  0.00     0.164 HD
BRANCH  47  50
ATOM     50  C   UNL     1      -4.539  -4.888   8.702  1.00  0.00     0.212 CG0
ATOM     51  G   UNL     1      -5.339  -6.176   8.421  1.00  0.00     0.000 G0
BRANCH  50  52
ATOM     52  N   UNL     1      -3.119  -5.009   8.383  1.00  0.00    -0.339 N 
ATOM     53  C   UNL     1      -2.132  -4.338   9.063  1.00  0.00     0.243 C 
ATOM     54  O   UNL     1      -2.374  -3.540   9.964  1.00  0.00    -0.273 OA
ATOM     55  H   UNL     1      -2.863  -5.570   7.573  1.00  0.00     0.164 HD
BRANCH  53  56
ATOM     56  C   UNL     1      -0.717  -4.556   8.491  1.00  0.00     0.182 C 
BRANCH  56  57
ATOM     57  N   UNL     1       0.309  -4.250   9.493  1.00  0.00    -0.344 N 
ATOM     58  C   UNL     1       1.629  -4.065   9.163  1.00  0.00     0.220 C 
ATOM     59  O   UNL     1       2.054  -4.213   8.022  1.00  0.00    -0.275 OA
ATOM     60  H   UNL     1      -0.016  -4.020  10.429  1.00  0.00     0.164 HD
BRANCH  58  61
ATOM     61  C   UNL     1       2.501  -3.700  10.350  1.00  0.00     0.100 C 
BRANCH  61  62
ATOM     62  C   UNL     1       3.842  -3.076   9.961  1.00  0.00     0.010 C 
BRANCH  62  63
ATOM     63  C   UNL     1       3.902  -1.554  10.145  1.00  0.00     0.000 C 
BRANCH  63  64
ATOM     64  C   UNL     1       5.297  -1.015  10.457  1.00  0.00    -0.003 C 
ATOM     65  C   UNL     1       5.819  -1.556  11.780  1.00  0.00     0.004 C 
ENDBRANCH  63  64
ENDBRANCH  62  63
ENDBRANCH  61  62
ENDBRANCH  58  61
ENDBRANCH  56  57
BRANCH  56  66
ATOM     66  C   UNL     1      -0.509  -3.772   7.196  1.00  0.00     0.157 C 
BRANCH  66  67
ATOM     67  C   UNL     1      -0.513  -4.684   6.003  1.00  0.00     0.305 C 
ATOM     68  O   UNL     1       0.396  -4.846   5.202  1.00  0.00    -0.252 OA
BRANCH  67  69
ATOM     69  O   UNL     1      -1.653  -5.393   5.903  1.00  0.00    -0.481 OA
ATOM     70  H   UNL     1      -2.360  -4.719   5.813  1.00  0.00     0.296 HD
ENDBRANCH  67  69
ENDBRANCH  66  67
ENDBRANCH  56  66
ENDBRANCH  53  56
ENDBRANCH  50  52
ENDBRANCH  47  50
ENDBRANCH  45  46
BRANCH  45  71
ATOM     71  C   UNL     1      -6.286  -0.908   7.328  1.00  0.00     0.037 C 
BRANCH  71  72
ATOM     72  C   UNL     1      -6.681  -0.057   6.119  1.00  0.00     0.026 C 
BRANCH  72  73
ATOM     73  C   UNL     1      -6.131  -0.640   4.819  1.00  0.00     0.146 C 
BRANCH  73  74
ATOM     74  N   UNL     1      -6.476   0.276   3.737  1.00  0.00    -0.254 NA
ATOM     75  C   UNL     1      -5.974   0.052   2.579  1.00  0.00     0.185 C 
ATOM     76  N   UNL     1      -6.274   0.877   1.563  1.00  0.00    -0.370 N 
ATOM     77  N   UNL     1      -5.148  -0.936   2.193  1.00  0.00    -0.370 N 
ATOM     78  H   UNL     1      -6.886   1.653   1.769  1.00  0.00     0.159 HD
ATOM     79  H   UNL     1      -5.809   0.850   0.672  1.00  0.00     0.159 HD
ATOM     80  H   UNL     1      -4.840  -1.635   2.852  1.00  0.00     0.159 HD
ATOM     81  H   UNL     1      -4.910  -1.078   1.225  1.00  0.00     0.159 HD
ENDBRANCH  73  74
ENDBRANCH  72  73
ENDBRANCH  71  72
ENDBRANCH  45  71
ENDBRANCH   3  45
TORSDOF 20
ENDMDL
MODEL 32
REMARK VINA RESULT:    -5.893      2.273      4.045
REMARK INTER + INTRA:         -24.303
REMARK INTER:                 -18.997
REMARK INTRA:                  -5.306
REMARK UNBOUND:                -7.386
REMARK SMILES CCCCCC(=O)N[C@H](CC(=O)O)C(=O)N[C@H]1C(=O)N[C@H](CCCN=C(N)N)C(=O)N[C@@H]2CC[C@H](O)N(C2=O)[C@@H](CC(C)C)C(=O)N(C)[C@@H](Cc2ccccc2)C(=O)N[C@H](C(C)C)C(=O)O[C@@H]1C
REMARK SMILES IDX 30 1 31 2 29 3 32 5 35 6 37 7 34 8 38 9 33 10 39 11 36 12
REMARK SMILES IDX 40 14 41 15 42 16 43 17 44 18 45 19 46 20 47 21 48 22 49 23
REMARK SMILES IDX 50 24 51 25 52 26 56 27 53 28 55 29 54 30 57 31 58 32 59 33
REMARK SMILES IDX 60 35 61 36 62 37 63 38 64 39 65 40 66 41 67 42 68 43 21 45
REMARK SMILES IDX 20 46 18 47 19 48 17 50 16 52 14 53 15 54 9 56 8 57 6 58
REMARK SMILES IDX 7 59 5 61 4 62 3 63 2 64 1 65 10 66 11 67 12 68 13 69 22 71
REMARK SMILES IDX 23 72 24 73 25 74 26 75 27 76 28 77
REMARK H PARENT 31 4 36 13 59 34 20 49 16 55 8 60 13 70 27 78 27 79 28 80
REMARK H PARENT 28 81
REMARK Flexibility Score:  259.900
ROOT
ATOM      1  O   UNL     1      -9.928  -6.556   7.731  1.00  0.00    -0.273 OA
ATOM      2  N   UNL     1      -7.701  -6.921   8.099  1.00  0.00    -0.343 N 
ATOM      3  C   UNL     1      -9.004  -6.758   8.518  1.00  0.00     0.243 C 
ATOM      4  H   UNL     1      -6.968  -7.100   8.774  1.00  0.00     0.164 HD
ENDROOT
BRANCH   2   5
ATOM      5  C   UNL     1      -7.344  -6.738   6.696  1.00  0.00     0.171 C 
ATOM      6  C   UNL     1      -4.885  -7.172   5.222  1.00  0.00     0.214 C 
ATOM      7  N   UNL     1      -5.144  -5.877   5.807  1.00  0.00    -0.303 N 
ATOM      8  C   UNL     1      -6.150  -7.915   4.822  1.00  0.00     0.057 C 
ATOM      9  C   UNL     1      -6.274  -5.617   6.566  1.00  0.00     0.247 C 
ATOM     10  C   UNL     1      -7.051  -8.080   6.026  1.00  0.00     0.040 C 
ATOM     11  O   UNL     1      -6.446  -4.531   7.136  1.00  0.00    -0.272 OA
BRANCH   6  12
ATOM     12  O   UNL     1      -4.147  -7.926   6.156  1.00  0.00    -0.373 OA
ATOM     13  H   UNL     1      -3.849  -8.740   5.696  1.00  0.00     0.213 HD
ENDBRANCH   6  12
BRANCH   7  14
ATOM     14  C   UNL     1      -4.075  -4.863   5.689  1.00  0.00     0.177 C 
BRANCH  14  15
ATOM     15  C   UNL     1      -4.470  -3.577   4.938  1.00  0.00     0.038 C 
BRANCH  15  16
ATOM     16  C   UNL     1      -5.605  -3.626   3.891  1.00  0.00    -0.015 C 
ATOM     17  C   UNL     1      -5.131  -4.169   2.540  1.00  0.00     0.007 C 
ATOM     18  C   UNL     1      -6.169  -2.216   3.670  1.00  0.00     0.007 C 
ENDBRANCH  15  16
ENDBRANCH  14  15
BRANCH  14  19
ATOM     19  C   UNL     1      -3.122  -4.930   6.933  1.00  0.00     0.245 C 
ATOM     20  O   UNL     1      -3.366  -5.808   7.777  1.00  0.00    -0.272 OA
BRANCH  19  21
ATOM     21  N   UNL     1      -2.119  -4.012   7.186  1.00  0.00    -0.332 N 
ATOM     22  C   UNL     1      -0.943  -3.800   6.361  1.00  0.00     0.147 C 
BRANCH  21  23
ATOM     23  C   UNL     1      -2.237  -3.171   8.410  1.00  0.00     0.178 C 
BRANCH  23  24
ATOM     24  C   UNL     1      -0.906  -2.906   9.142  1.00  0.00     0.070 C 
BRANCH  24  25
ATOM     25  C   UNL     1      -0.336  -4.037   9.966  1.00  0.00    -0.045 A 
ATOM     26  C   UNL     1      -1.180  -4.960  10.598  1.00  0.00     0.004 A 
ATOM     27  C   UNL     1       1.052  -4.175  10.114  1.00  0.00     0.004 A 
ATOM     28  C   UNL     1      -0.645  -5.992  11.372  1.00  0.00     0.000 A 
ATOM     29  C   UNL     1       1.584  -5.208  10.887  1.00  0.00     0.000 A 
ATOM     30  C   UNL     1       0.735  -6.114  11.518  1.00  0.00     0.000 A 
ENDBRANCH  24  25
ENDBRANCH  23  24
BRANCH  23  31
ATOM     31  C   UNL     1      -3.126  -1.922   8.201  1.00  0.00     0.243 C 
ATOM     32  O   UNL     1      -2.778  -0.930   7.566  1.00  0.00    -0.273 OA
ATOM     33  N   UNL     1      -4.290  -1.940   8.951  1.00  0.00    -0.341 N 
ATOM     34  H   UNL     1      -4.524  -2.794   9.464  1.00  0.00     0.164 HD
BRANCH  33  35
ATOM     35  C   UNL     1      -5.224  -0.812   9.002  1.00  0.00     0.194 C 
BRANCH  35  36
ATOM     36  C   UNL     1      -5.082   0.073  10.273  1.00  0.00     0.017 C 
ATOM     37  C   UNL     1      -3.933   1.085  10.124  1.00  0.00     0.010 C 
ATOM     38  C   UNL     1      -4.816  -0.738  11.547  1.00  0.00     0.010 C 
ENDBRANCH  35  36
BRANCH  35  39
ATOM     39  C   UNL     1      -6.697  -1.244   8.758  1.00  0.00     0.329 C 
ATOM     40  O   UNL     1      -7.436  -0.725   7.929  1.00  0.00    -0.250 OA
BRANCH  39  41
ATOM     41  O   UNL     1      -7.053  -2.328   9.512  1.00  0.00    -0.458 OA
BRANCH  41  42
ATOM     42  C   UNL     1      -8.327  -2.243  10.194  1.00  0.00     0.205 CG0
ATOM     43  C   UNL     1      -8.437  -0.837  10.781  1.00  0.00     0.056 C 
ATOM     44  G   UNL     1      -8.379  -3.340  11.277  1.00  0.00     0.000 G0
ENDBRANCH  41  42
ENDBRANCH  39  41
ENDBRANCH  35  39
ENDBRANCH  33  35
ENDBRANCH  23  31
ENDBRANCH  21  23
ENDBRANCH  19  21
ENDBRANCH  14  19
ENDBRANCH   7  14
ENDBRANCH   2   5
BRANCH   3  45
ATOM     45  C   UNL     1      -9.225  -6.869  10.033  1.00  0.00     0.171 C 
BRANCH  45  46
ATOM     46  N   UNL     1      -8.581  -5.698  10.612  1.00  0.00    -0.342 N 
ATOM     47  C   UNL     1      -9.234  -4.501  10.769  1.00  0.00     0.247 C 
ATOM     48  O   UNL     1     -10.427  -4.350  10.503  1.00  0.00    -0.273 OA
ATOM     49  H   UNL     1      -7.609  -5.795  10.899  1.00  0.00     0.164 HD
BRANCH  47  50
ATOM     50  C   UNL     1      -8.361  -3.346  11.280  1.00  0.00     0.212 CG0
ATOM     51  G   UNL     1      -8.358  -2.249  10.197  1.00  0.00     0.000 G0
BRANCH  50  52
ATOM     52  N   UNL     1      -8.974  -2.919  12.534  1.00  0.00    -0.339 N 
ATOM     53  C   UNL     1      -8.566  -3.367  13.767  1.00  0.00     0.243 C 
ATOM     54  O   UNL     1      -7.682  -4.208  13.906  1.00  0.00    -0.273 OA
ATOM     55  H   UNL     1      -9.786  -2.306  12.479  1.00  0.00     0.164 HD
BRANCH  53  56
ATOM     56  C   UNL     1      -9.420  -2.843  14.939  1.00  0.00     0.182 C 
BRANCH  56  57
ATOM     57  N   UNL     1      -8.656  -2.851  16.191  1.00  0.00    -0.344 N 
ATOM     58  C   UNL     1      -8.541  -3.972  16.976  1.00  0.00     0.220 C 
ATOM     59  O   UNL     1      -9.126  -5.020  16.726  1.00  0.00    -0.275 OA
ATOM     60  H   UNL     1      -8.076  -2.038  16.381  1.00  0.00     0.164 HD
BRANCH  58  61
ATOM     61  C   UNL     1      -7.656  -3.766  18.192  1.00  0.00     0.100 C 
BRANCH  61  62
ATOM     62  C   UNL     1      -7.918  -4.765  19.320  1.00  0.00     0.010 C 
BRANCH  62  63
ATOM     63  C   UNL     1      -6.933  -4.660  20.492  1.00  0.00     0.000 C 
BRANCH  63  64
ATOM     64  C   UNL     1      -7.065  -5.779  21.523  1.00  0.00    -0.003 C 
ATOM     65  C   UNL     1      -8.524  -6.109  21.801  1.00  0.00     0.004 C 
ENDBRANCH  63  64
ENDBRANCH  62  63
ENDBRANCH  61  62
ENDBRANCH  58  61
ENDBRANCH  56  57
BRANCH  56  66
ATOM     66  C   UNL     1     -10.735  -3.611  15.062  1.00  0.00     0.157 C 
BRANCH  66  67
ATOM     67  C   UNL     1     -11.813  -2.979  14.229  1.00  0.00     0.305 C 
ATOM     68  O   UNL     1     -12.271  -3.403  13.179  1.00  0.00    -0.252 OA
BRANCH  67  69
ATOM     69  O   UNL     1     -12.303  -1.858  14.792  1.00  0.00    -0.481 OA
ATOM     70  H   UNL     1     -13.250  -2.055  14.957  1.00  0.00     0.296 HD
ENDBRANCH  67  69
ENDBRANCH  66  67
ENDBRANCH  56  66
ENDBRANCH  53  56
ENDBRANCH  50  52
ENDBRANCH  47  50
ENDBRANCH  45  46
BRANCH  45  71
ATOM     71  C   UNL     1      -8.617  -8.171  10.567  1.00  0.00     0.037 C 
BRANCH  71  72
ATOM     72  C   UNL     1      -8.052  -8.005  11.980  1.00  0.00     0.026 C 
BRANCH  72  73
ATOM     73  C   UNL     1      -6.527  -7.911  11.966  1.00  0.00     0.146 C 
BRANCH  73  74
ATOM     74  N   UNL     1      -6.063  -8.378  10.663  1.00  0.00    -0.254 NA
ATOM     75  C   UNL     1      -5.044  -7.797  10.147  1.00  0.00     0.185 C 
ATOM     76  N   UNL     1      -4.592  -8.205   8.950  1.00  0.00    -0.370 N 
ATOM     77  N   UNL     1      -4.310  -6.784  10.638  1.00  0.00    -0.370 N 
ATOM     78  H   UNL     1      -5.094  -8.961   8.505  1.00  0.00     0.159 HD
ATOM     79  H   UNL     1      -3.897  -7.708   8.421  1.00  0.00     0.159 HD
ATOM     80  H   UNL     1      -4.531  -6.376  11.534  1.00  0.00     0.159 HD
ATOM     81  H   UNL     1      -3.458  -6.484  10.194  1.00  0.00     0.159 HD
ENDBRANCH  73  74
ENDBRANCH  72  73
ENDBRANCH  71  72
ENDBRANCH  45  71
ENDBRANCH   3  45
TORSDOF 20
ENDMDL
MODEL 33
REMARK VINA RESULT:    -5.880      2.525      6.135
REMARK INTER + INTRA:         -24.265
REMARK INTER:                 -18.101
REMARK INTRA:                  -6.164
REMARK UNBOUND:                -7.386
REMARK SMILES CCCCCC(=O)N[C@H](CC(=O)O)C(=O)N[C@H]1C(=O)N[C@H](CCCN=C(N)N)C(=O)N[C@@H]2CC[C@H](O)N(C2=O)[C@@H](CC(C)C)C(=O)N(C)[C@@H](Cc2ccccc2)C(=O)N[C@H](C(C)C)C(=O)O[C@@H]1C
REMARK SMILES IDX 30 1 31 2 29 3 32 5 35 6 37 7 34 8 38 9 33 10 39 11 36 12
REMARK SMILES IDX 40 14 41 15 42 16 43 17 44 18 45 19 46 20 47 21 48 22 49 23
REMARK SMILES IDX 50 24 51 25 52 26 56 27 53 28 55 29 54 30 57 31 58 32 59 33
REMARK SMILES IDX 60 35 61 36 62 37 63 38 64 39 65 40 66 41 67 42 68 43 21 45
REMARK SMILES IDX 20 46 18 47 19 48 17 50 16 52 14 53 15 54 9 56 8 57 6 58
REMARK SMILES IDX 7 59 5 61 4 62 3 63 2 64 1 65 10 66 11 67 12 68 13 69 22 71
REMARK SMILES IDX 23 72 24 73 25 74 26 75 27 76 28 77
REMARK H PARENT 31 4 36 13 59 34 20 49 16 55 8 60 13 70 27 78 27 79 28 80
REMARK H PARENT 28 81
REMARK Flexibility Score:  259.900
ROOT
ATOM      1  O   UNL     1      -7.485  -1.411   8.131  1.00  0.00    -0.273 OA
ATOM      2  N   UNL     1      -5.449  -0.378   8.266  1.00  0.00    -0.343 N 
ATOM      3  C   UNL     1      -6.717  -0.657   8.729  1.00  0.00     0.243 C 
ATOM      4  H   UNL     1      -4.840   0.236   8.792  1.00  0.00     0.164 HD
ENDROOT
BRANCH   2   5
ATOM      5  C   UNL     1      -5.004  -0.881   6.971  1.00  0.00     0.171 C 
ATOM      6  C   UNL     1      -6.200  -2.696   5.052  1.00  0.00     0.214 C 
ATOM      7  N   UNL     1      -5.328  -3.220   6.077  1.00  0.00    -0.303 N 
ATOM      8  C   UNL     1      -5.856  -1.274   4.637  1.00  0.00     0.057 C 
ATOM      9  C   UNL     1      -4.764  -2.416   7.055  1.00  0.00     0.247 C 
ATOM     10  C   UNL     1      -5.899  -0.363   5.845  1.00  0.00     0.040 C 
ATOM     11  O   UNL     1      -4.088  -2.884   7.980  1.00  0.00    -0.272 OA
BRANCH   6  12
ATOM     12  O   UNL     1      -7.521  -2.761   5.537  1.00  0.00    -0.373 OA
ATOM     13  H   UNL     1      -8.114  -2.769   4.756  1.00  0.00     0.213 HD
ENDBRANCH   6  12
BRANCH   7  14
ATOM     14  C   UNL     1      -5.169  -4.688   6.137  1.00  0.00     0.177 C 
BRANCH  14  15
ATOM     15  C   UNL     1      -6.425  -5.499   5.762  1.00  0.00     0.038 C 
BRANCH  15  16
ATOM     16  C   UNL     1      -6.265  -6.903   5.136  1.00  0.00    -0.015 C 
ATOM     17  C   UNL     1      -6.797  -6.967   3.701  1.00  0.00     0.007 C 
ATOM     18  C   UNL     1      -7.027  -7.935   5.977  1.00  0.00     0.007 C 
ENDBRANCH  15  16
ENDBRANCH  14  15
BRANCH  14  19
ATOM     19  C   UNL     1      -3.694  -5.090   5.793  1.00  0.00     0.245 C 
ATOM     20  O   UNL     1      -3.255  -4.718   4.692  1.00  0.00    -0.272 OA
BRANCH  19  21
ATOM     21  N   UNL     1      -2.914  -5.914   6.585  1.00  0.00    -0.332 N 
ATOM     22  C   UNL     1      -1.770  -6.684   6.131  1.00  0.00     0.147 C 
BRANCH  21  23
ATOM     23  C   UNL     1      -3.274  -6.039   8.025  1.00  0.00     0.178 C 
BRANCH  23  24
ATOM     24  C   UNL     1      -3.844  -7.413   8.431  1.00  0.00     0.070 C 
BRANCH  24  25
ATOM     25  C   UNL     1      -5.044  -7.417   9.349  1.00  0.00    -0.045 A 
ATOM     26  C   UNL     1      -5.172  -8.379  10.359  1.00  0.00     0.004 A 
ATOM     27  C   UNL     1      -6.053  -6.453   9.199  1.00  0.00     0.004 A 
ATOM     28  C   UNL     1      -6.292  -8.386  11.193  1.00  0.00     0.000 A 
ATOM     29  C   UNL     1      -7.171  -6.461  10.034  1.00  0.00     0.000 A 
ATOM     30  C   UNL     1      -7.291  -7.429  11.029  1.00  0.00     0.000 A 
ENDBRANCH  24  25
ENDBRANCH  23  24
BRANCH  23  31
ATOM     31  C   UNL     1      -2.184  -5.480   8.970  1.00  0.00     0.243 C 
ATOM     32  O   UNL     1      -1.015  -5.300   8.640  1.00  0.00    -0.273 OA
ATOM     33  N   UNL     1      -2.597  -5.372  10.288  1.00  0.00    -0.341 N 
ATOM     34  H   UNL     1      -3.583  -5.541  10.503  1.00  0.00     0.164 HD
BRANCH  33  35
ATOM     35  C   UNL     1      -1.698  -4.979  11.377  1.00  0.00     0.194 C 
BRANCH  35  36
ATOM     36  C   UNL     1      -1.312  -6.143  12.333  1.00  0.00     0.017 C 
ATOM     37  C   UNL     1      -1.501  -7.511  11.653  1.00  0.00     0.010 C 
ATOM     38  C   UNL     1      -2.132  -6.158  13.629  1.00  0.00     0.010 C 
ENDBRANCH  35  36
BRANCH  35  39
ATOM     39  C   UNL     1      -2.211  -3.735  12.155  1.00  0.00     0.329 C 
ATOM     40  O   UNL     1      -1.483  -2.852  12.593  1.00  0.00    -0.250 OA
BRANCH  39  41
ATOM     41  O   UNL     1      -3.576  -3.689  12.221  1.00  0.00    -0.458 OA
BRANCH  41  42
ATOM     42  C   UNL     1      -4.143  -2.642  13.044  1.00  0.00     0.205 CG0
ATOM     43  C   UNL     1      -4.020  -3.091  14.499  1.00  0.00     0.056 C 
ATOM     44  G   UNL     1      -5.607  -2.419  12.617  1.00  0.00     0.000 G0
ENDBRANCH  41  42
ENDBRANCH  39  41
ENDBRANCH  35  39
ENDBRANCH  33  35
ENDBRANCH  23  31
ENDBRANCH  21  23
ENDBRANCH  19  21
ENDBRANCH  14  19
ENDBRANCH   7  14
ENDBRANCH   2   5
BRANCH   3  45
ATOM     45  C   UNL     1      -7.098   0.022  10.051  1.00  0.00     0.171 C 
BRANCH  45  46
ATOM     46  N   UNL     1      -6.891  -0.984  11.084  1.00  0.00    -0.342 N 
ATOM     47  C   UNL     1      -5.655  -1.247  11.619  1.00  0.00     0.247 C 
ATOM     48  O   UNL     1      -4.647  -0.606  11.320  1.00  0.00    -0.273 OA
ATOM     49  H   UNL     1      -7.710  -1.500  11.402  1.00  0.00     0.164 HD
BRANCH  47  50
ATOM     50  C   UNL     1      -5.610  -2.424  12.603  1.00  0.00     0.212 CG0
ATOM     51  G   UNL     1      -4.142  -2.618  13.033  1.00  0.00     0.000 G0
BRANCH  50  52
ATOM     52  N   UNL     1      -6.489  -2.044  13.706  1.00  0.00    -0.339 N 
ATOM     53  C   UNL     1      -7.455  -2.872  14.223  1.00  0.00     0.243 C 
ATOM     54  O   UNL     1      -7.691  -3.984  13.758  1.00  0.00    -0.273 OA
ATOM     55  H   UNL     1      -6.417  -1.092  14.061  1.00  0.00     0.164 HD
BRANCH  53  56
ATOM     56  C   UNL     1      -8.317  -2.221  15.324  1.00  0.00     0.182 C 
BRANCH  56  57
ATOM     57  N   UNL     1      -7.481  -1.497  16.286  1.00  0.00    -0.344 N 
ATOM     58  C   UNL     1      -7.923  -0.379  16.951  1.00  0.00     0.220 C 
ATOM     59  O   UNL     1      -9.016   0.133  16.733  1.00  0.00    -0.275 OA
ATOM     60  H   UNL     1      -6.612  -1.943  16.570  1.00  0.00     0.164 HD
BRANCH  58  61
ATOM     61  C   UNL     1      -6.914   0.171  17.941  1.00  0.00     0.100 C 
BRANCH  61  62
ATOM     62  C   UNL     1      -7.402   1.408  18.696  1.00  0.00     0.010 C 
BRANCH  62  63
ATOM     63  C   UNL     1      -6.952   2.738  18.078  1.00  0.00     0.000 C 
BRANCH  63  64
ATOM     64  C   UNL     1      -5.641   2.655  17.297  1.00  0.00    -0.003 C 
ATOM     65  C   UNL     1      -4.441   2.596  18.231  1.00  0.00     0.004 C 
ENDBRANCH  63  64
ENDBRANCH  62  63
ENDBRANCH  61  62
ENDBRANCH  58  61
ENDBRANCH  56  57
BRANCH  56  66
ATOM     66  C   UNL     1      -9.224  -3.245  16.004  1.00  0.00     0.157 C 
BRANCH  66  67
ATOM     67  C   UNL     1      -8.485  -4.006  17.066  1.00  0.00     0.305 C 
ATOM     68  O   UNL     1      -8.467  -3.763  18.263  1.00  0.00    -0.252 OA
BRANCH  67  69
ATOM     69  O   UNL     1      -7.838  -5.078  16.571  1.00  0.00    -0.481 OA
ATOM     70  H   UNL     1      -7.065  -4.707  16.096  1.00  0.00     0.296 HD
ENDBRANCH  67  69
ENDBRANCH  66  67
ENDBRANCH  56  66
ENDBRANCH  53  56
ENDBRANCH  50  52
ENDBRANCH  47  50
ENDBRANCH  45  46
BRANCH  45  71
ATOM     71  C   UNL     1      -8.554   0.497  10.008  1.00  0.00     0.037 C 
BRANCH  71  72
ATOM     72  C   UNL     1      -9.331   0.088  11.262  1.00  0.00     0.026 C 
BRANCH  72  73
ATOM     73  C   UNL     1     -10.546  -0.770  10.914  1.00  0.00     0.146 C 
BRANCH  73  74
ATOM     74  N   UNL     1     -10.464  -1.998  11.698  1.00  0.00    -0.254 NA
ATOM     75  C   UNL     1      -9.946  -3.030  11.142  1.00  0.00     0.185 C 
ATOM     76  N   UNL     1      -9.856  -4.175  11.839  1.00  0.00    -0.370 N 
ATOM     77  N   UNL     1      -9.447  -3.161   9.901  1.00  0.00    -0.370 N 
ATOM     78  H   UNL     1     -10.217  -4.166  12.782  1.00  0.00     0.159 HD
ATOM     79  H   UNL     1      -9.599  -5.055  11.428  1.00  0.00     0.159 HD
ATOM     80  H   UNL     1      -9.444  -2.378   9.264  1.00  0.00     0.159 HD
ATOM     81  H   UNL     1      -8.959  -3.992   9.612  1.00  0.00     0.159 HD
ENDBRANCH  73  74
ENDBRANCH  72  73
ENDBRANCH  71  72
ENDBRANCH  45  71
ENDBRANCH   3  45
TORSDOF 20
ENDMDL
MODEL 34
REMARK VINA RESULT:    -5.845      2.983      5.391
REMARK INTER + INTRA:         -24.166
REMARK INTER:                 -17.311
REMARK INTRA:                  -6.856
REMARK UNBOUND:                -7.386
REMARK SMILES CCCCCC(=O)N[C@H](CC(=O)O)C(=O)N[C@H]1C(=O)N[C@H](CCCN=C(N)N)C(=O)N[C@@H]2CC[C@H](O)N(C2=O)[C@@H](CC(C)C)C(=O)N(C)[C@@H](Cc2ccccc2)C(=O)N[C@H](C(C)C)C(=O)O[C@@H]1C
REMARK SMILES IDX 30 1 31 2 29 3 32 5 35 6 37 7 34 8 38 9 33 10 39 11 36 12
REMARK SMILES IDX 40 14 41 15 42 16 43 17 44 18 45 19 46 20 47 21 48 22 49 23
REMARK SMILES IDX 50 24 51 25 52 26 56 27 53 28 55 29 54 30 57 31 58 32 59 33
REMARK SMILES IDX 60 35 61 36 62 37 63 38 64 39 65 40 66 41 67 42 68 43 21 45
REMARK SMILES IDX 20 46 18 47 19 48 17 50 16 52 14 53 15 54 9 56 8 57 6 58
REMARK SMILES IDX 7 59 5 61 4 62 3 63 2 64 1 65 10 66 11 67 12 68 13 69 22 71
REMARK SMILES IDX 23 72 24 73 25 74 26 75 27 76 28 77
REMARK H PARENT 31 4 36 13 59 34 20 49 16 55 8 60 13 70 27 78 27 79 28 80
REMARK H PARENT 28 81
REMARK Flexibility Score:  259.900
ROOT
ATOM      1  O   UNL     1      -9.691  -2.998   9.371  1.00  0.00    -0.273 OA
ATOM      2  N   UNL     1      -8.478  -4.928   9.180  1.00  0.00    -0.343 N 
ATOM      3  C   UNL     1      -9.168  -3.978   9.903  1.00  0.00     0.243 C 
ATOM      4  H   UNL     1      -8.073  -5.728   9.648  1.00  0.00     0.164 HD
ENDROOT
BRANCH   2   5
ATOM      5  C   UNL     1      -8.237  -4.744   7.753  1.00  0.00     0.171 C 
ATOM      6  C   UNL     1      -6.646  -6.212   5.824  1.00  0.00     0.214 C 
ATOM      7  N   UNL     1      -6.052  -5.107   6.541  1.00  0.00    -0.303 N 
ATOM      8  C   UNL     1      -8.143  -6.054   5.608  1.00  0.00     0.057 C 
ATOM      9  C   UNL     1      -6.740  -4.397   7.512  1.00  0.00     0.247 C 
ATOM     10  C   UNL     1      -8.839  -5.890   6.942  1.00  0.00     0.040 C 
ATOM     11  O   UNL     1      -6.197  -3.508   8.182  1.00  0.00    -0.272 OA
BRANCH   6  12
ATOM     12  O   UNL     1      -6.375  -7.390   6.547  1.00  0.00    -0.373 OA
ATOM     13  H   UNL     1      -7.033  -8.059   6.264  1.00  0.00     0.213 HD
ENDBRANCH   6  12
BRANCH   7  14
ATOM     14  C   UNL     1      -4.616  -4.849   6.304  1.00  0.00     0.177 C 
BRANCH  14  15
ATOM     15  C   UNL     1      -4.286  -3.462   5.721  1.00  0.00     0.038 C 
BRANCH  15  16
ATOM     16  C   UNL     1      -4.854  -3.061   4.341  1.00  0.00    -0.015 C 
ATOM     17  C   UNL     1      -6.274  -2.495   4.436  1.00  0.00     0.007 C 
ATOM     18  C   UNL     1      -4.885  -4.286   3.418  1.00  0.00     0.007 C 
ENDBRANCH  15  16
ENDBRANCH  14  15
BRANCH  14  19
ATOM     19  C   UNL     1      -3.745  -5.623   7.353  1.00  0.00     0.245 C 
ATOM     20  O   UNL     1      -4.352  -6.351   8.156  1.00  0.00    -0.272 OA
BRANCH  19  21
ATOM     21  N   UNL     1      -2.380  -5.451   7.499  1.00  0.00    -0.332 N 
ATOM     22  C   UNL     1      -1.391  -5.631   6.450  1.00  0.00     0.147 C 
BRANCH  21  23
ATOM     23  C   UNL     1      -1.867  -5.060   8.840  1.00  0.00     0.178 C 
BRANCH  23  24
ATOM     24  C   UNL     1      -0.425  -5.519   9.139  1.00  0.00     0.070 C 
BRANCH  24  25
ATOM     25  C   UNL     1      -0.127  -5.979  10.548  1.00  0.00    -0.045 A 
ATOM     26  C   UNL     1      -1.019  -6.815  11.233  1.00  0.00     0.004 A 
ATOM     27  C   UNL     1       1.050  -5.569  11.192  1.00  0.00     0.004 A 
ATOM     28  C   UNL     1      -0.744  -7.221  12.540  1.00  0.00     0.000 A 
ATOM     29  C   UNL     1       1.323  -5.978  12.498  1.00  0.00     0.000 A 
ATOM     30  C   UNL     1       0.424  -6.802  13.173  1.00  0.00     0.000 A 
ENDBRANCH  24  25
ENDBRANCH  23  24
BRANCH  23  31
ATOM     31  C   UNL     1      -2.167  -3.583   9.195  1.00  0.00     0.243 C 
ATOM     32  O   UNL     1      -2.248  -2.681   8.365  1.00  0.00    -0.273 OA
ATOM     33  N   UNL     1      -2.154  -3.328  10.555  1.00  0.00    -0.341 N 
ATOM     34  H   UNL     1      -2.078  -4.120  11.197  1.00  0.00     0.164 HD
BRANCH  33  35
ATOM     35  C   UNL     1      -2.296  -1.981  11.116  1.00  0.00     0.194 C 
BRANCH  35  36
ATOM     36  C   UNL     1      -1.094  -1.529  11.993  1.00  0.00     0.017 C 
ATOM     37  C   UNL     1       0.231  -1.625  11.218  1.00  0.00     0.010 C 
ATOM     38  C   UNL     1      -0.937  -2.355  13.275  1.00  0.00     0.010 C 
ENDBRANCH  35  36
BRANCH  35  39
ATOM     39  C   UNL     1      -3.654  -1.776  11.843  1.00  0.00     0.329 C 
ATOM     40  O   UNL     1      -4.343  -0.768  11.738  1.00  0.00    -0.250 OA
BRANCH  39  41
ATOM     41  O   UNL     1      -4.040  -2.883  12.547  1.00  0.00    -0.458 OA
BRANCH  41  42
ATOM     42  C   UNL     1      -5.271  -2.769  13.299  1.00  0.00     0.205 CG0
ATOM     43  C   UNL     1      -4.906  -2.262  14.693  1.00  0.00     0.056 C 
ATOM     44  G   UNL     1      -5.956  -4.149  13.335  1.00  0.00     0.000 G0
ENDBRANCH  41  42
ENDBRANCH  39  41
ENDBRANCH  35  39
ENDBRANCH  33  35
ENDBRANCH  23  31
ENDBRANCH  21  23
ENDBRANCH  19  21
ENDBRANCH  14  19
ENDBRANCH   7  14
ENDBRANCH   2   5
BRANCH   3  45
ATOM     45  C   UNL     1      -9.257  -4.239  11.412  1.00  0.00     0.171 C 
BRANCH  45  46
ATOM     46  N   UNL     1      -7.884  -4.425  11.861  1.00  0.00    -0.342 N 
ATOM     47  C   UNL     1      -7.446  -3.995  13.089  1.00  0.00     0.247 C 
ATOM     48  O   UNL     1      -8.194  -3.488  13.925  1.00  0.00    -0.273 OA
ATOM     49  H   UNL     1      -7.244  -4.891  11.221  1.00  0.00     0.164 HD
BRANCH  47  50
ATOM     50  C   UNL     1      -5.940  -4.165  13.338  1.00  0.00     0.212 CG0
ATOM     51  G   UNL     1      -5.295  -2.766  13.275  1.00  0.00     0.000 G0
BRANCH  50  52
ATOM     52  N   UNL     1      -5.832  -4.792  14.652  1.00  0.00    -0.339 N 
ATOM     53  C   UNL     1      -5.791  -6.153  14.839  1.00  0.00     0.243 C 
ATOM     54  O   UNL     1      -5.897  -6.951  13.912  1.00  0.00    -0.273 OA
ATOM     55  H   UNL     1      -5.852  -4.185  15.469  1.00  0.00     0.164 HD
BRANCH  53  56
ATOM     56  C   UNL     1      -5.762  -6.582  16.320  1.00  0.00     0.182 C 
BRANCH  56  57
ATOM     57  N   UNL     1      -5.415  -8.001  16.450  1.00  0.00    -0.344 N 
ATOM     58  C   UNL     1      -4.771  -8.502  17.555  1.00  0.00     0.220 C 
ATOM     59  O   UNL     1      -4.378  -7.792  18.473  1.00  0.00    -0.275 OA
ATOM     60  H   UNL     1      -5.810  -8.637  15.762  1.00  0.00     0.164 HD
BRANCH  58  61
ATOM     61  C   UNL     1      -4.565 -10.005  17.500  1.00  0.00     0.100 C 
BRANCH  61  62
ATOM     62  C   UNL     1      -3.953 -10.590  18.773  1.00  0.00     0.010 C 
BRANCH  62  63
ATOM     63  C   UNL     1      -2.549 -11.177  18.582  1.00  0.00     0.000 C 
BRANCH  63  64
ATOM     64  C   UNL     1      -1.952 -11.799  19.843  1.00  0.00    -0.003 C 
ATOM     65  C   UNL     1      -0.435 -11.878  19.758  1.00  0.00     0.004 C 
ENDBRANCH  63  64
ENDBRANCH  62  63
ENDBRANCH  61  62
ENDBRANCH  58  61
ENDBRANCH  56  57
BRANCH  56  66
ATOM     66  C   UNL     1      -7.073  -6.242  17.027  1.00  0.00     0.157 C 
BRANCH  66  67
ATOM     67  C   UNL     1      -6.918  -5.039  17.911  1.00  0.00     0.305 C 
ATOM     68  O   UNL     1      -7.174  -3.880  17.624  1.00  0.00    -0.252 OA
BRANCH  67  69
ATOM     69  O   UNL     1      -6.492  -5.364  19.147  1.00  0.00    -0.481 OA
ATOM     70  H   UNL     1      -7.136  -6.030  19.467  1.00  0.00     0.296 HD
ENDBRANCH  67  69
ENDBRANCH  66  67
ENDBRANCH  56  66
ENDBRANCH  53  56
ENDBRANCH  50  52
ENDBRANCH  47  50
ENDBRANCH  45  46
BRANCH  45  71
ATOM     71  C   UNL     1     -10.116  -5.477  11.691  1.00  0.00     0.037 C 
BRANCH  71  72
ATOM     72  C   UNL     1      -9.378  -6.509  12.548  1.00  0.00     0.026 C 
BRANCH  72  73
ATOM     73  C   UNL     1      -9.180  -7.823  11.797  1.00  0.00     0.146 C 
BRANCH  73  74
ATOM     74  N   UNL     1      -8.366  -7.546  10.618  1.00  0.00    -0.254 NA
ATOM     75  C   UNL     1      -7.161  -7.983  10.606  1.00  0.00     0.185 C 
ATOM     76  N   UNL     1      -6.387  -7.745   9.534  1.00  0.00    -0.370 N 
ATOM     77  N   UNL     1      -6.507  -8.683  11.549  1.00  0.00    -0.370 N 
ATOM     78  H   UNL     1      -6.801  -7.216   8.780  1.00  0.00     0.159 HD
ATOM     79  H   UNL     1      -5.399  -7.927   9.513  1.00  0.00     0.159 HD
ATOM     80  H   UNL     1      -6.966  -8.939  12.410  1.00  0.00     0.159 HD
ATOM     81  H   UNL     1      -5.594  -9.073  11.379  1.00  0.00     0.159 HD
ENDBRANCH  73  74
ENDBRANCH  72  73
ENDBRANCH  71  72
ENDBRANCH  45  71
ENDBRANCH   3  45
TORSDOF 20
ENDMDL
MODEL 35
REMARK VINA RESULT:    -5.845      3.032      5.483
REMARK INTER + INTRA:         -24.164
REMARK INTER:                 -17.687
REMARK INTRA:                  -6.477
REMARK UNBOUND:                -7.386
REMARK SMILES CCCCCC(=O)N[C@H](CC(=O)O)C(=O)N[C@H]1C(=O)N[C@H](CCCN=C(N)N)C(=O)N[C@@H]2CC[C@H](O)N(C2=O)[C@@H](CC(C)C)C(=O)N(C)[C@@H](Cc2ccccc2)C(=O)N[C@H](C(C)C)C(=O)O[C@@H]1C
REMARK SMILES IDX 30 1 31 2 29 3 32 5 35 6 37 7 34 8 38 9 33 10 39 11 36 12
REMARK SMILES IDX 40 14 41 15 42 16 43 17 44 18 45 19 46 20 47 21 48 22 49 23
REMARK SMILES IDX 50 24 51 25 52 26 56 27 53 28 55 29 54 30 57 31 58 32 59 33
REMARK SMILES IDX 60 35 61 36 62 37 63 38 64 39 65 40 66 41 67 42 68 43 21 45
REMARK SMILES IDX 20 46 18 47 19 48 17 50 16 52 14 53 15 54 9 56 8 57 6 58
REMARK SMILES IDX 7 59 5 61 4 62 3 63 2 64 1 65 10 66 11 67 12 68 13 69 22 71
REMARK SMILES IDX 23 72 24 73 25 74 26 75 27 76 28 77
REMARK H PARENT 31 4 36 13 59 34 20 49 16 55 8 60 13 70 27 78 27 79 28 80
REMARK H PARENT 28 81
REMARK Flexibility Score:  259.900
ROOT
ATOM      1  O   UNL     1      -9.275  -3.475   9.362  1.00  0.00    -0.273 OA
ATOM      2  N   UNL     1      -8.292  -5.398  10.115  1.00  0.00    -0.343 N 
ATOM      3  C   UNL     1      -9.051  -4.260  10.284  1.00  0.00     0.243 C 
ATOM      4  H   UNL     1      -8.141  -6.029  10.893  1.00  0.00     0.164 HD
ENDROOT
BRANCH   2   5
ATOM      5  C   UNL     1      -7.615  -5.657   8.849  1.00  0.00     0.171 C 
ATOM      6  C   UNL     1      -6.002  -7.872   7.902  1.00  0.00     0.214 C 
ATOM      7  N   UNL     1      -5.360  -6.751   8.549  1.00  0.00    -0.303 N 
ATOM      8  C   UNL     1      -7.275  -7.492   7.163  1.00  0.00     0.057 C 
ATOM      9  C   UNL     1      -6.076  -5.685   9.069  1.00  0.00     0.247 C 
ATOM     10  C   UNL     1      -8.249  -6.842   8.122  1.00  0.00     0.040 C 
ATOM     11  O   UNL     1      -5.527  -4.771   9.698  1.00  0.00    -0.272 OA
BRANCH   6  12
ATOM     12  O   UNL     1      -6.275  -8.840   8.889  1.00  0.00    -0.373 OA
ATOM     13  H   UNL     1      -5.993  -9.707   8.527  1.00  0.00     0.213 HD
ENDBRANCH   6  12
BRANCH   7  14
ATOM     14  C   UNL     1      -3.902  -6.850   8.770  1.00  0.00     0.177 C 
BRANCH  14  15
ATOM     15  C   UNL     1      -3.050  -5.829   7.991  1.00  0.00     0.038 C 
BRANCH  15  16
ATOM     16  C   UNL     1      -2.403  -6.243   6.651  1.00  0.00    -0.015 C 
ATOM     17  C   UNL     1      -1.500  -5.148   6.075  1.00  0.00     0.007 C 
ATOM     18  C   UNL     1      -3.496  -6.555   5.621  1.00  0.00     0.007 C 
ENDBRANCH  15  16
ENDBRANCH  14  15
BRANCH  14  19
ATOM     19  C   UNL     1      -3.606  -7.358  10.223  1.00  0.00     0.245 C 
ATOM     20  O   UNL     1      -3.636  -8.587  10.403  1.00  0.00    -0.272 OA
BRANCH  19  21
ATOM     21  N   UNL     1      -3.429  -6.522  11.311  1.00  0.00    -0.332 N 
ATOM     22  C   UNL     1      -4.384  -6.325  12.387  1.00  0.00     0.147 C 
BRANCH  21  23
ATOM     23  C   UNL     1      -2.161  -5.745  11.393  1.00  0.00     0.178 C 
BRANCH  23  24
ATOM     24  C   UNL     1      -0.969  -6.374  10.644  1.00  0.00     0.070 C 
BRANCH  24  25
ATOM     25  C   UNL     1       0.229  -5.489  10.389  1.00  0.00    -0.045 A 
ATOM     26  C   UNL     1       0.529  -5.044   9.095  1.00  0.00     0.004 A 
ATOM     27  C   UNL     1       1.062  -5.102  11.450  1.00  0.00     0.004 A 
ATOM     28  C   UNL     1       1.648  -4.239   8.865  1.00  0.00     0.000 A 
ATOM     29  C   UNL     1       2.178  -4.297  11.218  1.00  0.00     0.000 A 
ATOM     30  C   UNL     1       2.472  -3.869   9.925  1.00  0.00     0.000 A 
ENDBRANCH  24  25
ENDBRANCH  23  24
BRANCH  23  31
ATOM     31  C   UNL     1      -2.364  -4.232  11.140  1.00  0.00     0.243 C 
ATOM     32  O   UNL     1      -2.326  -3.710  10.028  1.00  0.00    -0.273 OA
ATOM     33  N   UNL     1      -2.409  -3.478  12.300  1.00  0.00    -0.341 N 
ATOM     34  H   UNL     1      -2.432  -3.969  13.197  1.00  0.00     0.164 HD
BRANCH  33  35
ATOM     35  C   UNL     1      -2.476  -2.014  12.300  1.00  0.00     0.194 C 
BRANCH  35  36
ATOM     36  C   UNL     1      -1.345  -1.327  13.117  1.00  0.00     0.017 C 
ATOM     37  C   UNL     1       0.025  -1.513  12.442  1.00  0.00     0.010 C 
ATOM     38  C   UNL     1      -1.227  -1.858  14.550  1.00  0.00     0.010 C 
ENDBRANCH  35  36
BRANCH  35  39
ATOM     39  C   UNL     1      -3.882  -1.480  12.692  1.00  0.00     0.329 C 
ATOM     40  O   UNL     1      -4.409  -0.498  12.183  1.00  0.00    -0.250 OA
BRANCH  39  41
ATOM     41  O   UNL     1      -4.505  -2.280  13.610  1.00  0.00    -0.458 OA
BRANCH  41  42
ATOM     42  C   UNL     1      -5.851  -1.900  13.982  1.00  0.00     0.205 CG0
ATOM     43  C   UNL     1      -5.766  -1.193  15.334  1.00  0.00     0.056 C 
ATOM     44  G   UNL     1      -6.724  -3.170  14.035  1.00  0.00     0.000 G0
ENDBRANCH  41  42
ENDBRANCH  39  41
ENDBRANCH  35  39
ENDBRANCH  33  35
ENDBRANCH  23  31
ENDBRANCH  21  23
ENDBRANCH  19  21
ENDBRANCH  14  19
ENDBRANCH   7  14
ENDBRANCH   2   5
BRANCH   3  45
ATOM     45  C   UNL     1      -9.617  -4.052  11.695  1.00  0.00     0.171 C 
BRANCH  45  46
ATOM     46  N   UNL     1      -8.468  -4.097  12.591  1.00  0.00    -0.342 N 
ATOM     47  C   UNL     1      -8.006  -2.987  13.252  1.00  0.00     0.247 C 
ATOM     48  O   UNL     1      -8.569  -1.893  13.196  1.00  0.00    -0.273 OA
ATOM     49  H   UNL     1      -8.006  -4.996  12.710  1.00  0.00     0.164 HD
BRANCH  47  50
ATOM     50  C   UNL     1      -6.713  -3.198  14.052  1.00  0.00     0.212 CG0
ATOM     51  G   UNL     1      -5.888  -1.900  13.957  1.00  0.00     0.000 G0
BRANCH  50  52
ATOM     52  N   UNL     1      -7.143  -3.511  15.412  1.00  0.00    -0.339 N 
ATOM     53  C   UNL     1      -7.139  -4.782  15.933  1.00  0.00     0.243 C 
ATOM     54  O   UNL     1      -6.821  -5.767  15.272  1.00  0.00    -0.273 OA
ATOM     55  H   UNL     1      -7.524  -2.752  15.974  1.00  0.00     0.164 HD
BRANCH  53  56
ATOM     56  C   UNL     1      -7.718  -4.878  17.359  1.00  0.00     0.182 C 
BRANCH  56  57
ATOM     57  N   UNL     1      -8.999  -5.591  17.360  1.00  0.00    -0.344 N 
ATOM     58  C   UNL     1     -10.108  -5.114  16.704  1.00  0.00     0.220 C 
ATOM     59  O   UNL     1     -10.126  -4.027  16.136  1.00  0.00    -0.275 OA
ATOM     60  H   UNL     1      -8.999  -6.538  17.731  1.00  0.00     0.164 HD
BRANCH  58  61
ATOM     61  C   UNL     1     -11.304  -6.043  16.791  1.00  0.00     0.100 C 
BRANCH  61  62
ATOM     62  C   UNL     1     -12.296  -5.879  15.639  1.00  0.00     0.010 C 
BRANCH  62  63
ATOM     63  C   UNL     1     -13.757  -5.735  16.085  1.00  0.00     0.000 C 
BRANCH  63  64
ATOM     64  C   UNL     1     -14.360  -7.007  16.679  1.00  0.00    -0.003 C 
ATOM     65  C   UNL     1     -15.490  -7.543  15.812  1.00  0.00     0.004 C 
ENDBRANCH  63  64
ENDBRANCH  62  63
ENDBRANCH  61  62
ENDBRANCH  58  61
ENDBRANCH  56  57
BRANCH  56  66
ATOM     66  C   UNL     1      -7.823  -3.502  18.015  1.00  0.00     0.157 C 
BRANCH  66  67
ATOM     67  C   UNL     1      -6.750  -3.307  19.046  1.00  0.00     0.305 C 
ATOM     68  O   UNL     1      -5.767  -2.588  18.954  1.00  0.00    -0.252 OA
BRANCH  67  69
ATOM     69  O   UNL     1      -6.996  -3.995  20.177  1.00  0.00    -0.481 OA
ATOM     70  H   UNL     1      -7.873  -4.409  20.032  1.00  0.00     0.296 HD
ENDBRANCH  67  69
ENDBRANCH  66  67
ENDBRANCH  56  66
ENDBRANCH  53  56
ENDBRANCH  50  52
ENDBRANCH  47  50
ENDBRANCH  45  46
BRANCH  45  71
ATOM     71  C   UNL     1     -10.637  -5.146  12.029  1.00  0.00     0.037 C 
BRANCH  71  72
ATOM     72  C   UNL     1     -10.148  -6.067  13.149  1.00  0.00     0.026 C 
BRANCH  72  73
ATOM     73  C   UNL     1      -9.834  -7.468  12.625  1.00  0.00     0.146 C 
BRANCH  73  74
ATOM     74  N   UNL     1      -8.383  -7.607  12.564  1.00  0.00    -0.254 NA
ATOM     75  C   UNL     1      -7.898  -8.470  11.750  1.00  0.00     0.185 C 
ATOM     76  N   UNL     1      -6.566  -8.621  11.670  1.00  0.00    -0.370 N 
ATOM     77  N   UNL     1      -8.545  -9.298  10.911  1.00  0.00    -0.370 N 
ATOM     78  H   UNL     1      -6.003  -8.040  12.275  1.00  0.00     0.159 HD
ATOM     79  H   UNL     1      -6.122  -9.370  11.168  1.00  0.00     0.159 HD
ATOM     80  H   UNL     1      -9.553  -9.292  10.860  1.00  0.00     0.159 HD
ATOM     81  H   UNL     1      -8.052  -9.854  10.232  1.00  0.00     0.159 HD
ENDBRANCH  73  74
ENDBRANCH  72  73
ENDBRANCH  71  72
ENDBRANCH  45  71
ENDBRANCH   3  45
TORSDOF 20
ENDMDL
MODEL 36
REMARK VINA RESULT:    -5.835      2.692      5.520
REMARK INTER + INTRA:         -24.137
REMARK INTER:                 -18.245
REMARK INTRA:                  -5.891
REMARK UNBOUND:                -7.386
REMARK SMILES CCCCCC(=O)N[C@H](CC(=O)O)C(=O)N[C@H]1C(=O)N[C@H](CCCN=C(N)N)C(=O)N[C@@H]2CC[C@H](O)N(C2=O)[C@@H](CC(C)C)C(=O)N(C)[C@@H](Cc2ccccc2)C(=O)N[C@H](C(C)C)C(=O)O[C@@H]1C
REMARK SMILES IDX 30 1 31 2 29 3 32 5 35 6 37 7 34 8 38 9 33 10 39 11 36 12
REMARK SMILES IDX 40 14 41 15 42 16 43 17 44 18 45 19 46 20 47 21 48 22 49 23
REMARK SMILES IDX 50 24 51 25 52 26 56 27 53 28 55 29 54 30 57 31 58 32 59 33
REMARK SMILES IDX 60 35 61 36 62 37 63 38 64 39 65 40 66 41 67 42 68 43 21 45
REMARK SMILES IDX 20 46 18 47 19 48 17 50 16 52 14 53 15 54 9 56 8 57 6 58
REMARK SMILES IDX 7 59 5 61 4 62 3 63 2 64 1 65 10 66 11 67 12 68 13 69 22 71
REMARK SMILES IDX 23 72 24 73 25 74 26 75 27 76 28 77
REMARK H PARENT 31 4 36 13 59 34 20 49 16 55 8 60 13 70 27 78 27 79 28 80
REMARK H PARENT 28 81
REMARK Flexibility Score:  259.900
ROOT
ATOM      1  O   UNL     1      -6.116  -5.502   9.274  1.00  0.00    -0.273 OA
ATOM      2  N   UNL     1      -8.235  -5.225   8.457  1.00  0.00    -0.343 N 
ATOM      3  C   UNL     1      -7.274  -5.116   9.440  1.00  0.00     0.243 C 
ATOM      4  H   UNL     1      -9.173  -4.884   8.624  1.00  0.00     0.164 HD
ENDROOT
BRANCH   2   5
ATOM      5  C   UNL     1      -7.943  -5.919   7.208  1.00  0.00     0.171 C 
ATOM      6  C   UNL     1      -5.572  -7.256   6.210  1.00  0.00     0.214 C 
ATOM      7  N   UNL     1      -5.768  -5.853   5.927  1.00  0.00    -0.303 N 
ATOM      8  C   UNL     1      -6.873  -8.029   6.355  1.00  0.00     0.057 C 
ATOM      9  C   UNL     1      -6.852  -5.142   6.416  1.00  0.00     0.247 C 
ATOM     10  C   UNL     1      -7.718  -7.411   7.448  1.00  0.00     0.040 C 
ATOM     11  O   UNL     1      -6.969  -3.922   6.241  1.00  0.00    -0.272 OA
BRANCH   6  12
ATOM     12  O   UNL     1      -4.807  -7.354   7.389  1.00  0.00    -0.373 OA
ATOM     13  H   UNL     1      -5.361  -7.005   8.120  1.00  0.00     0.213 HD
ENDBRANCH   6  12
BRANCH   7  14
ATOM     14  C   UNL     1      -4.681  -5.155   5.208  1.00  0.00     0.177 C 
BRANCH  14  15
ATOM     15  C   UNL     1      -5.128  -3.964   4.339  1.00  0.00     0.038 C 
BRANCH  15  16
ATOM     16  C   UNL     1      -5.301  -4.156   2.816  1.00  0.00    -0.015 C 
ATOM     17  C   UNL     1      -5.847  -2.902   2.127  1.00  0.00     0.007 C 
ATOM     18  C   UNL     1      -6.271  -5.313   2.546  1.00  0.00     0.007 C 
ENDBRANCH  15  16
ENDBRANCH  14  15
BRANCH  14  19
ATOM     19  C   UNL     1      -3.351  -5.227   6.034  1.00  0.00     0.245 C 
ATOM     20  O   UNL     1      -2.525  -6.089   5.690  1.00  0.00    -0.272 OA
BRANCH  19  21
ATOM     21  N   UNL     1      -3.105  -4.473   7.168  1.00  0.00    -0.332 N 
ATOM     22  C   UNL     1      -3.717  -3.193   7.478  1.00  0.00     0.147 C 
BRANCH  21  23
ATOM     23  C   UNL     1      -2.126  -5.003   8.157  1.00  0.00     0.178 C 
BRANCH  23  24
ATOM     24  C   UNL     1      -0.717  -4.382   8.066  1.00  0.00     0.070 C 
BRANCH  24  25
ATOM     25  C   UNL     1       0.138  -4.431   9.311  1.00  0.00    -0.045 A 
ATOM     26  C   UNL     1       0.351  -3.281  10.082  1.00  0.00     0.004 A 
ATOM     27  C   UNL     1       0.738  -5.635   9.710  1.00  0.00     0.004 A 
ATOM     28  C   UNL     1       1.156  -3.331  11.221  1.00  0.00     0.000 A 
ATOM     29  C   UNL     1       1.542  -5.684  10.850  1.00  0.00     0.000 A 
ATOM     30  C   UNL     1       1.753  -4.531  11.603  1.00  0.00     0.000 A 
ENDBRANCH  24  25
ENDBRANCH  23  24
BRANCH  23  31
ATOM     31  C   UNL     1      -2.705  -5.097   9.589  1.00  0.00     0.243 C 
ATOM     32  O   UNL     1      -2.769  -4.150  10.368  1.00  0.00    -0.273 OA
ATOM     33  N   UNL     1      -2.979  -6.394   9.990  1.00  0.00    -0.341 N 
ATOM     34  H   UNL     1      -2.902  -7.143   9.297  1.00  0.00     0.164 HD
BRANCH  33  35
ATOM     35  C   UNL     1      -3.422  -6.734  11.345  1.00  0.00     0.194 C 
BRANCH  35  36
ATOM     36  C   UNL     1      -2.269  -7.132  12.309  1.00  0.00     0.017 C 
ATOM     37  C   UNL     1      -1.663  -5.896  12.996  1.00  0.00     0.010 C 
ATOM     38  C   UNL     1      -1.125  -7.875  11.608  1.00  0.00     0.010 C 
ENDBRANCH  35  36
BRANCH  35  39
ATOM     39  C   UNL     1      -4.572  -7.780  11.353  1.00  0.00     0.329 C 
ATOM     40  O   UNL     1      -4.521  -8.860  10.776  1.00  0.00    -0.250 OA
BRANCH  39  41
ATOM     41  O   UNL     1      -5.617  -7.399  12.149  1.00  0.00    -0.458 OA
BRANCH  41  42
ATOM     42  C   UNL     1      -5.290  -7.068  13.520  1.00  0.00     0.205 CG0
ATOM     43  C   UNL     1      -5.719  -8.250  14.387  1.00  0.00     0.056 C 
ATOM     44  G   UNL     1      -6.020  -5.764  13.899  1.00  0.00     0.000 G0
ENDBRANCH  41  42
ENDBRANCH  39  41
ENDBRANCH  35  39
ENDBRANCH  33  35
ENDBRANCH  23  31
ENDBRANCH  21  23
ENDBRANCH  19  21
ENDBRANCH  14  19
ENDBRANCH   7  14
ENDBRANCH   2   5
BRANCH   3  45
ATOM     45  C   UNL     1      -7.742  -4.462  10.747  1.00  0.00     0.171 C 
BRANCH  45  46
ATOM     46  N   UNL     1      -6.783  -4.878  11.761  1.00  0.00    -0.342 N 
ATOM     47  C   UNL     1      -7.163  -5.494  12.927  1.00  0.00     0.247 C 
ATOM     48  O   UNL     1      -8.330  -5.805  13.168  1.00  0.00    -0.273 OA
ATOM     49  H   UNL     1      -5.799  -4.690  11.576  1.00  0.00     0.164 HD
BRANCH  47  50
ATOM     50  C   UNL     1      -6.029  -5.746  13.930  1.00  0.00     0.212 CG0
ATOM     51  G   UNL     1      -5.310  -7.042  13.507  1.00  0.00     0.000 G0
BRANCH  50  52
ATOM     52  N   UNL     1      -5.176  -4.563  13.858  1.00  0.00    -0.339 N 
ATOM     53  C   UNL     1      -5.320  -3.475  14.684  1.00  0.00     0.243 C 
ATOM     54  O   UNL     1      -6.218  -3.392  15.518  1.00  0.00    -0.273 OA
ATOM     55  H   UNL     1      -4.483  -4.524  13.113  1.00  0.00     0.164 HD
BRANCH  53  56
ATOM     56  C   UNL     1      -4.360  -2.311  14.364  1.00  0.00     0.182 C 
BRANCH  56  57
ATOM     57  N   UNL     1      -3.967  -1.601  15.585  1.00  0.00    -0.344 N 
ATOM     58  C   UNL     1      -2.737  -1.007  15.727  1.00  0.00     0.220 C 
ATOM     59  O   UNL     1      -1.857  -1.091  14.877  1.00  0.00    -0.275 OA
ATOM     60  H   UNL     1      -4.697  -1.422  16.269  1.00  0.00     0.164 HD
BRANCH  58  61
ATOM     61  C   UNL     1      -2.569  -0.280  17.048  1.00  0.00     0.100 C 
BRANCH  61  62
ATOM     62  C   UNL     1      -2.563   1.243  16.917  1.00  0.00     0.010 C 
BRANCH  62  63
ATOM     63  C   UNL     1      -3.309   1.973  18.042  1.00  0.00     0.000 C 
BRANCH  63  64
ATOM     64  C   UNL     1      -4.513   2.786  17.570  1.00  0.00    -0.003 C 
ATOM     65  C   UNL     1      -4.459   3.041  16.071  1.00  0.00     0.004 C 
ENDBRANCH  63  64
ENDBRANCH  62  63
ENDBRANCH  61  62
ENDBRANCH  58  61
ENDBRANCH  56  57
BRANCH  56  66
ATOM     66  C   UNL     1      -4.952  -1.371  13.315  1.00  0.00     0.157 C 
BRANCH  66  67
ATOM     67  C   UNL     1      -4.336  -1.604  11.966  1.00  0.00     0.305 C 
ATOM     68  O   UNL     1      -3.390  -1.005  11.478  1.00  0.00    -0.252 OA
BRANCH  67  69
ATOM     69  O   UNL     1      -4.915  -2.628  11.309  1.00  0.00    -0.481 OA
ATOM     70  H   UNL     1      -5.743  -2.252  10.941  1.00  0.00     0.296 HD
ENDBRANCH  67  69
ENDBRANCH  66  67
ENDBRANCH  56  66
ENDBRANCH  53  56
ENDBRANCH  50  52
ENDBRANCH  47  50
ENDBRANCH  45  46
BRANCH  45  71
ATOM     71  C   UNL     1      -9.164  -4.919  11.093  1.00  0.00     0.037 C 
BRANCH  71  72
ATOM     72  C   UNL     1     -10.180  -3.780  10.972  1.00  0.00     0.026 C 
BRANCH  72  73
ATOM     73  C   UNL     1      -9.511  -2.476  10.540  1.00  0.00     0.146 C 
BRANCH  73  74
ATOM     74  N   UNL     1      -9.646  -2.365   9.091  1.00  0.00    -0.254 NA
ATOM     75  C   UNL     1      -8.692  -1.806   8.442  1.00  0.00     0.185 C 
ATOM     76  N   UNL     1      -8.787  -1.689   7.107  1.00  0.00    -0.370 N 
ATOM     77  N   UNL     1      -7.543  -1.286   8.909  1.00  0.00    -0.370 N 
ATOM     78  H   UNL     1      -9.626  -2.049   6.675  1.00  0.00     0.159 HD
ATOM     79  H   UNL     1      -8.154  -1.139   6.553  1.00  0.00     0.159 HD
ATOM     80  H   UNL     1      -7.334  -1.307   9.895  1.00  0.00     0.159 HD
ATOM     81  H   UNL     1      -6.814  -0.975   8.288  1.00  0.00     0.159 HD
ENDBRANCH  73  74
ENDBRANCH  72  73
ENDBRANCH  71  72
ENDBRANCH  45  71
ENDBRANCH   3  45
TORSDOF 20
ENDMDL
MODEL 37
REMARK VINA RESULT:    -5.829      2.282      5.541
REMARK INTER + INTRA:         -24.120
REMARK INTER:                 -17.927
REMARK INTRA:                  -6.194
REMARK UNBOUND:                -7.386
REMARK SMILES CCCCCC(=O)N[C@H](CC(=O)O)C(=O)N[C@H]1C(=O)N[C@H](CCCN=C(N)N)C(=O)N[C@@H]2CC[C@H](O)N(C2=O)[C@@H](CC(C)C)C(=O)N(C)[C@@H](Cc2ccccc2)C(=O)N[C@H](C(C)C)C(=O)O[C@@H]1C
REMARK SMILES IDX 30 1 31 2 29 3 32 5 35 6 37 7 34 8 38 9 33 10 39 11 36 12
REMARK SMILES IDX 40 14 41 15 42 16 43 17 44 18 45 19 46 20 47 21 48 22 49 23
REMARK SMILES IDX 50 24 51 25 52 26 56 27 53 28 55 29 54 30 57 31 58 32 59 33
REMARK SMILES IDX 60 35 61 36 62 37 63 38 64 39 65 40 66 41 67 42 68 43 21 45
REMARK SMILES IDX 20 46 18 47 19 48 17 50 16 52 14 53 15 54 9 56 8 57 6 58
REMARK SMILES IDX 7 59 5 61 4 62 3 63 2 64 1 65 10 66 11 67 12 68 13 69 22 71
REMARK SMILES IDX 23 72 24 73 25 74 26 75 27 76 28 77
REMARK H PARENT 31 4 36 13 59 34 20 49 16 55 8 60 13 70 27 78 27 79 28 80
REMARK H PARENT 28 81
REMARK Flexibility Score:  259.900
ROOT
ATOM      1  O   UNL     1      -6.177  -0.285  10.595  1.00  0.00    -0.273 OA
ATOM      2  N   UNL     1      -7.284  -1.322   8.883  1.00  0.00    -0.343 N 
ATOM      3  C   UNL     1      -7.172  -0.885  10.185  1.00  0.00     0.243 C 
ATOM      4  H   UNL     1      -8.123  -1.799   8.578  1.00  0.00     0.164 HD
ENDROOT
BRANCH   2   5
ATOM      5  C   UNL     1      -6.164  -1.194   7.957  1.00  0.00     0.171 C 
ATOM      6  C   UNL     1      -5.685  -2.240   5.296  1.00  0.00     0.214 C 
ATOM      7  N   UNL     1      -5.251  -2.998   6.447  1.00  0.00    -0.303 N 
ATOM      8  C   UNL     1      -5.684  -0.738   5.531  1.00  0.00     0.057 C 
ATOM      9  C   UNL     1      -5.494  -2.581   7.745  1.00  0.00     0.247 C 
ATOM     10  C   UNL     1      -6.568  -0.404   6.714  1.00  0.00     0.040 C 
ATOM     11  O   UNL     1      -5.196  -3.278   8.724  1.00  0.00    -0.272 OA
BRANCH   6  12
ATOM     12  O   UNL     1      -6.976  -2.683   4.950  1.00  0.00    -0.373 OA
ATOM     13  H   UNL     1      -6.958  -2.903   3.994  1.00  0.00     0.213 HD
ENDBRANCH   6  12
BRANCH   7  14
ATOM     14  C   UNL     1      -4.660  -4.328   6.188  1.00  0.00     0.177 C 
BRANCH  14  15
ATOM     15  C   UNL     1      -5.335  -5.140   5.066  1.00  0.00     0.038 C 
BRANCH  15  16
ATOM     16  C   UNL     1      -6.416  -6.183   5.425  1.00  0.00    -0.015 C 
ATOM     17  C   UNL     1      -5.952  -7.155   6.513  1.00  0.00     0.007 C 
ATOM     18  C   UNL     1      -6.786  -6.997   4.179  1.00  0.00     0.007 C 
ENDBRANCH  15  16
ENDBRANCH  14  15
BRANCH  14  19
ATOM     19  C   UNL     1      -3.122  -4.308   6.494  1.00  0.00     0.245 C 
ATOM     20  O   UNL     1      -2.453  -3.422   5.936  1.00  0.00    -0.272 OA
BRANCH  19  21
ATOM     21  N   UNL     1      -2.472  -5.271   7.245  1.00  0.00    -0.332 N 
ATOM     22  C   UNL     1      -2.372  -6.679   6.905  1.00  0.00     0.147 C 
BRANCH  21  23
ATOM     23  C   UNL     1      -1.827  -4.843   8.517  1.00  0.00     0.178 C 
BRANCH  23  24
ATOM     24  C   UNL     1      -1.689  -3.317   8.690  1.00  0.00     0.070 C 
BRANCH  24  25
ATOM     25  C   UNL     1      -0.679  -2.827   9.701  1.00  0.00    -0.045 A 
ATOM     26  C   UNL     1       0.628  -3.331   9.712  1.00  0.00     0.004 A 
ATOM     27  C   UNL     1      -1.041  -1.859  10.650  1.00  0.00     0.004 A 
ATOM     28  C   UNL     1       1.550  -2.885  10.661  1.00  0.00     0.000 A 
ATOM     29  C   UNL     1      -0.117  -1.414  11.597  1.00  0.00     0.000 A 
ATOM     30  C   UNL     1       1.177  -1.930  11.603  1.00  0.00     0.000 A 
ENDBRANCH  24  25
ENDBRANCH  23  24
BRANCH  23  31
ATOM     31  C   UNL     1      -2.376  -5.592   9.754  1.00  0.00     0.243 C 
ATOM     32  O   UNL     1      -1.707  -6.354  10.449  1.00  0.00    -0.273 OA
ATOM     33  N   UNL     1      -3.747  -5.476   9.908  1.00  0.00    -0.341 N 
ATOM     34  H   UNL     1      -4.251  -4.830   9.295  1.00  0.00     0.164 HD
BRANCH  33  35
ATOM     35  C   UNL     1      -4.499  -6.195  10.939  1.00  0.00     0.194 C 
BRANCH  35  36
ATOM     36  C   UNL     1      -4.851  -7.662  10.562  1.00  0.00     0.017 C 
ATOM     37  C   UNL     1      -6.369  -7.848  10.395  1.00  0.00     0.010 C 
ATOM     38  C   UNL     1      -4.375  -8.684  11.601  1.00  0.00     0.010 C 
ENDBRANCH  35  36
BRANCH  35  39
ATOM     39  C   UNL     1      -5.747  -5.407  11.429  1.00  0.00     0.329 C 
ATOM     40  O   UNL     1      -6.644  -5.016  10.691  1.00  0.00    -0.250 OA
BRANCH  39  41
ATOM     41  O   UNL     1      -5.776  -5.274  12.789  1.00  0.00    -0.458 OA
BRANCH  41  42
ATOM     42  C   UNL     1      -5.800  -3.919  13.300  1.00  0.00     0.205 CG0
ATOM     43  C   UNL     1      -4.761  -3.837  14.416  1.00  0.00     0.056 C 
ATOM     44  G   UNL     1      -7.225  -3.605  13.796  1.00  0.00     0.000 G0
ENDBRANCH  41  42
ENDBRANCH  39  41
ENDBRANCH  35  39
ENDBRANCH  33  35
ENDBRANCH  23  31
ENDBRANCH  21  23
ENDBRANCH  19  21
ENDBRANCH  14  19
ENDBRANCH   7  14
ENDBRANCH   2   5
BRANCH   3  45
ATOM     45  C   UNL     1      -8.381  -1.178  11.083  1.00  0.00     0.171 C 
BRANCH  45  46
ATOM     46  N   UNL     1      -8.019  -2.357  11.859  1.00  0.00    -0.342 N 
ATOM     47  C   UNL     1      -7.714  -2.294  13.195  1.00  0.00     0.247 C 
ATOM     48  O   UNL     1      -7.794  -1.255  13.851  1.00  0.00    -0.273 OA
ATOM     49  H   UNL     1      -7.995  -3.248  11.367  1.00  0.00     0.164 HD
BRANCH  47  50
ATOM     50  C   UNL     1      -7.235  -3.615  13.815  1.00  0.00     0.212 CG0
ATOM     51  G   UNL     1      -5.820  -3.900  13.273  1.00  0.00     0.000 G0
BRANCH  50  52
ATOM     52  N   UNL     1      -7.268  -3.401  15.260  1.00  0.00    -0.339 N 
ATOM     53  C   UNL     1      -8.408  -3.523  16.016  1.00  0.00     0.243 C 
ATOM     54  O   UNL     1      -9.505  -3.770  15.524  1.00  0.00    -0.273 OA
ATOM     55  H   UNL     1      -6.411  -3.085  15.710  1.00  0.00     0.164 HD
BRANCH  53  56
ATOM     56  C   UNL     1      -8.215  -3.165  17.504  1.00  0.00     0.182 C 
BRANCH  56  57
ATOM     57  N   UNL     1      -7.081  -2.253  17.683  1.00  0.00    -0.344 N 
ATOM     58  C   UNL     1      -7.206  -0.890  17.565  1.00  0.00     0.220 C 
ATOM     59  O   UNL     1      -8.253  -0.347  17.231  1.00  0.00    -0.275 OA
ATOM     60  H   UNL     1      -6.225  -2.652  18.059  1.00  0.00     0.164 HD
BRANCH  58  61
ATOM     61  C   UNL     1      -5.918  -0.141  17.850  1.00  0.00     0.100 C 
BRANCH  61  62
ATOM     62  C   UNL     1      -4.660  -0.997  17.696  1.00  0.00     0.010 C 
BRANCH  62  63
ATOM     63  C   UNL     1      -3.830  -0.675  16.447  1.00  0.00     0.000 C 
BRANCH  63  64
ATOM     64  C   UNL     1      -2.320  -0.695  16.676  1.00  0.00    -0.003 C 
ATOM     65  C   UNL     1      -1.570  -1.057  15.402  1.00  0.00     0.004 C 
ENDBRANCH  63  64
ENDBRANCH  62  63
ENDBRANCH  61  62
ENDBRANCH  58  61
ENDBRANCH  56  57
BRANCH  56  66
ATOM     66  C   UNL     1      -8.091  -4.417  18.369  1.00  0.00     0.157 C 
BRANCH  66  67
ATOM     67  C   UNL     1      -6.664  -4.878  18.458  1.00  0.00     0.305 C 
ATOM     68  O   UNL     1      -5.895  -5.064  17.528  1.00  0.00    -0.252 OA
BRANCH  67  69
ATOM     69  O   UNL     1      -6.255  -5.032  19.732  1.00  0.00    -0.481 OA
ATOM     70  H   UNL     1      -5.579  -4.335  19.864  1.00  0.00     0.296 HD
ENDBRANCH  67  69
ENDBRANCH  66  67
ENDBRANCH  56  66
ENDBRANCH  53  56
ENDBRANCH  50  52
ENDBRANCH  47  50
ENDBRANCH  45  46
BRANCH  45  71
ATOM     71  C   UNL     1      -9.631  -1.423  10.232  1.00  0.00     0.037 C 
BRANCH  71  72
ATOM     72  C   UNL     1     -10.818  -0.573  10.694  1.00  0.00     0.026 C 
BRANCH  72  73
ATOM     73  C   UNL     1     -10.729  -0.249  12.183  1.00  0.00     0.146 C 
BRANCH  73  74
ATOM     74  N   UNL     1     -11.521  -1.240  12.905  1.00  0.00    -0.254 NA
ATOM     75  C   UNL     1     -11.307  -1.378  14.161  1.00  0.00     0.185 C 
ATOM     76  N   UNL     1     -12.021  -2.281  14.853  1.00  0.00    -0.370 N 
ATOM     77  N   UNL     1     -10.431  -0.727  14.946  1.00  0.00    -0.370 N 
ATOM     78  H   UNL     1     -12.699  -2.822  14.335  1.00  0.00     0.159 HD
ATOM     79  H   UNL     1     -11.811  -2.546  15.799  1.00  0.00     0.159 HD
ATOM     80  H   UNL     1      -9.828  -0.015  14.562  1.00  0.00     0.159 HD
ATOM     81  H   UNL     1     -10.432  -0.840  15.946  1.00  0.00     0.159 HD
ENDBRANCH  73  74
ENDBRANCH  72  73
ENDBRANCH  71  72
ENDBRANCH  45  71
ENDBRANCH   3  45
TORSDOF 20
ENDMDL
MODEL 38
REMARK VINA RESULT:    -5.822      3.618      7.867
REMARK INTER + INTRA:         -24.099
REMARK INTER:                 -19.694
REMARK INTRA:                  -4.406
REMARK UNBOUND:                -7.386
REMARK SMILES CCCCCC(=O)N[C@H](CC(=O)O)C(=O)N[C@H]1C(=O)N[C@H](CCCN=C(N)N)C(=O)N[C@@H]2CC[C@H](O)N(C2=O)[C@@H](CC(C)C)C(=O)N(C)[C@@H](Cc2ccccc2)C(=O)N[C@H](C(C)C)C(=O)O[C@@H]1C
REMARK SMILES IDX 30 1 31 2 29 3 32 5 35 6 37 7 34 8 38 9 33 10 39 11 36 12
REMARK SMILES IDX 40 14 41 15 42 16 43 17 44 18 45 19 46 20 47 21 48 22 49 23
REMARK SMILES IDX 50 24 51 25 52 26 56 27 53 28 55 29 54 30 57 31 58 32 59 33
REMARK SMILES IDX 60 35 61 36 62 37 63 38 64 39 65 40 66 41 67 42 68 43 21 45
REMARK SMILES IDX 20 46 18 47 19 48 17 50 16 52 14 53 15 54 9 56 8 57 6 58
REMARK SMILES IDX 7 59 5 61 4 62 3 63 2 64 1 65 10 66 11 67 12 68 13 69 22 71
REMARK SMILES IDX 23 72 24 73 25 74 26 75 27 76 28 77
REMARK H PARENT 31 4 36 13 59 34 20 49 16 55 8 60 13 70 27 78 27 79 28 80
REMARK H PARENT 28 81
REMARK Flexibility Score:  259.900
ROOT
ATOM      1  O   UNL     1      -4.726  -2.539   8.857  1.00  0.00    -0.273 OA
ATOM      2  N   UNL     1      -5.290  -0.405   9.456  1.00  0.00    -0.343 N 
ATOM      3  C   UNL     1      -5.537  -1.613   8.840  1.00  0.00     0.243 C 
ATOM      4  H   UNL     1      -5.987   0.329   9.434  1.00  0.00     0.164 HD
ENDROOT
BRANCH   2   5
ATOM      5  C   UNL     1      -3.990  -0.131  10.059  1.00  0.00     0.171 C 
ATOM      6  C   UNL     1      -1.576  -1.715  10.326  1.00  0.00     0.214 C 
ATOM      7  N   UNL     1      -2.572  -1.757  11.371  1.00  0.00    -0.303 N 
ATOM      8  C   UNL     1      -1.533  -0.386   9.589  1.00  0.00     0.057 C 
ATOM      9  C   UNL     1      -3.770  -1.065  11.284  1.00  0.00     0.247 C 
ATOM     10  C   UNL     1      -2.892  -0.083   8.997  1.00  0.00     0.040 C 
ATOM     11  O   UNL     1      -4.655  -1.174  12.142  1.00  0.00    -0.272 OA
BRANCH   6  12
ATOM     12  O   UNL     1      -1.849  -2.767   9.429  1.00  0.00    -0.373 OA
ATOM     13  H   UNL     1      -2.825  -2.824   9.341  1.00  0.00     0.213 HD
ENDBRANCH   6  12
BRANCH   7  14
ATOM     14  C   UNL     1      -2.332  -2.693  12.490  1.00  0.00     0.177 C 
BRANCH  14  15
ATOM     15  C   UNL     1      -2.214  -2.038  13.879  1.00  0.00     0.038 C 
BRANCH  15  16
ATOM     16  C   UNL     1      -1.227  -0.868  14.088  1.00  0.00    -0.015 C 
ATOM     17  C   UNL     1       0.170  -1.177  13.541  1.00  0.00     0.007 C 
ATOM     18  C   UNL     1      -1.098  -0.559  15.585  1.00  0.00     0.007 C 
ENDBRANCH  15  16
ENDBRANCH  14  15
BRANCH  14  19
ATOM     19  C   UNL     1      -3.004  -4.078  12.194  1.00  0.00     0.245 C 
ATOM     20  O   UNL     1      -4.229  -4.073  11.989  1.00  0.00    -0.272 OA
BRANCH  19  21
ATOM     21  N   UNL     1      -2.337  -5.288  12.260  1.00  0.00    -0.332 N 
ATOM     22  C   UNL     1      -1.883  -5.935  13.479  1.00  0.00     0.147 C 
BRANCH  21  23
ATOM     23  C   UNL     1      -2.044  -5.992  10.981  1.00  0.00     0.178 C 
BRANCH  23  24
ATOM     24  C   UNL     1      -0.592  -6.493  10.838  1.00  0.00     0.070 C 
BRANCH  24  25
ATOM     25  C   UNL     1       0.464  -5.460  10.518  1.00  0.00    -0.045 A 
ATOM     26  C   UNL     1       0.611  -4.964   9.216  1.00  0.00     0.004 A 
ATOM     27  C   UNL     1       1.317  -4.985  11.525  1.00  0.00     0.004 A 
ATOM     28  C   UNL     1       1.600  -4.022   8.925  1.00  0.00     0.000 A 
ATOM     29  C   UNL     1       2.305  -4.043  11.232  1.00  0.00     0.000 A 
ATOM     30  C   UNL     1       2.447  -3.564   9.932  1.00  0.00     0.000 A 
ENDBRANCH  24  25
ENDBRANCH  23  24
BRANCH  23  31
ATOM     31  C   UNL     1      -3.130  -7.026  10.599  1.00  0.00     0.243 C 
ATOM     32  O   UNL     1      -3.065  -8.222  10.870  1.00  0.00    -0.273 OA
ATOM     33  N   UNL     1      -4.103  -6.519   9.755  1.00  0.00    -0.341 N 
ATOM     34  H   UNL     1      -4.102  -5.515   9.560  1.00  0.00     0.164 HD
BRANCH  33  35
ATOM     35  C   UNL     1      -5.163  -7.345   9.170  1.00  0.00     0.194 C 
BRANCH  35  36
ATOM     36  C   UNL     1      -5.555  -6.942   7.721  1.00  0.00     0.017 C 
ATOM     37  C   UNL     1      -4.595  -7.559   6.689  1.00  0.00     0.010 C 
ATOM     38  C   UNL     1      -5.558  -5.425   7.495  1.00  0.00     0.010 C 
ENDBRANCH  35  36
BRANCH  35  39
ATOM     39  C   UNL     1      -6.406  -7.467  10.095  1.00  0.00     0.329 C 
ATOM     40  O   UNL     1      -6.543  -8.335  10.950  1.00  0.00    -0.250 OA
BRANCH  39  41
ATOM     41  O   UNL     1      -7.294  -6.444   9.910  1.00  0.00    -0.458 OA
BRANCH  41  42
ATOM     42  C   UNL     1      -7.182  -5.324  10.821  1.00  0.00     0.205 CG0
ATOM     43  C   UNL     1      -7.205  -5.889  12.240  1.00  0.00     0.056 C 
ATOM     44  G   UNL     1      -8.349  -4.354  10.554  1.00  0.00     0.000 G0
ENDBRANCH  41  42
ENDBRANCH  39  41
ENDBRANCH  35  39
ENDBRANCH  33  35
ENDBRANCH  23  31
ENDBRANCH  21  23
ENDBRANCH  19  21
ENDBRANCH  14  19
ENDBRANCH   7  14
ENDBRANCH   2   5
BRANCH   3  45
ATOM     45  C   UNL     1      -6.903  -1.731   8.150  1.00  0.00     0.171 C 
BRANCH  45  46
ATOM     46  N   UNL     1      -7.542  -2.900   8.740  1.00  0.00    -0.342 N 
ATOM     47  C   UNL     1      -7.808  -2.995  10.083  1.00  0.00     0.247 C 
ATOM     48  O   UNL     1      -7.594  -2.076  10.873  1.00  0.00    -0.273 OA
ATOM     49  H   UNL     1      -7.787  -3.663   8.112  1.00  0.00     0.164 HD
BRANCH  47  50
ATOM     50  C   UNL     1      -8.369  -4.349  10.540  1.00  0.00     0.212 CG0
ATOM     51  G   UNL     1      -7.173  -5.281  10.818  1.00  0.00     0.000 G0
BRANCH  50  52
ATOM     52  N   UNL     1      -9.164  -4.060  11.730  1.00  0.00    -0.339 N 
ATOM     53  C   UNL     1     -10.481  -3.672  11.684  1.00  0.00     0.243 C 
ATOM     54  O   UNL     1     -11.080  -3.487  10.627  1.00  0.00    -0.273 OA
ATOM     55  H   UNL     1      -8.692  -4.087  12.632  1.00  0.00     0.164 HD
BRANCH  53  56
ATOM     56  C   UNL     1     -11.086  -3.338  13.062  1.00  0.00     0.182 C 
BRANCH  56  57
ATOM     57  N   UNL     1     -12.514  -3.669  13.104  1.00  0.00    -0.344 N 
ATOM     58  C   UNL     1     -13.075  -4.376  14.140  1.00  0.00     0.220 C 
ATOM     59  O   UNL     1     -12.413  -4.841  15.061  1.00  0.00    -0.275 OA
ATOM     60  H   UNL     1     -13.112  -3.218  12.417  1.00  0.00     0.164 HD
BRANCH  58  61
ATOM     61  C   UNL     1     -14.576  -4.552  14.004  1.00  0.00     0.100 C 
BRANCH  61  62
ATOM     62  C   UNL     1     -15.149  -5.661  14.886  1.00  0.00     0.010 C 
BRANCH  62  63
ATOM     63  C   UNL     1     -16.268  -6.475  14.224  1.00  0.00     0.000 C 
BRANCH  63  64
ATOM     64  C   UNL     1     -17.347  -6.960  15.190  1.00  0.00    -0.003 C 
ATOM     65  C   UNL     1     -18.537  -6.011  15.216  1.00  0.00     0.004 C 
ENDBRANCH  63  64
ENDBRANCH  62  63
ENDBRANCH  61  62
ENDBRANCH  58  61
ENDBRANCH  56  57
BRANCH  56  66
ATOM     66  C   UNL     1     -10.819  -1.886  13.454  1.00  0.00     0.157 C 
BRANCH  66  67
ATOM     67  C   UNL     1      -9.830  -1.799  14.580  1.00  0.00     0.305 C 
ATOM     68  O   UNL     1      -9.576  -0.816  15.258  1.00  0.00    -0.252 OA
BRANCH  67  69
ATOM     69  O   UNL     1      -9.239  -2.982  14.834  1.00  0.00    -0.481 OA
ATOM     70  H   UNL     1      -8.761  -3.206  14.007  1.00  0.00     0.296 HD
ENDBRANCH  67  69
ENDBRANCH  66  67
ENDBRANCH  56  66
ENDBRANCH  53  56
ENDBRANCH  50  52
ENDBRANCH  47  50
ENDBRANCH  45  46
BRANCH  45  71
ATOM     71  C   UNL     1      -6.725  -1.887   6.636  1.00  0.00     0.037 C 
BRANCH  71  72
ATOM     72  C   UNL     1      -6.409  -0.554   5.953  1.00  0.00     0.026 C 
BRANCH  72  73
ATOM     73  C   UNL     1      -5.568  -0.755   4.694  1.00  0.00     0.146 C 
BRANCH  73  74
ATOM     74  N   UNL     1      -6.427  -0.509   3.539  1.00  0.00    -0.254 NA
ATOM     75  C   UNL     1      -6.152   0.495   2.792  1.00  0.00     0.185 C 
ATOM     76  N   UNL     1      -6.922   0.747   1.721  1.00  0.00    -0.370 N 
ATOM     77  N   UNL     1      -5.157   1.391   2.913  1.00  0.00    -0.370 N 
ATOM     78  H   UNL     1      -7.700   0.123   1.561  1.00  0.00     0.159 HD
ATOM     79  H   UNL     1      -6.858   1.590   1.178  1.00  0.00     0.159 HD
ATOM     80  H   UNL     1      -4.494   1.324   3.671  1.00  0.00     0.159 HD
ATOM     81  H   UNL     1      -4.970   2.073   2.196  1.00  0.00     0.159 HD
ENDBRANCH  73  74
ENDBRANCH  72  73
ENDBRANCH  71  72
ENDBRANCH  45  71
ENDBRANCH   3  45
TORSDOF 20
ENDMDL
MODEL 39
REMARK VINA RESULT:    -5.818      3.210      8.143
REMARK INTER + INTRA:         -24.088
REMARK INTER:                 -17.820
REMARK INTRA:                  -6.268
REMARK UNBOUND:                -7.386
REMARK SMILES CCCCCC(=O)N[C@H](CC(=O)O)C(=O)N[C@H]1C(=O)N[C@H](CCCN=C(N)N)C(=O)N[C@@H]2CC[C@H](O)N(C2=O)[C@@H](CC(C)C)C(=O)N(C)[C@@H](Cc2ccccc2)C(=O)N[C@H](C(C)C)C(=O)O[C@@H]1C
REMARK SMILES IDX 30 1 31 2 29 3 32 5 35 6 37 7 34 8 38 9 33 10 39 11 36 12
REMARK SMILES IDX 40 14 41 15 42 16 43 17 44 18 45 19 46 20 47 21 48 22 49 23
REMARK SMILES IDX 50 24 51 25 52 26 56 27 53 28 55 29 54 30 57 31 58 32 59 33
REMARK SMILES IDX 60 35 61 36 62 37 63 38 64 39 65 40 66 41 67 42 68 43 21 45
REMARK SMILES IDX 20 46 18 47 19 48 17 50 16 52 14 53 15 54 9 56 8 57 6 58
REMARK SMILES IDX 7 59 5 61 4 62 3 63 2 64 1 65 10 66 11 67 12 68 13 69 22 71
REMARK SMILES IDX 23 72 24 73 25 74 26 75 27 76 28 77
REMARK H PARENT 31 4 36 13 59 34 20 49 16 55 8 60 13 70 27 78 27 79 28 80
REMARK H PARENT 28 81
REMARK Flexibility Score:  259.900
ROOT
ATOM      1  O   UNL     1      -5.190  -6.747   8.274  1.00  0.00    -0.273 OA
ATOM      2  N   UNL     1      -7.016  -6.002   9.432  1.00  0.00    -0.343 N 
ATOM      3  C   UNL     1      -5.976  -5.838   8.542  1.00  0.00     0.243 C 
ATOM      4  H   UNL     1      -7.652  -5.236   9.617  1.00  0.00     0.164 HD
ENDROOT
BRANCH   2   5
ATOM      5  C   UNL     1      -7.157  -7.240  10.189  1.00  0.00     0.171 C 
ATOM      6  C   UNL     1      -9.113  -8.145  12.128  1.00  0.00     0.214 C 
ATOM      7  N   UNL     1      -7.929  -7.456  12.583  1.00  0.00    -0.303 N 
ATOM      8  C   UNL     1      -8.895  -8.934  10.847  1.00  0.00     0.057 C 
ATOM      9  C   UNL     1      -6.980  -6.953  11.708  1.00  0.00     0.247 C 
ATOM     10  C   UNL     1      -8.402  -8.011   9.754  1.00  0.00     0.040 C 
ATOM     11  O   UNL     1      -6.012  -6.288  12.101  1.00  0.00    -0.272 OA
BRANCH   6  12
ATOM     12  O   UNL     1     -10.128  -7.185  11.948  1.00  0.00    -0.373 OA
ATOM     13  H   UNL     1     -10.279  -6.760  12.819  1.00  0.00     0.213 HD
ENDBRANCH   6  12
BRANCH   7  14
ATOM     14  C   UNL     1      -7.833  -7.172  14.031  1.00  0.00     0.177 C 
BRANCH  14  15
ATOM     15  C   UNL     1      -6.728  -7.943  14.779  1.00  0.00     0.038 C 
BRANCH  15  16
ATOM     16  C   UNL     1      -6.536  -7.717  16.295  1.00  0.00    -0.015 C 
ATOM     17  C   UNL     1      -5.207  -8.281  16.806  1.00  0.00     0.007 C 
ATOM     18  C   UNL     1      -7.674  -8.395  17.069  1.00  0.00     0.007 C 
ENDBRANCH  15  16
ENDBRANCH  14  15
BRANCH  14  19
ATOM     19  C   UNL     1      -8.266  -5.694  14.325  1.00  0.00     0.245 C 
ATOM     20  O   UNL     1      -9.416  -5.370  13.984  1.00  0.00    -0.272 OA
BRANCH  19  21
ATOM     21  N   UNL     1      -7.414  -4.727  14.828  1.00  0.00    -0.332 N 
ATOM     22  C   UNL     1      -5.965  -4.809  14.849  1.00  0.00     0.147 C 
BRANCH  21  23
ATOM     23  C   UNL     1      -8.023  -3.498  15.409  1.00  0.00     0.178 C 
BRANCH  23  24
ATOM     24  C   UNL     1      -7.757  -3.296  16.915  1.00  0.00     0.070 C 
BRANCH  24  25
ATOM     25  C   UNL     1      -8.265  -4.367  17.853  1.00  0.00    -0.045 A 
ATOM     26  C   UNL     1      -9.468  -5.035  17.594  1.00  0.00     0.004 A 
ATOM     27  C   UNL     1      -7.535  -4.704  19.003  1.00  0.00     0.004 A 
ATOM     28  C   UNL     1      -9.939  -6.011  18.475  1.00  0.00     0.000 A 
ATOM     29  C   UNL     1      -8.006  -5.681  19.881  1.00  0.00     0.000 A 
ATOM     30  C   UNL     1      -9.210  -6.332  19.618  1.00  0.00     0.000 A 
ENDBRANCH  24  25
ENDBRANCH  23  24
BRANCH  23  31
ATOM     31  C   UNL     1      -7.799  -2.242  14.534  1.00  0.00     0.243 C 
ATOM     32  O   UNL     1      -7.363  -1.176  14.961  1.00  0.00    -0.273 OA
ATOM     33  N   UNL     1      -8.309  -2.362  13.253  1.00  0.00    -0.341 N 
ATOM     34  H   UNL     1      -8.665  -3.274  12.956  1.00  0.00     0.164 HD
BRANCH  33  35
ATOM     35  C   UNL     1      -8.317  -1.258  12.289  1.00  0.00     0.194 C 
BRANCH  35  36
ATOM     36  C   UNL     1      -9.737  -0.726  11.944  1.00  0.00     0.017 C 
ATOM     37  C   UNL     1     -10.271   0.200  13.050  1.00  0.00     0.010 C 
ATOM     38  C   UNL     1     -10.768  -1.843  11.742  1.00  0.00     0.010 C 
ENDBRANCH  35  36
BRANCH  35  39
ATOM     39  C   UNL     1      -7.489  -1.573  11.012  1.00  0.00     0.329 C 
ATOM     40  O   UNL     1      -7.953  -2.097  10.006  1.00  0.00    -0.250 OA
BRANCH  39  41
ATOM     41  O   UNL     1      -6.202  -1.121  11.102  1.00  0.00    -0.458 OA
BRANCH  41  42
ATOM     42  C   UNL     1      -5.170  -2.134  11.169  1.00  0.00     0.205 CG0
ATOM     43  C   UNL     1      -4.591  -2.100  12.582  1.00  0.00     0.056 C 
ATOM     44  G   UNL     1      -4.111  -1.830  10.091  1.00  0.00     0.000 G0
ENDBRANCH  41  42
ENDBRANCH  39  41
ENDBRANCH  35  39
ENDBRANCH  33  35
ENDBRANCH  23  31
ENDBRANCH  21  23
ENDBRANCH  19  21
ENDBRANCH  14  19
ENDBRANCH   7  14
ENDBRANCH   2   5
BRANCH   3  45
ATOM     45  C   UNL     1      -5.878  -4.451   7.894  1.00  0.00     0.171 C 
BRANCH  45  46
ATOM     46  N   UNL     1      -5.470  -3.545   8.960  1.00  0.00    -0.342 N 
ATOM     47  C   UNL     1      -4.467  -2.623   8.799  1.00  0.00     0.247 C 
ATOM     48  O   UNL     1      -3.890  -2.444   7.725  1.00  0.00    -0.273 OA
ATOM     49  H   UNL     1      -5.961  -3.622   9.849  1.00  0.00     0.164 HD
BRANCH  47  50
ATOM     50  C   UNL     1      -4.090  -1.844  10.066  1.00  0.00     0.212 CG0
ATOM     51  G   UNL     1      -5.181  -2.114  11.122  1.00  0.00     0.000 G0
BRANCH  50  52
ATOM     52  N   UNL     1      -2.774  -2.344  10.455  1.00  0.00    -0.339 N 
ATOM     53  C   UNL     1      -1.633  -1.580  10.414  1.00  0.00     0.243 C 
ATOM     54  O   UNL     1      -1.624  -0.426   9.994  1.00  0.00    -0.273 OA
ATOM     55  H   UNL     1      -2.698  -3.327  10.707  1.00  0.00     0.164 HD
BRANCH  53  56
ATOM     56  C   UNL     1      -0.350  -2.348  10.788  1.00  0.00     0.182 C 
BRANCH  56  57
ATOM     57  N   UNL     1      -0.575  -3.797  10.754  1.00  0.00    -0.344 N 
ATOM     58  C   UNL     1       0.386  -4.681  10.329  1.00  0.00     0.220 C 
ATOM     59  O   UNL     1       1.469  -4.319   9.881  1.00  0.00    -0.275 OA
ATOM     60  H   UNL     1      -1.415  -4.143  11.209  1.00  0.00     0.164 HD
BRANCH  58  61
ATOM     61  C   UNL     1      -0.043  -6.133  10.434  1.00  0.00     0.100 C 
BRANCH  61  62
ATOM     62  C   UNL     1       0.427  -6.823  11.715  1.00  0.00     0.010 C 
BRANCH  62  63
ATOM     63  C   UNL     1      -0.268  -6.324  12.988  1.00  0.00     0.000 C 
BRANCH  63  64
ATOM     64  C   UNL     1      -1.722  -6.770  13.125  1.00  0.00    -0.003 C 
ATOM     65  C   UNL     1      -2.672  -5.582  13.106  1.00  0.00     0.004 C 
ENDBRANCH  63  64
ENDBRANCH  62  63
ENDBRANCH  61  62
ENDBRANCH  58  61
ENDBRANCH  56  57
BRANCH  56  66
ATOM     66  C   UNL     1       0.210  -1.883  12.131  1.00  0.00     0.157 C 
BRANCH  66  67
ATOM     67  C   UNL     1       1.600  -1.334  11.980  1.00  0.00     0.305 C 
ATOM     68  O   UNL     1       2.038  -0.305  12.471  1.00  0.00    -0.252 OA
BRANCH  67  69
ATOM     69  O   UNL     1       2.394  -2.144  11.254  1.00  0.00    -0.481 OA
ATOM     70  H   UNL     1       1.890  -2.982  11.174  1.00  0.00     0.296 HD
ENDBRANCH  67  69
ENDBRANCH  66  67
ENDBRANCH  56  66
ENDBRANCH  53  56
ENDBRANCH  50  52
ENDBRANCH  47  50
ENDBRANCH  45  46
BRANCH  45  71
ATOM     71  C   UNL     1      -7.230  -4.045   7.294  1.00  0.00     0.037 C 
BRANCH  71  72
ATOM     72  C   UNL     1      -7.170  -3.925   5.769  1.00  0.00     0.026 C 
BRANCH  72  73
ATOM     73  C   UNL     1      -6.038  -4.767   5.184  1.00  0.00     0.146 C 
BRANCH  73  74
ATOM     74  N   UNL     1      -6.634  -5.761   4.296  1.00  0.00    -0.254 NA
ATOM     75  C   UNL     1      -6.405  -6.998   4.542  1.00  0.00     0.185 C 
ATOM     76  N   UNL     1      -6.941  -7.935   3.743  1.00  0.00    -0.370 N 
ATOM     77  N   UNL     1      -5.673  -7.542   5.529  1.00  0.00    -0.370 N 
ATOM     78  H   UNL     1      -7.502  -7.610   2.969  1.00  0.00     0.159 HD
ATOM     79  H   UNL     1      -6.691  -8.907   3.785  1.00  0.00     0.159 HD
ATOM     80  H   UNL     1      -5.213  -6.956   6.210  1.00  0.00     0.159 HD
ATOM     81  H   UNL     1      -5.659  -8.535   5.691  1.00  0.00     0.159 HD
ENDBRANCH  73  74
ENDBRANCH  72  73
ENDBRANCH  71  72
ENDBRANCH  45  71
ENDBRANCH   3  45
TORSDOF 20
ENDMDL
MODEL 40
REMARK VINA RESULT:    -5.771      1.878      3.256
REMARK INTER + INTRA:         -23.953
REMARK INTER:                 -19.037
REMARK INTRA:                  -4.916
REMARK UNBOUND:                -7.386
REMARK SMILES CCCCCC(=O)N[C@H](CC(=O)O)C(=O)N[C@H]1C(=O)N[C@H](CCCN=C(N)N)C(=O)N[C@@H]2CC[C@H](O)N(C2=O)[C@@H](CC(C)C)C(=O)N(C)[C@@H](Cc2ccccc2)C(=O)N[C@H](C(C)C)C(=O)O[C@@H]1C
REMARK SMILES IDX 30 1 31 2 29 3 32 5 35 6 37 7 34 8 38 9 33 10 39 11 36 12
REMARK SMILES IDX 40 14 41 15 42 16 43 17 44 18 45 19 46 20 47 21 48 22 49 23
REMARK SMILES IDX 50 24 51 25 52 26 56 27 53 28 55 29 54 30 57 31 58 32 59 33
REMARK SMILES IDX 60 35 61 36 62 37 63 38 64 39 65 40 66 41 67 42 68 43 21 45
REMARK SMILES IDX 20 46 18 47 19 48 17 50 16 52 14 53 15 54 9 56 8 57 6 58
REMARK SMILES IDX 7 59 5 61 4 62 3 63 2 64 1 65 10 66 11 67 12 68 13 69 22 71
REMARK SMILES IDX 23 72 24 73 25 74 26 75 27 76 28 77
REMARK H PARENT 31 4 36 13 59 34 20 49 16 55 8 60 13 70 27 78 27 79 28 80
REMARK H PARENT 28 81
REMARK Flexibility Score:  259.900
ROOT
ATOM      1  O   UNL     1      -9.881  -7.116   8.533  1.00  0.00    -0.273 OA
ATOM      2  N   UNL     1      -7.603  -7.191   8.340  1.00  0.00    -0.343 N 
ATOM      3  C   UNL     1      -8.774  -7.180   9.068  1.00  0.00     0.243 C 
ATOM      4  H   UNL     1      -6.711  -7.259   8.813  1.00  0.00     0.164 HD
ENDROOT
BRANCH   2   5
ATOM      5  C   UNL     1      -7.627  -7.006   6.893  1.00  0.00     0.171 C 
ATOM      6  C   UNL     1      -5.536  -6.938   4.887  1.00  0.00     0.214 C 
ATOM      7  N   UNL     1      -5.955  -5.708   5.518  1.00  0.00    -0.303 N 
ATOM      8  C   UNL     1      -6.645  -7.973   4.790  1.00  0.00     0.057 C 
ATOM      9  C   UNL     1      -6.912  -5.676   6.519  1.00  0.00     0.247 C 
ATOM     10  C   UNL     1      -7.184  -8.277   6.171  1.00  0.00     0.040 C 
ATOM     11  O   UNL     1      -7.204  -4.631   7.115  1.00  0.00    -0.272 OA
BRANCH   6  12
ATOM     12  O   UNL     1      -4.447  -7.449   5.621  1.00  0.00    -0.373 OA
ATOM     13  H   UNL     1      -4.753  -7.562   6.546  1.00  0.00     0.213 HD
ENDBRANCH   6  12
BRANCH   7  14
ATOM     14  C   UNL     1      -5.213  -4.482   5.156  1.00  0.00     0.177 C 
BRANCH  14  15
ATOM     15  C   UNL     1      -6.088  -3.285   4.735  1.00  0.00     0.038 C 
BRANCH  15  16
ATOM     16  C   UNL     1      -6.271  -2.967   3.235  1.00  0.00    -0.015 C 
ATOM     17  C   UNL     1      -5.447  -3.894   2.336  1.00  0.00     0.007 C 
ATOM     18  C   UNL     1      -5.842  -1.521   2.955  1.00  0.00     0.007 C 
ENDBRANCH  15  16
ENDBRANCH  14  15
BRANCH  14  19
ATOM     19  C   UNL     1      -3.884  -4.387   5.983  1.00  0.00     0.245 C 
ATOM     20  O   UNL     1      -2.825  -4.582   5.363  1.00  0.00    -0.272 OA
BRANCH  19  21
ATOM     21  N   UNL     1      -3.840  -4.214   7.354  1.00  0.00    -0.332 N 
ATOM     22  C   UNL     1      -4.025  -5.262   8.343  1.00  0.00     0.147 C 
BRANCH  21  23
ATOM     23  C   UNL     1      -3.593  -2.841   7.875  1.00  0.00     0.178 C 
BRANCH  23  24
ATOM     24  C   UNL     1      -2.163  -2.310   7.645  1.00  0.00     0.070 C 
BRANCH  24  25
ATOM     25  C   UNL     1      -1.033  -3.072   8.298  1.00  0.00    -0.045 A 
ATOM     26  C   UNL     1      -0.688  -2.837   9.635  1.00  0.00     0.004 A 
ATOM     27  C   UNL     1      -0.308  -4.025   7.568  1.00  0.00     0.004 A 
ATOM     28  C   UNL     1       0.369  -3.532  10.226  1.00  0.00     0.000 A 
ATOM     29  C   UNL     1       0.747  -4.721   8.160  1.00  0.00     0.000 A 
ATOM     30  C   UNL     1       1.087  -4.471   9.488  1.00  0.00     0.000 A 
ENDBRANCH  24  25
ENDBRANCH  23  24
BRANCH  23  31
ATOM     31  C   UNL     1      -4.723  -1.847   7.515  1.00  0.00     0.243 C 
ATOM     32  O   UNL     1      -4.591  -0.913   6.728  1.00  0.00    -0.273 OA
ATOM     33  N   UNL     1      -5.855  -1.988   8.300  1.00  0.00    -0.341 N 
ATOM     34  H   UNL     1      -5.904  -2.783   8.942  1.00  0.00     0.164 HD
BRANCH  33  35
ATOM     35  C   UNL     1      -7.002  -1.080   8.217  1.00  0.00     0.194 C 
BRANCH  35  36
ATOM     36  C   UNL     1      -6.763   0.309   8.874  1.00  0.00     0.017 C 
ATOM     37  C   UNL     1      -5.807   0.202  10.075  1.00  0.00     0.010 C 
ATOM     38  C   UNL     1      -8.052   0.972   9.373  1.00  0.00     0.010 C 
ENDBRANCH  35  36
BRANCH  35  39
ATOM     39  C   UNL     1      -8.321  -1.737   8.713  1.00  0.00     0.329 C 
ATOM     40  O   UNL     1      -9.149  -2.256   7.974  1.00  0.00    -0.250 OA
BRANCH  39  41
ATOM     41  O   UNL     1      -8.415  -1.749  10.077  1.00  0.00    -0.458 OA
BRANCH  41  42
ATOM     42  C   UNL     1      -9.259  -2.775  10.653  1.00  0.00     0.205 CG0
ATOM     43  C   UNL     1     -10.444  -2.072  11.310  1.00  0.00     0.056 C 
ATOM     44  G   UNL     1      -8.424  -3.590  11.661  1.00  0.00     0.000 G0
ENDBRANCH  41  42
ENDBRANCH  39  41
ENDBRANCH  35  39
ENDBRANCH  33  35
ENDBRANCH  23  31
ENDBRANCH  21  23
ENDBRANCH  19  21
ENDBRANCH  14  19
ENDBRANCH   7  14
ENDBRANCH   2   5
BRANCH   3  45
ATOM     45  C   UNL     1      -8.601  -7.273  10.590  1.00  0.00     0.171 C 
BRANCH  45  46
ATOM     46  N   UNL     1      -8.873  -5.936  11.100  1.00  0.00    -0.342 N 
ATOM     47  C   UNL     1      -7.989  -4.897  10.950  1.00  0.00     0.247 C 
ATOM     48  O   UNL     1      -6.939  -4.999  10.313  1.00  0.00    -0.273 OA
ATOM     49  H   UNL     1      -9.757  -5.793  11.585  1.00  0.00     0.164 HD
BRANCH  47  50
ATOM     50  C   UNL     1      -8.388  -3.596  11.660  1.00  0.00     0.212 CG0
ATOM     51  G   UNL     1      -9.244  -2.771  10.678  1.00  0.00     0.000 G0
BRANCH  50  52
ATOM     52  N   UNL     1      -9.119  -4.012  12.854  1.00  0.00    -0.339 N 
ATOM     53  C   UNL     1      -8.657  -3.810  14.132  1.00  0.00     0.243 C 
ATOM     54  O   UNL     1      -7.561  -3.309  14.368  1.00  0.00    -0.273 OA
ATOM     55  H   UNL     1      -9.983  -4.533  12.721  1.00  0.00     0.164 HD
BRANCH  53  56
ATOM     56  C   UNL     1      -9.559  -4.412  15.228  1.00  0.00     0.182 C 
BRANCH  56  57
ATOM     57  N   UNL     1      -9.158  -3.941  16.557  1.00  0.00    -0.344 N 
ATOM     58  C   UNL     1      -8.139  -4.527  17.268  1.00  0.00     0.220 C 
ATOM     59  O   UNL     1      -7.544  -5.524  16.876  1.00  0.00    -0.275 OA
ATOM     60  H   UNL     1      -9.554  -3.060  16.873  1.00  0.00     0.164 HD
BRANCH  58  61
ATOM     61  C   UNL     1      -7.857  -3.840  18.592  1.00  0.00     0.100 C 
BRANCH  61  62
ATOM     62  C   UNL     1      -6.437  -3.285  18.709  1.00  0.00     0.010 C 
BRANCH  62  63
ATOM     63  C   UNL     1      -6.174  -2.047  17.842  1.00  0.00     0.000 C 
BRANCH  63  64
ATOM     64  C   UNL     1      -7.341  -1.062  17.785  1.00  0.00    -0.003 C 
ATOM     65  C   UNL     1      -6.931   0.313  18.293  1.00  0.00     0.004 C 
ENDBRANCH  63  64
ENDBRANCH  62  63
ENDBRANCH  61  62
ENDBRANCH  58  61
ENDBRANCH  56  57
BRANCH  56  66
ATOM     66  C   UNL     1      -9.602  -5.937  15.144  1.00  0.00     0.157 C 
BRANCH  66  67
ATOM     67  C   UNL     1     -10.771  -6.404  14.326  1.00  0.00     0.305 C 
ATOM     68  O   UNL     1     -11.139  -7.558  14.167  1.00  0.00    -0.252 OA
BRANCH  67  69
ATOM     69  O   UNL     1     -11.458  -5.381  13.784  1.00  0.00    -0.481 OA
ATOM     70  H   UNL     1     -11.541  -4.724  14.508  1.00  0.00     0.296 HD
ENDBRANCH  67  69
ENDBRANCH  66  67
ENDBRANCH  56  66
ENDBRANCH  53  56
ENDBRANCH  50  52
ENDBRANCH  47  50
ENDBRANCH  45  46
BRANCH  45  71
ATOM     71  C   UNL     1      -7.182  -7.734  10.939  1.00  0.00     0.037 C 
BRANCH  71  72
ATOM     72  C   UNL     1      -7.074  -8.218  12.388  1.00  0.00     0.026 C 
BRANCH  72  73
ATOM     73  C   UNL     1      -5.677  -7.977  12.956  1.00  0.00     0.146 C 
BRANCH  73  74
ATOM     74  N   UNL     1      -5.241  -6.652  12.525  1.00  0.00    -0.254 NA
ATOM     75  C   UNL     1      -5.298  -5.697  13.378  1.00  0.00     0.185 C 
ATOM     76  N   UNL     1      -4.903  -4.467  13.011  1.00  0.00    -0.370 N 
ATOM     77  N   UNL     1      -5.713  -5.728  14.656  1.00  0.00    -0.370 N 
ATOM     78  H   UNL     1      -4.582  -4.353  12.061  1.00  0.00     0.159 HD
ATOM     79  H   UNL     1      -5.053  -3.647  13.573  1.00  0.00     0.159 HD
ATOM     80  H   UNL     1      -6.036  -6.590  15.070  1.00  0.00     0.159 HD
ATOM     81  H   UNL     1      -5.604  -4.936  15.267  1.00  0.00     0.159 HD
ENDBRANCH  73  74
ENDBRANCH  72  73
ENDBRANCH  71  72
ENDBRANCH  45  71
ENDBRANCH   3  45
TORSDOF 20
ENDMDL
MODEL 41
REMARK VINA RESULT:    -5.770      2.300      5.625
REMARK INTER + INTRA:         -23.950
REMARK INTER:                 -18.276
REMARK INTRA:                  -5.674
REMARK UNBOUND:                -7.386
REMARK SMILES CCCCCC(=O)N[C@H](CC(=O)O)C(=O)N[C@H]1C(=O)N[C@H](CCCN=C(N)N)C(=O)N[C@@H]2CC[C@H](O)N(C2=O)[C@@H](CC(C)C)C(=O)N(C)[C@@H](Cc2ccccc2)C(=O)N[C@H](C(C)C)C(=O)O[C@@H]1C
REMARK SMILES IDX 30 1 31 2 29 3 32 5 35 6 37 7 34 8 38 9 33 10 39 11 36 12
REMARK SMILES IDX 40 14 41 15 42 16 43 17 44 18 45 19 46 20 47 21 48 22 49 23
REMARK SMILES IDX 50 24 51 25 52 26 56 27 53 28 55 29 54 30 57 31 58 32 59 33
REMARK SMILES IDX 60 35 61 36 62 37 63 38 64 39 65 40 66 41 67 42 68 43 21 45
REMARK SMILES IDX 20 46 18 47 19 48 17 50 16 52 14 53 15 54 9 56 8 57 6 58
REMARK SMILES IDX 7 59 5 61 4 62 3 63 2 64 1 65 10 66 11 67 12 68 13 69 22 71
REMARK SMILES IDX 23 72 24 73 25 74 26 75 27 76 28 77
REMARK H PARENT 31 4 36 13 59 34 20 49 16 55 8 60 13 70 27 78 27 79 28 80
REMARK H PARENT 28 81
REMARK Flexibility Score:  259.900
ROOT
ATOM      1  O   UNL     1      -5.593  -0.533  10.200  1.00  0.00    -0.273 OA
ATOM      2  N   UNL     1      -6.986  -1.014   8.451  1.00  0.00    -0.343 N 
ATOM      3  C   UNL     1      -6.726  -0.775   9.784  1.00  0.00     0.243 C 
ATOM      4  H   UNL     1      -7.933  -1.194   8.143  1.00  0.00     0.164 HD
ENDROOT
BRANCH   2   5
ATOM      5  C   UNL     1      -5.895  -1.107   7.487  1.00  0.00     0.171 C 
ATOM      6  C   UNL     1      -5.736  -2.181   4.799  1.00  0.00     0.214 C 
ATOM      7  N   UNL     1      -5.434  -3.035   5.925  1.00  0.00    -0.303 N 
ATOM      8  C   UNL     1      -5.411  -0.717   5.051  1.00  0.00     0.057 C 
ATOM      9  C   UNL     1      -5.540  -2.600   7.236  1.00  0.00     0.247 C 
ATOM     10  C   UNL     1      -6.164  -0.227   6.268  1.00  0.00     0.040 C 
ATOM     11  O   UNL     1      -5.364  -3.362   8.196  1.00  0.00    -0.272 OA
BRANCH   6  12
ATOM     12  O   UNL     1      -7.103  -2.337   4.495  1.00  0.00    -0.373 OA
ATOM     13  H   UNL     1      -7.159  -2.590   3.549  1.00  0.00     0.213 HD
ENDBRANCH   6  12
BRANCH   7  14
ATOM     14  C   UNL     1      -5.145  -4.455   5.630  1.00  0.00     0.177 C 
BRANCH  14  15
ATOM     15  C   UNL     1      -5.891  -5.038   4.415  1.00  0.00     0.038 C 
BRANCH  15  16
ATOM     16  C   UNL     1      -7.105  -5.966   4.640  1.00  0.00    -0.015 C 
ATOM     17  C   UNL     1      -7.851  -5.646   5.939  1.00  0.00     0.007 C 
ATOM     18  C   UNL     1      -6.638  -7.426   4.701  1.00  0.00     0.007 C 
ENDBRANCH  15  16
ENDBRANCH  14  15
BRANCH  14  19
ATOM     19  C   UNL     1      -3.676  -4.808   6.048  1.00  0.00     0.245 C 
ATOM     20  O   UNL     1      -2.772  -4.106   5.564  1.00  0.00    -0.272 OA
BRANCH  19  21
ATOM     21  N   UNL     1      -3.336  -5.905   6.820  1.00  0.00    -0.332 N 
ATOM     22  C   UNL     1      -3.407  -7.291   6.392  1.00  0.00     0.147 C 
BRANCH  21  23
ATOM     23  C   UNL     1      -2.867  -5.658   8.212  1.00  0.00     0.178 C 
BRANCH  23  24
ATOM     24  C   UNL     1      -2.248  -4.265   8.447  1.00  0.00     0.070 C 
BRANCH  24  25
ATOM     25  C   UNL     1      -0.758  -4.207   8.692  1.00  0.00    -0.045 A 
ATOM     26  C   UNL     1       0.133  -4.902   7.864  1.00  0.00     0.004 A 
ATOM     27  C   UNL     1      -0.245  -3.456   9.760  1.00  0.00     0.004 A 
ATOM     28  C   UNL     1       1.508  -4.857   8.108  1.00  0.00     0.000 A 
ATOM     29  C   UNL     1       1.129  -3.410  10.002  1.00  0.00     0.000 A 
ATOM     30  C   UNL     1       2.004  -4.114   9.177  1.00  0.00     0.000 A 
ENDBRANCH  24  25
ENDBRANCH  23  24
BRANCH  23  31
ATOM     31  C   UNL     1      -3.891  -6.105   9.282  1.00  0.00     0.243 C 
ATOM     32  O   UNL     1      -3.585  -6.485  10.409  1.00  0.00    -0.273 OA
ATOM     33  N   UNL     1      -5.183  -6.217   8.798  1.00  0.00    -0.341 N 
ATOM     34  H   UNL     1      -5.376  -5.889   7.849  1.00  0.00     0.164 HD
BRANCH  33  35
ATOM     35  C   UNL     1      -6.294  -6.736   9.601  1.00  0.00     0.194 C 
BRANCH  35  36
ATOM     36  C   UNL     1      -7.280  -7.642   8.810  1.00  0.00     0.017 C 
ATOM     37  C   UNL     1      -8.300  -8.311   9.748  1.00  0.00     0.010 C 
ATOM     38  C   UNL     1      -6.578  -8.757   8.025  1.00  0.00     0.010 C 
ENDBRANCH  35  36
BRANCH  35  39
ATOM     39  C   UNL     1      -7.036  -5.620  10.388  1.00  0.00     0.329 C 
ATOM     40  O   UNL     1      -7.821  -4.827   9.879  1.00  0.00    -0.250 OA
BRANCH  39  41
ATOM     41  O   UNL     1      -6.784  -5.674  11.730  1.00  0.00    -0.458 OA
BRANCH  41  42
ATOM     42  C   UNL     1      -6.256  -4.468  12.332  1.00  0.00     0.205 CG0
ATOM     43  C   UNL     1      -5.113  -4.885  13.257  1.00  0.00     0.056 C 
ATOM     44  G   UNL     1      -7.395  -3.756  13.088  1.00  0.00     0.000 G0
ENDBRANCH  41  42
ENDBRANCH  39  41
ENDBRANCH  35  39
ENDBRANCH  33  35
ENDBRANCH  23  31
ENDBRANCH  21  23
ENDBRANCH  19  21
ENDBRANCH  14  19
ENDBRANCH   7  14
ENDBRANCH   2   5
BRANCH   3  45
ATOM     45  C   UNL     1      -7.950  -0.811  10.709  1.00  0.00     0.171 C 
BRANCH  45  46
ATOM     46  N   UNL     1      -7.920  -2.118  11.352  1.00  0.00    -0.342 N 
ATOM     47  C   UNL     1      -7.484  -2.294  12.640  1.00  0.00     0.247 C 
ATOM     48  O   UNL     1      -7.156  -1.357  13.370  1.00  0.00    -0.273 OA
ATOM     49  H   UNL     1      -8.236  -2.914  10.802  1.00  0.00     0.164 HD
BRANCH  47  50
ATOM     50  C   UNL     1      -7.405  -3.755  13.106  1.00  0.00     0.212 CG0
ATOM     51  G   UNL     1      -6.279  -4.441  12.306  1.00  0.00     0.000 G0
BRANCH  50  52
ATOM     52  N   UNL     1      -7.139  -3.694  14.540  1.00  0.00    -0.339 N 
ATOM     53  C   UNL     1      -8.083  -3.977  15.497  1.00  0.00     0.243 C 
ATOM     54  O   UNL     1      -9.246  -4.254  15.218  1.00  0.00    -0.273 OA
ATOM     55  H   UNL     1      -6.224  -3.362  14.837  1.00  0.00     0.164 HD
BRANCH  53  56
ATOM     56  C   UNL     1      -7.595  -3.759  16.944  1.00  0.00     0.182 C 
BRANCH  56  57
ATOM     57  N   UNL     1      -6.416  -2.888  16.976  1.00  0.00    -0.344 N 
ATOM     58  C   UNL     1      -6.066  -2.164  18.090  1.00  0.00     0.220 C 
ATOM     59  O   UNL     1      -6.752  -2.137  19.106  1.00  0.00    -0.275 OA
ATOM     60  H   UNL     1      -5.769  -2.961  16.196  1.00  0.00     0.164 HD
BRANCH  58  61
ATOM     61  C   UNL     1      -4.779  -1.380  17.917  1.00  0.00     0.100 C 
BRANCH  61  62
ATOM     62  C   UNL     1      -4.971   0.136  17.957  1.00  0.00     0.010 C 
BRANCH  62  63
ATOM     63  C   UNL     1      -6.359   0.605  17.504  1.00  0.00     0.000 C 
BRANCH  63  64
ATOM     64  C   UNL     1      -7.158   1.334  18.583  1.00  0.00    -0.003 C 
ATOM     65  C   UNL     1      -8.339   2.087  17.987  1.00  0.00     0.004 C 
ENDBRANCH  63  64
ENDBRANCH  62  63
ENDBRANCH  61  62
ENDBRANCH  58  61
ENDBRANCH  56  57
BRANCH  56  66
ATOM     66  C   UNL     1      -7.351  -5.087  17.658  1.00  0.00     0.157 C 
BRANCH  66  67
ATOM     67  C   UNL     1      -8.426  -5.367  18.668  1.00  0.00     0.305 C 
ATOM     68  O   UNL     1      -8.293  -5.432  19.881  1.00  0.00    -0.252 OA
BRANCH  67  69
ATOM     69  O   UNL     1      -9.640  -5.502  18.100  1.00  0.00    -0.481 OA
ATOM     70  H   UNL     1     -10.110  -6.150  18.666  1.00  0.00     0.296 HD
ENDBRANCH  67  69
ENDBRANCH  66  67
ENDBRANCH  56  66
ENDBRANCH  53  56
ENDBRANCH  50  52
ENDBRANCH  47  50
ENDBRANCH  45  46
BRANCH  45  71
ATOM     71  C   UNL     1      -9.236  -0.607   9.900  1.00  0.00     0.037 C 
BRANCH  71  72
ATOM     72  C   UNL     1     -10.322   0.101  10.714  1.00  0.00     0.026 C 
BRANCH  72  73
ATOM     73  C   UNL     1     -10.950  -0.835  11.744  1.00  0.00     0.146 C 
BRANCH  73  74
ATOM     74  N   UNL     1     -10.472  -0.433  13.063  1.00  0.00    -0.254 NA
ATOM     75  C   UNL     1     -10.785  -1.170  14.064  1.00  0.00     0.185 C 
ATOM     76  N   UNL     1     -10.359  -0.826  15.291  1.00  0.00    -0.370 N 
ATOM     77  N   UNL     1     -11.514  -2.299  14.087  1.00  0.00    -0.370 N 
ATOM     78  H   UNL     1      -9.809   0.018  15.364  1.00  0.00     0.159 HD
ATOM     79  H   UNL     1     -10.682  -1.269  16.133  1.00  0.00     0.159 HD
ATOM     80  H   UNL     1     -11.897  -2.680  13.235  1.00  0.00     0.159 HD
ATOM     81  H   UNL     1     -11.597  -2.858  14.920  1.00  0.00     0.159 HD
ENDBRANCH  73  74
ENDBRANCH  72  73
ENDBRANCH  71  72
ENDBRANCH  45  71
ENDBRANCH   3  45
TORSDOF 20
ENDMDL
MODEL 42
REMARK VINA RESULT:    -5.739      4.060      6.894
REMARK INTER + INTRA:         -23.860
REMARK INTER:                 -19.262
REMARK INTRA:                  -4.598
REMARK UNBOUND:                -7.386
REMARK SMILES CCCCCC(=O)N[C@H](CC(=O)O)C(=O)N[C@H]1C(=O)N[C@H](CCCN=C(N)N)C(=O)N[C@@H]2CC[C@H](O)N(C2=O)[C@@H](CC(C)C)C(=O)N(C)[C@@H](Cc2ccccc2)C(=O)N[C@H](C(C)C)C(=O)O[C@@H]1C
REMARK SMILES IDX 30 1 31 2 29 3 32 5 35 6 37 7 34 8 38 9 33 10 39 11 36 12
REMARK SMILES IDX 40 14 41 15 42 16 43 17 44 18 45 19 46 20 47 21 48 22 49 23
REMARK SMILES IDX 50 24 51 25 52 26 56 27 53 28 55 29 54 30 57 31 58 32 59 33
REMARK SMILES IDX 60 35 61 36 62 37 63 38 64 39 65 40 66 41 67 42 68 43 21 45
REMARK SMILES IDX 20 46 18 47 19 48 17 50 16 52 14 53 15 54 9 56 8 57 6 58
REMARK SMILES IDX 7 59 5 61 4 62 3 63 2 64 1 65 10 66 11 67 12 68 13 69 22 71
REMARK SMILES IDX 23 72 24 73 25 74 26 75 27 76 28 77
REMARK H PARENT 31 4 36 13 59 34 20 49 16 55 8 60 13 70 27 78 27 79 28 80
REMARK H PARENT 28 81
REMARK Flexibility Score:  259.900
ROOT
ATOM      1  O   UNL     1      -1.434  -0.677   9.112  1.00  0.00    -0.273 OA
ATOM      2  N   UNL     1      -3.433  -1.556   9.791  1.00  0.00    -0.343 N 
ATOM      3  C   UNL     1      -2.087  -1.301   9.948  1.00  0.00     0.243 C 
ATOM      4  H   UNL     1      -3.942  -2.061  10.507  1.00  0.00     0.164 HD
ENDROOT
BRANCH   2   5
ATOM      5  C   UNL     1      -4.118  -1.194   8.555  1.00  0.00     0.171 C 
ATOM      6  C   UNL     1      -6.597  -2.090   7.349  1.00  0.00     0.214 C 
ATOM      7  N   UNL     1      -5.362  -2.760   7.015  1.00  0.00    -0.303 N 
ATOM      8  C   UNL     1      -6.410  -0.621   7.695  1.00  0.00     0.057 C 
ATOM      9  C   UNL     1      -4.151  -2.416   7.593  1.00  0.00     0.247 C 
ATOM     10  C   UNL     1      -5.440  -0.486   8.848  1.00  0.00     0.040 C 
ATOM     11  O   UNL     1      -3.112  -3.051   7.367  1.00  0.00    -0.272 OA
BRANCH   6  12
ATOM     12  O   UNL     1      -7.183  -2.780   8.428  1.00  0.00    -0.373 OA
ATOM     13  H   UNL     1      -7.457  -2.105   9.085  1.00  0.00     0.213 HD
ENDBRANCH   6  12
BRANCH   7  14
ATOM     14  C   UNL     1      -5.458  -3.941   6.130  1.00  0.00     0.177 C 
BRANCH  14  15
ATOM     15  C   UNL     1      -4.784  -3.784   4.753  1.00  0.00     0.038 C 
BRANCH  15  16
ATOM     16  C   UNL     1      -5.656  -3.515   3.506  1.00  0.00    -0.015 C 
ATOM     17  C   UNL     1      -4.857  -3.612   2.203  1.00  0.00     0.007 C 
ATOM     18  C   UNL     1      -6.265  -2.110   3.592  1.00  0.00     0.007 C 
ENDBRANCH  15  16
ENDBRANCH  14  15
BRANCH  14  19
ATOM     19  C   UNL     1      -5.487  -5.257   6.981  1.00  0.00     0.245 C 
ATOM     20  O   UNL     1      -6.474  -5.425   7.717  1.00  0.00    -0.272 OA
BRANCH  19  21
ATOM     21  N   UNL     1      -4.443  -6.162   7.038  1.00  0.00    -0.332 N 
ATOM     22  C   UNL     1      -4.079  -7.096   5.987  1.00  0.00     0.147 C 
BRANCH  21  23
ATOM     23  C   UNL     1      -3.621  -6.200   8.279  1.00  0.00     0.178 C 
BRANCH  23  24
ATOM     24  C   UNL     1      -2.202  -5.615   8.132  1.00  0.00     0.070 C 
BRANCH  24  25
ATOM     25  C   UNL     1      -1.302  -5.678   9.344  1.00  0.00    -0.045 A 
ATOM     26  C   UNL     1      -1.594  -6.539  10.410  1.00  0.00     0.004 A 
ATOM     27  C   UNL     1      -0.160  -4.866   9.421  1.00  0.00     0.004 A 
ATOM     28  C   UNL     1      -0.767  -6.578  11.535  1.00  0.00     0.000 A 
ATOM     29  C   UNL     1       0.666  -4.908  10.545  1.00  0.00     0.000 A 
ATOM     30  C   UNL     1       0.360  -5.762  11.603  1.00  0.00     0.000 A 
ENDBRANCH  24  25
ENDBRANCH  23  24
BRANCH  23  31
ATOM     31  C   UNL     1      -4.396  -5.723   9.530  1.00  0.00     0.243 C 
ATOM     32  O   UNL     1      -4.349  -4.577   9.972  1.00  0.00    -0.273 OA
ATOM     33  N   UNL     1      -5.009  -6.750  10.227  1.00  0.00    -0.341 N 
ATOM     34  H   UNL     1      -5.010  -7.685   9.811  1.00  0.00     0.164 HD
BRANCH  33  35
ATOM     35  C   UNL     1      -5.698  -6.550  11.505  1.00  0.00     0.194 C 
BRANCH  35  36
ATOM     36  C   UNL     1      -6.950  -5.633  11.414  1.00  0.00     0.017 C 
ATOM     37  C   UNL     1      -7.739  -5.632  12.735  1.00  0.00     0.010 C 
ATOM     38  C   UNL     1      -7.920  -6.044  10.300  1.00  0.00     0.010 C 
ENDBRANCH  35  36
BRANCH  35  39
ATOM     39  C   UNL     1      -4.734  -6.104  12.640  1.00  0.00     0.329 C 
ATOM     40  O   UNL     1      -3.869  -6.823  13.127  1.00  0.00    -0.250 OA
BRANCH  39  41
ATOM     41  O   UNL     1      -4.900  -4.789  12.977  1.00  0.00    -0.458 OA
BRANCH  41  42
ATOM     42  C   UNL     1      -4.280  -4.361  14.213  1.00  0.00     0.205 CG0
ATOM     43  C   UNL     1      -5.311  -4.544  15.325  1.00  0.00     0.056 C 
ATOM     44  G   UNL     1      -3.835  -2.894  14.058  1.00  0.00     0.000 G0
ENDBRANCH  41  42
ENDBRANCH  39  41
ENDBRANCH  35  39
ENDBRANCH  33  35
ENDBRANCH  23  31
ENDBRANCH  21  23
ENDBRANCH  19  21
ENDBRANCH  14  19
ENDBRANCH   7  14
ENDBRANCH   2   5
BRANCH   3  45
ATOM     45  C   UNL     1      -1.466  -1.830  11.248  1.00  0.00     0.171 C 
BRANCH  45  46
ATOM     46  N   UNL     1      -2.565  -1.931  12.198  1.00  0.00    -0.342 N 
ATOM     47  C   UNL     1      -2.550  -2.811  13.251  1.00  0.00     0.247 C 
ATOM     48  O   UNL     1      -1.580  -3.523  13.512  1.00  0.00    -0.273 OA
ATOM     49  H   UNL     1      -3.365  -1.319  12.051  1.00  0.00     0.164 HD
BRANCH  47  50
ATOM     50  C   UNL     1      -3.846  -2.865  14.072  1.00  0.00     0.212 CG0
ATOM     51  G   UNL     1      -4.237  -4.348  14.230  1.00  0.00     0.000 G0
BRANCH  50  52
ATOM     52  N   UNL     1      -3.532  -2.213  15.340  1.00  0.00    -0.339 N 
ATOM     53  C   UNL     1      -3.665  -0.861  15.547  1.00  0.00     0.243 C 
ATOM     54  O   UNL     1      -4.011  -0.086  14.660  1.00  0.00    -0.273 OA
ATOM     55  H   UNL     1      -3.135  -2.786  16.081  1.00  0.00     0.164 HD
BRANCH  53  56
ATOM     56  C   UNL     1      -3.191  -0.390  16.937  1.00  0.00     0.182 C 
BRANCH  56  57
ATOM     57  N   UNL     1      -3.387   1.054  17.099  1.00  0.00    -0.344 N 
ATOM     58  C   UNL     1      -4.521   1.585  17.663  1.00  0.00     0.220 C 
ATOM     59  O   UNL     1      -5.477   0.896  18.003  1.00  0.00    -0.275 OA
ATOM     60  H   UNL     1      -2.582   1.650  16.925  1.00  0.00     0.164 HD
BRANCH  58  61
ATOM     61  C   UNL     1      -4.483   3.097  17.783  1.00  0.00     0.100 C 
BRANCH  61  62
ATOM     62  C   UNL     1      -4.890   3.827  16.503  1.00  0.00     0.010 C 
BRANCH  62  63
ATOM     63  C   UNL     1      -3.717   4.168  15.574  1.00  0.00     0.000 C 
BRANCH  63  64
ATOM     64  C   UNL     1      -2.450   4.612  16.303  1.00  0.00    -0.003 C 
ATOM     65  C   UNL     1      -1.258   4.670  15.359  1.00  0.00     0.004 C 
ENDBRANCH  63  64
ENDBRANCH  62  63
ENDBRANCH  61  62
ENDBRANCH  58  61
ENDBRANCH  56  57
BRANCH  56  66
ATOM     66  C   UNL     1      -1.748  -0.810  17.209  1.00  0.00     0.157 C 
BRANCH  66  67
ATOM     67  C   UNL     1      -0.776   0.135  16.563  1.00  0.00     0.305 C 
ATOM     68  O   UNL     1      -0.789   1.355  16.625  1.00  0.00    -0.252 OA
BRANCH  67  69
ATOM     69  O   UNL     1       0.206  -0.511  15.906  1.00  0.00    -0.481 OA
ATOM     70  H   UNL     1       0.901   0.166  15.766  1.00  0.00     0.296 HD
ENDBRANCH  67  69
ENDBRANCH  66  67
ENDBRANCH  56  66
ENDBRANCH  53  56
ENDBRANCH  50  52
ENDBRANCH  47  50
ENDBRANCH  45  46
BRANCH  45  71
ATOM     71  C   UNL     1      -0.375  -0.875  11.745  1.00  0.00     0.037 C 
BRANCH  71  72
ATOM     72  C   UNL     1       0.925  -1.611  12.082  1.00  0.00     0.026 C 
BRANCH  72  73
ATOM     73  C   UNL     1       2.070  -0.635  12.341  1.00  0.00     0.146 C 
BRANCH  73  74
ATOM     74  N   UNL     1       2.059  -0.299  13.762  1.00  0.00    -0.254 NA
ATOM     75  C   UNL     1       3.051   0.365  14.228  1.00  0.00     0.185 C 
ATOM     76  N   UNL     1       3.068   0.690  15.531  1.00  0.00    -0.370 N 
ATOM     77  N   UNL     1       4.142   0.817  13.586  1.00  0.00    -0.370 N 
ATOM     78  H   UNL     1       2.285   0.381  16.090  1.00  0.00     0.159 HD
ATOM     79  H   UNL     1       3.871   1.078  15.995  1.00  0.00     0.159 HD
ATOM     80  H   UNL     1       4.263   0.650  12.599  1.00  0.00     0.159 HD
ATOM     81  H   UNL     1       4.803   1.429  14.035  1.00  0.00     0.159 HD
ENDBRANCH  73  74
ENDBRANCH  72  73
ENDBRANCH  71  72
ENDBRANCH  45  71
ENDBRANCH   3  45
TORSDOF 20
ENDMDL
MODEL 43
REMARK VINA RESULT:    -5.712      3.740      6.639
REMARK INTER + INTRA:         -23.783
REMARK INTER:                 -18.636
REMARK INTRA:                  -5.147
REMARK UNBOUND:                -7.386
REMARK SMILES CCCCCC(=O)N[C@H](CC(=O)O)C(=O)N[C@H]1C(=O)N[C@H](CCCN=C(N)N)C(=O)N[C@@H]2CC[C@H](O)N(C2=O)[C@@H](CC(C)C)C(=O)N(C)[C@@H](Cc2ccccc2)C(=O)N[C@H](C(C)C)C(=O)O[C@@H]1C
REMARK SMILES IDX 30 1 31 2 29 3 32 5 35 6 37 7 34 8 38 9 33 10 39 11 36 12
REMARK SMILES IDX 40 14 41 15 42 16 43 17 44 18 45 19 46 20 47 21 48 22 49 23
REMARK SMILES IDX 50 24 51 25 52 26 56 27 53 28 55 29 54 30 57 31 58 32 59 33
REMARK SMILES IDX 60 35 61 36 62 37 63 38 64 39 65 40 66 41 67 42 68 43 21 45
REMARK SMILES IDX 20 46 18 47 19 48 17 50 16 52 14 53 15 54 9 56 8 57 6 58
REMARK SMILES IDX 7 59 5 61 4 62 3 63 2 64 1 65 10 66 11 67 12 68 13 69 22 71
REMARK SMILES IDX 23 72 24 73 25 74 26 75 27 76 28 77
REMARK H PARENT 31 4 36 13 59 34 20 49 16 55 8 60 13 70 27 78 27 79 28 80
REMARK H PARENT 28 81
REMARK Flexibility Score:  259.900
ROOT
ATOM      1  O   UNL     1       0.137  -2.815   8.996  1.00  0.00    -0.273 OA
ATOM      2  N   UNL     1      -2.131  -2.777   9.285  1.00  0.00    -0.343 N 
ATOM      3  C   UNL     1      -0.854  -3.143   9.650  1.00  0.00     0.243 C 
ATOM      4  H   UNL     1      -2.922  -3.052   9.855  1.00  0.00     0.164 HD
ENDROOT
BRANCH   2   5
ATOM      5  C   UNL     1      -2.373  -2.077   8.028  1.00  0.00     0.171 C 
ATOM      6  C   UNL     1      -4.773  -1.008   6.804  1.00  0.00     0.214 C 
ATOM      7  N   UNL     1      -4.369  -2.364   6.510  1.00  0.00    -0.303 N 
ATOM      8  C   UNL     1      -3.605  -0.086   7.112  1.00  0.00     0.057 C 
ATOM      9  C   UNL     1      -3.262  -2.953   7.099  1.00  0.00     0.247 C 
ATOM     10  C   UNL     1      -2.812  -0.636   8.278  1.00  0.00     0.040 C 
ATOM     11  O   UNL     1      -2.973  -4.141   6.909  1.00  0.00    -0.272 OA
BRANCH   6  12
ATOM     12  O   UNL     1      -5.667  -1.052   7.892  1.00  0.00    -0.373 OA
ATOM     13  H   UNL     1      -6.462  -1.542   7.591  1.00  0.00     0.213 HD
ENDBRANCH   6  12
BRANCH   7  14
ATOM     14  C   UNL     1      -5.274  -3.163   5.657  1.00  0.00     0.177 C 
BRANCH  14  15
ATOM     15  C   UNL     1      -4.771  -3.414   4.222  1.00  0.00     0.038 C 
BRANCH  15  16
ATOM     16  C   UNL     1      -5.734  -3.210   3.031  1.00  0.00    -0.015 C 
ATOM     17  C   UNL     1      -5.100  -3.599   1.693  1.00  0.00     0.007 C 
ATOM     18  C   UNL     1      -6.157  -1.737   2.952  1.00  0.00     0.007 C 
ENDBRANCH  15  16
ENDBRANCH  14  15
BRANCH  14  19
ATOM     19  C   UNL     1      -6.078  -4.188   6.528  1.00  0.00     0.245 C 
ATOM     20  O   UNL     1      -5.644  -5.352   6.566  1.00  0.00    -0.272 OA
BRANCH  19  21
ATOM     21  N   UNL     1      -7.280  -3.897   7.150  1.00  0.00    -0.332 N 
ATOM     22  C   UNL     1      -8.596  -4.077   6.565  1.00  0.00     0.147 C 
BRANCH  21  23
ATOM     23  C   UNL     1      -7.232  -3.341   8.530  1.00  0.00     0.178 C 
BRANCH  23  24
ATOM     24  C   UNL     1      -8.611  -3.033   9.150  1.00  0.00     0.070 C 
BRANCH  24  25
ATOM     25  C   UNL     1      -8.851  -1.620   9.628  1.00  0.00    -0.045 A 
ATOM     26  C   UNL     1      -8.761  -0.538   8.743  1.00  0.00     0.004 A 
ATOM     27  C   UNL     1      -9.164  -1.372  10.973  1.00  0.00     0.004 A 
ATOM     28  C   UNL     1      -8.967   0.767   9.197  1.00  0.00     0.000 A 
ATOM     29  C   UNL     1      -9.371  -0.068  11.425  1.00  0.00     0.000 A 
ATOM     30  C   UNL     1      -9.269   1.001  10.536  1.00  0.00     0.000 A 
ENDBRANCH  24  25
ENDBRANCH  23  24
BRANCH  23  31
ATOM     31  C   UNL     1      -6.258  -4.106   9.456  1.00  0.00     0.243 C 
ATOM     32  O   UNL     1      -5.191  -3.650   9.859  1.00  0.00    -0.273 OA
ATOM     33  N   UNL     1      -6.604  -5.433   9.647  1.00  0.00    -0.341 N 
ATOM     34  H   UNL     1      -7.503  -5.758   9.283  1.00  0.00     0.164 HD
BRANCH  33  35
ATOM     35  C   UNL     1      -5.765  -6.379  10.389  1.00  0.00     0.194 C 
BRANCH  35  36
ATOM     36  C   UNL     1      -5.491  -7.711   9.636  1.00  0.00     0.017 C 
ATOM     37  C   UNL     1      -4.159  -7.655   8.868  1.00  0.00     0.010 C 
ATOM     38  C   UNL     1      -6.587  -8.071   8.627  1.00  0.00     0.010 C 
ENDBRANCH  35  36
BRANCH  35  39
ATOM     39  C   UNL     1      -6.278  -6.625  11.836  1.00  0.00     0.329 C 
ATOM     40  O   UNL     1      -6.738  -7.691  12.228  1.00  0.00    -0.250 OA
BRANCH  39  41
ATOM     41  O   UNL     1      -6.079  -5.544  12.649  1.00  0.00    -0.458 OA
BRANCH  41  42
ATOM     42  C   UNL     1      -4.822  -5.503  13.365  1.00  0.00     0.205 CG0
ATOM     43  C   UNL     1      -5.147  -5.510  14.857  1.00  0.00     0.056 C 
ATOM     44  G   UNL     1      -4.052  -4.238  12.935  1.00  0.00     0.000 G0
ENDBRANCH  41  42
ENDBRANCH  39  41
ENDBRANCH  35  39
ENDBRANCH  33  35
ENDBRANCH  23  31
ENDBRANCH  21  23
ENDBRANCH  19  21
ENDBRANCH  14  19
ENDBRANCH   7  14
ENDBRANCH   2   5
BRANCH   3  45
ATOM     45  C   UNL     1      -0.750  -3.969  10.939  1.00  0.00     0.171 C 
BRANCH  45  46
ATOM     46  N   UNL     1      -1.973  -3.695  11.682  1.00  0.00    -0.342 N 
ATOM     47  C   UNL     1      -2.706  -4.687  12.284  1.00  0.00     0.247 C 
ATOM     48  O   UNL     1      -2.347  -5.865  12.305  1.00  0.00    -0.273 OA
ATOM     49  H   UNL     1      -2.277  -2.725  11.737  1.00  0.00     0.164 HD
BRANCH  47  50
ATOM     50  C   UNL     1      -4.029  -4.227  12.913  1.00  0.00     0.212 CG0
ATOM     51  G   UNL     1      -4.808  -5.488  13.337  1.00  0.00     0.000 G0
BRANCH  50  52
ATOM     52  N   UNL     1      -3.650  -3.377  14.038  1.00  0.00    -0.339 N 
ATOM     53  C   UNL     1      -3.537  -2.011  13.949  1.00  0.00     0.243 C 
ATOM     54  O   UNL     1      -3.694  -1.401  12.894  1.00  0.00    -0.273 OA
ATOM     55  H   UNL     1      -3.399  -3.834  14.913  1.00  0.00     0.164 HD
BRANCH  53  56
ATOM     56  C   UNL     1      -3.040  -1.336  15.244  1.00  0.00     0.182 C 
BRANCH  56  57
ATOM     57  N   UNL     1      -4.083  -0.487  15.828  1.00  0.00    -0.344 N 
ATOM     58  C   UNL     1      -4.689  -0.783  17.025  1.00  0.00     0.220 C 
ATOM     59  O   UNL     1      -4.454  -1.811  17.651  1.00  0.00    -0.275 OA
ATOM     60  H   UNL     1      -4.234   0.421  15.395  1.00  0.00     0.164 HD
BRANCH  58  61
ATOM     61  C   UNL     1      -5.695   0.265  17.465  1.00  0.00     0.100 C 
BRANCH  61  62
ATOM     62  C   UNL     1      -5.056   1.540  18.016  1.00  0.00     0.010 C 
BRANCH  62  63
ATOM     63  C   UNL     1      -5.081   2.725  17.042  1.00  0.00     0.000 C 
BRANCH  63  64
ATOM     64  C   UNL     1      -3.790   2.907  16.244  1.00  0.00    -0.003 C 
ATOM     65  C   UNL     1      -4.032   3.707  14.972  1.00  0.00     0.004 C 
ENDBRANCH  63  64
ENDBRANCH  62  63
ENDBRANCH  61  62
ENDBRANCH  58  61
ENDBRANCH  56  57
BRANCH  56  66
ATOM     66  C   UNL     1      -1.737  -0.573  15.013  1.00  0.00     0.157 C 
BRANCH  66  67
ATOM     67  C   UNL     1      -0.976  -0.397  16.296  1.00  0.00     0.305 C 
ATOM     68  O   UNL     1      -1.447  -0.275  17.416  1.00  0.00    -0.252 OA
BRANCH  67  69
ATOM     69  O   UNL     1       0.357  -0.437  16.109  1.00  0.00    -0.481 OA
ATOM     70  H   UNL     1       0.531   0.225  15.407  1.00  0.00     0.296 HD
ENDBRANCH  67  69
ENDBRANCH  66  67
ENDBRANCH  56  66
ENDBRANCH  53  56
ENDBRANCH  50  52
ENDBRANCH  47  50
ENDBRANCH  45  46
BRANCH  45  71
ATOM     71  C   UNL     1       0.496  -3.563  11.734  1.00  0.00     0.037 C 
BRANCH  71  72
ATOM     72  C   UNL     1       0.572  -2.050  11.955  1.00  0.00     0.026 C 
BRANCH  72  73
ATOM     73  C   UNL     1       2.006  -1.538  11.838  1.00  0.00     0.146 C 
BRANCH  73  74
ATOM     74  N   UNL     1       2.167  -0.442  12.788  1.00  0.00    -0.254 NA
ATOM     75  C   UNL     1       3.224   0.278  12.699  1.00  0.00     0.185 C 
ATOM     76  N   UNL     1       3.401   1.294  13.558  1.00  0.00    -0.370 N 
ATOM     77  N   UNL     1       4.246   0.174  11.831  1.00  0.00    -0.370 N 
ATOM     78  H   UNL     1       2.680   1.438  14.251  1.00  0.00     0.159 HD
ATOM     79  H   UNL     1       4.262   1.805  13.642  1.00  0.00     0.159 HD
ATOM     80  H   UNL     1       4.248  -0.545  11.123  1.00  0.00     0.159 HD
ATOM     81  H   UNL     1       4.971   0.870  11.783  1.00  0.00     0.159 HD
ENDBRANCH  73  74
ENDBRANCH  72  73
ENDBRANCH  71  72
ENDBRANCH  45  71
ENDBRANCH   3  45
TORSDOF 20
ENDMDL
MODEL 44
REMARK VINA RESULT:    -5.655      2.708      6.134
REMARK INTER + INTRA:         -23.620
REMARK INTER:                 -18.951
REMARK INTRA:                  -4.669
REMARK UNBOUND:                -7.386
REMARK SMILES CCCCCC(=O)N[C@H](CC(=O)O)C(=O)N[C@H]1C(=O)N[C@H](CCCN=C(N)N)C(=O)N[C@@H]2CC[C@H](O)N(C2=O)[C@@H](CC(C)C)C(=O)N(C)[C@@H](Cc2ccccc2)C(=O)N[C@H](C(C)C)C(=O)O[C@@H]1C
REMARK SMILES IDX 30 1 31 2 29 3 32 5 35 6 37 7 34 8 38 9 33 10 39 11 36 12
REMARK SMILES IDX 40 14 41 15 42 16 43 17 44 18 45 19 46 20 47 21 48 22 49 23
REMARK SMILES IDX 50 24 51 25 52 26 56 27 53 28 55 29 54 30 57 31 58 32 59 33
REMARK SMILES IDX 60 35 61 36 62 37 63 38 64 39 65 40 66 41 67 42 68 43 21 45
REMARK SMILES IDX 20 46 18 47 19 48 17 50 16 52 14 53 15 54 9 56 8 57 6 58
REMARK SMILES IDX 7 59 5 61 4 62 3 63 2 64 1 65 10 66 11 67 12 68 13 69 22 71
REMARK SMILES IDX 23 72 24 73 25 74 26 75 27 76 28 77
REMARK H PARENT 31 4 36 13 59 34 20 49 16 55 8 60 13 70 27 78 27 79 28 80
REMARK H PARENT 28 81
REMARK Flexibility Score:  259.900
ROOT
ATOM      1  O   UNL     1      -6.225  -2.022  10.935  1.00  0.00    -0.273 OA
ATOM      2  N   UNL     1      -7.328  -1.941   8.933  1.00  0.00    -0.343 N 
ATOM      3  C   UNL     1      -7.281  -2.075  10.304  1.00  0.00     0.243 C 
ATOM      4  H   UNL     1      -8.217  -1.975   8.449  1.00  0.00     0.164 HD
ENDROOT
BRANCH   2   5
ATOM      5  C   UNL     1      -6.099  -1.848   8.153  1.00  0.00     0.171 C 
ATOM      6  C   UNL     1      -5.521  -2.246   5.340  1.00  0.00     0.214 C 
ATOM      7  N   UNL     1      -5.409  -3.360   6.253  1.00  0.00    -0.303 N 
ATOM      8  C   UNL     1      -5.230  -0.903   5.991  1.00  0.00     0.057 C 
ATOM      9  C   UNL     1      -5.718  -3.251   7.599  1.00  0.00     0.247 C 
ATOM     10  C   UNL     1      -6.164  -0.688   7.162  1.00  0.00     0.040 C 
ATOM     11  O   UNL     1      -5.703  -4.230   8.357  1.00  0.00    -0.272 OA
BRANCH   6  12
ATOM     12  O   UNL     1      -6.823  -2.260   4.802  1.00  0.00    -0.373 OA
ATOM     13  H   UNL     1      -6.750  -2.588   3.880  1.00  0.00     0.213 HD
ENDBRANCH   6  12
BRANCH   7  14
ATOM     14  C   UNL     1      -5.086  -4.678   5.666  1.00  0.00     0.177 C 
BRANCH  14  15
ATOM     15  C   UNL     1      -5.902  -5.056   4.415  1.00  0.00     0.038 C 
BRANCH  15  16
ATOM     16  C   UNL     1      -7.045  -6.088   4.535  1.00  0.00    -0.015 C 
ATOM     17  C   UNL     1      -7.866  -5.905   5.815  1.00  0.00     0.007 C 
ATOM     18  C   UNL     1      -6.465  -7.508   4.535  1.00  0.00     0.007 C 
ENDBRANCH  15  16
ENDBRANCH  14  15
BRANCH  14  19
ATOM     19  C   UNL     1      -3.575  -5.023   5.902  1.00  0.00     0.245 C 
ATOM     20  O   UNL     1      -2.768  -4.613   5.051  1.00  0.00    -0.272 OA
BRANCH  19  21
ATOM     21  N   UNL     1      -3.121  -5.838   6.924  1.00  0.00    -0.332 N 
ATOM     22  C   UNL     1      -3.476  -7.234   7.110  1.00  0.00     0.147 C 
BRANCH  21  23
ATOM     23  C   UNL     1      -2.199  -5.243   7.930  1.00  0.00     0.178 C 
BRANCH  23  24
ATOM     24  C   UNL     1      -1.867  -3.754   7.701  1.00  0.00     0.070 C 
BRANCH  24  25
ATOM     25  C   UNL     1      -1.253  -3.000   8.858  1.00  0.00    -0.045 A 
ATOM     26  C   UNL     1      -0.029  -3.403   9.408  1.00  0.00     0.004 A 
ATOM     27  C   UNL     1      -1.906  -1.884   9.401  1.00  0.00     0.004 A 
ATOM     28  C   UNL     1       0.523  -2.711  10.488  1.00  0.00     0.000 A 
ATOM     29  C   UNL     1      -1.352  -1.193  10.479  1.00  0.00     0.000 A 
ATOM     30  C   UNL     1      -0.139  -1.609  11.024  1.00  0.00     0.000 A 
ENDBRANCH  24  25
ENDBRANCH  23  24
BRANCH  23  31
ATOM     31  C   UNL     1      -2.576  -5.610   9.385  1.00  0.00     0.243 C 
ATOM     32  O   UNL     1      -2.069  -6.536  10.014  1.00  0.00    -0.273 OA
ATOM     33  N   UNL     1      -3.675  -4.917   9.864  1.00  0.00    -0.341 N 
ATOM     34  H   UNL     1      -4.058  -4.160   9.292  1.00  0.00     0.164 HD
BRANCH  33  35
ATOM     35  C   UNL     1      -4.282  -5.185  11.170  1.00  0.00     0.194 C 
BRANCH  35  36
ATOM     36  C   UNL     1      -3.253  -5.398  12.317  1.00  0.00     0.017 C 
ATOM     37  C   UNL     1      -3.937  -5.918  13.592  1.00  0.00     0.010 C 
ATOM     38  C   UNL     1      -2.493  -4.120  12.692  1.00  0.00     0.010 C 
ENDBRANCH  35  36
BRANCH  35  39
ATOM     39  C   UNL     1      -5.336  -6.326  11.117  1.00  0.00     0.329 C 
ATOM     40  O   UNL     1      -5.077  -7.508  11.310  1.00  0.00    -0.250 OA
BRANCH  39  41
ATOM     41  O   UNL     1      -6.603  -5.854  10.917  1.00  0.00    -0.458 OA
BRANCH  41  42
ATOM     42  C   UNL     1      -7.665  -6.838  10.943  1.00  0.00     0.205 CG0
ATOM     43  C   UNL     1      -7.642  -7.567   9.601  1.00  0.00     0.056 C 
ATOM     44  G   UNL     1      -9.001  -6.112  11.197  1.00  0.00     0.000 G0
ENDBRANCH  41  42
ENDBRANCH  39  41
ENDBRANCH  35  39
ENDBRANCH  33  35
ENDBRANCH  23  31
ENDBRANCH  21  23
ENDBRANCH  19  21
ENDBRANCH  14  19
ENDBRANCH   7  14
ENDBRANCH   2   5
BRANCH   3  45
ATOM     45  C   UNL     1      -8.639  -2.273  10.991  1.00  0.00     0.171 C 
BRANCH  45  46
ATOM     46  N   UNL     1      -8.665  -3.666  11.418  1.00  0.00    -0.342 N 
ATOM     47  C   UNL     1      -8.903  -4.699  10.547  1.00  0.00     0.247 C 
ATOM     48  O   UNL     1      -9.040  -4.532   9.334  1.00  0.00    -0.273 OA
ATOM     49  H   UNL     1      -8.500  -3.854  12.405  1.00  0.00     0.164 HD
BRANCH  47  50
ATOM     50  C   UNL     1      -9.017  -6.085  11.197  1.00  0.00     0.212 CG0
ATOM     51  G   UNL     1      -7.682  -6.821  10.964  1.00  0.00     0.000 G0
BRANCH  50  52
ATOM     52  N   UNL     1      -9.298  -5.832  12.607  1.00  0.00    -0.339 N 
ATOM     53  C   UNL     1     -10.054  -6.670  13.390  1.00  0.00     0.243 C 
ATOM     54  O   UNL     1     -10.600  -7.677  12.945  1.00  0.00    -0.273 OA
ATOM     55  H   UNL     1      -8.966  -4.956  13.006  1.00  0.00     0.164 HD
BRANCH  53  56
ATOM     56  C   UNL     1     -10.286  -6.152  14.823  1.00  0.00     0.182 C 
BRANCH  56  57
ATOM     57  N   UNL     1      -9.698  -7.059  15.813  1.00  0.00    -0.344 N 
ATOM     58  C   UNL     1      -8.341  -7.173  15.992  1.00  0.00     0.220 C 
ATOM     59  O   UNL     1      -7.527  -6.582  15.291  1.00  0.00    -0.275 OA
ATOM     60  H   UNL     1     -10.334  -7.488  16.480  1.00  0.00     0.164 HD
BRANCH  58  61
ATOM     61  C   UNL     1      -7.959  -8.126  17.110  1.00  0.00     0.100 C 
BRANCH  61  62
ATOM     62  C   UNL     1      -8.778  -7.937  18.387  1.00  0.00     0.010 C 
BRANCH  62  63
ATOM     63  C   UNL     1      -7.933  -7.683  19.642  1.00  0.00     0.000 C 
BRANCH  63  64
ATOM     64  C   UNL     1      -7.804  -6.209  20.022  1.00  0.00    -0.003 C 
ATOM     65  C   UNL     1      -8.145  -5.982  21.488  1.00  0.00     0.004 C 
ENDBRANCH  63  64
ENDBRANCH  62  63
ENDBRANCH  61  62
ENDBRANCH  58  61
ENDBRANCH  56  57
BRANCH  56  66
ATOM     66  C   UNL     1     -11.767  -5.889  15.090  1.00  0.00     0.157 C 
BRANCH  66  67
ATOM     67  C   UNL     1     -12.393  -7.024  15.848  1.00  0.00     0.305 C 
ATOM     68  O   UNL     1     -12.606  -7.074  17.050  1.00  0.00    -0.252 OA
BRANCH  67  69
ATOM     69  O   UNL     1     -12.772  -8.032  15.039  1.00  0.00    -0.481 OA
ATOM     70  H   UNL     1     -13.518  -8.463  15.509  1.00  0.00     0.296 HD
ENDBRANCH  67  69
ENDBRANCH  66  67
ENDBRANCH  56  66
ENDBRANCH  53  56
ENDBRANCH  50  52
ENDBRANCH  47  50
ENDBRANCH  45  46
BRANCH  45  71
ATOM     71  C   UNL     1      -9.781  -1.959  10.019  1.00  0.00     0.037 C 
BRANCH  71  72
ATOM     72  C   UNL     1     -10.741  -0.907  10.579  1.00  0.00     0.026 C 
BRANCH  72  73
ATOM     73  C   UNL     1     -10.317  -0.447  11.972  1.00  0.00     0.146 C 
BRANCH  73  74
ATOM     74  N   UNL     1     -11.446  -0.655  12.874  1.00  0.00    -0.254 NA
ATOM     75  C   UNL     1     -11.196  -0.813  14.121  1.00  0.00     0.185 C 
ATOM     76  N   UNL     1     -12.214  -1.004  14.976  1.00  0.00    -0.370 N 
ATOM     77  N   UNL     1     -10.008  -0.817  14.750  1.00  0.00    -0.370 N 
ATOM     78  H   UNL     1     -13.144  -1.023  14.583  1.00  0.00     0.159 HD
ATOM     79  H   UNL     1     -12.088  -1.278  15.935  1.00  0.00     0.159 HD
ATOM     80  H   UNL     1      -9.152  -0.680  14.233  1.00  0.00     0.159 HD
ATOM     81  H   UNL     1      -9.942  -0.835  15.755  1.00  0.00     0.159 HD
ENDBRANCH  73  74
ENDBRANCH  72  73
ENDBRANCH  71  72
ENDBRANCH  45  71
ENDBRANCH   3  45
TORSDOF 20
ENDMDL
MODEL 45
REMARK VINA RESULT:    -5.622      2.533      8.811
REMARK INTER + INTRA:         -23.526
REMARK INTER:                 -17.835
REMARK INTRA:                  -5.691
REMARK UNBOUND:                -7.386
REMARK SMILES CCCCCC(=O)N[C@H](CC(=O)O)C(=O)N[C@H]1C(=O)N[C@H](CCCN=C(N)N)C(=O)N[C@@H]2CC[C@H](O)N(C2=O)[C@@H](CC(C)C)C(=O)N(C)[C@@H](Cc2ccccc2)C(=O)N[C@H](C(C)C)C(=O)O[C@@H]1C
REMARK SMILES IDX 30 1 31 2 29 3 32 5 35 6 37 7 34 8 38 9 33 10 39 11 36 12
REMARK SMILES IDX 40 14 41 15 42 16 43 17 44 18 45 19 46 20 47 21 48 22 49 23
REMARK SMILES IDX 50 24 51 25 52 26 56 27 53 28 55 29 54 30 57 31 58 32 59 33
REMARK SMILES IDX 60 35 61 36 62 37 63 38 64 39 65 40 66 41 67 42 68 43 21 45
REMARK SMILES IDX 20 46 18 47 19 48 17 50 16 52 14 53 15 54 9 56 8 57 6 58
REMARK SMILES IDX 7 59 5 61 4 62 3 63 2 64 1 65 10 66 11 67 12 68 13 69 22 71
REMARK SMILES IDX 23 72 24 73 25 74 26 75 27 76 28 77
REMARK H PARENT 31 4 36 13 59 34 20 49 16 55 8 60 13 70 27 78 27 79 28 80
REMARK H PARENT 28 81
REMARK Flexibility Score:  259.900
ROOT
ATOM      1  O   UNL     1      -4.816  -9.070  12.080  1.00  0.00    -0.273 OA
ATOM      2  N   UNL     1      -6.133  -7.369  11.305  1.00  0.00    -0.343 N 
ATOM      3  C   UNL     1      -4.944  -8.061  11.385  1.00  0.00     0.243 C 
ATOM      4  H   UNL     1      -6.207  -6.552  10.712  1.00  0.00     0.164 HD
ENDROOT
BRANCH   2   5
ATOM      5  C   UNL     1      -7.267  -7.741  12.144  1.00  0.00     0.171 C 
ATOM      6  C   UNL     1     -10.034  -6.878  12.203  1.00  0.00     0.214 C 
ATOM      7  N   UNL     1      -9.059  -6.193  13.019  1.00  0.00    -0.303 N 
ATOM      8  C   UNL     1      -9.703  -8.344  11.972  1.00  0.00     0.057 C 
ATOM      9  C   UNL     1      -7.713  -6.521  13.000  1.00  0.00     0.247 C 
ATOM     10  C   UNL     1      -8.338  -8.465  11.329  1.00  0.00     0.040 C 
ATOM     11  O   UNL     1      -6.871  -5.874  13.636  1.00  0.00    -0.272 OA
BRANCH   6  12
ATOM     12  O   UNL     1     -10.124  -6.194  10.975  1.00  0.00    -0.373 OA
ATOM     13  H   UNL     1     -10.784  -6.671  10.427  1.00  0.00     0.213 HD
ENDBRANCH   6  12
BRANCH   7  14
ATOM     14  C   UNL     1      -9.529  -5.016  13.779  1.00  0.00     0.177 C 
BRANCH  14  15
ATOM     15  C   UNL     1     -10.837  -4.382  13.265  1.00  0.00     0.038 C 
BRANCH  15  16
ATOM     16  C   UNL     1     -12.064  -4.305  14.201  1.00  0.00    -0.015 C 
ATOM     17  C   UNL     1     -13.388  -4.359  13.433  1.00  0.00     0.007 C 
ATOM     18  C   UNL     1     -12.025  -2.997  15.001  1.00  0.00     0.007 C 
ENDBRANCH  15  16
ENDBRANCH  14  15
BRANCH  14  19
ATOM     19  C   UNL     1      -9.111  -5.138  15.285  1.00  0.00     0.245 C 
ATOM     20  O   UNL     1      -9.371  -6.212  15.852  1.00  0.00    -0.272 OA
BRANCH  19  21
ATOM     21  N   UNL     1      -8.583  -4.096  16.026  1.00  0.00    -0.332 N 
ATOM     22  C   UNL     1      -8.799  -3.876  17.445  1.00  0.00     0.147 C 
BRANCH  21  23
ATOM     23  C   UNL     1      -7.728  -3.102  15.319  1.00  0.00     0.178 C 
BRANCH  23  24
ATOM     24  C   UNL     1      -8.368  -1.710  15.143  1.00  0.00     0.070 C 
BRANCH  24  25
ATOM     25  C   UNL     1      -8.825  -1.333  13.753  1.00  0.00    -0.045 A 
ATOM     26  C   UNL     1      -9.974  -0.555  13.561  1.00  0.00     0.004 A 
ATOM     27  C   UNL     1      -8.103  -1.763  12.630  1.00  0.00     0.004 A 
ATOM     28  C   UNL     1     -10.400  -0.225  12.273  1.00  0.00     0.000 A 
ATOM     29  C   UNL     1      -8.529  -1.432  11.342  1.00  0.00     0.000 A 
ATOM     30  C   UNL     1      -9.679  -0.666  11.165  1.00  0.00     0.000 A 
ENDBRANCH  24  25
ENDBRANCH  23  24
BRANCH  23  31
ATOM     31  C   UNL     1      -6.268  -3.088  15.831  1.00  0.00     0.243 C 
ATOM     32  O   UNL     1      -5.831  -3.861  16.680  1.00  0.00    -0.273 OA
ATOM     33  N   UNL     1      -5.536  -2.002  15.384  1.00  0.00    -0.341 N 
ATOM     34  H   UNL     1      -5.956  -1.389  14.681  1.00  0.00     0.164 HD
BRANCH  33  35
ATOM     35  C   UNL     1      -4.170  -1.720  15.834  1.00  0.00     0.194 C 
BRANCH  35  36
ATOM     36  C   UNL     1      -4.035  -0.424  16.682  1.00  0.00     0.017 C 
ATOM     37  C   UNL     1      -5.207  -0.276  17.667  1.00  0.00     0.010 C 
ATOM     38  C   UNL     1      -3.987   0.852  15.832  1.00  0.00     0.010 C 
ENDBRANCH  35  36
BRANCH  35  39
ATOM     39  C   UNL     1      -3.137  -1.764  14.673  1.00  0.00     0.329 C 
ATOM     40  O   UNL     1      -1.953  -1.471  14.796  1.00  0.00    -0.250 OA
BRANCH  39  41
ATOM     41  O   UNL     1      -3.677  -2.251  13.515  1.00  0.00    -0.458 OA
BRANCH  41  42
ATOM     42  C   UNL     1      -2.830  -3.125  12.731  1.00  0.00     0.205 CG0
ATOM     43  C   UNL     1      -1.729  -2.261  12.118  1.00  0.00     0.056 C 
ATOM     44  G   UNL     1      -3.697  -3.821  11.662  1.00  0.00     0.000 G0
ENDBRANCH  41  42
ENDBRANCH  39  41
ENDBRANCH  35  39
ENDBRANCH  33  35
ENDBRANCH  23  31
ENDBRANCH  21  23
ENDBRANCH  19  21
ENDBRANCH  14  19
ENDBRANCH   7  14
ENDBRANCH   2   5
BRANCH   3  45
ATOM     45  C   UNL     1      -3.799  -7.501  10.532  1.00  0.00     0.171 C 
BRANCH  45  46
ATOM     46  N   UNL     1      -3.916  -6.051  10.619  1.00  0.00    -0.342 N 
ATOM     47  C   UNL     1      -3.358  -5.327  11.643  1.00  0.00     0.247 C 
ATOM     48  O   UNL     1      -2.659  -5.837  12.518  1.00  0.00    -0.273 OA
ATOM     49  H   UNL     1      -4.440  -5.582   9.883  1.00  0.00     0.164 HD
BRANCH  47  50
ATOM     50  C   UNL     1      -3.691  -3.828  11.635  1.00  0.00     0.212 CG0
ATOM     51  G   UNL     1      -2.820  -3.151  12.712  1.00  0.00     0.000 G0
BRANCH  50  52
ATOM     52  N   UNL     1      -3.395  -3.370  10.281  1.00  0.00    -0.339 N 
ATOM     53  C   UNL     1      -4.338  -2.823   9.445  1.00  0.00     0.243 C 
ATOM     54  O   UNL     1      -5.522  -2.727   9.756  1.00  0.00    -0.273 OA
ATOM     55  H   UNL     1      -2.454  -3.525   9.924  1.00  0.00     0.164 HD
BRANCH  53  56
ATOM     56  C   UNL     1      -3.811  -2.494   8.034  1.00  0.00     0.182 C 
BRANCH  56  57
ATOM     57  N   UNL     1      -4.575  -3.208   7.006  1.00  0.00    -0.344 N 
ATOM     58  C   UNL     1      -4.929  -2.625   5.814  1.00  0.00     0.220 C 
ATOM     59  O   UNL     1      -4.696  -1.449   5.556  1.00  0.00    -0.275 OA
ATOM     60  H   UNL     1      -4.699  -4.209   7.136  1.00  0.00     0.164 HD
BRANCH  58  61
ATOM     61  C   UNL     1      -5.664  -3.567   4.878  1.00  0.00     0.100 C 
BRANCH  61  62
ATOM     62  C   UNL     1      -5.042  -3.661   3.485  1.00  0.00     0.010 C 
BRANCH  62  63
ATOM     63  C   UNL     1      -5.867  -2.987   2.382  1.00  0.00     0.000 C 
BRANCH  63  64
ATOM     64  C   UNL     1      -5.570  -1.499   2.198  1.00  0.00    -0.003 C 
ATOM     65  C   UNL     1      -6.832  -0.660   2.335  1.00  0.00     0.004 C 
ENDBRANCH  63  64
ENDBRANCH  62  63
ENDBRANCH  61  62
ENDBRANCH  58  61
ENDBRANCH  56  57
BRANCH  56  66
ATOM     66  C   UNL     1      -2.310  -2.755   7.922  1.00  0.00     0.157 C 
BRANCH  66  67
ATOM     67  C   UNL     1      -2.036  -4.087   7.284  1.00  0.00     0.305 C 
ATOM     68  O   UNL     1      -1.778  -4.297   6.109  1.00  0.00    -0.252 OA
BRANCH  67  69
ATOM     69  O   UNL     1      -2.048  -5.094   8.178  1.00  0.00    -0.481 OA
ATOM     70  H   UNL     1      -1.522  -5.807   7.758  1.00  0.00     0.296 HD
ENDBRANCH  67  69
ENDBRANCH  66  67
ENDBRANCH  56  66
ENDBRANCH  53  56
ENDBRANCH  50  52
ENDBRANCH  47  50
ENDBRANCH  45  46
BRANCH  45  71
ATOM     71  C   UNL     1      -3.920  -7.992   9.086  1.00  0.00     0.037 C 
BRANCH  71  72
ATOM     72  C   UNL     1      -4.771  -7.053   8.228  1.00  0.00     0.026 C 
BRANCH  72  73
ATOM     73  C   UNL     1      -6.072  -7.721   7.787  1.00  0.00     0.146 C 
BRANCH  73  74
ATOM     74  N   UNL     1      -6.814  -6.762   6.974  1.00  0.00    -0.254 NA
ATOM     75  C   UNL     1      -7.190  -7.132   5.806  1.00  0.00     0.185 C 
ATOM     76  N   UNL     1      -7.876  -6.272   5.035  1.00  0.00    -0.370 N 
ATOM     77  N   UNL     1      -6.998  -8.311   5.190  1.00  0.00    -0.370 N 
ATOM     78  H   UNL     1      -8.057  -5.356   5.421  1.00  0.00     0.159 HD
ATOM     79  H   UNL     1      -8.075  -6.436   4.064  1.00  0.00     0.159 HD
ATOM     80  H   UNL     1      -6.500  -9.057   5.652  1.00  0.00     0.159 HD
ATOM     81  H   UNL     1      -7.441  -8.527   4.312  1.00  0.00     0.159 HD
ENDBRANCH  73  74
ENDBRANCH  72  73
ENDBRANCH  71  72
ENDBRANCH  45  71
ENDBRANCH   3  45
TORSDOF 20
ENDMDL
MODEL 46
REMARK VINA RESULT:    -5.607      2.253      5.745
REMARK INTER + INTRA:         -23.481
REMARK INTER:                 -18.314
REMARK INTRA:                  -5.167
REMARK UNBOUND:                -7.386
REMARK SMILES CCCCCC(=O)N[C@H](CC(=O)O)C(=O)N[C@H]1C(=O)N[C@H](CCCN=C(N)N)C(=O)N[C@@H]2CC[C@H](O)N(C2=O)[C@@H](CC(C)C)C(=O)N(C)[C@@H](Cc2ccccc2)C(=O)N[C@H](C(C)C)C(=O)O[C@@H]1C
REMARK SMILES IDX 30 1 31 2 29 3 32 5 35 6 37 7 34 8 38 9 33 10 39 11 36 12
REMARK SMILES IDX 40 14 41 15 42 16 43 17 44 18 45 19 46 20 47 21 48 22 49 23
REMARK SMILES IDX 50 24 51 25 52 26 56 27 53 28 55 29 54 30 57 31 58 32 59 33
REMARK SMILES IDX 60 35 61 36 62 37 63 38 64 39 65 40 66 41 67 42 68 43 21 45
REMARK SMILES IDX 20 46 18 47 19 48 17 50 16 52 14 53 15 54 9 56 8 57 6 58
REMARK SMILES IDX 7 59 5 61 4 62 3 63 2 64 1 65 10 66 11 67 12 68 13 69 22 71
REMARK SMILES IDX 23 72 24 73 25 74 26 75 27 76 28 77
REMARK H PARENT 31 4 36 13 59 34 20 49 16 55 8 60 13 70 27 78 27 79 28 80
REMARK H PARENT 28 81
REMARK Flexibility Score:  259.900
ROOT
ATOM      1  O   UNL     1      -5.372  -2.786  12.199  1.00  0.00    -0.273 OA
ATOM      2  N   UNL     1      -6.601  -2.135  10.384  1.00  0.00    -0.343 N 
ATOM      3  C   UNL     1      -6.465  -2.514  11.702  1.00  0.00     0.243 C 
ATOM      4  H   UNL     1      -7.514  -1.904  10.013  1.00  0.00     0.164 HD
ENDROOT
BRANCH   2   5
ATOM      5  C   UNL     1      -5.454  -2.155   9.483  1.00  0.00     0.171 C 
ATOM      6  C   UNL     1      -5.151  -1.511   6.673  1.00  0.00     0.214 C 
ATOM      7  N   UNL     1      -5.459  -2.868   7.062  1.00  0.00    -0.303 N 
ATOM      8  C   UNL     1      -4.341  -0.755   7.715  1.00  0.00     0.057 C 
ATOM      9  C   UNL     1      -5.666  -3.233   8.382  1.00  0.00     0.247 C 
ATOM     10  C   UNL     1      -5.086  -0.742   9.032  1.00  0.00     0.040 C 
ATOM     11  O   UNL     1      -6.014  -4.378   8.699  1.00  0.00    -0.272 OA
BRANCH   6  12
ATOM     12  O   UNL     1      -6.369  -0.849   6.420  1.00  0.00    -0.373 OA
ATOM     13  H   UNL     1      -6.295  -0.441   5.531  1.00  0.00     0.213 HD
ENDBRANCH   6  12
BRANCH   7  14
ATOM     14  C   UNL     1      -5.692  -3.841   5.974  1.00  0.00     0.177 C 
BRANCH  14  15
ATOM     15  C   UNL     1      -6.514  -3.309   4.783  1.00  0.00     0.038 C 
BRANCH  15  16
ATOM     16  C   UNL     1      -5.788  -2.877   3.490  1.00  0.00    -0.015 C 
ATOM     17  C   UNL     1      -6.374  -1.595   2.891  1.00  0.00     0.007 C 
ATOM     18  C   UNL     1      -5.895  -3.990   2.439  1.00  0.00     0.007 C 
ENDBRANCH  15  16
ENDBRANCH  14  15
BRANCH  14  19
ATOM     19  C   UNL     1      -4.489  -4.840   5.871  1.00  0.00     0.245 C 
ATOM     20  O   UNL     1      -3.621  -4.585   5.019  1.00  0.00    -0.272 OA
BRANCH  19  21
ATOM     21  N   UNL     1      -4.405  -6.022   6.584  1.00  0.00    -0.332 N 
ATOM     22  C   UNL     1      -5.237  -7.194   6.374  1.00  0.00     0.147 C 
BRANCH  21  23
ATOM     23  C   UNL     1      -3.389  -6.110   7.669  1.00  0.00     0.178 C 
BRANCH  23  24
ATOM     24  C   UNL     1      -2.681  -4.780   7.999  1.00  0.00     0.070 C 
BRANCH  24  25
ATOM     25  C   UNL     1      -1.176  -4.815   8.128  1.00  0.00    -0.045 A 
ATOM     26  C   UNL     1      -0.551  -4.475   9.335  1.00  0.00     0.004 A 
ATOM     27  C   UNL     1      -0.380  -5.185   7.033  1.00  0.00     0.004 A 
ATOM     28  C   UNL     1       0.842  -4.493   9.440  1.00  0.00     0.000 A 
ATOM     29  C   UNL     1       1.011  -5.204   7.141  1.00  0.00     0.000 A 
ATOM     30  C   UNL     1       1.621  -4.855   8.344  1.00  0.00     0.000 A 
ENDBRANCH  24  25
ENDBRANCH  23  24
BRANCH  23  31
ATOM     31  C   UNL     1      -3.885  -6.906   8.899  1.00  0.00     0.243 C 
ATOM     32  O   UNL     1      -4.301  -8.061   8.847  1.00  0.00    -0.273 OA
ATOM     33  N   UNL     1      -3.997  -6.140  10.046  1.00  0.00    -0.341 N 
ATOM     34  H   UNL     1      -3.639  -5.182  10.026  1.00  0.00     0.164 HD
BRANCH  33  35
ATOM     35  C   UNL     1      -4.558  -6.653  11.299  1.00  0.00     0.194 C 
BRANCH  35  36
ATOM     36  C   UNL     1      -3.559  -7.492  12.145  1.00  0.00     0.017 C 
ATOM     37  C   UNL     1      -3.262  -6.815  13.494  1.00  0.00     0.010 C 
ATOM     38  C   UNL     1      -2.216  -7.722  11.441  1.00  0.00     0.010 C 
ENDBRANCH  35  36
BRANCH  35  39
ATOM     39  C   UNL     1      -5.907  -7.395  11.090  1.00  0.00     0.329 C 
ATOM     40  O   UNL     1      -6.030  -8.614  11.111  1.00  0.00    -0.250 OA
BRANCH  39  41
ATOM     41  O   UNL     1      -6.961  -6.533  10.966  1.00  0.00    -0.458 OA
BRANCH  41  42
ATOM     42  C   UNL     1      -8.278  -7.095  11.181  1.00  0.00     0.205 CG0
ATOM     43  C   UNL     1      -8.900  -7.332   9.807  1.00  0.00     0.056 C 
ATOM     44  G   UNL     1      -9.099  -6.110  12.038  1.00  0.00     0.000 G0
ENDBRANCH  41  42
ENDBRANCH  39  41
ENDBRANCH  35  39
ENDBRANCH  33  35
ENDBRANCH  23  31
ENDBRANCH  21  23
ENDBRANCH  19  21
ENDBRANCH  14  19
ENDBRANCH   7  14
ENDBRANCH   2   5
BRANCH   3  45
ATOM     45  C   UNL     1      -7.767  -2.554  12.512  1.00  0.00     0.171 C 
BRANCH  45  46
ATOM     46  N   UNL     1      -8.096  -3.966  12.661  1.00  0.00    -0.342 N 
ATOM     47  C   UNL     1      -8.746  -4.677  11.684  1.00  0.00     0.247 C 
ATOM     48  O   UNL     1      -9.033  -4.197  10.587  1.00  0.00    -0.273 OA
ATOM     49  H   UNL     1      -7.825  -4.418  13.532  1.00  0.00     0.164 HD
BRANCH  47  50
ATOM     50  C   UNL     1      -9.119  -6.117  12.067  1.00  0.00     0.212 CG0
ATOM     51  G   UNL     1      -8.294  -7.066  11.175  1.00  0.00     0.000 G0
BRANCH  50  52
ATOM     52  N   UNL     1      -8.800  -6.237  13.487  1.00  0.00    -0.339 N 
ATOM     53  C   UNL     1      -9.660  -6.778  14.411  1.00  0.00     0.243 C 
ATOM     54  O   UNL     1     -10.792  -7.156  14.121  1.00  0.00    -0.273 OA
ATOM     55  H   UNL     1      -7.920  -5.839  13.810  1.00  0.00     0.164 HD
BRANCH  53  56
ATOM     56  C   UNL     1      -9.140  -6.719  15.862  1.00  0.00     0.182 C 
BRANCH  56  57
ATOM     57  N   UNL     1      -8.715  -5.360  16.214  1.00  0.00    -0.344 N 
ATOM     58  C   UNL     1      -9.599  -4.400  16.644  1.00  0.00     0.220 C 
ATOM     59  O   UNL     1     -10.810  -4.588  16.693  1.00  0.00    -0.275 OA
ATOM     60  H   UNL     1      -7.715  -5.195  16.285  1.00  0.00     0.164 HD
BRANCH  58  61
ATOM     61  C   UNL     1      -8.931  -3.088  17.008  1.00  0.00     0.100 C 
BRANCH  61  62
ATOM     62  C   UNL     1      -7.498  -2.960  16.489  1.00  0.00     0.010 C 
BRANCH  62  63
ATOM     63  C   UNL     1      -7.071  -1.522  16.171  1.00  0.00     0.000 C 
BRANCH  63  64
ATOM     64  C   UNL     1      -7.105  -0.577  17.371  1.00  0.00    -0.003 C 
ATOM     65  C   UNL     1      -5.999   0.465  17.289  1.00  0.00     0.004 C 
ENDBRANCH  63  64
ENDBRANCH  62  63
ENDBRANCH  61  62
ENDBRANCH  58  61
ENDBRANCH  56  57
BRANCH  56  66
ATOM     66  C   UNL     1      -8.039  -7.749  16.105  1.00  0.00     0.157 C 
BRANCH  66  67
ATOM     67  C   UNL     1      -6.704  -7.085  16.288  1.00  0.00     0.305 C 
ATOM     68  O   UNL     1      -6.097  -6.938  17.338  1.00  0.00    -0.252 OA
BRANCH  67  69
ATOM     69  O   UNL     1      -6.169  -6.681  15.121  1.00  0.00    -0.481 OA
ATOM     70  H   UNL     1      -5.398  -6.132  15.376  1.00  0.00     0.296 HD
ENDBRANCH  67  69
ENDBRANCH  66  67
ENDBRANCH  56  66
ENDBRANCH  53  56
ENDBRANCH  50  52
ENDBRANCH  47  50
ENDBRANCH  45  46
BRANCH  45  71
ATOM     71  C   UNL     1      -8.876  -1.790  11.779  1.00  0.00     0.037 C 
BRANCH  71  72
ATOM     72  C   UNL     1      -9.636  -0.843  12.711  1.00  0.00     0.026 C 
BRANCH  72  73
ATOM     73  C   UNL     1     -11.145  -1.051  12.612  1.00  0.00     0.146 C 
BRANCH  73  74
ATOM     74  N   UNL     1     -11.403  -2.487  12.673  1.00  0.00    -0.254 NA
ATOM     75  C   UNL     1     -11.810  -2.975  13.786  1.00  0.00     0.185 C 
ATOM     76  N   UNL     1     -12.058  -4.293  13.872  1.00  0.00    -0.370 N 
ATOM     77  N   UNL     1     -12.044  -2.345  14.950  1.00  0.00    -0.370 N 
ATOM     78  H   UNL     1     -11.900  -4.843  13.041  1.00  0.00     0.159 HD
ATOM     79  H   UNL     1     -12.237  -4.766  14.740  1.00  0.00     0.159 HD
ATOM     80  H   UNL     1     -11.905  -1.350  15.032  1.00  0.00     0.159 HD
ATOM     81  H   UNL     1     -12.474  -2.817  15.729  1.00  0.00     0.159 HD
ENDBRANCH  73  74
ENDBRANCH  72  73
ENDBRANCH  71  72
ENDBRANCH  45  71
ENDBRANCH   3  45
TORSDOF 20
ENDMDL
MODEL 47
REMARK VINA RESULT:    -5.590      2.537      5.303
REMARK INTER + INTRA:         -23.434
REMARK INTER:                 -17.711
REMARK INTRA:                  -5.723
REMARK UNBOUND:                -7.386
REMARK SMILES CCCCCC(=O)N[C@H](CC(=O)O)C(=O)N[C@H]1C(=O)N[C@H](CCCN=C(N)N)C(=O)N[C@@H]2CC[C@H](O)N(C2=O)[C@@H](CC(C)C)C(=O)N(C)[C@@H](Cc2ccccc2)C(=O)N[C@H](C(C)C)C(=O)O[C@@H]1C
REMARK SMILES IDX 30 1 31 2 29 3 32 5 35 6 37 7 34 8 38 9 33 10 39 11 36 12
REMARK SMILES IDX 40 14 41 15 42 16 43 17 44 18 45 19 46 20 47 21 48 22 49 23
REMARK SMILES IDX 50 24 51 25 52 26 56 27 53 28 55 29 54 30 57 31 58 32 59 33
REMARK SMILES IDX 60 35 61 36 62 37 63 38 64 39 65 40 66 41 67 42 68 43 21 45
REMARK SMILES IDX 20 46 18 47 19 48 17 50 16 52 14 53 15 54 9 56 8 57 6 58
REMARK SMILES IDX 7 59 5 61 4 62 3 63 2 64 1 65 10 66 11 67 12 68 13 69 22 71
REMARK SMILES IDX 23 72 24 73 25 74 26 75 27 76 28 77
REMARK H PARENT 31 4 36 13 59 34 20 49 16 55 8 60 13 70 27 78 27 79 28 80
REMARK H PARENT 28 81
REMARK Flexibility Score:  259.900
ROOT
ATOM      1  O   UNL     1      -6.375  -4.348   8.787  1.00  0.00    -0.273 OA
ATOM      2  N   UNL     1      -8.374  -3.426   8.167  1.00  0.00    -0.343 N 
ATOM      3  C   UNL     1      -7.388  -3.714   9.086  1.00  0.00     0.243 C 
ATOM      4  H   UNL     1      -9.186  -2.889   8.445  1.00  0.00     0.164 HD
ENDROOT
BRANCH   2   5
ATOM      5  C   UNL     1      -8.311  -3.970   6.815  1.00  0.00     0.171 C 
ATOM      6  C   UNL     1      -6.447  -5.762   5.504  1.00  0.00     0.214 C 
ATOM      7  N   UNL     1      -6.226  -4.336   5.440  1.00  0.00    -0.303 N 
ATOM      8  C   UNL     1      -7.917  -6.139   5.605  1.00  0.00     0.057 C 
ATOM      9  C   UNL     1      -7.048  -3.427   6.086  1.00  0.00     0.247 C 
ATOM     10  C   UNL     1      -8.531  -5.482   6.822  1.00  0.00     0.040 C 
ATOM     11  O   UNL     1      -6.803  -2.214   6.099  1.00  0.00    -0.272 OA
BRANCH   6  12
ATOM     12  O   UNL     1      -5.734  -6.259   6.612  1.00  0.00    -0.373 OA
ATOM     13  H   UNL     1      -4.943  -6.722   6.260  1.00  0.00     0.213 HD
ENDBRANCH   6  12
BRANCH   7  14
ATOM     14  C   UNL     1      -4.989  -3.879   4.772  1.00  0.00     0.177 C 
BRANCH  14  15
ATOM     15  C   UNL     1      -5.146  -2.628   3.885  1.00  0.00     0.038 C 
BRANCH  15  16
ATOM     16  C   UNL     1      -5.858  -2.748   2.520  1.00  0.00    -0.015 C 
ATOM     17  C   UNL     1      -4.984  -3.431   1.463  1.00  0.00     0.007 C 
ATOM     18  C   UNL     1      -6.232  -1.352   2.005  1.00  0.00     0.007 C 
ENDBRANCH  15  16
ENDBRANCH  14  15
BRANCH  14  19
ATOM     19  C   UNL     1      -3.739  -4.212   5.657  1.00  0.00     0.245 C 
ATOM     20  O   UNL     1      -3.104  -5.239   5.364  1.00  0.00    -0.272 OA
BRANCH  19  21
ATOM     21  N   UNL     1      -3.383  -3.500   6.788  1.00  0.00    -0.332 N 
ATOM     22  C   UNL     1      -3.783  -2.136   7.086  1.00  0.00     0.147 C 
BRANCH  21  23
ATOM     23  C   UNL     1      -2.507  -4.173   7.787  1.00  0.00     0.178 C 
BRANCH  23  24
ATOM     24  C   UNL     1      -1.091  -3.574   7.912  1.00  0.00     0.070 C 
BRANCH  24  25
ATOM     25  C   UNL     1      -0.260  -4.013   9.095  1.00  0.00    -0.045 A 
ATOM     26  C   UNL     1      -0.062  -3.161  10.189  1.00  0.00     0.004 A 
ATOM     27  C   UNL     1       0.333  -5.285   9.110  1.00  0.00     0.004 A 
ATOM     28  C   UNL     1       0.722  -3.568  11.271  1.00  0.00     0.000 A 
ATOM     29  C   UNL     1       1.115  -5.691  10.192  1.00  0.00     0.000 A 
ATOM     30  C   UNL     1       1.311  -4.830  11.271  1.00  0.00     0.000 A 
ENDBRANCH  24  25
ENDBRANCH  23  24
BRANCH  23  31
ATOM     31  C   UNL     1      -3.222  -4.441   9.133  1.00  0.00     0.243 C 
ATOM     32  O   UNL     1      -3.431  -3.579   9.983  1.00  0.00    -0.273 OA
ATOM     33  N   UNL     1      -3.444  -5.784   9.384  1.00  0.00    -0.341 N 
ATOM     34  H   UNL     1      -3.244  -6.456   8.639  1.00  0.00     0.164 HD
BRANCH  33  35
ATOM     35  C   UNL     1      -3.999  -6.280  10.646  1.00  0.00     0.194 C 
BRANCH  35  36
ATOM     36  C   UNL     1      -2.927  -6.633  11.715  1.00  0.00     0.017 C 
ATOM     37  C   UNL     1      -2.400  -5.370  12.418  1.00  0.00     0.010 C 
ATOM     38  C   UNL     1      -1.716  -7.375  11.135  1.00  0.00     0.010 C 
ENDBRANCH  35  36
BRANCH  35  39
ATOM     39  C   UNL     1      -5.015  -7.438  10.438  1.00  0.00     0.329 C 
ATOM     40  O   UNL     1      -4.697  -8.589  10.165  1.00  0.00    -0.250 OA
BRANCH  39  41
ATOM     41  O   UNL     1      -6.303  -7.049  10.680  1.00  0.00    -0.458 OA
BRANCH  41  42
ATOM     42  C   UNL     1      -6.908  -7.553  11.895  1.00  0.00     0.205 CG0
ATOM     43  C   UNL     1      -7.815  -8.717  11.502  1.00  0.00     0.056 C 
ATOM     44  G   UNL     1      -7.683  -6.404  12.572  1.00  0.00     0.000 G0
ENDBRANCH  41  42
ENDBRANCH  39  41
ENDBRANCH  35  39
ENDBRANCH  33  35
ENDBRANCH  23  31
ENDBRANCH  21  23
ENDBRANCH  19  21
ENDBRANCH  14  19
ENDBRANCH   7  14
ENDBRANCH   2   5
BRANCH   3  45
ATOM     45  C   UNL     1      -7.629  -3.172  10.501  1.00  0.00     0.171 C 
BRANCH  45  46
ATOM     46  N   UNL     1      -7.321  -4.274  11.403  1.00  0.00    -0.342 N 
ATOM     47  C   UNL     1      -8.098  -5.402  11.480  1.00  0.00     0.247 C 
ATOM     48  O   UNL     1      -9.067  -5.598  10.745  1.00  0.00    -0.273 OA
ATOM     49  H   UNL     1      -6.494  -4.177  11.990  1.00  0.00     0.164 HD
BRANCH  47  50
ATOM     50  C   UNL     1      -7.690  -6.399  12.574  1.00  0.00     0.212 CG0
ATOM     51  G   UNL     1      -6.911  -7.543  11.896  1.00  0.00     0.000 G0
BRANCH  50  52
ATOM     52  N   UNL     1      -6.883  -5.632  13.519  1.00  0.00    -0.339 N 
ATOM     53  C   UNL     1      -7.231  -5.447  14.835  1.00  0.00     0.243 C 
ATOM     54  O   UNL     1      -8.282  -5.872  15.307  1.00  0.00    -0.273 OA
ATOM     55  H   UNL     1      -6.055  -5.160  13.160  1.00  0.00     0.164 HD
BRANCH  53  56
ATOM     56  C   UNL     1      -6.269  -4.530  15.616  1.00  0.00     0.182 C 
BRANCH  56  57
ATOM     57  N   UNL     1      -6.881  -3.222  15.873  1.00  0.00    -0.344 N 
ATOM     58  C   UNL     1      -6.906  -2.654  17.123  1.00  0.00     0.220 C 
ATOM     59  O   UNL     1      -6.488  -3.229  18.122  1.00  0.00    -0.275 OA
ATOM     60  H   UNL     1      -7.146  -2.671  15.061  1.00  0.00     0.164 HD
BRANCH  58  61
ATOM     61  C   UNL     1      -7.536  -1.273  17.143  1.00  0.00     0.100 C 
BRANCH  61  62
ATOM     62  C   UNL     1      -6.987  -0.362  18.242  1.00  0.00     0.010 C 
BRANCH  62  63
ATOM     63  C   UNL     1      -6.748   1.086  17.795  1.00  0.00     0.000 C 
BRANCH  63  64
ATOM     64  C   UNL     1      -7.858   2.057  18.196  1.00  0.00    -0.003 C 
ATOM     65  C   UNL     1      -7.407   2.982  19.316  1.00  0.00     0.004 C 
ENDBRANCH  63  64
ENDBRANCH  62  63
ENDBRANCH  61  62
ENDBRANCH  58  61
ENDBRANCH  56  57
BRANCH  56  66
ATOM     66  C   UNL     1      -4.918  -4.407  14.913  1.00  0.00     0.157 C 
BRANCH  66  67
ATOM     67  C   UNL     1      -4.794  -3.091  14.200  1.00  0.00     0.305 C 
ATOM     68  O   UNL     1      -5.346  -2.767  13.160  1.00  0.00    -0.252 OA
BRANCH  67  69
ATOM     69  O   UNL     1      -4.012  -2.220  14.867  1.00  0.00    -0.481 OA
ATOM     70  H   UNL     1      -3.888  -2.622  15.752  1.00  0.00     0.296 HD
ENDBRANCH  67  69
ENDBRANCH  66  67
ENDBRANCH  56  66
ENDBRANCH  53  56
ENDBRANCH  50  52
ENDBRANCH  47  50
ENDBRANCH  45  46
BRANCH  45  71
ATOM     71  C   UNL     1      -9.081  -2.706  10.653  1.00  0.00     0.037 C 
BRANCH  71  72
ATOM     72  C   UNL     1      -9.286  -1.862  11.914  1.00  0.00     0.026 C 
BRANCH  72  73
ATOM     73  C   UNL     1     -10.711  -1.987  12.447  1.00  0.00     0.146 C 
BRANCH  73  74
ATOM     74  N   UNL     1     -10.922  -3.378  12.837  1.00  0.00    -0.254 NA
ATOM     75  C   UNL     1     -11.788  -3.620  13.750  1.00  0.00     0.185 C 
ATOM     76  N   UNL     1     -12.005  -4.890  14.129  1.00  0.00    -0.370 N 
ATOM     77  N   UNL     1     -12.561  -2.757  14.431  1.00  0.00    -0.370 N 
ATOM     78  H   UNL     1     -11.457  -5.604  13.670  1.00  0.00     0.159 HD
ATOM     79  H   UNL     1     -12.555  -5.142  14.931  1.00  0.00     0.159 HD
ATOM     80  H   UNL     1     -12.508  -1.766  14.249  1.00  0.00     0.159 HD
ATOM     81  H   UNL     1     -13.291  -3.074  15.048  1.00  0.00     0.159 HD
ENDBRANCH  73  74
ENDBRANCH  72  73
ENDBRANCH  71  72
ENDBRANCH  45  71
ENDBRANCH   3  45
TORSDOF 20
ENDMDL
MODEL 48
REMARK VINA RESULT:    -5.548      2.693     10.530
REMARK INTER + INTRA:         -23.313
REMARK INTER:                 -17.408
REMARK INTRA:                  -5.905
REMARK UNBOUND:                -7.386
REMARK SMILES CCCCCC(=O)N[C@H](CC(=O)O)C(=O)N[C@H]1C(=O)N[C@H](CCCN=C(N)N)C(=O)N[C@@H]2CC[C@H](O)N(C2=O)[C@@H](CC(C)C)C(=O)N(C)[C@@H](Cc2ccccc2)C(=O)N[C@H](C(C)C)C(=O)O[C@@H]1C
REMARK SMILES IDX 30 1 31 2 29 3 32 5 35 6 37 7 34 8 38 9 33 10 39 11 36 12
REMARK SMILES IDX 40 14 41 15 42 16 43 17 44 18 45 19 46 20 47 21 48 22 49 23
REMARK SMILES IDX 50 24 51 25 52 26 56 27 53 28 55 29 54 30 57 31 58 32 59 33
REMARK SMILES IDX 60 35 61 36 62 37 63 38 64 39 65 40 66 41 67 42 68 43 21 45
REMARK SMILES IDX 20 46 18 47 19 48 17 50 16 52 14 53 15 54 9 56 8 57 6 58
REMARK SMILES IDX 7 59 5 61 4 62 3 63 2 64 1 65 10 66 11 67 12 68 13 69 22 71
REMARK SMILES IDX 23 72 24 73 25 74 26 75 27 76 28 77
REMARK H PARENT 31 4 36 13 59 34 20 49 16 55 8 60 13 70 27 78 27 79 28 80
REMARK H PARENT 28 81
REMARK Flexibility Score:  259.900
ROOT
ATOM      1  O   UNL     1      -6.980  -2.072  14.034  1.00  0.00    -0.273 OA
ATOM      2  N   UNL     1      -9.249  -1.788  14.060  1.00  0.00    -0.343 N 
ATOM      3  C   UNL     1      -8.037  -1.923  13.419  1.00  0.00     0.243 C 
ATOM      4  H   UNL     1     -10.100  -1.682  13.522  1.00  0.00     0.164 HD
ENDROOT
BRANCH   2   5
ATOM      5  C   UNL     1      -9.314  -1.698  15.515  1.00  0.00     0.171 C 
ATOM      6  C   UNL     1      -7.291  -1.862  17.585  1.00  0.00     0.214 C 
ATOM      7  N   UNL     1      -7.976  -3.062  17.165  1.00  0.00    -0.303 N 
ATOM      8  C   UNL     1      -8.139  -0.607  17.452  1.00  0.00     0.057 C 
ATOM      9  C   UNL     1      -8.916  -3.062  16.147  1.00  0.00     0.247 C 
ATOM     10  C   UNL     1      -8.596  -0.446  16.019  1.00  0.00     0.040 C 
ATOM     11  O   UNL     1      -9.435  -4.108  15.733  1.00  0.00    -0.272 OA
BRANCH   6  12
ATOM     12  O   UNL     1      -6.116  -1.745  16.817  1.00  0.00    -0.373 OA
ATOM     13  H   UNL     1      -5.892  -0.791  16.778  1.00  0.00     0.213 HD
ENDBRANCH   6  12
BRANCH   7  14
ATOM     14  C   UNL     1      -7.528  -4.335  17.767  1.00  0.00     0.177 C 
BRANCH  14  15
ATOM     15  C   UNL     1      -8.520  -4.978  18.756  1.00  0.00     0.038 C 
BRANCH  15  16
ATOM     16  C   UNL     1      -7.993  -5.586  20.075  1.00  0.00    -0.015 C 
ATOM     17  C   UNL     1      -6.639  -5.001  20.488  1.00  0.00     0.007 C 
ATOM     18  C   UNL     1      -7.832  -7.104  19.918  1.00  0.00     0.007 C 
ENDBRANCH  15  16
ENDBRANCH  14  15
BRANCH  14  19
ATOM     19  C   UNL     1      -6.612  -5.118  16.764  1.00  0.00     0.245 C 
ATOM     20  O   UNL     1      -5.679  -4.482  16.246  1.00  0.00    -0.272 OA
BRANCH  19  21
ATOM     21  N   UNL     1      -6.852  -6.417  16.353  1.00  0.00    -0.332 N 
ATOM     22  C   UNL     1      -8.157  -6.977  16.050  1.00  0.00     0.147 C 
BRANCH  21  23
ATOM     23  C   UNL     1      -5.684  -7.330  16.215  1.00  0.00     0.178 C 
BRANCH  23  24
ATOM     24  C   UNL     1      -5.851  -8.700  16.905  1.00  0.00     0.070 C 
BRANCH  24  25
ATOM     25  C   UNL     1      -4.773  -9.115  17.879  1.00  0.00    -0.045 A 
ATOM     26  C   UNL     1      -4.386  -8.268  18.924  1.00  0.00     0.004 A 
ATOM     27  C   UNL     1      -4.140 -10.360  17.744  1.00  0.00     0.004 A 
ATOM     28  C   UNL     1      -3.377  -8.652  19.810  1.00  0.00     0.000 A 
ATOM     29  C   UNL     1      -3.132 -10.743  18.631  1.00  0.00     0.000 A 
ATOM     30  C   UNL     1      -2.750  -9.888  19.662  1.00  0.00     0.000 A 
ENDBRANCH  24  25
ENDBRANCH  23  24
BRANCH  23  31
ATOM     31  C   UNL     1      -5.133  -7.391  14.770  1.00  0.00     0.243 C 
ATOM     32  O   UNL     1      -5.322  -8.331  14.002  1.00  0.00    -0.273 OA
ATOM     33  N   UNL     1      -4.245  -6.371  14.473  1.00  0.00    -0.341 N 
ATOM     34  H   UNL     1      -4.125  -5.619  15.156  1.00  0.00     0.164 HD
BRANCH  33  35
ATOM     35  C   UNL     1      -3.510  -6.295  13.208  1.00  0.00     0.194 C 
BRANCH  35  36
ATOM     36  C   UNL     1      -2.235  -7.183  13.160  1.00  0.00     0.017 C 
ATOM     37  C   UNL     1      -0.962  -6.346  13.377  1.00  0.00     0.010 C 
ATOM     38  C   UNL     1      -2.070  -7.932  11.832  1.00  0.00     0.010 C 
ENDBRANCH  35  36
BRANCH  35  39
ATOM     39  C   UNL     1      -3.215  -4.831  12.775  1.00  0.00     0.329 C 
ATOM     40  O   UNL     1      -2.754  -3.975  13.521  1.00  0.00    -0.250 OA
BRANCH  39  41
ATOM     41  O   UNL     1      -3.446  -4.626  11.443  1.00  0.00    -0.458 OA
BRANCH  41  42
ATOM     42  C   UNL     1      -4.824  -4.723  11.009  1.00  0.00     0.205 CG0
ATOM     43  C   UNL     1      -4.987  -6.073  10.315  1.00  0.00     0.056 C 
ATOM     44  G   UNL     1      -5.129  -3.537  10.072  1.00  0.00     0.000 G0
ENDBRANCH  41  42
ENDBRANCH  39  41
ENDBRANCH  35  39
ENDBRANCH  33  35
ENDBRANCH  23  31
ENDBRANCH  21  23
ENDBRANCH  19  21
ENDBRANCH  14  19
ENDBRANCH   7  14
ENDBRANCH   2   5
BRANCH   3  45
ATOM     45  C   UNL     1      -8.098  -1.895  11.886  1.00  0.00     0.171 C 
BRANCH  45  46
ATOM     46  N   UNL     1      -6.777  -2.310  11.432  1.00  0.00    -0.342 N 
ATOM     47  C   UNL     1      -6.592  -3.079  10.311  1.00  0.00     0.247 C 
ATOM     48  O   UNL     1      -7.517  -3.412   9.568  1.00  0.00    -0.273 OA
ATOM     49  H   UNL     1      -5.978  -2.008  11.987  1.00  0.00     0.164 HD
BRANCH  47  50
ATOM     50  C   UNL     1      -5.144  -3.522  10.058  1.00  0.00     0.212 CG0
ATOM     51  G   UNL     1      -4.846  -4.705  11.000  1.00  0.00     0.000 G0
BRANCH  50  52
ATOM     52  N   UNL     1      -5.088  -3.883   8.644  1.00  0.00    -0.339 N 
ATOM     53  C   UNL     1      -4.342  -3.195   7.718  1.00  0.00     0.243 C 
ATOM     54  O   UNL     1      -3.702  -2.185   8.000  1.00  0.00    -0.273 OA
ATOM     55  H   UNL     1      -5.684  -4.644   8.326  1.00  0.00     0.164 HD
BRANCH  53  56
ATOM     56  C   UNL     1      -4.508  -3.707   6.273  1.00  0.00     0.182 C 
BRANCH  56  57
ATOM     57  N   UNL     1      -5.580  -4.704   6.188  1.00  0.00    -0.344 N 
ATOM     58  C   UNL     1      -6.452  -4.758   5.127  1.00  0.00     0.220 C 
ATOM     59  O   UNL     1      -6.442  -3.936   4.217  1.00  0.00    -0.275 OA
ATOM     60  H   UNL     1      -5.560  -5.461   6.865  1.00  0.00     0.164 HD
BRANCH  58  61
ATOM     61  C   UNL     1      -7.442  -5.905   5.221  1.00  0.00     0.100 C 
BRANCH  61  62
ATOM     62  C   UNL     1      -6.832  -7.272   4.910  1.00  0.00     0.010 C 
BRANCH  62  63
ATOM     63  C   UNL     1      -7.017  -8.310   6.025  1.00  0.00     0.000 C 
BRANCH  63  64
ATOM     64  C   UNL     1      -6.550  -7.841   7.402  1.00  0.00    -0.003 C 
ATOM     65  C   UNL     1      -7.729  -7.506   8.304  1.00  0.00     0.004 C 
ENDBRANCH  63  64
ENDBRANCH  62  63
ENDBRANCH  61  62
ENDBRANCH  58  61
ENDBRANCH  56  57
BRANCH  56  66
ATOM     66  C   UNL     1      -3.188  -4.231   5.709  1.00  0.00     0.157 C 
BRANCH  66  67
ATOM     67  C   UNL     1      -2.998  -5.685   6.030  1.00  0.00     0.305 C 
ATOM     68  O   UNL     1      -2.622  -6.561   5.267  1.00  0.00    -0.252 OA
BRANCH  67  69
ATOM     69  O   UNL     1      -3.245  -5.959   7.325  1.00  0.00    -0.481 OA
ATOM     70  H   UNL     1      -2.845  -5.213   7.820  1.00  0.00     0.296 HD
ENDBRANCH  67  69
ENDBRANCH  66  67
ENDBRANCH  56  66
ENDBRANCH  53  56
ENDBRANCH  50  52
ENDBRANCH  47  50
ENDBRANCH  45  46
BRANCH  45  71
ATOM     71  C   UNL     1      -8.450  -0.488  11.391  1.00  0.00     0.037 C 
BRANCH  71  72
ATOM     72  C   UNL     1      -9.353  -0.521  10.156  1.00  0.00     0.026 C 
BRANCH  72  73
ATOM     73  C   UNL     1      -8.818   0.381   9.046  1.00  0.00     0.146 C 
BRANCH  73  74
ATOM     74  N   UNL     1      -8.671  -0.431   7.841  1.00  0.00    -0.254 NA
ATOM     75  C   UNL     1      -7.485  -0.736   7.465  1.00  0.00     0.185 C 
ATOM     76  N   UNL     1      -7.318  -1.483   6.362  1.00  0.00    -0.370 N 
ATOM     77  N   UNL     1      -6.309  -0.411   8.031  1.00  0.00    -0.370 N 
ATOM     78  H   UNL     1      -8.154  -1.766   5.870  1.00  0.00     0.159 HD
ATOM     79  H   UNL     1      -6.425  -1.639   5.928  1.00  0.00     0.159 HD
ATOM     80  H   UNL     1      -6.280   0.146   8.871  1.00  0.00     0.159 HD
ATOM     81  H   UNL     1      -5.441  -0.807   7.709  1.00  0.00     0.159 HD
ENDBRANCH  73  74
ENDBRANCH  72  73
ENDBRANCH  71  72
ENDBRANCH  45  71
ENDBRANCH   3  45
TORSDOF 20
ENDMDL
MODEL 49
REMARK VINA RESULT:    -5.500      3.736     10.861
REMARK INTER + INTRA:         -23.176
REMARK INTER:                 -16.658
REMARK INTRA:                  -6.518
REMARK UNBOUND:                -7.386
REMARK SMILES CCCCCC(=O)N[C@H](CC(=O)O)C(=O)N[C@H]1C(=O)N[C@H](CCCN=C(N)N)C(=O)N[C@@H]2CC[C@H](O)N(C2=O)[C@@H](CC(C)C)C(=O)N(C)[C@@H](Cc2ccccc2)C(=O)N[C@H](C(C)C)C(=O)O[C@@H]1C
REMARK SMILES IDX 30 1 31 2 29 3 32 5 35 6 37 7 34 8 38 9 33 10 39 11 36 12
REMARK SMILES IDX 40 14 41 15 42 16 43 17 44 18 45 19 46 20 47 21 48 22 49 23
REMARK SMILES IDX 50 24 51 25 52 26 56 27 53 28 55 29 54 30 57 31 58 32 59 33
REMARK SMILES IDX 60 35 61 36 62 37 63 38 64 39 65 40 66 41 67 42 68 43 21 45
REMARK SMILES IDX 20 46 18 47 19 48 17 50 16 52 14 53 15 54 9 56 8 57 6 58
REMARK SMILES IDX 7 59 5 61 4 62 3 63 2 64 1 65 10 66 11 67 12 68 13 69 22 71
REMARK SMILES IDX 23 72 24 73 25 74 26 75 27 76 28 77
REMARK H PARENT 31 4 36 13 59 34 20 49 16 55 8 60 13 70 27 78 27 79 28 80
REMARK H PARENT 28 81
REMARK Flexibility Score:  259.900
ROOT
ATOM      1  O   UNL     1      -4.965  -3.191   9.148  1.00  0.00    -0.273 OA
ATOM      2  N   UNL     1      -6.672  -2.569  10.538  1.00  0.00    -0.343 N 
ATOM      3  C   UNL     1      -5.575  -2.303   9.746  1.00  0.00     0.243 C 
ATOM      4  H   UNL     1      -7.158  -1.812  11.003  1.00  0.00     0.164 HD
ENDROOT
BRANCH   2   5
ATOM      5  C   UNL     1      -7.085  -3.943  10.797  1.00  0.00     0.171 C 
ATOM      6  C   UNL     1      -9.308  -5.081  12.271  1.00  0.00     0.214 C 
ATOM      7  N   UNL     1      -8.056  -4.838  12.949  1.00  0.00    -0.303 N 
ATOM      8  C   UNL     1      -9.140  -5.393  10.792  1.00  0.00     0.057 C 
ATOM      9  C   UNL     1      -6.972  -4.250  12.318  1.00  0.00     0.247 C 
ATOM     10  C   UNL     1      -8.412  -4.256  10.108  1.00  0.00     0.040 C 
ATOM     11  O   UNL     1      -5.933  -3.966  12.928  1.00  0.00    -0.272 OA
BRANCH   6  12
ATOM     12  O   UNL     1     -10.120  -3.943  12.445  1.00  0.00    -0.373 OA
ATOM     13  H   UNL     1     -10.770  -3.939  11.710  1.00  0.00     0.213 HD
ENDBRANCH   6  12
BRANCH   7  14
ATOM     14  C   UNL     1      -8.018  -5.107  14.402  1.00  0.00     0.177 C 
BRANCH  14  15
ATOM     15  C   UNL     1      -8.644  -4.014  15.289  1.00  0.00     0.038 C 
BRANCH  15  16
ATOM     16  C   UNL     1      -7.836  -3.440  16.474  1.00  0.00    -0.015 C 
ATOM     17  C   UNL     1      -6.399  -3.969  16.512  1.00  0.00     0.007 C 
ATOM     18  C   UNL     1      -8.520  -3.809  17.796  1.00  0.00     0.007 C 
ENDBRANCH  15  16
ENDBRANCH  14  15
BRANCH  14  19
ATOM     19  C   UNL     1      -8.098  -6.650  14.671  1.00  0.00     0.245 C 
ATOM     20  O   UNL     1      -7.701  -7.397  13.761  1.00  0.00    -0.272 OA
BRANCH  19  21
ATOM     21  N   UNL     1      -8.679  -7.207  15.796  1.00  0.00    -0.332 N 
ATOM     22  C   UNL     1     -10.089  -7.143  16.136  1.00  0.00     0.147 C 
BRANCH  21  23
ATOM     23  C   UNL     1      -7.793  -7.927  16.753  1.00  0.00     0.178 C 
BRANCH  23  24
ATOM     24  C   UNL     1      -6.287  -7.649  16.571  1.00  0.00     0.070 C 
BRANCH  24  25
ATOM     25  C   UNL     1      -5.332  -8.437  17.439  1.00  0.00    -0.045 A 
ATOM     26  C   UNL     1      -5.141  -9.809  17.232  1.00  0.00     0.004 A 
ATOM     27  C   UNL     1      -4.626  -7.802  18.471  1.00  0.00     0.004 A 
ATOM     28  C   UNL     1      -4.271 -10.534  18.049  1.00  0.00     0.000 A 
ATOM     29  C   UNL     1      -3.755  -8.527  19.286  1.00  0.00     0.000 A 
ATOM     30  C   UNL     1      -3.580  -9.893  19.076  1.00  0.00     0.000 A 
ENDBRANCH  24  25
ENDBRANCH  23  24
BRANCH  23  31
ATOM     31  C   UNL     1      -8.297  -7.855  18.214  1.00  0.00     0.243 C 
ATOM     32  O   UNL     1      -8.288  -6.832  18.894  1.00  0.00    -0.273 OA
ATOM     33  N   UNL     1      -8.592  -9.093  18.759  1.00  0.00    -0.341 N 
ATOM     34  H   UNL     1      -8.577  -9.910  18.143  1.00  0.00     0.164 HD
BRANCH  33  35
ATOM     35  C   UNL     1      -8.973  -9.278  20.162  1.00  0.00     0.194 C 
BRANCH  35  36
ATOM     36  C   UNL     1      -7.879  -9.956  21.033  1.00  0.00     0.017 C 
ATOM     37  C   UNL     1      -6.796  -8.948  21.455  1.00  0.00     0.010 C 
ATOM     38  C   UNL     1      -7.173 -11.117  20.321  1.00  0.00     0.010 C 
ENDBRANCH  35  36
BRANCH  35  39
ATOM     39  C   UNL     1     -10.354  -9.974  20.319  1.00  0.00     0.329 C 
ATOM     40  O   UNL     1     -11.128 -10.181  19.392  1.00  0.00    -0.250 OA
BRANCH  39  41
ATOM     41  O   UNL     1     -10.574 -10.409  21.597  1.00  0.00    -0.458 OA
BRANCH  41  42
ATOM     42  C   UNL     1     -11.245 -11.685  21.733  1.00  0.00     0.205 CG0
ATOM     43  C   UNL     1     -12.594 -11.420  22.397  1.00  0.00     0.056 C 
ATOM     44  G   UNL     1     -10.351 -12.624  22.567  1.00  0.00     0.000 G0
ENDBRANCH  41  42
ENDBRANCH  39  41
ENDBRANCH  35  39
ENDBRANCH  33  35
ENDBRANCH  23  31
ENDBRANCH  21  23
ENDBRANCH  19  21
ENDBRANCH  14  19
ENDBRANCH   7  14
ENDBRANCH   2   5
BRANCH   3  45
ATOM     45  C   UNL     1      -5.181  -0.824   9.643  1.00  0.00     0.171 C 
BRANCH  45  46
ATOM     46  N   UNL     1      -5.394  -0.456   8.249  1.00  0.00    -0.342 N 
ATOM     47  C   UNL     1      -6.646  -0.327   7.704  1.00  0.00     0.247 C 
ATOM     48  O   UNL     1      -7.678  -0.440   8.367  1.00  0.00    -0.273 OA
ATOM     49  H   UNL     1      -4.565  -0.297   7.678  1.00  0.00     0.164 HD
BRANCH  47  50
ATOM     50  C   UNL     1      -6.673  -0.057   6.193  1.00  0.00     0.212 CG0
ATOM     51  G   UNL     1      -5.325   0.583   5.809  1.00  0.00     0.000 G0
BRANCH  50  52
ATOM     52  N   UNL     1      -6.894  -1.358   5.568  1.00  0.00    -0.339 N 
ATOM     53  C   UNL     1      -5.900  -2.291   5.395  1.00  0.00     0.243 C 
ATOM     54  O   UNL     1      -4.732  -2.079   5.707  1.00  0.00    -0.273 OA
ATOM     55  H   UNL     1      -7.818  -1.550   5.188  1.00  0.00     0.164 HD
BRANCH  53  56
ATOM     56  C   UNL     1      -6.351  -3.554   4.634  1.00  0.00     0.182 C 
BRANCH  56  57
ATOM     57  N   UNL     1      -6.928  -4.543   5.550  1.00  0.00    -0.344 N 
ATOM     58  C   UNL     1      -6.154  -5.325   6.372  1.00  0.00     0.220 C 
ATOM     59  O   UNL     1      -4.928  -5.303   6.346  1.00  0.00    -0.275 OA
ATOM     60  H   UNL     1      -7.937  -4.521   5.676  1.00  0.00     0.164 HD
BRANCH  58  61
ATOM     61  C   UNL     1      -6.965  -6.234   7.276  1.00  0.00     0.100 C 
BRANCH  61  62
ATOM     62  C   UNL     1      -6.340  -7.615   7.482  1.00  0.00     0.010 C 
BRANCH  62  63
ATOM     63  C   UNL     1      -6.131  -7.996   8.953  1.00  0.00     0.000 C 
BRANCH  63  64
ATOM     64  C   UNL     1      -5.360  -6.957   9.766  1.00  0.00    -0.003 C 
ATOM     65  C   UNL     1      -3.857  -7.160   9.644  1.00  0.00     0.004 C 
ENDBRANCH  63  64
ENDBRANCH  62  63
ENDBRANCH  61  62
ENDBRANCH  58  61
ENDBRANCH  56  57
BRANCH  56  66
ATOM     66  C   UNL     1      -5.216  -4.138   3.795  1.00  0.00     0.157 C 
BRANCH  66  67
ATOM     67  C   UNL     1      -5.746  -4.890   2.609  1.00  0.00     0.305 C 
ATOM     68  O   UNL     1      -6.646  -5.716   2.608  1.00  0.00    -0.252 OA
BRANCH  67  69
ATOM     69  O   UNL     1      -5.147  -4.522   1.460  1.00  0.00    -0.481 OA
ATOM     70  H   UNL     1      -4.207  -4.776   1.576  1.00  0.00     0.296 HD
ENDBRANCH  67  69
ENDBRANCH  66  67
ENDBRANCH  56  66
ENDBRANCH  53  56
ENDBRANCH  50  52
ENDBRANCH  47  50
ENDBRANCH  45  46
BRANCH  45  71
ATOM     71  C   UNL     1      -3.720  -0.630  10.063  1.00  0.00     0.037 C 
BRANCH  71  72
ATOM     72  C   UNL     1      -3.460  -1.123  11.488  1.00  0.00     0.026 C 
BRANCH  72  73
ATOM     73  C   UNL     1      -2.265  -2.072  11.544  1.00  0.00     0.146 C 
BRANCH  73  74
ATOM     74  N   UNL     1      -2.778  -3.430  11.688  1.00  0.00    -0.254 NA
ATOM     75  C   UNL     1      -2.533  -4.051  12.783  1.00  0.00     0.185 C 
ATOM     76  N   UNL     1      -2.994  -5.302  12.945  1.00  0.00    -0.370 N 
ATOM     77  N   UNL     1      -1.849  -3.626  13.860  1.00  0.00    -0.370 N 
ATOM     78  H   UNL     1      -3.514  -5.701  12.177  1.00  0.00     0.159 HD
ATOM     79  H   UNL     1      -2.721  -5.897  13.707  1.00  0.00     0.159 HD
ATOM     80  H   UNL     1      -1.447  -2.701  13.881  1.00  0.00     0.159 HD
ATOM     81  H   UNL     1      -1.820  -4.162  14.712  1.00  0.00     0.159 HD
ENDBRANCH  73  74
ENDBRANCH  72  73
ENDBRANCH  71  72
ENDBRANCH  45  71
ENDBRANCH   3  45
TORSDOF 20
ENDMDL
MODEL 50
REMARK VINA RESULT:    -5.450      4.180     10.847
REMARK INTER + INTRA:         -23.033
REMARK INTER:                 -16.407
REMARK INTRA:                  -6.625
REMARK UNBOUND:                -7.386
REMARK SMILES CCCCCC(=O)N[C@H](CC(=O)O)C(=O)N[C@H]1C(=O)N[C@H](CCCN=C(N)N)C(=O)N[C@@H]2CC[C@H](O)N(C2=O)[C@@H](CC(C)C)C(=O)N(C)[C@@H](Cc2ccccc2)C(=O)N[C@H](C(C)C)C(=O)O[C@@H]1C
REMARK SMILES IDX 30 1 31 2 29 3 32 5 35 6 37 7 34 8 38 9 33 10 39 11 36 12
REMARK SMILES IDX 40 14 41 15 42 16 43 17 44 18 45 19 46 20 47 21 48 22 49 23
REMARK SMILES IDX 50 24 51 25 52 26 56 27 53 28 55 29 54 30 57 31 58 32 59 33
REMARK SMILES IDX 60 35 61 36 62 37 63 38 64 39 65 40 66 41 67 42 68 43 21 45
REMARK SMILES IDX 20 46 18 47 19 48 17 50 16 52 14 53 15 54 9 56 8 57 6 58
REMARK SMILES IDX 7 59 5 61 4 62 3 63 2 64 1 65 10 66 11 67 12 68 13 69 22 71
REMARK SMILES IDX 23 72 24 73 25 74 26 75 27 76 28 77
REMARK H PARENT 31 4 36 13 59 34 20 49 16 55 8 60 13 70 27 78 27 79 28 80
REMARK H PARENT 28 81
REMARK Flexibility Score:  259.900
ROOT
ATOM      1  O   UNL     1      -3.608  -4.224  10.114  1.00  0.00    -0.273 OA
ATOM      2  N   UNL     1      -5.272  -3.094  11.203  1.00  0.00    -0.343 N 
ATOM      3  C   UNL     1      -4.030  -3.180  10.612  1.00  0.00     0.243 C 
ATOM      4  H   UNL     1      -5.592  -2.215  11.589  1.00  0.00     0.164 HD
ENDROOT
BRANCH   2   5
ATOM      5  C   UNL     1      -6.099  -4.285  11.369  1.00  0.00     0.171 C 
ATOM      6  C   UNL     1      -8.687  -4.723  12.599  1.00  0.00     0.214 C 
ATOM      7  N   UNL     1      -7.489  -4.876  13.391  1.00  0.00    -0.303 N 
ATOM      8  C   UNL     1      -8.482  -5.050  11.128  1.00  0.00     0.057 C 
ATOM      9  C   UNL     1      -6.225  -4.633  12.880  1.00  0.00     0.247 C 
ATOM     10  C   UNL     1      -7.388  -4.175  10.556  1.00  0.00     0.040 C 
ATOM     11  O   UNL     1      -5.210  -4.682  13.588  1.00  0.00    -0.272 OA
BRANCH   6  12
ATOM     12  O   UNL     1      -9.136  -3.396  12.750  1.00  0.00    -0.373 OA
ATOM     13  H   UNL     1     -10.083  -3.440  13.004  1.00  0.00     0.213 HD
ENDBRANCH   6  12
BRANCH   7  14
ATOM     14  C   UNL     1      -7.670  -5.165  14.830  1.00  0.00     0.177 C 
BRANCH  14  15
ATOM     15  C   UNL     1      -8.169  -3.980  15.679  1.00  0.00     0.038 C 
BRANCH  15  16
ATOM     16  C   UNL     1      -7.373  -3.554  16.933  1.00  0.00    -0.015 C 
ATOM     17  C   UNL     1      -5.994  -4.216  17.002  1.00  0.00     0.007 C 
ATOM     18  C   UNL     1      -8.154  -3.935  18.197  1.00  0.00     0.007 C 
ENDBRANCH  15  16
ENDBRANCH  14  15
BRANCH  14  19
ATOM     19  C   UNL     1      -8.077  -6.665  15.036  1.00  0.00     0.245 C 
ATOM     20  O   UNL     1      -7.432  -7.513  14.396  1.00  0.00    -0.272 OA
BRANCH  19  21
ATOM     21  N   UNL     1      -9.164  -7.072  15.788  1.00  0.00    -0.332 N 
ATOM     22  C   UNL     1     -10.558  -6.865  15.436  1.00  0.00     0.147 C 
BRANCH  21  23
ATOM     23  C   UNL     1      -8.897  -7.773  17.075  1.00  0.00     0.178 C 
BRANCH  23  24
ATOM     24  C   UNL     1      -7.503  -7.507  17.677  1.00  0.00     0.070 C 
BRANCH  24  25
ATOM     25  C   UNL     1      -6.671  -8.714  18.045  1.00  0.00    -0.045 A 
ATOM     26  C   UNL     1      -6.983  -9.484  19.172  1.00  0.00     0.004 A 
ATOM     27  C   UNL     1      -5.565  -9.077  17.261  1.00  0.00     0.004 A 
ATOM     28  C   UNL     1      -6.199 -10.588  19.515  1.00  0.00     0.000 A 
ATOM     29  C   UNL     1      -4.783 -10.181  17.604  1.00  0.00     0.000 A 
ATOM     30  C   UNL     1      -5.099 -10.933  18.733  1.00  0.00     0.000 A 
ENDBRANCH  24  25
ENDBRANCH  23  24
BRANCH  23  31
ATOM     31  C   UNL     1     -10.071  -7.664  18.077  1.00  0.00     0.243 C 
ATOM     32  O   UNL     1     -10.261  -6.697  18.810  1.00  0.00    -0.273 OA
ATOM     33  N   UNL     1     -10.794  -8.838  18.211  1.00  0.00    -0.341 N 
ATOM     34  H   UNL     1     -10.586  -9.611  17.575  1.00  0.00     0.164 HD
BRANCH  33  35
ATOM     35  C   UNL     1     -11.874  -9.003  19.188  1.00  0.00     0.194 C 
BRANCH  35  36
ATOM     36  C   UNL     1     -11.580 -10.064  20.286  1.00  0.00     0.017 C 
ATOM     37  C   UNL     1     -11.374  -9.405  21.661  1.00  0.00     0.010 C 
ATOM     38  C   UNL     1     -10.335 -10.910  19.991  1.00  0.00     0.010 C 
ENDBRANCH  35  36
BRANCH  35  39
ATOM     39  C   UNL     1     -13.257  -9.229  18.517  1.00  0.00     0.329 C 
ATOM     40  O   UNL     1     -13.413  -9.440  17.320  1.00  0.00    -0.250 OA
BRANCH  39  41
ATOM     41  O   UNL     1     -14.279  -9.254  19.427  1.00  0.00    -0.458 OA
BRANCH  41  42
ATOM     42  C   UNL     1     -15.350 -10.191  19.163  1.00  0.00     0.205 CG0
ATOM     43  C   UNL     1     -16.612  -9.373  18.895  1.00  0.00     0.056 C 
ATOM     44  G   UNL     1     -15.499 -11.124  20.381  1.00  0.00     0.000 G0
ENDBRANCH  41  42
ENDBRANCH  39  41
ENDBRANCH  35  39
ENDBRANCH  33  35
ENDBRANCH  23  31
ENDBRANCH  21  23
ENDBRANCH  19  21
ENDBRANCH  14  19
ENDBRANCH   7  14
ENDBRANCH   2   5
BRANCH   3  45
ATOM     45  C   UNL     1      -3.218  -1.878  10.598  1.00  0.00     0.171 C 
BRANCH  45  46
ATOM     46  N   UNL     1      -3.183  -1.450   9.206  1.00  0.00    -0.342 N 
ATOM     47  C   UNL     1      -4.235  -0.802   8.609  1.00  0.00     0.247 C 
ATOM     48  O   UNL     1      -5.251  -0.471   9.221  1.00  0.00    -0.273 OA
ATOM     49  H   UNL     1      -2.337  -1.654   8.677  1.00  0.00     0.164 HD
BRANCH  47  50
ATOM     50  C   UNL     1      -4.067  -0.540   7.105  1.00  0.00     0.212 CG0
ATOM     51  G   UNL     1      -2.565  -0.649   6.776  1.00  0.00     0.000 G0
BRANCH  50  52
ATOM     52  N   UNL     1      -4.879  -1.556   6.440  1.00  0.00    -0.339 N 
ATOM     53  C   UNL     1      -4.413  -2.810   6.127  1.00  0.00     0.243 C 
ATOM     54  O   UNL     1      -3.254  -3.156   6.335  1.00  0.00    -0.273 OA
ATOM     55  H   UNL     1      -5.816  -1.292   6.141  1.00  0.00     0.164 HD
BRANCH  53  56
ATOM     56  C   UNL     1      -5.423  -3.678   5.350  1.00  0.00     0.182 C 
BRANCH  56  57
ATOM     57  N   UNL     1      -6.192  -4.533   6.260  1.00  0.00    -0.344 N 
ATOM     58  C   UNL     1      -5.660  -5.660   6.837  1.00  0.00     0.220 C 
ATOM     59  O   UNL     1      -4.535  -6.071   6.576  1.00  0.00    -0.275 OA
ATOM     60  H   UNL     1      -7.088  -4.175   6.581  1.00  0.00     0.164 HD
BRANCH  58  61
ATOM     61  C   UNL     1      -6.615  -6.357   7.789  1.00  0.00     0.100 C 
BRANCH  61  62
ATOM     62  C   UNL     1      -6.611  -7.880   7.661  1.00  0.00     0.010 C 
BRANCH  62  63
ATOM     63  C   UNL     1      -6.327  -8.620   8.974  1.00  0.00     0.000 C 
BRANCH  63  64
ATOM     64  C   UNL     1      -5.681  -7.753  10.054  1.00  0.00    -0.003 C 
ATOM     65  C   UNL     1      -4.318  -8.294  10.459  1.00  0.00     0.004 C 
ENDBRANCH  63  64
ENDBRANCH  62  63
ENDBRANCH  61  62
ENDBRANCH  58  61
ENDBRANCH  56  57
BRANCH  56  66
ATOM     66  C   UNL     1      -4.738  -4.482   4.246  1.00  0.00     0.157 C 
BRANCH  66  67
ATOM     67  C   UNL     1      -5.735  -4.990   3.244  1.00  0.00     0.305 C 
ATOM     68  O   UNL     1      -6.668  -5.748   3.459  1.00  0.00    -0.252 OA
BRANCH  67  69
ATOM     69  O   UNL     1      -5.538  -4.471   2.017  1.00  0.00    -0.481 OA
ATOM     70  H   UNL     1      -5.404  -3.511   2.170  1.00  0.00     0.296 HD
ENDBRANCH  67  69
ENDBRANCH  66  67
ENDBRANCH  56  66
ENDBRANCH  53  56
ENDBRANCH  50  52
ENDBRANCH  47  50
ENDBRANCH  45  46
BRANCH  45  71
ATOM     71  C   UNL     1      -1.809  -2.122  11.150  1.00  0.00     0.037 C 
BRANCH  71  72
ATOM     72  C   UNL     1      -0.722  -1.753  10.138  1.00  0.00     0.026 C 
BRANCH  72  73
ATOM     73  C   UNL     1       0.066  -2.981   9.689  1.00  0.00     0.146 C 
BRANCH  73  74
ATOM     74  N   UNL     1      -0.662  -3.602   8.587  1.00  0.00    -0.254 NA
ATOM     75  C   UNL     1      -1.018  -4.826   8.718  1.00  0.00     0.185 C 
ATOM     76  N   UNL     1      -1.691  -5.424   7.721  1.00  0.00    -0.370 N 
ATOM     77  N   UNL     1      -0.815  -5.659   9.754  1.00  0.00    -0.370 N 
ATOM     78  H   UNL     1      -1.880  -4.869   6.899  1.00  0.00     0.159 HD
ATOM     79  H   UNL     1      -1.874  -6.411   7.691  1.00  0.00     0.159 HD
ATOM     80  H   UNL     1      -0.325  -5.344  10.577  1.00  0.00     0.159 HD
ATOM     81  H   UNL     1      -1.244  -6.569   9.791  1.00  0.00     0.159 HD
ENDBRANCH  73  74
ENDBRANCH  72  73
ENDBRANCH  71  72
ENDBRANCH  45  71
ENDBRANCH   3  45
TORSDOF 20
ENDMDL
