MODEL 1
REMARK VINA RESULT:    -8.351      0.000      0.000
REMARK INTER + INTRA:         -30.757
REMARK INTER:                 -24.948
REMARK INTRA:                  -5.809
REMARK UNBOUND:                -5.809
REMARK SMILES C=C1C(=O)N[C@H](C)C(=O)N[C@@H](CC(C)C)C(=O)N[C@@H](C(=O)O)[C@H](C)C(=O)N[C@@H](CCCN=C(N)N)C(=O)N[C@@H](/C=C/C(C)=C/[C@H](C)[C@H](Cc2ccccc2)OC)[C@H](C)C(=O)N[C@@H](C(=O)O)CCC(=O)N1C
REMARK SMILES IDX 39 1 38 2 37 3 36 4 28 6 27 7 25 8 26 9 23 11 24 12 19 13
REMARK SMILES IDX 18 14 16 15 17 16 11 18 10 19 8 20 9 21 12 24 13 25 14 26
REMARK SMILES IDX 15 27 20 28 21 29 22 30 29 32 30 33 31 34 32 35 33 36 34 37
REMARK SMILES IDX 35 38 57 43 58 44 59 45 60 46 61 47 62 49 66 50 67 51 68 52
REMARK SMILES IDX 69 53 70 54 71 55 2 56 1 57 3 58 4 59 5 60 6 62 7 63 63 65
REMARK SMILES IDX 64 66 65 67 40 69 41 70 42 71 44 72 43 73 45 74 46 75 47 76
REMARK SMILES IDX 55 77 56 78 48 79 49 80 50 81 54 82 51 83 53 84 52 85
REMARK H PARENT 38 5 27 10 18 17 10 22 22 31 34 39 34 40 35 41 35 42 61 48
REMARK H PARENT 5 61 65 68
REMARK Flexibility Score:  369.900
ROOT
ATOM      1  C   UNL     1      -9.318  -3.061  10.765  1.00  0.00     0.117 C 
ENDROOT
BRANCH   1   2
ATOM      2  N   UNL     1      -8.388  -2.605   9.731  1.00  0.00    -0.347 N 
ATOM      3  O   UNL     1      -6.740  -4.164  10.084  1.00  0.00    -0.273 OA
ATOM      4  C   UNL     1      -7.210  -3.252   9.411  1.00  0.00     0.243 C 
ATOM      5  H   UNL     1      -8.626  -1.800   9.172  1.00  0.00     0.164 HD
BRANCH   4   6
ATOM      6  C   UNL     1      -6.451  -2.613   8.220  1.00  0.00     0.171 C 
BRANCH   6   7
ATOM      7  N   UNL     1      -5.633  -1.480   8.680  1.00  0.00    -0.344 N 
ATOM      8  C   UNL     1      -6.117  -0.191   8.611  1.00  0.00     0.226 C 
ATOM      9  O   UNL     1      -7.220   0.077   8.151  1.00  0.00    -0.275 OA
ATOM     10  H   UNL     1      -4.690  -1.654   9.004  1.00  0.00     0.164 HD
BRANCH   8  11
ATOM     11  C   UNL     1      -5.177   0.861   9.174  1.00  0.00     0.109 C 
ATOM     12  C   UNL     1      -4.851   0.547  10.634  1.00  0.00     0.021 C 
BRANCH  11  13
ATOM     13  C   UNL     1      -3.949   1.010   8.253  1.00  0.00     0.204 C 
BRANCH  13  14
ATOM     14  N   UNL     1      -3.361   2.351   8.330  1.00  0.00    -0.340 N 
ATOM     15  C   UNL     1      -3.760   3.390   7.517  1.00  0.00     0.243 C 
ATOM     16  O   UNL     1      -4.682   3.281   6.710  1.00  0.00    -0.273 OA
ATOM     17  H   UNL     1      -2.497   2.467   8.866  1.00  0.00     0.164 HD
BRANCH  15  18
ATOM     18  C   UNL     1      -2.861   4.645   7.632  1.00  0.00     0.171 C 
BRANCH  18  19
ATOM     19  N   UNL     1      -3.454   5.665   6.769  1.00  0.00    -0.343 N 
ATOM     20  C   UNL     1      -2.687   6.431   5.912  1.00  0.00     0.242 CG0
ATOM     21  O   UNL     1      -1.459   6.383   5.932  1.00  0.00    -0.273 OA
ATOM     22  H   UNL     1      -4.455   5.823   6.801  1.00  0.00     0.164 HD
ATOM     23  G   UNL     1      -3.496   7.398   5.025  1.00  0.00     0.000 G0
ENDBRANCH  18  19
BRANCH  18  24
ATOM     24  C   UNL     1      -2.778   5.120   9.088  1.00  0.00     0.038 C 
BRANCH  24  25
ATOM     25  C   UNL     1      -1.377   5.005   9.724  1.00  0.00    -0.015 C 
ATOM     26  C   UNL     1      -0.326   5.828   8.979  1.00  0.00     0.007 C 
ATOM     27  C   UNL     1      -0.948   3.536   9.763  1.00  0.00     0.007 C 
ENDBRANCH  24  25
ENDBRANCH  18  24
ENDBRANCH  15  18
ENDBRANCH  13  14
BRANCH  13  28
ATOM     28  C   UNL     1      -2.834   0.007   8.567  1.00  0.00     0.327 C 
ATOM     29  O   UNL     1      -1.905   0.178   9.342  1.00  0.00    -0.250 OA
BRANCH  28  30
ATOM     30  O   UNL     1      -2.888  -1.101   7.801  1.00  0.00    -0.480 OA
ATOM     31  H   UNL     1      -3.505  -0.864   7.077  1.00  0.00     0.296 HD
ENDBRANCH  28  30
ENDBRANCH  13  28
ENDBRANCH  11  13
ENDBRANCH   8  11
ENDBRANCH   6   7
BRANCH   6  32
ATOM     32  C   UNL     1      -5.579  -3.680   7.548  1.00  0.00     0.037 C 
BRANCH  32  33
ATOM     33  C   UNL     1      -5.463  -3.462   6.033  1.00  0.00     0.026 C 
BRANCH  33  34
ATOM     34  C   UNL     1      -4.469  -4.423   5.379  1.00  0.00     0.146 C 
BRANCH  34  35
ATOM     35  N   UNL     1      -4.924  -4.722   4.029  1.00  0.00    -0.254 NA
ATOM     36  C   UNL     1      -4.271  -5.579   3.336  1.00  0.00     0.185 C 
ATOM     37  N   UNL     1      -4.685  -5.867   2.092  1.00  0.00    -0.370 N 
ATOM     38  N   UNL     1      -3.174  -6.279   3.674  1.00  0.00    -0.370 N 
ATOM     39  H   UNL     1      -5.514  -5.386   1.767  1.00  0.00     0.159 HD
ATOM     40  H   UNL     1      -4.338  -6.643   1.555  1.00  0.00     0.159 HD
ATOM     41  H   UNL     1      -2.670  -6.820   2.990  1.00  0.00     0.159 HD
ATOM     42  H   UNL     1      -2.743  -6.152   4.576  1.00  0.00     0.159 HD
ENDBRANCH  34  35
ENDBRANCH  33  34
ENDBRANCH  32  33
ENDBRANCH   6  32
ENDBRANCH   4   6
ENDBRANCH   1   2
BRANCH   1  43
ATOM     43  C   UNL     1     -10.039  -4.341  10.253  1.00  0.00     0.102 C 
ATOM     44  C   UNL     1     -11.550  -4.147  10.036  1.00  0.00     0.020 C 
BRANCH  43  45
ATOM     45  C   UNL     1      -9.686  -5.554  11.118  1.00  0.00     0.225 C 
ATOM     46  O   UNL     1     -10.432  -6.519  11.257  1.00  0.00    -0.275 OA
ATOM     47  N   UNL     1      -8.505  -5.459  11.818  1.00  0.00    -0.342 N 
ATOM     48  H   UNL     1      -7.839  -4.738  11.579  1.00  0.00     0.164 HD
BRANCH  47  49
ATOM     49  C   UNL     1      -8.022  -6.559  12.659  1.00  0.00     0.192 C 
BRANCH  49  50
ATOM     50  C   UNL     1      -8.078  -6.144  14.131  1.00  0.00     0.047 C 
BRANCH  50  51
ATOM     51  C   UNL     1      -8.838  -7.160  14.994  1.00  0.00     0.103 C 
BRANCH  51  52
ATOM     52  C   UNL     1     -10.350  -6.955  14.925  1.00  0.00     0.226 C 
ATOM     53  O   UNL     1     -10.802  -5.905  14.466  1.00  0.00    -0.275 OA
BRANCH  52  54
ATOM     54  N   UNL     1     -11.149  -8.039  15.333  1.00  0.00    -0.311 N 
ATOM     55  C   UNL     1     -11.447  -8.267  16.753  1.00  0.00     0.153 C 
BRANCH  54  56
ATOM     56  C   UNL     1     -11.694  -8.938  14.401  1.00  0.00     0.102 C 
ATOM     57  C   UNL     1     -13.007  -9.126  14.191  1.00  0.00     0.043 C 
BRANCH  56  58
ATOM     58  C   UNL     1     -10.800  -9.759  13.501  1.00  0.00     0.268 C 
ATOM     59  O   UNL     1     -10.740  -9.598  12.289  1.00  0.00    -0.268 OA
ATOM     60  N   UNL     1     -10.016 -10.654  14.189  1.00  0.00    -0.339 N 
ATOM     61  H   UNL     1     -10.133 -10.733  15.192  1.00  0.00     0.164 HD
BRANCH  60  62
ATOM     62  C   UNL     1      -9.033 -11.504  13.519  1.00  0.00     0.168 CG0
ATOM     63  C   UNL     1      -7.678 -10.812  13.434  1.00  0.00     0.041 C 
ATOM     64  G   UNL     1      -9.545 -11.876  12.112  1.00  0.00     0.000 G0
ENDBRANCH  60  62
ENDBRANCH  56  58
ENDBRANCH  54  56
ENDBRANCH  52  54
ENDBRANCH  51  52
ENDBRANCH  50  51
ENDBRANCH  49  50
BRANCH  49  65
ATOM     65  C   UNL     1      -6.583  -6.959  12.297  1.00  0.00     0.326 C 
ATOM     66  O   UNL     1      -5.584  -6.288  12.513  1.00  0.00    -0.250 OA
BRANCH  65  67
ATOM     67  O   UNL     1      -6.473  -8.133  11.637  1.00  0.00    -0.480 OA
ATOM     68  H   UNL     1      -7.280  -8.624  11.902  1.00  0.00     0.296 HD
ENDBRANCH  65  67
ENDBRANCH  49  65
ENDBRANCH  47  49
ENDBRANCH  43  45
ENDBRANCH   1  43
BRANCH   1  69
ATOM     69  C   UNL     1     -10.153  -1.852  11.146  1.00  0.00    -0.001 C 
ATOM     70  C   UNL     1     -10.232  -0.676  10.498  1.00  0.00     0.001 C 
BRANCH  70  71
ATOM     71  C   UNL     1     -11.058   0.476  10.864  1.00  0.00    -0.055 C 
ATOM     72  C   UNL     1     -10.425   1.611  11.231  1.00  0.00    -0.018 C 
ATOM     73  C   UNL     1     -12.555   0.317  10.798  1.00  0.00     0.044 C 
BRANCH  72  74
ATOM     74  C   UNL     1     -11.015   2.948  11.655  1.00  0.00     0.038 C 
ATOM     75  C   UNL     1     -11.263   3.759  10.377  1.00  0.00     0.015 C 
BRANCH  74  76
ATOM     76  C   UNL     1     -10.050   3.620  12.676  1.00  0.00     0.128 C 
BRANCH  76  77
ATOM     77  O   UNL     1     -10.417   3.247  14.016  1.00  0.00    -0.381 OA
ATOM     78  C   UNL     1      -9.409   2.517  14.702  1.00  0.00     0.195 C 
ENDBRANCH  76  77
BRANCH  76  79
ATOM     79  C   UNL     1      -8.549   3.379  12.377  1.00  0.00     0.068 C 
BRANCH  79  80
ATOM     80  C   UNL     1      -7.858   4.322  11.422  1.00  0.00    -0.045 A 
ATOM     81  C   UNL     1      -7.002   3.840  10.423  1.00  0.00     0.004 A 
ATOM     82  C   UNL     1      -8.042   5.708  11.540  1.00  0.00     0.004 A 
ATOM     83  C   UNL     1      -6.356   4.720   9.553  1.00  0.00     0.000 A 
ATOM     84  C   UNL     1      -7.395   6.588  10.670  1.00  0.00     0.000 A 
ATOM     85  C   UNL     1      -6.553   6.094   9.676  1.00  0.00     0.000 A 
ENDBRANCH  79  80
ENDBRANCH  76  79
ENDBRANCH  74  76
ENDBRANCH  72  74
ENDBRANCH  70  71
ENDBRANCH   1  69
TORSDOF 17
ENDMDL
MODEL 2
REMARK VINA RESULT:    -8.195      1.716      2.374
REMARK INTER + INTRA:         -30.294
REMARK INTER:                 -23.980
REMARK INTRA:                  -6.313
REMARK UNBOUND:                -5.809
REMARK SMILES C=C1C(=O)N[C@H](C)C(=O)N[C@@H](CC(C)C)C(=O)N[C@@H](C(=O)O)[C@H](C)C(=O)N[C@@H](CCCN=C(N)N)C(=O)N[C@@H](/C=C/C(C)=C/[C@H](C)[C@H](Cc2ccccc2)OC)[C@H](C)C(=O)N[C@@H](C(=O)O)CCC(=O)N1C
REMARK SMILES IDX 39 1 38 2 37 3 36 4 28 6 27 7 25 8 26 9 23 11 24 12 19 13
REMARK SMILES IDX 18 14 16 15 17 16 11 18 10 19 8 20 9 21 12 24 13 25 14 26
REMARK SMILES IDX 15 27 20 28 21 29 22 30 29 32 30 33 31 34 32 35 33 36 34 37
REMARK SMILES IDX 35 38 57 43 58 44 59 45 60 46 61 47 62 49 66 50 67 51 68 52
REMARK SMILES IDX 69 53 70 54 71 55 2 56 1 57 3 58 4 59 5 60 6 62 7 63 63 65
REMARK SMILES IDX 64 66 65 67 40 69 41 70 42 71 44 72 43 73 45 74 46 75 47 76
REMARK SMILES IDX 55 77 56 78 48 79 49 80 50 81 54 82 51 83 53 84 52 85
REMARK H PARENT 38 5 27 10 18 17 10 22 22 31 34 39 34 40 35 41 35 42 61 48
REMARK H PARENT 5 61 65 68
REMARK Flexibility Score:  369.900
ROOT
ATOM      1  C   UNL     1      -9.286  -3.147  10.684  1.00  0.00     0.117 C 
ENDROOT
BRANCH   1   2
ATOM      2  N   UNL     1      -8.278  -2.686   9.729  1.00  0.00    -0.347 N 
ATOM      3  O   UNL     1      -6.737  -4.353  10.070  1.00  0.00    -0.273 OA
ATOM      4  C   UNL     1      -7.121  -3.379   9.431  1.00  0.00     0.243 C 
ATOM      5  H   UNL     1      -8.442  -1.838   9.208  1.00  0.00     0.164 HD
BRANCH   4   6
ATOM      6  C   UNL     1      -6.265  -2.716   8.321  1.00  0.00     0.171 C 
BRANCH   6   7
ATOM      7  N   UNL     1      -5.482  -1.599   8.873  1.00  0.00    -0.344 N 
ATOM      8  C   UNL     1      -5.936  -0.303   8.768  1.00  0.00     0.226 C 
ATOM      9  O   UNL     1      -6.983  -0.014   8.201  1.00  0.00    -0.275 OA
ATOM     10  H   UNL     1      -4.579  -1.792   9.290  1.00  0.00     0.164 HD
BRANCH   8  11
ATOM     11  C   UNL     1      -5.043   0.729   9.435  1.00  0.00     0.109 C 
ATOM     12  C   UNL     1      -4.715   0.296  10.864  1.00  0.00     0.021 C 
BRANCH  11  13
ATOM     13  C   UNL     1      -3.815   1.009   8.545  1.00  0.00     0.204 C 
BRANCH  13  14
ATOM     14  N   UNL     1      -3.402   2.415   8.601  1.00  0.00    -0.340 N 
ATOM     15  C   UNL     1      -3.752   3.336   7.637  1.00  0.00     0.243 C 
ATOM     16  O   UNL     1      -4.487   3.057   6.692  1.00  0.00    -0.273 OA
ATOM     17  H   UNL     1      -2.673   2.675   9.270  1.00  0.00     0.164 HD
BRANCH  15  18
ATOM     18  C   UNL     1      -3.033   4.699   7.795  1.00  0.00     0.171 C 
BRANCH  18  19
ATOM     19  N   UNL     1      -3.829   5.680   7.061  1.00  0.00    -0.343 N 
ATOM     20  C   UNL     1      -3.357   6.291   5.915  1.00  0.00     0.242 CG0
ATOM     21  O   UNL     1      -2.199   6.139   5.535  1.00  0.00    -0.273 OA
ATOM     22  H   UNL     1      -4.752   5.927   7.401  1.00  0.00     0.164 HD
ATOM     23  G   UNL     1      -4.369   7.237   5.236  1.00  0.00     0.000 G0
ENDBRANCH  18  19
BRANCH  18  24
ATOM     24  C   UNL     1      -2.903   5.075   9.276  1.00  0.00     0.038 C 
BRANCH  24  25
ATOM     25  C   UNL     1      -1.467   5.407   9.734  1.00  0.00    -0.015 C 
ATOM     26  C   UNL     1      -0.537   5.719   8.561  1.00  0.00     0.007 C 
ATOM     27  C   UNL     1      -0.901   4.238  10.543  1.00  0.00     0.007 C 
ENDBRANCH  24  25
ENDBRANCH  18  24
ENDBRANCH  15  18
ENDBRANCH  13  14
BRANCH  13  28
ATOM     28  C   UNL     1      -2.594   0.162   8.916  1.00  0.00     0.327 C 
ATOM     29  O   UNL     1      -1.639   0.526   9.585  1.00  0.00    -0.250 OA
BRANCH  28  30
ATOM     30  O   UNL     1      -2.593  -1.051   8.327  1.00  0.00    -0.480 OA
ATOM     31  H   UNL     1      -3.501  -1.147   7.971  1.00  0.00     0.296 HD
ENDBRANCH  28  30
ENDBRANCH  13  28
ENDBRANCH  11  13
ENDBRANCH   8  11
ENDBRANCH   6   7
BRANCH   6  32
ATOM     32  C   UNL     1      -5.348  -3.772   7.695  1.00  0.00     0.037 C 
BRANCH  32  33
ATOM     33  C   UNL     1      -5.115  -3.523   6.198  1.00  0.00     0.026 C 
BRANCH  33  34
ATOM     34  C   UNL     1      -4.298  -4.636   5.540  1.00  0.00     0.146 C 
BRANCH  34  35
ATOM     35  N   UNL     1      -4.828  -4.881   4.206  1.00  0.00    -0.254 NA
ATOM     36  C   UNL     1      -4.190  -5.672   3.427  1.00  0.00     0.185 C 
ATOM     37  N   UNL     1      -4.672  -5.909   2.197  1.00  0.00    -0.370 N 
ATOM     38  N   UNL     1      -3.048  -6.344   3.656  1.00  0.00    -0.370 N 
ATOM     39  H   UNL     1      -5.538  -5.446   1.952  1.00  0.00     0.159 HD
ATOM     40  H   UNL     1      -4.331  -6.641   1.597  1.00  0.00     0.159 HD
ATOM     41  H   UNL     1      -2.569  -6.826   2.914  1.00  0.00     0.159 HD
ATOM     42  H   UNL     1      -2.564  -6.248   4.536  1.00  0.00     0.159 HD
ENDBRANCH  34  35
ENDBRANCH  33  34
ENDBRANCH  32  33
ENDBRANCH   6  32
ENDBRANCH   4   6
ENDBRANCH   1   2
BRANCH   1  43
ATOM     43  C   UNL     1     -10.038  -4.360  10.064  1.00  0.00     0.102 C 
ATOM     44  C   UNL     1     -11.497  -4.049   9.690  1.00  0.00     0.020 C 
BRANCH  43  45
ATOM     45  C   UNL     1      -9.872  -5.611  10.932  1.00  0.00     0.225 C 
ATOM     46  O   UNL     1     -10.676  -6.539  10.931  1.00  0.00    -0.275 OA
ATOM     47  N   UNL     1      -8.801  -5.596  11.795  1.00  0.00    -0.342 N 
ATOM     48  H   UNL     1      -8.073  -4.905  11.677  1.00  0.00     0.164 HD
BRANCH  47  49
ATOM     49  C   UNL     1      -8.497  -6.740  12.660  1.00  0.00     0.192 C 
BRANCH  49  50
ATOM     50  C   UNL     1      -9.017  -6.468  14.074  1.00  0.00     0.047 C 
BRANCH  50  51
ATOM     51  C   UNL     1      -9.887  -7.615  14.605  1.00  0.00     0.103 C 
BRANCH  51  52
ATOM     52  C   UNL     1     -11.379  -7.310  14.477  1.00  0.00     0.226 C 
ATOM     53  O   UNL     1     -11.743  -6.261  13.943  1.00  0.00    -0.275 OA
BRANCH  52  54
ATOM     54  N   UNL     1     -12.263  -8.310  14.923  1.00  0.00    -0.311 N 
ATOM     55  C   UNL     1     -12.517  -9.510  14.114  1.00  0.00     0.153 C 
BRANCH  54  56
ATOM     56  C   UNL     1     -12.930  -8.202  16.155  1.00  0.00     0.102 C 
ATOM     57  C   UNL     1     -12.331  -7.969  17.334  1.00  0.00     0.043 C 
BRANCH  56  58
ATOM     58  C   UNL     1     -14.435  -8.301  16.233  1.00  0.00     0.268 C 
ATOM     59  O   UNL     1     -15.174  -8.006  15.303  1.00  0.00    -0.268 OA
ATOM     60  N   UNL     1     -14.882  -8.815  17.426  1.00  0.00    -0.339 N 
ATOM     61  H   UNL     1     -14.205  -9.024  18.150  1.00  0.00     0.164 HD
BRANCH  60  62
ATOM     62  C   UNL     1     -16.300  -9.054  17.690  1.00  0.00     0.168 CG0
ATOM     63  C   UNL     1     -16.703 -10.464  17.278  1.00  0.00     0.041 C 
ATOM     64  G   UNL     1     -17.148  -8.004  16.943  1.00  0.00     0.000 G0
ENDBRANCH  60  62
ENDBRANCH  56  58
ENDBRANCH  54  56
ENDBRANCH  52  54
ENDBRANCH  51  52
ENDBRANCH  50  51
ENDBRANCH  49  50
BRANCH  49  65
ATOM     65  C   UNL     1      -6.988  -7.022  12.718  1.00  0.00     0.326 C 
ATOM     66  O   UNL     1      -6.475  -8.085  13.038  1.00  0.00    -0.250 OA
BRANCH  65  67
ATOM     67  O   UNL     1      -6.204  -5.958  12.437  1.00  0.00    -0.480 OA
ATOM     68  H   UNL     1      -6.561  -5.626  11.585  1.00  0.00     0.296 HD
ENDBRANCH  65  67
ENDBRANCH  49  65
ENDBRANCH  47  49
ENDBRANCH  43  45
ENDBRANCH   1  43
BRANCH   1  69
ATOM     69  C   UNL     1     -10.082  -1.919  11.087  1.00  0.00    -0.001 C 
ATOM     70  C   UNL     1     -10.234  -0.779  10.389  1.00  0.00     0.001 C 
BRANCH  70  71
ATOM     71  C   UNL     1     -11.022   0.392  10.779  1.00  0.00    -0.055 C 
ATOM     72  C   UNL     1     -10.358   1.540  11.030  1.00  0.00    -0.018 C 
ATOM     73  C   UNL     1     -12.518   0.235  10.863  1.00  0.00     0.044 C 
BRANCH  72  74
ATOM     74  C   UNL     1     -10.906   2.898  11.446  1.00  0.00     0.038 C 
ATOM     75  C   UNL     1     -10.917   3.784  10.194  1.00  0.00     0.015 C 
BRANCH  74  76
ATOM     76  C   UNL     1     -10.048   3.445  12.625  1.00  0.00     0.128 C 
BRANCH  76  77
ATOM     77  O   UNL     1     -10.502   2.879  13.866  1.00  0.00    -0.381 OA
ATOM     78  C   UNL     1      -9.571   3.017  14.931  1.00  0.00     0.195 C 
ENDBRANCH  76  77
BRANCH  76  79
ATOM     79  C   UNL     1      -8.521   3.288  12.417  1.00  0.00     0.068 C 
BRANCH  79  80
ATOM     80  C   UNL     1      -7.838   4.226  11.451  1.00  0.00    -0.045 A 
ATOM     81  C   UNL     1      -7.055   3.733  10.399  1.00  0.00     0.004 A 
ATOM     82  C   UNL     1      -7.957   5.615  11.610  1.00  0.00     0.004 A 
ATOM     83  C   UNL     1      -6.416   4.608   9.517  1.00  0.00     0.000 A 
ATOM     84  C   UNL     1      -7.316   6.488  10.729  1.00  0.00     0.000 A 
ATOM     85  C   UNL     1      -6.548   5.985   9.682  1.00  0.00     0.000 A 
ENDBRANCH  79  80
ENDBRANCH  76  79
ENDBRANCH  74  76
ENDBRANCH  72  74
ENDBRANCH  70  71
ENDBRANCH   1  69
TORSDOF 17
ENDMDL
MODEL 3
REMARK VINA RESULT:    -8.140      2.774      6.726
REMARK INTER + INTRA:         -30.128
REMARK INTER:                 -21.416
REMARK INTRA:                  -8.711
REMARK UNBOUND:                -5.809
REMARK SMILES C=C1C(=O)N[C@H](C)C(=O)N[C@@H](CC(C)C)C(=O)N[C@@H](C(=O)O)[C@H](C)C(=O)N[C@@H](CCCN=C(N)N)C(=O)N[C@@H](/C=C/C(C)=C/[C@H](C)[C@H](Cc2ccccc2)OC)[C@H](C)C(=O)N[C@@H](C(=O)O)CCC(=O)N1C
REMARK SMILES IDX 39 1 38 2 37 3 36 4 28 6 27 7 25 8 26 9 23 11 24 12 19 13
REMARK SMILES IDX 18 14 16 15 17 16 11 18 10 19 8 20 9 21 12 24 13 25 14 26
REMARK SMILES IDX 15 27 20 28 21 29 22 30 29 32 30 33 31 34 32 35 33 36 34 37
REMARK SMILES IDX 35 38 57 43 58 44 59 45 60 46 61 47 62 49 66 50 67 51 68 52
REMARK SMILES IDX 69 53 70 54 71 55 2 56 1 57 3 58 4 59 5 60 6 62 7 63 63 65
REMARK SMILES IDX 64 66 65 67 40 69 41 70 42 71 44 72 43 73 45 74 46 75 47 76
REMARK SMILES IDX 55 77 56 78 48 79 49 80 50 81 54 82 51 83 53 84 52 85
REMARK H PARENT 38 5 27 10 18 17 10 22 22 31 34 39 34 40 35 41 35 42 61 48
REMARK H PARENT 5 61 65 68
REMARK Flexibility Score:  369.900
ROOT
ATOM      1  C   UNL     1      -8.876  -2.032   8.630  1.00  0.00     0.117 C 
ENDROOT
BRANCH   1   2
ATOM      2  N   UNL     1      -8.807  -1.537  10.006  1.00  0.00    -0.347 N 
ATOM      3  O   UNL     1      -9.558   0.596   9.609  1.00  0.00    -0.273 OA
ATOM      4  C   UNL     1      -9.241  -0.286  10.400  1.00  0.00     0.243 C 
ATOM      5  H   UNL     1      -8.469  -2.147  10.734  1.00  0.00     0.164 HD
BRANCH   4   6
ATOM      6  C   UNL     1      -9.136  -0.043  11.927  1.00  0.00     0.171 C 
BRANCH   6   7
ATOM      7  N   UNL     1      -9.294   1.388  12.233  1.00  0.00    -0.344 N 
ATOM      8  C   UNL     1      -8.195   2.216  12.307  1.00  0.00     0.226 C 
ATOM      9  O   UNL     1      -7.050   1.809  12.149  1.00  0.00    -0.275 OA
ATOM     10  H   UNL     1     -10.218   1.747  12.436  1.00  0.00     0.164 HD
BRANCH   8  11
ATOM     11  C   UNL     1      -8.527   3.673  12.576  1.00  0.00     0.109 C 
ATOM     12  C   UNL     1      -7.686   4.198  13.740  1.00  0.00     0.021 C 
BRANCH  11  13
ATOM     13  C   UNL     1      -8.406   4.485  11.271  1.00  0.00     0.204 C 
BRANCH  13  14
ATOM     14  N   UNL     1      -7.318   3.998  10.417  1.00  0.00    -0.340 N 
ATOM     15  C   UNL     1      -6.535   4.835   9.652  1.00  0.00     0.243 C 
ATOM     16  O   UNL     1      -6.657   6.059   9.677  1.00  0.00    -0.273 OA
ATOM     17  H   UNL     1      -7.263   2.992  10.235  1.00  0.00     0.164 HD
BRANCH  15  18
ATOM     18  C   UNL     1      -5.594   4.084   8.678  1.00  0.00     0.171 C 
BRANCH  18  19
ATOM     19  N   UNL     1      -4.294   4.749   8.757  1.00  0.00    -0.343 N 
ATOM     20  C   UNL     1      -3.713   5.344   7.654  1.00  0.00     0.242 CG0
ATOM     21  O   UNL     1      -4.196   5.228   6.530  1.00  0.00    -0.273 OA
ATOM     22  H   UNL     1      -3.799   4.771   9.641  1.00  0.00     0.164 HD
ATOM     23  G   UNL     1      -2.380   6.063   7.948  1.00  0.00     0.000 G0
ENDBRANCH  18  19
BRANCH  18  24
ATOM     24  C   UNL     1      -5.491   2.602   9.060  1.00  0.00     0.038 C 
BRANCH  24  25
ATOM     25  C   UNL     1      -5.737   1.619   7.897  1.00  0.00    -0.015 C 
ATOM     26  C   UNL     1      -4.796   1.862   6.716  1.00  0.00     0.007 C 
ATOM     27  C   UNL     1      -7.190   1.728   7.428  1.00  0.00     0.007 C 
ENDBRANCH  24  25
ENDBRANCH  18  24
ENDBRANCH  15  18
ENDBRANCH  13  14
BRANCH  13  28
ATOM     28  C   UNL     1      -9.685   4.467  10.428  1.00  0.00     0.327 C 
ATOM     29  O   UNL     1     -10.502   5.371  10.335  1.00  0.00    -0.250 OA
BRANCH  28  30
ATOM     30  O   UNL     1      -9.921   3.273   9.849  1.00  0.00    -0.480 OA
ATOM     31  H   UNL     1      -9.913   3.464   8.888  1.00  0.00     0.296 HD
ENDBRANCH  28  30
ENDBRANCH  13  28
ENDBRANCH  11  13
ENDBRANCH   8  11
ENDBRANCH   6   7
BRANCH   6  32
ATOM     32  C   UNL     1     -10.204  -0.877  12.645  1.00  0.00     0.037 C 
BRANCH  32  33
ATOM     33  C   UNL     1     -11.596  -0.693  12.024  1.00  0.00     0.026 C 
BRANCH  33  34
ATOM     34  C   UNL     1     -12.463   0.289  12.813  1.00  0.00     0.146 C 
BRANCH  34  35
ATOM     35  N   UNL     1     -12.183   1.641  12.349  1.00  0.00    -0.254 NA
ATOM     36  C   UNL     1     -13.041   2.221  11.595  1.00  0.00     0.185 C 
ATOM     37  N   UNL     1     -12.796   3.469  11.166  1.00  0.00    -0.370 N 
ATOM     38  N   UNL     1     -14.217   1.755  11.138  1.00  0.00    -0.370 N 
ATOM     39  H   UNL     1     -11.932   3.894  11.477  1.00  0.00     0.159 HD
ATOM     40  H   UNL     1     -13.486   4.050  10.722  1.00  0.00     0.159 HD
ATOM     41  H   UNL     1     -14.738   2.255  10.437  1.00  0.00     0.159 HD
ATOM     42  H   UNL     1     -14.523   0.823  11.368  1.00  0.00     0.159 HD
ENDBRANCH  34  35
ENDBRANCH  33  34
ENDBRANCH  32  33
ENDBRANCH   6  32
ENDBRANCH   4   6
ENDBRANCH   1   2
BRANCH   1  43
ATOM     43  C   UNL     1      -9.609  -3.404   8.634  1.00  0.00     0.102 C 
ATOM     44  C   UNL     1     -10.591  -3.570   9.807  1.00  0.00     0.020 C 
BRANCH  43  45
ATOM     45  C   UNL     1      -8.614  -4.559   8.489  1.00  0.00     0.225 C 
ATOM     46  O   UNL     1      -8.422  -5.150   7.430  1.00  0.00    -0.275 OA
ATOM     47  N   UNL     1      -8.004  -4.966   9.654  1.00  0.00    -0.342 N 
ATOM     48  H   UNL     1      -8.054  -4.381  10.476  1.00  0.00     0.164 HD
BRANCH  47  49
ATOM     49  C   UNL     1      -7.002  -6.036   9.661  1.00  0.00     0.192 C 
BRANCH  49  50
ATOM     50  C   UNL     1      -6.934  -6.668  11.054  1.00  0.00     0.047 C 
BRANCH  50  51
ATOM     51  C   UNL     1      -7.839  -5.949  12.063  1.00  0.00     0.103 C 
BRANCH  51  52
ATOM     52  C   UNL     1      -9.149  -6.700  12.295  1.00  0.00     0.226 C 
ATOM     53  O   UNL     1      -9.907  -6.910  11.346  1.00  0.00    -0.275 OA
BRANCH  52  54
ATOM     54  N   UNL     1      -9.374  -7.182  13.598  1.00  0.00    -0.311 N 
ATOM     55  C   UNL     1      -8.257  -7.398  14.527  1.00  0.00     0.153 C 
BRANCH  54  56
ATOM     56  C   UNL     1     -10.670  -7.466  14.060  1.00  0.00     0.102 C 
ATOM     57  C   UNL     1     -11.512  -6.564  14.589  1.00  0.00     0.043 C 
BRANCH  56  58
ATOM     58  C   UNL     1     -11.245  -8.858  13.947  1.00  0.00     0.268 C 
ATOM     59  O   UNL     1     -11.779  -9.281  12.930  1.00  0.00    -0.268 OA
ATOM     60  N   UNL     1     -11.047  -9.618  15.075  1.00  0.00    -0.339 N 
ATOM     61  H   UNL     1     -10.604  -9.190  15.879  1.00  0.00     0.164 HD
BRANCH  60  62
ATOM     62  C   UNL     1     -11.469 -11.016  15.157  1.00  0.00     0.168 CG0
ATOM     63  C   UNL     1     -12.751 -11.153  15.968  1.00  0.00     0.041 C 
ATOM     64  G   UNL     1     -10.337 -11.862  15.776  1.00  0.00     0.000 G0
ENDBRANCH  60  62
ENDBRANCH  56  58
ENDBRANCH  54  56
ENDBRANCH  52  54
ENDBRANCH  51  52
ENDBRANCH  50  51
ENDBRANCH  49  50
BRANCH  49  65
ATOM     65  C   UNL     1      -5.611  -5.513   9.270  1.00  0.00     0.326 C 
ATOM     66  O   UNL     1      -4.752  -5.127  10.050  1.00  0.00    -0.250 OA
BRANCH  65  67
ATOM     67  O   UNL     1      -5.388  -5.442   7.939  1.00  0.00    -0.480 OA
ATOM     68  H   UNL     1      -6.287  -5.504   7.551  1.00  0.00     0.296 HD
ENDBRANCH  65  67
ENDBRANCH  49  65
ENDBRANCH  47  49
ENDBRANCH  43  45
ENDBRANCH   1  43
BRANCH   1  69
ATOM     69  C   UNL     1      -7.464  -1.956   8.080  1.00  0.00    -0.001 C 
ATOM     70  C   UNL     1      -6.315  -1.921   8.780  1.00  0.00     0.001 C 
BRANCH  70  71
ATOM     71  C   UNL     1      -4.956  -1.869   8.237  1.00  0.00    -0.055 C 
ATOM     72  C   UNL     1      -3.929  -1.905   9.112  1.00  0.00    -0.018 C 
ATOM     73  C   UNL     1      -4.800  -1.788   6.741  1.00  0.00     0.044 C 
BRANCH  72  74
ATOM     74  C   UNL     1      -2.432  -1.870   8.842  1.00  0.00     0.038 C 
ATOM     75  C   UNL     1      -2.060  -3.204   8.183  1.00  0.00     0.015 C 
BRANCH  74  76
ATOM     76  C   UNL     1      -1.689  -1.572  10.178  1.00  0.00     0.128 C 
BRANCH  76  77
ATOM     77  O   UNL     1      -1.220  -2.799  10.763  1.00  0.00    -0.381 OA
ATOM     78  C   UNL     1      -0.049  -2.644  11.552  1.00  0.00     0.195 C 
ENDBRANCH  76  77
BRANCH  76  79
ATOM     79  C   UNL     1      -0.574  -0.504  10.052  1.00  0.00     0.068 C 
BRANCH  79  80
ATOM     80  C   UNL     1      -0.863   0.884  10.573  1.00  0.00    -0.045 A 
ATOM     81  C   UNL     1      -1.298   1.901   9.713  1.00  0.00     0.004 A 
ATOM     82  C   UNL     1      -0.671   1.184  11.930  1.00  0.00     0.004 A 
ATOM     83  C   UNL     1      -1.550   3.185  10.200  1.00  0.00     0.000 A 
ATOM     84  C   UNL     1      -0.922   2.469  12.416  1.00  0.00     0.000 A 
ATOM     85  C   UNL     1      -1.362   3.469  11.551  1.00  0.00     0.000 A 
ENDBRANCH  79  80
ENDBRANCH  76  79
ENDBRANCH  74  76
ENDBRANCH  72  74
ENDBRANCH  70  71
ENDBRANCH   1  69
TORSDOF 17
ENDMDL
MODEL 4
REMARK VINA RESULT:    -8.099      2.492      4.188
REMARK INTER + INTRA:         -30.006
REMARK INTER:                 -22.724
REMARK INTRA:                  -7.282
REMARK UNBOUND:                -5.809
REMARK SMILES C=C1C(=O)N[C@H](C)C(=O)N[C@@H](CC(C)C)C(=O)N[C@@H](C(=O)O)[C@H](C)C(=O)N[C@@H](CCCN=C(N)N)C(=O)N[C@@H](/C=C/C(C)=C/[C@H](C)[C@H](Cc2ccccc2)OC)[C@H](C)C(=O)N[C@@H](C(=O)O)CCC(=O)N1C
REMARK SMILES IDX 39 1 38 2 37 3 36 4 28 6 27 7 25 8 26 9 23 11 24 12 19 13
REMARK SMILES IDX 18 14 16 15 17 16 11 18 10 19 8 20 9 21 12 24 13 25 14 26
REMARK SMILES IDX 15 27 20 28 21 29 22 30 29 32 30 33 31 34 32 35 33 36 34 37
REMARK SMILES IDX 35 38 57 43 58 44 59 45 60 46 61 47 62 49 66 50 67 51 68 52
REMARK SMILES IDX 69 53 70 54 71 55 2 56 1 57 3 58 4 59 5 60 6 62 7 63 63 65
REMARK SMILES IDX 64 66 65 67 40 69 41 70 42 71 44 72 43 73 45 74 46 75 47 76
REMARK SMILES IDX 55 77 56 78 48 79 49 80 50 81 54 82 51 83 53 84 52 85
REMARK H PARENT 38 5 27 10 18 17 10 22 22 31 34 39 34 40 35 41 35 42 61 48
REMARK H PARENT 5 61 65 68
REMARK Flexibility Score:  369.900
ROOT
ATOM      1  C   UNL     1      -7.169  -3.145   9.368  1.00  0.00     0.117 C 
ENDROOT
BRANCH   1   2
ATOM      2  N   UNL     1      -5.759  -3.513   9.231  1.00  0.00    -0.347 N 
ATOM      3  O   UNL     1      -5.687  -3.631   6.940  1.00  0.00    -0.273 OA
ATOM      4  C   UNL     1      -5.106  -3.637   8.020  1.00  0.00     0.243 C 
ATOM      5  H   UNL     1      -5.199  -3.640  10.060  1.00  0.00     0.164 HD
BRANCH   4   6
ATOM      6  C   UNL     1      -3.595  -3.950   8.156  1.00  0.00     0.171 C 
BRANCH   6   7
ATOM      7  N   UNL     1      -3.147  -3.732   9.541  1.00  0.00    -0.344 N 
ATOM      8  C   UNL     1      -1.954  -3.094   9.801  1.00  0.00     0.226 C 
ATOM      9  O   UNL     1      -1.207  -2.702   8.913  1.00  0.00    -0.275 OA
ATOM     10  H   UNL     1      -3.705  -4.101  10.301  1.00  0.00     0.164 HD
BRANCH   8  11
ATOM     11  C   UNL     1      -1.659  -2.896  11.278  1.00  0.00     0.109 C 
ATOM     12  C   UNL     1      -0.172  -3.119  11.552  1.00  0.00     0.021 C 
BRANCH  11  13
ATOM     13  C   UNL     1      -2.206  -1.531  11.741  1.00  0.00     0.204 C 
BRANCH  13  14
ATOM     14  N   UNL     1      -2.286  -0.566  10.639  1.00  0.00    -0.340 N 
ATOM     15  C   UNL     1      -2.375   0.794  10.841  1.00  0.00     0.243 C 
ATOM     16  O   UNL     1      -2.333   1.300  11.961  1.00  0.00    -0.273 OA
ATOM     17  H   UNL     1      -2.477  -0.925   9.700  1.00  0.00     0.164 HD
BRANCH  15  18
ATOM     18  C   UNL     1      -2.658   1.594   9.545  1.00  0.00     0.171 C 
BRANCH  18  19
ATOM     19  N   UNL     1      -1.482   2.426   9.302  1.00  0.00    -0.343 N 
ATOM     20  C   UNL     1      -1.440   3.756   9.675  1.00  0.00     0.242 CG0
ATOM     21  O   UNL     1      -2.434   4.335  10.106  1.00  0.00    -0.273 OA
ATOM     22  H   UNL     1      -0.673   2.023   8.842  1.00  0.00     0.164 HD
ATOM     23  G   UNL     1      -0.088   4.450   9.408  1.00  0.00     0.000 G0
ENDBRANCH  18  19
BRANCH  18  24
ATOM     24  C   UNL     1      -2.928   0.645   8.371  1.00  0.00     0.038 C 
BRANCH  24  25
ATOM     25  C   UNL     1      -4.202   0.967   7.562  1.00  0.00    -0.015 C 
ATOM     26  C   UNL     1      -4.337   0.097   6.312  1.00  0.00     0.007 C 
ATOM     27  C   UNL     1      -4.198   2.445   7.163  1.00  0.00     0.007 C 
ENDBRANCH  24  25
ENDBRANCH  18  24
ENDBRANCH  15  18
ENDBRANCH  13  14
BRANCH  13  28
ATOM     28  C   UNL     1      -3.601  -1.620  12.368  1.00  0.00     0.327 C 
ATOM     29  O   UNL     1      -3.860  -1.590  13.561  1.00  0.00    -0.250 OA
BRANCH  28  30
ATOM     30  O   UNL     1      -4.572  -1.862  11.464  1.00  0.00    -0.480 OA
ATOM     31  H   UNL     1      -5.207  -2.436  11.940  1.00  0.00     0.296 HD
ENDBRANCH  28  30
ENDBRANCH  13  28
ENDBRANCH  11  13
ENDBRANCH   8  11
ENDBRANCH   6   7
BRANCH   6  32
ATOM     32  C   UNL     1      -3.339  -5.398   7.720  1.00  0.00     0.037 C 
BRANCH  32  33
ATOM     33  C   UNL     1      -2.445  -5.478   6.475  1.00  0.00     0.026 C 
BRANCH  33  34
ATOM     34  C   UNL     1      -3.146  -6.150   5.294  1.00  0.00     0.146 C 
BRANCH  34  35
ATOM     35  N   UNL     1      -3.874  -5.137   4.542  1.00  0.00    -0.254 NA
ATOM     36  C   UNL     1      -4.370  -5.454   3.404  1.00  0.00     0.185 C 
ATOM     37  N   UNL     1      -5.047  -4.530   2.705  1.00  0.00    -0.370 N 
ATOM     38  N   UNL     1      -4.321  -6.634   2.761  1.00  0.00    -0.370 N 
ATOM     39  H   UNL     1      -5.137  -3.616   3.130  1.00  0.00     0.159 HD
ATOM     40  H   UNL     1      -5.608  -4.744   1.899  1.00  0.00     0.159 HD
ATOM     41  H   UNL     1      -4.630  -6.720   1.806  1.00  0.00     0.159 HD
ATOM     42  H   UNL     1      -3.829  -7.417   3.163  1.00  0.00     0.159 HD
ENDBRANCH  34  35
ENDBRANCH  33  34
ENDBRANCH  32  33
ENDBRANCH   6  32
ENDBRANCH   4   6
ENDBRANCH   1   2
BRANCH   1  43
ATOM     43  C   UNL     1      -8.037  -4.261   8.717  1.00  0.00     0.102 C 
ATOM     44  C   UNL     1      -9.487  -3.826   8.443  1.00  0.00     0.020 C 
BRANCH  43  45
ATOM     45  C   UNL     1      -7.919  -5.574   9.496  1.00  0.00     0.225 C 
ATOM     46  O   UNL     1      -7.701  -6.656   8.958  1.00  0.00    -0.275 OA
ATOM     47  N   UNL     1      -8.166  -5.486  10.847  1.00  0.00    -0.342 N 
ATOM     48  H   UNL     1      -8.192  -4.580  11.293  1.00  0.00     0.164 HD
BRANCH  47  49
ATOM     49  C   UNL     1      -8.054  -6.655  11.724  1.00  0.00     0.192 C 
BRANCH  49  50
ATOM     50  C   UNL     1      -8.716  -6.353  13.071  1.00  0.00     0.047 C 
BRANCH  50  51
ATOM     51  C   UNL     1      -8.919  -7.618  13.917  1.00  0.00     0.103 C 
BRANCH  51  52
ATOM     52  C   UNL     1     -10.383  -8.050  13.960  1.00  0.00     0.226 C 
ATOM     53  O   UNL     1     -11.267  -7.242  13.668  1.00  0.00    -0.275 OA
BRANCH  52  54
ATOM     54  N   UNL     1     -10.629  -9.402  14.266  1.00  0.00    -0.311 N 
ATOM     55  C   UNL     1      -9.721 -10.459  13.803  1.00  0.00     0.153 C 
BRANCH  54  56
ATOM     56  C   UNL     1     -11.744  -9.789  15.029  1.00  0.00     0.102 C 
ATOM     57  C   UNL     1     -11.797  -9.781  16.371  1.00  0.00     0.043 C 
BRANCH  56  58
ATOM     58  C   UNL     1     -13.029 -10.217  14.360  1.00  0.00     0.268 C 
ATOM     59  O   UNL     1     -13.491  -9.656  13.376  1.00  0.00    -0.268 OA
ATOM     60  N   UNL     1     -13.587 -11.337  14.930  1.00  0.00    -0.339 N 
ATOM     61  H   UNL     1     -13.148 -11.736  15.751  1.00  0.00     0.164 HD
BRANCH  60  62
ATOM     62  C   UNL     1     -14.800 -11.957  14.400  1.00  0.00     0.168 CG0
ATOM     63  C   UNL     1     -16.001 -11.660  15.291  1.00  0.00     0.041 C 
ATOM     64  G   UNL     1     -14.586 -13.479  14.264  1.00  0.00     0.000 G0
ENDBRANCH  60  62
ENDBRANCH  56  58
ENDBRANCH  54  56
ENDBRANCH  52  54
ENDBRANCH  51  52
ENDBRANCH  50  51
ENDBRANCH  49  50
BRANCH  49  65
ATOM     65  C   UNL     1      -6.588  -7.052  11.955  1.00  0.00     0.326 C 
ATOM     66  O   UNL     1      -5.797  -6.462  12.677  1.00  0.00    -0.250 OA
BRANCH  65  67
ATOM     67  O   UNL     1      -6.172  -8.118  11.236  1.00  0.00    -0.480 OA
ATOM     68  H   UNL     1      -5.501  -7.739  10.628  1.00  0.00     0.296 HD
ENDBRANCH  65  67
ENDBRANCH  49  65
ENDBRANCH  47  49
ENDBRANCH  43  45
ENDBRANCH   1  43
BRANCH   1  69
ATOM     69  C   UNL     1      -7.289  -1.725   8.846  1.00  0.00    -0.001 C 
ATOM     70  C   UNL     1      -7.311  -0.589   9.566  1.00  0.00     0.001 C 
BRANCH  70  71
ATOM     71  C   UNL     1      -7.406   0.778   9.050  1.00  0.00    -0.055 C 
ATOM     72  C   UNL     1      -7.156   1.791   9.907  1.00  0.00    -0.018 C 
ATOM     73  C   UNL     1      -7.767   0.957   7.599  1.00  0.00     0.044 C 
BRANCH  72  74
ATOM     74  C   UNL     1      -7.176   3.292   9.655  1.00  0.00     0.038 C 
ATOM     75  C   UNL     1      -5.798   3.835  10.052  1.00  0.00     0.015 C 
BRANCH  74  76
ATOM     76  C   UNL     1      -8.372   3.915  10.433  1.00  0.00     0.128 C 
BRANCH  76  77
ATOM     77  O   UNL     1      -8.268   5.348  10.427  1.00  0.00    -0.381 OA
ATOM     78  C   UNL     1      -8.494   5.942  11.699  1.00  0.00     0.195 C 
ENDBRANCH  76  77
BRANCH  76  79
ATOM     79  C   UNL     1      -9.760   3.412   9.961  1.00  0.00     0.068 C 
BRANCH  79  80
ATOM     80  C   UNL     1     -10.580   2.590  10.926  1.00  0.00    -0.045 A 
ATOM     81  C   UNL     1     -11.284   3.197  11.974  1.00  0.00     0.004 A 
ATOM     82  C   UNL     1     -10.627   1.193  10.802  1.00  0.00     0.004 A 
ATOM     83  C   UNL     1     -12.029   2.428  12.871  1.00  0.00     0.000 A 
ATOM     84  C   UNL     1     -11.371   0.425  11.700  1.00  0.00     0.000 A 
ATOM     85  C   UNL     1     -12.073   1.042  12.732  1.00  0.00     0.000 A 
ENDBRANCH  79  80
ENDBRANCH  76  79
ENDBRANCH  74  76
ENDBRANCH  72  74
ENDBRANCH  70  71
ENDBRANCH   1  69
TORSDOF 17
ENDMDL
MODEL 5
REMARK VINA RESULT:    -8.043      3.218      7.012
REMARK INTER + INTRA:         -29.839
REMARK INTER:                 -21.617
REMARK INTRA:                  -8.222
REMARK UNBOUND:                -5.809
REMARK SMILES C=C1C(=O)N[C@H](C)C(=O)N[C@@H](CC(C)C)C(=O)N[C@@H](C(=O)O)[C@H](C)C(=O)N[C@@H](CCCN=C(N)N)C(=O)N[C@@H](/C=C/C(C)=C/[C@H](C)[C@H](Cc2ccccc2)OC)[C@H](C)C(=O)N[C@@H](C(=O)O)CCC(=O)N1C
REMARK SMILES IDX 39 1 38 2 37 3 36 4 28 6 27 7 25 8 26 9 23 11 24 12 19 13
REMARK SMILES IDX 18 14 16 15 17 16 11 18 10 19 8 20 9 21 12 24 13 25 14 26
REMARK SMILES IDX 15 27 20 28 21 29 22 30 29 32 30 33 31 34 32 35 33 36 34 37
REMARK SMILES IDX 35 38 57 43 58 44 59 45 60 46 61 47 62 49 66 50 67 51 68 52
REMARK SMILES IDX 69 53 70 54 71 55 2 56 1 57 3 58 4 59 5 60 6 62 7 63 63 65
REMARK SMILES IDX 64 66 65 67 40 69 41 70 42 71 44 72 43 73 45 74 46 75 47 76
REMARK SMILES IDX 55 77 56 78 48 79 49 80 50 81 54 82 51 83 53 84 52 85
REMARK H PARENT 38 5 27 10 18 17 10 22 22 31 34 39 34 40 35 41 35 42 61 48
REMARK H PARENT 5 61 65 68
REMARK Flexibility Score:  369.900
ROOT
ATOM      1  C   UNL     1     -10.271  -1.863  10.217  1.00  0.00     0.117 C 
ENDROOT
BRANCH   1   2
ATOM      2  N   UNL     1      -9.644  -0.647  10.738  1.00  0.00    -0.347 N 
ATOM      3  O   UNL     1      -8.422  -0.102   8.873  1.00  0.00    -0.273 OA
ATOM      4  C   UNL     1      -8.838   0.188   9.989  1.00  0.00     0.243 C 
ATOM      5  H   UNL     1      -9.839  -0.357  11.684  1.00  0.00     0.164 HD
BRANCH   4   6
ATOM      6  C   UNL     1      -8.372   1.454  10.754  1.00  0.00     0.171 C 
BRANCH   6   7
ATOM      7  N   UNL     1      -7.876   2.470   9.812  1.00  0.00    -0.344 N 
ATOM      8  C   UNL     1      -6.719   3.170  10.079  1.00  0.00     0.226 C 
ATOM      9  O   UNL     1      -6.068   3.003  11.103  1.00  0.00    -0.275 OA
ATOM     10  H   UNL     1      -8.423   2.683   8.987  1.00  0.00     0.164 HD
BRANCH   8  11
ATOM     11  C   UNL     1      -6.311   4.142   8.986  1.00  0.00     0.109 C 
ATOM     12  C   UNL     1      -6.162   5.550   9.564  1.00  0.00     0.021 C 
BRANCH  11  13
ATOM     13  C   UNL     1      -5.065   3.608   8.252  1.00  0.00     0.204 C 
BRANCH  13  14
ATOM     14  N   UNL     1      -3.903   3.503   9.140  1.00  0.00    -0.340 N 
ATOM     15  C   UNL     1      -2.691   4.096   8.861  1.00  0.00     0.243 C 
ATOM     16  O   UNL     1      -2.516   4.808   7.873  1.00  0.00    -0.273 OA
ATOM     17  H   UNL     1      -3.935   2.809   9.892  1.00  0.00     0.164 HD
BRANCH  15  18
ATOM     18  C   UNL     1      -1.559   3.678   9.831  1.00  0.00     0.171 C 
BRANCH  18  19
ATOM     19  N   UNL     1      -1.192   4.874  10.587  1.00  0.00    -0.343 N 
ATOM     20  C   UNL     1      -0.131   5.675  10.212  1.00  0.00     0.242 CG0
ATOM     21  O   UNL     1       0.634   5.349   9.307  1.00  0.00    -0.273 OA
ATOM     22  H   UNL     1      -1.724   5.123  11.413  1.00  0.00     0.164 HD
ATOM     23  G   UNL     1       0.055   6.935  11.083  1.00  0.00     0.000 G0
ENDBRANCH  18  19
BRANCH  18  24
ATOM     24  C   UNL     1      -2.030   2.550  10.758  1.00  0.00     0.038 C 
BRANCH  24  25
ATOM     25  C   UNL     1      -1.155   1.279  10.722  1.00  0.00    -0.015 C 
ATOM     26  C   UNL     1       0.313   1.587  10.428  1.00  0.00     0.007 C 
ATOM     27  C   UNL     1      -1.699   0.310   9.669  1.00  0.00     0.007 C 
ENDBRANCH  24  25
ENDBRANCH  18  24
ENDBRANCH  15  18
ENDBRANCH  13  14
BRANCH  13  28
ATOM     28  C   UNL     1      -5.281   2.228   7.622  1.00  0.00     0.327 C 
ATOM     29  O   UNL     1      -6.015   1.970   6.681  1.00  0.00    -0.250 OA
BRANCH  28  30
ATOM     30  O   UNL     1      -4.652   1.239   8.289  1.00  0.00    -0.480 OA
ATOM     31  H   UNL     1      -3.912   0.984   7.701  1.00  0.00     0.296 HD
ENDBRANCH  28  30
ENDBRANCH  13  28
ENDBRANCH  11  13
ENDBRANCH   8  11
ENDBRANCH   6   7
BRANCH   6  32
ATOM     32  C   UNL     1      -9.540   2.000  11.583  1.00  0.00     0.037 C 
BRANCH  32  33
ATOM     33  C   UNL     1     -10.567   2.743  10.717  1.00  0.00     0.026 C 
BRANCH  33  34
ATOM     34  C   UNL     1     -10.630   4.237  11.037  1.00  0.00     0.146 C 
BRANCH  34  35
ATOM     35  N   UNL     1      -9.502   4.582  11.891  1.00  0.00    -0.254 NA
ATOM     36  C   UNL     1      -9.074   5.790  11.886  1.00  0.00     0.185 C 
ATOM     37  N   UNL     1      -8.038   6.120  12.672  1.00  0.00    -0.370 N 
ATOM     38  N   UNL     1      -9.522   6.841  11.177  1.00  0.00    -0.370 N 
ATOM     39  H   UNL     1      -7.651   5.382  13.246  1.00  0.00     0.159 HD
ATOM     40  H   UNL     1      -7.759   7.069  12.855  1.00  0.00     0.159 HD
ATOM     41  H   UNL     1      -9.013   7.710  11.155  1.00  0.00     0.159 HD
ATOM     42  H   UNL     1     -10.289   6.735  10.531  1.00  0.00     0.159 HD
ENDBRANCH  34  35
ENDBRANCH  33  34
ENDBRANCH  32  33
ENDBRANCH   6  32
ENDBRANCH   4   6
ENDBRANCH   1   2
BRANCH   1  43
ATOM     43  C   UNL     1     -11.748  -1.906  10.705  1.00  0.00     0.102 C 
ATOM     44  C   UNL     1     -12.550  -0.645  10.341  1.00  0.00     0.020 C 
BRANCH  43  45
ATOM     45  C   UNL     1     -11.827  -2.287  12.186  1.00  0.00     0.225 C 
ATOM     46  O   UNL     1     -11.399  -1.570  13.087  1.00  0.00    -0.275 OA
ATOM     47  N   UNL     1     -12.331  -3.540  12.450  1.00  0.00    -0.342 N 
ATOM     48  H   UNL     1     -12.814  -4.048  11.723  1.00  0.00     0.164 HD
BRANCH  47  49
ATOM     49  C   UNL     1     -12.498  -4.025  13.823  1.00  0.00     0.192 C 
BRANCH  49  50
ATOM     50  C   UNL     1     -11.707  -5.322  14.011  1.00  0.00     0.047 C 
BRANCH  50  51
ATOM     51  C   UNL     1     -10.272  -5.211  13.479  1.00  0.00     0.103 C 
BRANCH  51  52
ATOM     52  C   UNL     1      -9.729  -6.558  13.006  1.00  0.00     0.226 C 
ATOM     53  O   UNL     1     -10.049  -6.988  11.896  1.00  0.00    -0.275 OA
BRANCH  52  54
ATOM     54  N   UNL     1      -8.816  -7.201  13.861  1.00  0.00    -0.311 N 
ATOM     55  C   UNL     1      -8.440  -6.606  15.151  1.00  0.00     0.153 C 
BRANCH  54  56
ATOM     56  C   UNL     1      -8.235  -8.433  13.519  1.00  0.00     0.102 C 
ATOM     57  C   UNL     1      -6.986  -8.591  13.052  1.00  0.00     0.043 C 
BRANCH  56  58
ATOM     58  C   UNL     1      -8.995  -9.726  13.704  1.00  0.00     0.268 C 
ATOM     59  O   UNL     1      -8.650 -10.784  13.194  1.00  0.00    -0.268 OA
ATOM     60  N   UNL     1     -10.070  -9.604  14.552  1.00  0.00    -0.339 N 
ATOM     61  H   UNL     1     -10.295  -8.690  14.925  1.00  0.00     0.164 HD
BRANCH  60  62
ATOM     62  C   UNL     1     -10.905 -10.747  14.919  1.00  0.00     0.168 CG0
ATOM     63  C   UNL     1     -11.805 -10.409  16.101  1.00  0.00     0.041 C 
ATOM     64  G   UNL     1     -10.009 -11.960  15.243  1.00  0.00     0.000 G0
ENDBRANCH  60  62
ENDBRANCH  56  58
ENDBRANCH  54  56
ENDBRANCH  52  54
ENDBRANCH  51  52
ENDBRANCH  50  51
ENDBRANCH  49  50
BRANCH  49  65
ATOM     65  C   UNL     1     -13.976  -4.277  14.159  1.00  0.00     0.326 C 
ATOM     66  O   UNL     1     -14.414  -5.251  14.754  1.00  0.00    -0.250 OA
BRANCH  65  67
ATOM     67  O   UNL     1     -14.829  -3.341  13.687  1.00  0.00    -0.480 OA
ATOM     68  H   UNL     1     -15.687  -3.582  14.098  1.00  0.00     0.296 HD
ENDBRANCH  65  67
ENDBRANCH  49  65
ENDBRANCH  47  49
ENDBRANCH  43  45
ENDBRANCH   1  43
BRANCH   1  69
ATOM     69  C   UNL     1      -9.344  -3.008  10.582  1.00  0.00    -0.001 C 
ATOM     70  C   UNL     1      -8.464  -3.633   9.782  1.00  0.00     0.001 C 
BRANCH  70  71
ATOM     71  C   UNL     1      -7.558  -4.723  10.151  1.00  0.00    -0.055 C 
ATOM     72  C   UNL     1      -6.644  -4.481  11.114  1.00  0.00    -0.018 C 
ATOM     73  C   UNL     1      -7.717  -6.040   9.437  1.00  0.00     0.044 C 
BRANCH  72  74
ATOM     74  C   UNL     1      -5.590  -5.411  11.698  1.00  0.00     0.038 C 
ATOM     75  C   UNL     1      -5.515  -5.122  13.202  1.00  0.00     0.015 C 
BRANCH  74  76
ATOM     76  C   UNL     1      -4.255  -5.202  10.925  1.00  0.00     0.128 C 
BRANCH  76  77
ATOM     77  O   UNL     1      -4.227  -6.041   9.758  1.00  0.00    -0.381 OA
ATOM     78  C   UNL     1      -4.100  -5.321   8.540  1.00  0.00     0.195 C 
ENDBRANCH  76  77
BRANCH  76  79
ATOM     79  C   UNL     1      -3.938  -3.720  10.605  1.00  0.00     0.068 C 
BRANCH  79  80
ATOM     80  C   UNL     1      -2.753  -3.086  11.294  1.00  0.00    -0.045 A 
ATOM     81  C   UNL     1      -2.927  -2.245  12.402  1.00  0.00     0.004 A 
ATOM     82  C   UNL     1      -1.454  -3.308  10.814  1.00  0.00     0.004 A 
ATOM     83  C   UNL     1      -1.828  -1.651  13.025  1.00  0.00     0.000 A 
ATOM     84  C   UNL     1      -0.355  -2.712  11.438  1.00  0.00     0.000 A 
ATOM     85  C   UNL     1      -0.542  -1.886  12.543  1.00  0.00     0.000 A 
ENDBRANCH  79  80
ENDBRANCH  76  79
ENDBRANCH  74  76
ENDBRANCH  72  74
ENDBRANCH  70  71
ENDBRANCH   1  69
TORSDOF 17
ENDMDL
MODEL 6
REMARK VINA RESULT:    -8.035      2.170      3.142
REMARK INTER + INTRA:         -29.815
REMARK INTER:                 -23.604
REMARK INTRA:                  -6.211
REMARK UNBOUND:                -5.809
REMARK SMILES C=C1C(=O)N[C@H](C)C(=O)N[C@@H](CC(C)C)C(=O)N[C@@H](C(=O)O)[C@H](C)C(=O)N[C@@H](CCCN=C(N)N)C(=O)N[C@@H](/C=C/C(C)=C/[C@H](C)[C@H](Cc2ccccc2)OC)[C@H](C)C(=O)N[C@@H](C(=O)O)CCC(=O)N1C
REMARK SMILES IDX 39 1 38 2 37 3 36 4 28 6 27 7 25 8 26 9 23 11 24 12 19 13
REMARK SMILES IDX 18 14 16 15 17 16 11 18 10 19 8 20 9 21 12 24 13 25 14 26
REMARK SMILES IDX 15 27 20 28 21 29 22 30 29 32 30 33 31 34 32 35 33 36 34 37
REMARK SMILES IDX 35 38 57 43 58 44 59 45 60 46 61 47 62 49 66 50 67 51 68 52
REMARK SMILES IDX 69 53 70 54 71 55 2 56 1 57 3 58 4 59 5 60 6 62 7 63 63 65
REMARK SMILES IDX 64 66 65 67 40 69 41 70 42 71 44 72 43 73 45 74 46 75 47 76
REMARK SMILES IDX 55 77 56 78 48 79 49 80 50 81 54 82 51 83 53 84 52 85
REMARK H PARENT 38 5 27 10 18 17 10 22 22 31 34 39 34 40 35 41 35 42 61 48
REMARK H PARENT 5 61 65 68
REMARK Flexibility Score:  369.900
ROOT
ATOM      1  C   UNL     1      -8.331  -3.565  10.048  1.00  0.00     0.117 C 
ENDROOT
BRANCH   1   2
ATOM      2  N   UNL     1      -7.287  -3.653   9.026  1.00  0.00    -0.347 N 
ATOM      3  O   UNL     1      -5.606  -4.460  10.365  1.00  0.00    -0.273 OA
ATOM      4  C   UNL     1      -6.031  -4.182   9.248  1.00  0.00     0.243 C 
ATOM      5  H   UNL     1      -7.493  -3.360   8.083  1.00  0.00     0.164 HD
BRANCH   4   6
ATOM      6  C   UNL     1      -5.145  -4.238   7.978  1.00  0.00     0.171 C 
BRANCH   6   7
ATOM      7  N   UNL     1      -4.385  -2.987   7.825  1.00  0.00    -0.344 N 
ATOM      8  C   UNL     1      -4.610  -2.155   6.750  1.00  0.00     0.226 C 
ATOM      9  O   UNL     1      -5.421  -2.418   5.870  1.00  0.00    -0.275 OA
ATOM     10  H   UNL     1      -3.659  -2.769   8.496  1.00  0.00     0.164 HD
BRANCH   8  11
ATOM     11  C   UNL     1      -3.787  -0.878   6.764  1.00  0.00     0.109 C 
ATOM     12  C   UNL     1      -3.923  -0.150   5.427  1.00  0.00     0.021 C 
BRANCH  11  13
ATOM     13  C   UNL     1      -4.154  -0.035   8.002  1.00  0.00     0.204 C 
BRANCH  13  14
ATOM     14  N   UNL     1      -3.833   1.384   7.817  1.00  0.00    -0.340 N 
ATOM     15  C   UNL     1      -2.831   2.022   8.517  1.00  0.00     0.243 C 
ATOM     16  O   UNL     1      -2.094   1.429   9.303  1.00  0.00    -0.273 OA
ATOM     17  H   UNL     1      -4.498   1.963   7.298  1.00  0.00     0.164 HD
BRANCH  15  18
ATOM     18  C   UNL     1      -2.814   3.556   8.311  1.00  0.00     0.171 C 
BRANCH  18  19
ATOM     19  N   UNL     1      -3.944   3.875   7.441  1.00  0.00    -0.343 N 
ATOM     20  C   UNL     1      -3.921   4.958   6.583  1.00  0.00     0.242 CG0
ATOM     21  O   UNL     1      -3.007   5.779   6.608  1.00  0.00    -0.273 OA
ATOM     22  H   UNL     1      -4.772   3.291   7.468  1.00  0.00     0.164 HD
ATOM     23  G   UNL     1      -5.170   5.088   5.688  1.00  0.00     0.000 G0
ENDBRANCH  18  19
BRANCH  18  24
ATOM     24  C   UNL     1      -2.918   4.284   9.657  1.00  0.00     0.038 C 
BRANCH  24  25
ATOM     25  C   UNL     1      -1.625   4.996  10.107  1.00  0.00    -0.015 C 
ATOM     26  C   UNL     1      -0.665   5.256   8.945  1.00  0.00     0.007 C 
ATOM     27  C   UNL     1      -0.922   4.158  11.178  1.00  0.00     0.007 C 
ENDBRANCH  24  25
ENDBRANCH  18  24
ENDBRANCH  15  18
ENDBRANCH  13  14
BRANCH  13  28
ATOM     28  C   UNL     1      -5.637  -0.120   8.372  1.00  0.00     0.327 C 
ATOM     29  O   UNL     1      -6.558   0.446   7.803  1.00  0.00    -0.250 OA
BRANCH  28  30
ATOM     30  O   UNL     1      -5.860  -0.816   9.506  1.00  0.00    -0.480 OA
ATOM     31  H   UNL     1      -6.322  -1.626   9.205  1.00  0.00     0.296 HD
ENDBRANCH  28  30
ENDBRANCH  13  28
ENDBRANCH  11  13
ENDBRANCH   8  11
ENDBRANCH   6   7
BRANCH   6  32
ATOM     32  C   UNL     1      -4.202  -5.442   8.075  1.00  0.00     0.037 C 
BRANCH  32  33
ATOM     33  C   UNL     1      -2.797  -5.122   7.545  1.00  0.00     0.026 C 
BRANCH  33  34
ATOM     34  C   UNL     1      -2.457  -5.906   6.277  1.00  0.00     0.146 C 
BRANCH  34  35
ATOM     35  N   UNL     1      -3.421  -5.565   5.240  1.00  0.00    -0.254 NA
ATOM     36  C   UNL     1      -3.318  -6.130   4.095  1.00  0.00     0.185 C 
ATOM     37  N   UNL     1      -4.204  -5.826   3.134  1.00  0.00    -0.370 N 
ATOM     38  N   UNL     1      -2.413  -7.032   3.677  1.00  0.00    -0.370 N 
ATOM     39  H   UNL     1      -4.926  -5.159   3.377  1.00  0.00     0.159 HD
ATOM     40  H   UNL     1      -4.297  -6.347   2.279  1.00  0.00     0.159 HD
ATOM     41  H   UNL     1      -2.352  -7.298   2.708  1.00  0.00     0.159 HD
ATOM     42  H   UNL     1      -1.676  -7.342   4.291  1.00  0.00     0.159 HD
ENDBRANCH  34  35
ENDBRANCH  33  34
ENDBRANCH  32  33
ENDBRANCH   6  32
ENDBRANCH   4   6
ENDBRANCH   1   2
BRANCH   1  43
ATOM     43  C   UNL     1      -9.168  -4.876  10.015  1.00  0.00     0.102 C 
ATOM     44  C   UNL     1     -10.683  -4.639  10.140  1.00  0.00     0.020 C 
BRANCH  43  45
ATOM     45  C   UNL     1      -8.617  -5.905  11.006  1.00  0.00     0.225 C 
ATOM     46  O   UNL     1      -7.969  -6.890  10.661  1.00  0.00    -0.275 OA
ATOM     47  N   UNL     1      -8.973  -5.712  12.321  1.00  0.00    -0.342 N 
ATOM     48  H   UNL     1      -9.371  -4.828  12.607  1.00  0.00     0.164 HD
BRANCH  47  49
ATOM     49  C   UNL     1      -8.490  -6.597  13.385  1.00  0.00     0.192 C 
BRANCH  49  50
ATOM     50  C   UNL     1      -9.680  -7.264  14.080  1.00  0.00     0.047 C 
BRANCH  50  51
ATOM     51  C   UNL     1      -9.681  -8.788  13.898  1.00  0.00     0.103 C 
BRANCH  51  52
ATOM     52  C   UNL     1     -11.011  -9.298  13.348  1.00  0.00     0.226 C 
ATOM     53  O   UNL     1     -11.216  -9.280  12.132  1.00  0.00    -0.275 OA
BRANCH  52  54
ATOM     54  N   UNL     1     -11.911  -9.840  14.285  1.00  0.00    -0.311 N 
ATOM     55  C   UNL     1     -11.481 -10.874  15.235  1.00  0.00     0.153 C 
BRANCH  54  56
ATOM     56  C   UNL     1     -13.246  -9.409  14.351  1.00  0.00     0.102 C 
ATOM     57  C   UNL     1     -13.658  -8.268  14.928  1.00  0.00     0.043 C 
BRANCH  56  58
ATOM     58  C   UNL     1     -14.353 -10.215  13.712  1.00  0.00     0.268 C 
ATOM     59  O   UNL     1     -14.576 -10.208  12.509  1.00  0.00    -0.268 OA
ATOM     60  N   UNL     1     -15.035 -11.002  14.608  1.00  0.00    -0.339 N 
ATOM     61  H   UNL     1     -14.796 -10.942  15.591  1.00  0.00     0.164 HD
BRANCH  60  62
ATOM     62  C   UNL     1     -16.105 -11.909  14.192  1.00  0.00     0.168 CG0
ATOM     63  C   UNL     1     -15.546 -13.271  13.802  1.00  0.00     0.041 C 
ATOM     64  G   UNL     1     -16.886 -11.283  13.019  1.00  0.00     0.000 G0
ENDBRANCH  60  62
ENDBRANCH  56  58
ENDBRANCH  54  56
ENDBRANCH  52  54
ENDBRANCH  51  52
ENDBRANCH  50  51
ENDBRANCH  49  50
BRANCH  49  65
ATOM     65  C   UNL     1      -7.657  -5.831  14.425  1.00  0.00     0.326 C 
ATOM     66  O   UNL     1      -6.477  -5.531  14.309  1.00  0.00    -0.250 OA
BRANCH  65  67
ATOM     67  O   UNL     1      -8.314  -5.537  15.568  1.00  0.00    -0.480 OA
ATOM     68  H   UNL     1      -7.767  -4.831  15.974  1.00  0.00     0.296 HD
ENDBRANCH  65  67
ENDBRANCH  49  65
ENDBRANCH  47  49
ENDBRANCH  43  45
ENDBRANCH   1  43
BRANCH   1  69
ATOM     69  C   UNL     1      -9.035  -2.239   9.821  1.00  0.00    -0.001 C 
ATOM     70  C   UNL     1      -9.257  -1.267  10.724  1.00  0.00     0.001 C 
BRANCH  70  71
ATOM     71  C   UNL     1      -9.919   0.017  10.488  1.00  0.00    -0.055 C 
ATOM     72  C   UNL     1      -9.139   1.111  10.356  1.00  0.00    -0.018 C 
ATOM     73  C   UNL     1     -11.423   0.027  10.401  1.00  0.00     0.044 C 
BRANCH  72  74
ATOM     74  C   UNL     1      -9.542   2.557  10.106  1.00  0.00     0.038 C 
ATOM     75  C   UNL     1      -9.029   2.934   8.711  1.00  0.00     0.015 C 
BRANCH  74  76
ATOM     76  C   UNL     1      -8.991   3.439  11.265  1.00  0.00     0.128 C 
BRANCH  76  77
ATOM     77  O   UNL     1      -9.957   4.442  11.620  1.00  0.00    -0.381 OA
ATOM     78  C   UNL     1      -9.828   5.647  10.878  1.00  0.00     0.195 C 
ENDBRANCH  76  77
BRANCH  76  79
ATOM     79  C   UNL     1      -8.490   2.629  12.487  1.00  0.00     0.068 C 
BRANCH  79  80
ATOM     80  C   UNL     1      -7.049   2.178  12.494  1.00  0.00    -0.045 A 
ATOM     81  C   UNL     1      -6.217   2.404  11.390  1.00  0.00     0.004 A 
ATOM     82  C   UNL     1      -6.527   1.495  13.603  1.00  0.00     0.004 A 
ATOM     83  C   UNL     1      -4.889   1.971  11.399  1.00  0.00     0.000 A 
ATOM     84  C   UNL     1      -5.200   1.062  13.610  1.00  0.00     0.000 A 
ATOM     85  C   UNL     1      -4.381   1.301  12.509  1.00  0.00     0.000 A 
ENDBRANCH  79  80
ENDBRANCH  76  79
ENDBRANCH  74  76
ENDBRANCH  72  74
ENDBRANCH  70  71
ENDBRANCH   1  69
TORSDOF 17
ENDMDL
MODEL 7
REMARK VINA RESULT:    -7.988      3.009     11.741
REMARK INTER + INTRA:         -29.674
REMARK INTER:                 -22.673
REMARK INTRA:                  -7.001
REMARK UNBOUND:                -5.809
REMARK SMILES C=C1C(=O)N[C@H](C)C(=O)N[C@@H](CC(C)C)C(=O)N[C@@H](C(=O)O)[C@H](C)C(=O)N[C@@H](CCCN=C(N)N)C(=O)N[C@@H](/C=C/C(C)=C/[C@H](C)[C@H](Cc2ccccc2)OC)[C@H](C)C(=O)N[C@@H](C(=O)O)CCC(=O)N1C
REMARK SMILES IDX 39 1 38 2 37 3 36 4 28 6 27 7 25 8 26 9 23 11 24 12 19 13
REMARK SMILES IDX 18 14 16 15 17 16 11 18 10 19 8 20 9 21 12 24 13 25 14 26
REMARK SMILES IDX 15 27 20 28 21 29 22 30 29 32 30 33 31 34 32 35 33 36 34 37
REMARK SMILES IDX 35 38 57 43 58 44 59 45 60 46 61 47 62 49 66 50 67 51 68 52
REMARK SMILES IDX 69 53 70 54 71 55 2 56 1 57 3 58 4 59 5 60 6 62 7 63 63 65
REMARK SMILES IDX 64 66 65 67 40 69 41 70 42 71 44 72 43 73 45 74 46 75 47 76
REMARK SMILES IDX 55 77 56 78 48 79 49 80 50 81 54 82 51 83 53 84 52 85
REMARK H PARENT 38 5 27 10 18 17 10 22 22 31 34 39 34 40 35 41 35 42 61 48
REMARK H PARENT 5 61 65 68
REMARK Flexibility Score:  369.900
ROOT
ATOM      1  C   UNL     1      -9.211  -2.964   8.581  1.00  0.00     0.117 C 
ENDROOT
BRANCH   1   2
ATOM      2  N   UNL     1      -9.824  -2.803   9.899  1.00  0.00    -0.347 N 
ATOM      3  O   UNL     1     -11.453  -4.406   9.685  1.00  0.00    -0.273 OA
ATOM      4  C   UNL     1     -10.842  -3.603  10.382  1.00  0.00     0.243 C 
ATOM      5  H   UNL     1      -9.464  -2.102  10.530  1.00  0.00     0.164 HD
BRANCH   4   6
ATOM      6  C   UNL     1     -11.253  -3.277  11.840  1.00  0.00     0.171 C 
BRANCH   6   7
ATOM      7  N   UNL     1     -10.552  -4.165  12.782  1.00  0.00    -0.344 N 
ATOM      8  C   UNL     1     -11.260  -4.989  13.630  1.00  0.00     0.226 C 
ATOM      9  O   UNL     1     -12.485  -5.010  13.660  1.00  0.00    -0.275 OA
ATOM     10  H   UNL     1      -9.542  -4.127  12.834  1.00  0.00     0.164 HD
BRANCH   8  11
ATOM     11  C   UNL     1     -10.395  -5.883  14.501  1.00  0.00     0.109 C 
ATOM     12  C   UNL     1     -10.628  -5.563  15.977  1.00  0.00     0.021 C 
BRANCH  11  13
ATOM     13  C   UNL     1     -10.616  -7.359  14.115  1.00  0.00     0.204 C 
BRANCH  13  14
ATOM     14  N   UNL     1     -12.026  -7.749  14.211  1.00  0.00    -0.340 N 
ATOM     15  C   UNL     1     -12.443  -8.901  14.843  1.00  0.00     0.243 C 
ATOM     16  O   UNL     1     -11.664  -9.653  15.426  1.00  0.00    -0.273 OA
ATOM     17  H   UNL     1     -12.702  -7.254  13.623  1.00  0.00     0.164 HD
BRANCH  15  18
ATOM     18  C   UNL     1     -13.946  -9.210  14.638  1.00  0.00     0.171 C 
BRANCH  18  19
ATOM     19  N   UNL     1     -14.186 -10.528  15.221  1.00  0.00    -0.343 N 
ATOM     20  C   UNL     1     -14.804 -11.538  14.510  1.00  0.00     0.242 CG0
ATOM     21  O   UNL     1     -15.300 -11.336  13.404  1.00  0.00    -0.273 OA
ATOM     22  H   UNL     1     -13.897 -10.710  16.176  1.00  0.00     0.164 HD
ATOM     23  G   UNL     1     -14.899 -12.882  15.262  1.00  0.00     0.000 G0
ENDBRANCH  18  19
BRANCH  18  24
ATOM     24  C   UNL     1     -14.815  -8.135  15.302  1.00  0.00     0.038 C 
BRANCH  24  25
ATOM     25  C   UNL     1     -14.808  -8.163  16.845  1.00  0.00    -0.015 C 
ATOM     26  C   UNL     1     -16.172  -8.531  17.430  1.00  0.00     0.007 C 
ATOM     27  C   UNL     1     -14.368  -6.799  17.383  1.00  0.00     0.007 C 
ENDBRANCH  24  25
ENDBRANCH  18  24
ENDBRANCH  15  18
ENDBRANCH  13  14
BRANCH  13  28
ATOM     28  C   UNL     1     -10.150  -7.688  12.693  1.00  0.00     0.327 C 
ATOM     29  O   UNL     1     -10.672  -8.483  11.927  1.00  0.00    -0.250 OA
BRANCH  28  30
ATOM     30  O   UNL     1      -8.989  -7.086  12.365  1.00  0.00    -0.480 OA
ATOM     31  H   UNL     1      -9.134  -6.143  12.590  1.00  0.00     0.296 HD
ENDBRANCH  28  30
ENDBRANCH  13  28
ENDBRANCH  11  13
ENDBRANCH   8  11
ENDBRANCH   6   7
BRANCH   6  32
ATOM     32  C   UNL     1     -10.937  -1.807  12.136  1.00  0.00     0.037 C 
BRANCH  32  33
ATOM     33  C   UNL     1     -12.207  -0.976  12.363  1.00  0.00     0.026 C 
BRANCH  33  34
ATOM     34  C   UNL     1     -12.547  -0.087  11.166  1.00  0.00     0.146 C 
BRANCH  34  35
ATOM     35  N   UNL     1     -11.950   1.225  11.370  1.00  0.00    -0.254 NA
ATOM     36  C   UNL     1     -12.711   2.255  11.360  1.00  0.00     0.185 C 
ATOM     37  N   UNL     1     -12.172   3.469  11.552  1.00  0.00    -0.370 N 
ATOM     38  N   UNL     1     -14.042   2.320  11.177  1.00  0.00    -0.370 N 
ATOM     39  H   UNL     1     -11.173   3.503  11.708  1.00  0.00     0.159 HD
ATOM     40  H   UNL     1     -12.715   4.297  11.731  1.00  0.00     0.159 HD
ATOM     41  H   UNL     1     -14.508   3.203  11.052  1.00  0.00     0.159 HD
ATOM     42  H   UNL     1     -14.577   1.483  11.005  1.00  0.00     0.159 HD
ENDBRANCH  34  35
ENDBRANCH  33  34
ENDBRANCH  32  33
ENDBRANCH   6  32
ENDBRANCH   4   6
ENDBRANCH   1   2
BRANCH   1  43
ATOM     43  C   UNL     1      -8.178  -4.125   8.654  1.00  0.00     0.102 C 
ATOM     44  C   UNL     1      -7.252  -4.044   9.879  1.00  0.00     0.020 C 
BRANCH  43  45
ATOM     45  C   UNL     1      -7.435  -4.285   7.324  1.00  0.00     0.225 C 
ATOM     46  O   UNL     1      -8.009  -4.406   6.245  1.00  0.00    -0.275 OA
ATOM     47  N   UNL     1      -6.065  -4.380   7.418  1.00  0.00    -0.342 N 
ATOM     48  H   UNL     1      -5.605  -4.128   8.281  1.00  0.00     0.164 HD
BRANCH  47  49
ATOM     49  C   UNL     1      -5.222  -4.500   6.225  1.00  0.00     0.192 C 
BRANCH  49  50
ATOM     50  C   UNL     1      -3.908  -5.194   6.591  1.00  0.00     0.047 C 
BRANCH  50  51
ATOM     51  C   UNL     1      -3.660  -5.208   8.106  1.00  0.00     0.103 C 
BRANCH  51  52
ATOM     52  C   UNL     1      -2.774  -4.047   8.552  1.00  0.00     0.226 C 
ATOM     53  O   UNL     1      -1.889  -3.631   7.802  1.00  0.00    -0.275 OA
BRANCH  52  54
ATOM     54  N   UNL     1      -3.084  -3.464   9.795  1.00  0.00    -0.311 N 
ATOM     55  C   UNL     1      -3.472  -4.294  10.944  1.00  0.00     0.153 C 
BRANCH  54  56
ATOM     56  C   UNL     1      -3.029  -2.073   9.986  1.00  0.00     0.102 C 
ATOM     57  C   UNL     1      -4.072  -1.238   9.854  1.00  0.00     0.043 C 
BRANCH  56  58
ATOM     58  C   UNL     1      -1.746  -1.400  10.415  1.00  0.00     0.268 C 
ATOM     59  O   UNL     1      -0.800  -2.008  10.896  1.00  0.00    -0.268 OA
ATOM     60  N   UNL     1      -1.729  -0.052  10.149  1.00  0.00    -0.339 N 
ATOM     61  H   UNL     1      -2.559   0.379   9.759  1.00  0.00     0.164 HD
BRANCH  60  62
ATOM     62  C   UNL     1      -0.560   0.782  10.427  1.00  0.00     0.168 CG0
ATOM     63  C   UNL     1      -0.689   1.472  11.780  1.00  0.00     0.041 C 
ATOM     64  G   UNL     1      -0.386   1.820   9.299  1.00  0.00     0.000 G0
ENDBRANCH  60  62
ENDBRANCH  56  58
ENDBRANCH  54  56
ENDBRANCH  52  54
ENDBRANCH  51  52
ENDBRANCH  50  51
ENDBRANCH  49  50
BRANCH  49  65
ATOM     65  C   UNL     1      -4.916  -3.126   5.606  1.00  0.00     0.326 C 
ATOM     66  O   UNL     1      -4.672  -2.917   4.427  1.00  0.00    -0.250 OA
BRANCH  65  67
ATOM     67  O   UNL     1      -4.872  -2.107   6.492  1.00  0.00    -0.480 OA
ATOM     68  H   UNL     1      -4.561  -1.347   5.954  1.00  0.00     0.296 HD
ENDBRANCH  65  67
ENDBRANCH  49  65
ENDBRANCH  47  49
ENDBRANCH  43  45
ENDBRANCH   1  43
BRANCH   1  69
ATOM     69  C   UNL     1      -8.735  -1.584   8.163  1.00  0.00    -0.001 C 
ATOM     70  C   UNL     1      -8.110  -0.670   8.926  1.00  0.00     0.001 C 
BRANCH  70  71
ATOM     71  C   UNL     1      -7.636   0.651   8.506  1.00  0.00    -0.055 C 
ATOM     72  C   UNL     1      -6.397   0.734   7.979  1.00  0.00    -0.018 C 
ATOM     73  C   UNL     1      -8.568   1.821   8.684  1.00  0.00     0.044 C 
BRANCH  72  74
ATOM     74  C   UNL     1      -5.651   1.955   7.460  1.00  0.00     0.038 C 
ATOM     75  C   UNL     1      -4.762   1.485   6.302  1.00  0.00     0.015 C 
BRANCH  74  76
ATOM     76  C   UNL     1      -4.886   2.616   8.644  1.00  0.00     0.128 C 
BRANCH  76  77
ATOM     77  O   UNL     1      -3.499   2.242   8.603  1.00  0.00    -0.381 OA
ATOM     78  C   UNL     1      -2.607   3.341   8.727  1.00  0.00     0.195 C 
ENDBRANCH  76  77
BRANCH  76  79
ATOM     79  C   UNL     1      -5.091   4.149   8.749  1.00  0.00     0.068 C 
BRANCH  79  80
ATOM     80  C   UNL     1      -6.159   4.657   9.686  1.00  0.00    -0.045 A 
ATOM     81  C   UNL     1      -6.547   6.004   9.677  1.00  0.00     0.004 A 
ATOM     82  C   UNL     1      -6.764   3.788  10.607  1.00  0.00     0.004 A 
ATOM     83  C   UNL     1      -7.526   6.469  10.557  1.00  0.00     0.000 A 
ATOM     84  C   UNL     1      -7.742   4.255  11.487  1.00  0.00     0.000 A 
ATOM     85  C   UNL     1      -8.124   5.594  11.461  1.00  0.00     0.000 A 
ENDBRANCH  79  80
ENDBRANCH  76  79
ENDBRANCH  74  76
ENDBRANCH  72  74
ENDBRANCH  70  71
ENDBRANCH   1  69
TORSDOF 17
ENDMDL
MODEL 8
REMARK VINA RESULT:    -7.943      3.055     12.600
REMARK INTER + INTRA:         -29.540
REMARK INTER:                 -21.346
REMARK INTRA:                  -8.194
REMARK UNBOUND:                -5.809
REMARK SMILES C=C1C(=O)N[C@H](C)C(=O)N[C@@H](CC(C)C)C(=O)N[C@@H](C(=O)O)[C@H](C)C(=O)N[C@@H](CCCN=C(N)N)C(=O)N[C@@H](/C=C/C(C)=C/[C@H](C)[C@H](Cc2ccccc2)OC)[C@H](C)C(=O)N[C@@H](C(=O)O)CCC(=O)N1C
REMARK SMILES IDX 39 1 38 2 37 3 36 4 28 6 27 7 25 8 26 9 23 11 24 12 19 13
REMARK SMILES IDX 18 14 16 15 17 16 11 18 10 19 8 20 9 21 12 24 13 25 14 26
REMARK SMILES IDX 15 27 20 28 21 29 22 30 29 32 30 33 31 34 32 35 33 36 34 37
REMARK SMILES IDX 35 38 57 43 58 44 59 45 60 46 61 47 62 49 66 50 67 51 68 52
REMARK SMILES IDX 69 53 70 54 71 55 2 56 1 57 3 58 4 59 5 60 6 62 7 63 63 65
REMARK SMILES IDX 64 66 65 67 40 69 41 70 42 71 44 72 43 73 45 74 46 75 47 76
REMARK SMILES IDX 55 77 56 78 48 79 49 80 50 81 54 82 51 83 53 84 52 85
REMARK H PARENT 38 5 27 10 18 17 10 22 22 31 34 39 34 40 35 41 35 42 61 48
REMARK H PARENT 5 61 65 68
REMARK Flexibility Score:  369.900
ROOT
ATOM      1  C   UNL     1      -7.699  -1.940   9.697  1.00  0.00     0.117 C 
ENDROOT
BRANCH   1   2
ATOM      2  N   UNL     1      -7.244  -2.763  10.818  1.00  0.00    -0.347 N 
ATOM      3  O   UNL     1      -6.922  -1.072  12.337  1.00  0.00    -0.273 OA
ATOM      4  C   UNL     1      -6.978  -2.270  12.081  1.00  0.00     0.243 C 
ATOM      5  H   UNL     1      -7.159  -3.760  10.697  1.00  0.00     0.164 HD
BRANCH   4   6
ATOM      6  C   UNL     1      -6.596  -3.365  13.110  1.00  0.00     0.171 C 
BRANCH   6   7
ATOM      7  N   UNL     1      -6.844  -4.704  12.552  1.00  0.00    -0.344 N 
ATOM      8  C   UNL     1      -7.620  -5.616  13.233  1.00  0.00     0.226 C 
ATOM      9  O   UNL     1      -8.116  -5.374  14.327  1.00  0.00    -0.275 OA
ATOM     10  H   UNL     1      -6.395  -4.964  11.682  1.00  0.00     0.164 HD
BRANCH   8  11
ATOM     11  C   UNL     1      -7.827  -6.931  12.501  1.00  0.00     0.109 C 
ATOM     12  C   UNL     1      -7.359  -8.096  13.372  1.00  0.00     0.021 C 
BRANCH  11  13
ATOM     13  C   UNL     1      -9.285  -7.032  12.012  1.00  0.00     0.204 C 
BRANCH  13  14
ATOM     14  N   UNL     1     -10.219  -7.294  13.112  1.00  0.00    -0.340 N 
ATOM     15  C   UNL     1     -11.037  -8.402  13.151  1.00  0.00     0.243 C 
ATOM     16  O   UNL     1     -10.998  -9.282  12.293  1.00  0.00    -0.273 OA
ATOM     17  H   UNL     1     -10.409  -6.534  13.772  1.00  0.00     0.164 HD
BRANCH  15  18
ATOM     18  C   UNL     1     -12.081  -8.360  14.295  1.00  0.00     0.171 C 
BRANCH  18  19
ATOM     19  N   UNL     1     -13.079  -9.383  13.988  1.00  0.00    -0.343 N 
ATOM     20  C   UNL     1     -14.420  -9.198  14.261  1.00  0.00     0.242 CG0
ATOM     21  O   UNL     1     -14.819  -8.223  14.894  1.00  0.00    -0.273 OA
ATOM     22  H   UNL     1     -12.782 -10.257  13.569  1.00  0.00     0.164 HD
ATOM     23  G   UNL     1     -15.330 -10.353  13.796  1.00  0.00     0.000 G0
ENDBRANCH  18  19
BRANCH  18  24
ATOM     24  C   UNL     1     -11.410  -8.618  15.649  1.00  0.00     0.038 C 
BRANCH  24  25
ATOM     25  C   UNL     1     -11.633  -7.509  16.700  1.00  0.00    -0.015 C 
ATOM     26  C   UNL     1     -12.585  -7.943  17.815  1.00  0.00     0.007 C 
ATOM     27  C   UNL     1     -12.179  -6.254  16.015  1.00  0.00     0.007 C 
ENDBRANCH  24  25
ENDBRANCH  18  24
ENDBRANCH  15  18
ENDBRANCH  13  14
BRANCH  13  28
ATOM     28  C   UNL     1      -9.771  -5.768  11.296  1.00  0.00     0.327 C 
ATOM     29  O   UNL     1     -10.808  -5.163  11.521  1.00  0.00    -0.250 OA
BRANCH  28  30
ATOM     30  O   UNL     1      -8.982  -5.410  10.262  1.00  0.00    -0.480 OA
ATOM     31  H   UNL     1      -8.269  -4.881  10.675  1.00  0.00     0.296 HD
ENDBRANCH  28  30
ENDBRANCH  13  28
ENDBRANCH  11  13
ENDBRANCH   8  11
ENDBRANCH   6   7
BRANCH   6  32
ATOM     32  C   UNL     1      -5.123  -3.198  13.498  1.00  0.00     0.037 C 
BRANCH  32  33
ATOM     33  C   UNL     1      -4.174  -3.598  12.359  1.00  0.00     0.026 C 
BRANCH  33  34
ATOM     34  C   UNL     1      -2.874  -4.218  12.872  1.00  0.00     0.146 C 
BRANCH  34  35
ATOM     35  N   UNL     1      -1.853  -4.087  11.841  1.00  0.00    -0.254 NA
ATOM     36  C   UNL     1      -1.009  -3.127  11.930  1.00  0.00     0.185 C 
ATOM     37  N   UNL     1      -0.061  -3.000  10.989  1.00  0.00    -0.370 N 
ATOM     38  N   UNL     1      -0.914  -2.171  12.871  1.00  0.00    -0.370 N 
ATOM     39  H   UNL     1      -0.060  -3.691  10.249  1.00  0.00     0.159 HD
ATOM     40  H   UNL     1       0.733  -2.390  11.078  1.00  0.00     0.159 HD
ATOM     41  H   UNL     1      -0.292  -1.387  12.756  1.00  0.00     0.159 HD
ATOM     42  H   UNL     1      -1.573  -2.134  13.633  1.00  0.00     0.159 HD
ENDBRANCH  34  35
ENDBRANCH  33  34
ENDBRANCH  32  33
ENDBRANCH   6  32
ENDBRANCH   4   6
ENDBRANCH   1   2
BRANCH   1  43
ATOM     43  C   UNL     1      -9.248  -2.044   9.603  1.00  0.00     0.102 C 
ATOM     44  C   UNL     1      -9.740  -2.670   8.287  1.00  0.00     0.020 C 
BRANCH  43  45
ATOM     45  C   UNL     1      -9.911  -0.705   9.940  1.00  0.00     0.225 C 
ATOM     46  O   UNL     1     -11.128  -0.538   9.932  1.00  0.00    -0.275 OA
ATOM     47  N   UNL     1      -9.049   0.343  10.166  1.00  0.00    -0.342 N 
ATOM     48  H   UNL     1      -8.067   0.158  10.319  1.00  0.00     0.164 HD
BRANCH  47  49
ATOM     49  C   UNL     1      -9.540   1.674  10.535  1.00  0.00     0.192 C 
BRANCH  49  50
ATOM     50  C   UNL     1      -9.172   2.679   9.441  1.00  0.00     0.047 C 
BRANCH  50  51
ATOM     51  C   UNL     1      -7.824   2.356   8.783  1.00  0.00     0.103 C 
BRANCH  51  52
ATOM     52  C   UNL     1      -6.802   3.472   8.991  1.00  0.00     0.226 C 
ATOM     53  O   UNL     1      -7.185   4.598   9.313  1.00  0.00    -0.275 OA
BRANCH  52  54
ATOM     54  N   UNL     1      -5.447   3.111   8.871  1.00  0.00    -0.311 N 
ATOM     55  C   UNL     1      -4.775   2.336   9.922  1.00  0.00     0.153 C 
BRANCH  54  56
ATOM     56  C   UNL     1      -4.690   3.472   7.744  1.00  0.00     0.102 C 
ATOM     57  C   UNL     1      -4.301   2.626   6.776  1.00  0.00     0.043 C 
BRANCH  56  58
ATOM     58  C   UNL     1      -4.283   4.909   7.511  1.00  0.00     0.268 C 
ATOM     59  O   UNL     1      -4.186   5.731   8.412  1.00  0.00    -0.268 OA
ATOM     60  N   UNL     1      -3.972   5.176   6.199  1.00  0.00    -0.339 N 
ATOM     61  H   UNL     1      -4.090   4.442   5.511  1.00  0.00     0.164 HD
BRANCH  60  62
ATOM     62  C   UNL     1      -3.495   6.488   5.764  1.00  0.00     0.168 CG0
ATOM     63  C   UNL     1      -1.990   6.471   5.528  1.00  0.00     0.041 C 
ATOM     64  G   UNL     1      -3.870   7.550   6.817  1.00  0.00     0.000 G0
ENDBRANCH  60  62
ENDBRANCH  56  58
ENDBRANCH  54  56
ENDBRANCH  52  54
ENDBRANCH  51  52
ENDBRANCH  50  51
ENDBRANCH  49  50
BRANCH  49  65
ATOM     65  C   UNL     1      -8.954   2.143  11.875  1.00  0.00     0.326 C 
ATOM     66  O   UNL     1      -8.635   3.291  12.148  1.00  0.00    -0.250 OA
BRANCH  65  67
ATOM     67  O   UNL     1      -8.741   1.157  12.774  1.00  0.00    -0.480 OA
ATOM     68  H   UNL     1      -9.623   1.024  13.185  1.00  0.00     0.296 HD
ENDBRANCH  65  67
ENDBRANCH  49  65
ENDBRANCH  47  49
ENDBRANCH  43  45
ENDBRANCH   1  43
BRANCH   1  69
ATOM     69  C   UNL     1      -6.861  -2.353   8.501  1.00  0.00    -0.001 C 
ATOM     70  C   UNL     1      -6.051  -1.575   7.762  1.00  0.00     0.001 C 
BRANCH  70  71
ATOM     71  C   UNL     1      -5.231  -1.990   6.622  1.00  0.00    -0.055 C 
ATOM     72  C   UNL     1      -5.379  -3.253   6.170  1.00  0.00    -0.018 C 
ATOM     73  C   UNL     1      -4.287  -0.977   6.030  1.00  0.00     0.044 C 
BRANCH  72  74
ATOM     74  C   UNL     1      -4.673  -3.952   5.017  1.00  0.00     0.038 C 
ATOM     75  C   UNL     1      -5.756  -4.392   4.024  1.00  0.00     0.015 C 
BRANCH  74  76
ATOM     76  C   UNL     1      -3.803  -5.109   5.589  1.00  0.00     0.128 C 
BRANCH  76  77
ATOM     77  O   UNL     1      -2.829  -5.520   4.615  1.00  0.00    -0.381 OA
ATOM     78  C   UNL     1      -3.082  -6.803   4.060  1.00  0.00     0.195 C 
ENDBRANCH  76  77
BRANCH  76  79
ATOM     79  C   UNL     1      -3.174  -4.800   6.971  1.00  0.00     0.068 C 
BRANCH  79  80
ATOM     80  C   UNL     1      -3.689  -5.562   8.169  1.00  0.00    -0.045 A 
ATOM     81  C   UNL     1      -5.050  -5.549   8.502  1.00  0.00     0.004 A 
ATOM     82  C   UNL     1      -2.801  -6.276   8.987  1.00  0.00     0.004 A 
ATOM     83  C   UNL     1      -5.515  -6.245   9.620  1.00  0.00     0.000 A 
ATOM     84  C   UNL     1      -3.268  -6.972  10.105  1.00  0.00     0.000 A 
ATOM     85  C   UNL     1      -4.625  -6.957  10.420  1.00  0.00     0.000 A 
ENDBRANCH  79  80
ENDBRANCH  76  79
ENDBRANCH  74  76
ENDBRANCH  72  74
ENDBRANCH  70  71
ENDBRANCH   1  69
TORSDOF 17
ENDMDL
MODEL 9
REMARK VINA RESULT:    -7.917      2.285      3.574
REMARK INTER + INTRA:         -29.463
REMARK INTER:                 -22.029
REMARK INTRA:                  -7.434
REMARK UNBOUND:                -5.809
REMARK SMILES C=C1C(=O)N[C@H](C)C(=O)N[C@@H](CC(C)C)C(=O)N[C@@H](C(=O)O)[C@H](C)C(=O)N[C@@H](CCCN=C(N)N)C(=O)N[C@@H](/C=C/C(C)=C/[C@H](C)[C@H](Cc2ccccc2)OC)[C@H](C)C(=O)N[C@@H](C(=O)O)CCC(=O)N1C
REMARK SMILES IDX 39 1 38 2 37 3 36 4 28 6 27 7 25 8 26 9 23 11 24 12 19 13
REMARK SMILES IDX 18 14 16 15 17 16 11 18 10 19 8 20 9 21 12 24 13 25 14 26
REMARK SMILES IDX 15 27 20 28 21 29 22 30 29 32 30 33 31 34 32 35 33 36 34 37
REMARK SMILES IDX 35 38 57 43 58 44 59 45 60 46 61 47 62 49 66 50 67 51 68 52
REMARK SMILES IDX 69 53 70 54 71 55 2 56 1 57 3 58 4 59 5 60 6 62 7 63 63 65
REMARK SMILES IDX 64 66 65 67 40 69 41 70 42 71 44 72 43 73 45 74 46 75 47 76
REMARK SMILES IDX 55 77 56 78 48 79 49 80 50 81 54 82 51 83 53 84 52 85
REMARK H PARENT 38 5 27 10 18 17 10 22 22 31 34 39 34 40 35 41 35 42 61 48
REMARK H PARENT 5 61 65 68
REMARK Flexibility Score:  369.900
ROOT
ATOM      1  C   UNL     1      -8.592  -2.237  10.226  1.00  0.00     0.117 C 
ENDROOT
BRANCH   1   2
ATOM      2  N   UNL     1      -7.499  -2.193   9.254  1.00  0.00    -0.347 N 
ATOM      3  O   UNL     1      -5.768  -2.577  10.713  1.00  0.00    -0.273 OA
ATOM      4  C   UNL     1      -6.178  -2.458   9.563  1.00  0.00     0.243 C 
ATOM      5  H   UNL     1      -7.706  -2.007   8.284  1.00  0.00     0.164 HD
BRANCH   4   6
ATOM      6  C   UNL     1      -5.233  -2.429   8.335  1.00  0.00     0.171 C 
BRANCH   6   7
ATOM      7  N   UNL     1      -3.870  -2.823   8.726  1.00  0.00    -0.344 N 
ATOM      8  C   UNL     1      -2.790  -2.030   8.404  1.00  0.00     0.226 C 
ATOM      9  O   UNL     1      -2.902  -0.988   7.769  1.00  0.00    -0.275 OA
ATOM     10  H   UNL     1      -3.731  -3.711   9.193  1.00  0.00     0.164 HD
BRANCH   8  11
ATOM     11  C   UNL     1      -1.459  -2.545   8.925  1.00  0.00     0.109 C 
ATOM     12  C   UNL     1      -0.421  -2.547   7.802  1.00  0.00     0.021 C 
BRANCH  11  13
ATOM     13  C   UNL     1      -1.051  -1.755  10.184  1.00  0.00     0.204 C 
BRANCH  13  14
ATOM     14  N   UNL     1      -1.654  -0.419  10.216  1.00  0.00    -0.340 N 
ATOM     15  C   UNL     1      -0.977   0.698  10.658  1.00  0.00     0.243 C 
ATOM     16  O   UNL     1       0.204   0.662  11.000  1.00  0.00    -0.273 OA
ATOM     17  H   UNL     1      -2.667  -0.346  10.092  1.00  0.00     0.164 HD
BRANCH  15  18
ATOM     18  C   UNL     1      -1.876   1.951  10.799  1.00  0.00     0.171 C 
BRANCH  18  19
ATOM     19  N   UNL     1      -1.537   2.836   9.686  1.00  0.00    -0.343 N 
ATOM     20  C   UNL     1      -1.008   4.095   9.892  1.00  0.00     0.242 CG0
ATOM     21  O   UNL     1      -0.922   4.581  11.017  1.00  0.00    -0.273 OA
ATOM     22  H   UNL     1      -1.699   2.524   8.735  1.00  0.00     0.164 HD
ATOM     23  G   UNL     1      -0.641   4.851   8.598  1.00  0.00     0.000 G0
ENDBRANCH  18  19
BRANCH  18  24
ATOM     24  C   UNL     1      -3.358   1.559  10.774  1.00  0.00     0.038 C 
BRANCH  24  25
ATOM     25  C   UNL     1      -4.057   1.593  12.150  1.00  0.00    -0.015 C 
ATOM     26  C   UNL     1      -3.221   0.934  13.248  1.00  0.00     0.007 C 
ATOM     27  C   UNL     1      -5.419   0.901  12.054  1.00  0.00     0.007 C 
ENDBRANCH  24  25
ENDBRANCH  18  24
ENDBRANCH  15  18
ENDBRANCH  13  14
BRANCH  13  28
ATOM     28  C   UNL     1      -1.435  -2.458  11.489  1.00  0.00     0.327 C 
ATOM     29  O   UNL     1      -0.745  -2.546  12.493  1.00  0.00    -0.250 OA
BRANCH  28  30
ATOM     30  O   UNL     1      -2.613  -3.109  11.412  1.00  0.00    -0.480 OA
ATOM     31  H   UNL     1      -3.144  -2.734  12.145  1.00  0.00     0.296 HD
ENDBRANCH  28  30
ENDBRANCH  13  28
ENDBRANCH  11  13
ENDBRANCH   8  11
ENDBRANCH   6   7
BRANCH   6  32
ATOM     32  C   UNL     1      -5.784  -3.365   7.253  1.00  0.00     0.037 C 
BRANCH  32  33
ATOM     33  C   UNL     1      -5.138  -3.110   5.884  1.00  0.00     0.026 C 
BRANCH  33  34
ATOM     34  C   UNL     1      -5.421  -4.234   4.886  1.00  0.00     0.146 C 
BRANCH  34  35
ATOM     35  N   UNL     1      -4.255  -5.103   4.814  1.00  0.00    -0.254 NA
ATOM     36  C   UNL     1      -3.999  -5.697   3.708  1.00  0.00     0.185 C 
ATOM     37  N   UNL     1      -2.924  -6.497   3.630  1.00  0.00    -0.370 N 
ATOM     38  N   UNL     1      -4.672  -5.645   2.546  1.00  0.00    -0.370 N 
ATOM     39  H   UNL     1      -2.357  -6.580   4.464  1.00  0.00     0.159 HD
ATOM     40  H   UNL     1      -2.560  -6.855   2.764  1.00  0.00     0.159 HD
ATOM     41  H   UNL     1      -4.450  -6.268   1.786  1.00  0.00     0.159 HD
ATOM     42  H   UNL     1      -5.512  -5.094   2.464  1.00  0.00     0.159 HD
ENDBRANCH  34  35
ENDBRANCH  33  34
ENDBRANCH  32  33
ENDBRANCH   6  32
ENDBRANCH   4   6
ENDBRANCH   1   2
BRANCH   1  43
ATOM     43  C   UNL     1      -9.659  -3.252   9.725  1.00  0.00     0.102 C 
ATOM     44  C   UNL     1     -11.104  -2.748   9.879  1.00  0.00     0.020 C 
BRANCH  43  45
ATOM     45  C   UNL     1      -9.418  -4.642  10.323  1.00  0.00     0.225 C 
ATOM     46  O   UNL     1     -10.324  -5.437  10.558  1.00  0.00    -0.275 OA
ATOM     47  N   UNL     1      -8.117  -4.919  10.673  1.00  0.00    -0.342 N 
ATOM     48  H   UNL     1      -7.371  -4.326  10.338  1.00  0.00     0.164 HD
BRANCH  47  49
ATOM     49  C   UNL     1      -7.732  -6.222  11.223  1.00  0.00     0.192 C 
BRANCH  49  50
ATOM     50  C   UNL     1      -7.842  -6.189  12.750  1.00  0.00     0.047 C 
BRANCH  50  51
ATOM     51  C   UNL     1      -8.218  -7.556  13.337  1.00  0.00     0.103 C 
BRANCH  51  52
ATOM     52  C   UNL     1      -9.729  -7.782  13.341  1.00  0.00     0.226 C 
ATOM     53  O   UNL     1     -10.298  -8.119  12.301  1.00  0.00    -0.275 OA
BRANCH  52  54
ATOM     54  N   UNL     1     -10.378  -7.660  14.583  1.00  0.00    -0.311 N 
ATOM     55  C   UNL     1      -9.823  -6.811  15.646  1.00  0.00     0.153 C 
BRANCH  54  56
ATOM     56  C   UNL     1     -11.579  -8.337  14.852  1.00  0.00     0.102 C 
ATOM     57  C   UNL     1     -12.788  -7.757  14.926  1.00  0.00     0.043 C 
BRANCH  56  58
ATOM     58  C   UNL     1     -11.598  -9.836  15.040  1.00  0.00     0.268 C 
ATOM     59  O   UNL     1     -10.602 -10.538  14.928  1.00  0.00    -0.268 OA
ATOM     60  N   UNL     1     -12.830 -10.318  15.412  1.00  0.00    -0.339 N 
ATOM     61  H   UNL     1     -13.608  -9.672  15.472  1.00  0.00     0.164 HD
BRANCH  60  62
ATOM     62  C   UNL     1     -13.057 -11.732  15.706  1.00  0.00     0.168 CG0
ATOM     63  C   UNL     1     -14.252 -12.268  14.927  1.00  0.00     0.041 C 
ATOM     64  G   UNL     1     -13.267 -11.918  17.223  1.00  0.00     0.000 G0
ENDBRANCH  60  62
ENDBRANCH  56  58
ENDBRANCH  54  56
ENDBRANCH  52  54
ENDBRANCH  51  52
ENDBRANCH  50  51
ENDBRANCH  49  50
BRANCH  49  65
ATOM     65  C   UNL     1      -6.299  -6.605  10.824  1.00  0.00     0.326 C 
ATOM     66  O   UNL     1      -5.375  -5.823  10.656  1.00  0.00    -0.250 OA
BRANCH  65  67
ATOM     67  O   UNL     1      -6.110  -7.924  10.598  1.00  0.00    -0.480 OA
ATOM     68  H   UNL     1      -5.871  -8.279  11.482  1.00  0.00     0.296 HD
ENDBRANCH  65  67
ENDBRANCH  49  65
ENDBRANCH  47  49
ENDBRANCH  43  45
ENDBRANCH   1  43
BRANCH   1  69
ATOM     69  C   UNL     1      -9.006  -0.796  10.463  1.00  0.00    -0.001 C 
ATOM     70  C   UNL     1      -8.879  -0.086  11.598  1.00  0.00     0.001 C 
BRANCH  70  71
ATOM     71  C   UNL     1      -9.262   1.311  11.810  1.00  0.00    -0.055 C 
ATOM     72  C   UNL     1      -8.926   2.206  10.856  1.00  0.00    -0.018 C 
ATOM     73  C   UNL     1     -10.012   1.651  13.072  1.00  0.00     0.044 C 
BRANCH  72  74
ATOM     74  C   UNL     1      -9.192   3.703  10.804  1.00  0.00     0.038 C 
ATOM     75  C   UNL     1     -10.588   3.894  10.199  1.00  0.00     0.015 C 
BRANCH  74  76
ATOM     76  C   UNL     1      -8.038   4.389  10.014  1.00  0.00     0.128 C 
BRANCH  76  77
ATOM     77  O   UNL     1      -8.015   5.797  10.304  1.00  0.00    -0.381 OA
ATOM     78  C   UNL     1      -7.941   6.094  11.692  1.00  0.00     0.195 C 
ENDBRANCH  76  77
BRANCH  76  79
ATOM     79  C   UNL     1      -6.657   3.715  10.205  1.00  0.00     0.068 C 
BRANCH  79  80
ATOM     80  C   UNL     1      -5.952   3.187   8.979  1.00  0.00    -0.045 A 
ATOM     81  C   UNL     1      -4.937   3.926   8.356  1.00  0.00     0.004 A 
ATOM     82  C   UNL     1      -6.325   1.953   8.425  1.00  0.00     0.004 A 
ATOM     83  C   UNL     1      -4.299   3.437   7.214  1.00  0.00     0.000 A 
ATOM     84  C   UNL     1      -5.687   1.466   7.282  1.00  0.00     0.000 A 
ATOM     85  C   UNL     1      -4.674   2.207   6.678  1.00  0.00     0.000 A 
ENDBRANCH  79  80
ENDBRANCH  76  79
ENDBRANCH  74  76
ENDBRANCH  72  74
ENDBRANCH  70  71
ENDBRANCH   1  69
TORSDOF 17
ENDMDL
MODEL 10
REMARK VINA RESULT:    -7.894      2.137      3.282
REMARK INTER + INTRA:         -29.392
REMARK INTER:                 -23.600
REMARK INTRA:                  -5.793
REMARK UNBOUND:                -5.809
REMARK SMILES C=C1C(=O)N[C@H](C)C(=O)N[C@@H](CC(C)C)C(=O)N[C@@H](C(=O)O)[C@H](C)C(=O)N[C@@H](CCCN=C(N)N)C(=O)N[C@@H](/C=C/C(C)=C/[C@H](C)[C@H](Cc2ccccc2)OC)[C@H](C)C(=O)N[C@@H](C(=O)O)CCC(=O)N1C
REMARK SMILES IDX 39 1 38 2 37 3 36 4 28 6 27 7 25 8 26 9 23 11 24 12 19 13
REMARK SMILES IDX 18 14 16 15 17 16 11 18 10 19 8 20 9 21 12 24 13 25 14 26
REMARK SMILES IDX 15 27 20 28 21 29 22 30 29 32 30 33 31 34 32 35 33 36 34 37
REMARK SMILES IDX 35 38 57 43 58 44 59 45 60 46 61 47 62 49 66 50 67 51 68 52
REMARK SMILES IDX 69 53 70 54 71 55 2 56 1 57 3 58 4 59 5 60 6 62 7 63 63 65
REMARK SMILES IDX 64 66 65 67 40 69 41 70 42 71 44 72 43 73 45 74 46 75 47 76
REMARK SMILES IDX 55 77 56 78 48 79 49 80 50 81 54 82 51 83 53 84 52 85
REMARK H PARENT 38 5 27 10 18 17 10 22 22 31 34 39 34 40 35 41 35 42 61 48
REMARK H PARENT 5 61 65 68
REMARK Flexibility Score:  369.900
ROOT
ATOM      1  C   UNL     1      -9.090  -3.107  10.283  1.00  0.00     0.117 C 
ENDROOT
BRANCH   1   2
ATOM      2  N   UNL     1      -8.062  -3.111   9.242  1.00  0.00    -0.347 N 
ATOM      3  O   UNL     1      -6.249  -2.706  10.591  1.00  0.00    -0.273 OA
ATOM      4  C   UNL     1      -6.707  -3.001   9.492  1.00  0.00     0.243 C 
ATOM      5  H   UNL     1      -8.332  -3.252   8.281  1.00  0.00     0.164 HD
BRANCH   4   6
ATOM      6  C   UNL     1      -5.827  -3.122   8.222  1.00  0.00     0.171 C 
BRANCH   6   7
ATOM      7  N   UNL     1      -5.079  -1.876   7.994  1.00  0.00    -0.344 N 
ATOM      8  C   UNL     1      -4.729  -1.489   6.718  1.00  0.00     0.226 C 
ATOM      9  O   UNL     1      -4.997  -2.160   5.729  1.00  0.00    -0.275 OA
ATOM     10  H   UNL     1      -4.782  -1.329   8.793  1.00  0.00     0.164 HD
BRANCH   8  11
ATOM     11  C   UNL     1      -4.010  -0.154   6.645  1.00  0.00     0.109 C 
ATOM     12  C   UNL     1      -4.012   0.366   5.207  1.00  0.00     0.021 C 
BRANCH  11  13
ATOM     13  C   UNL     1      -4.602   0.816   7.686  1.00  0.00     0.204 C 
BRANCH  13  14
ATOM     14  N   UNL     1      -3.878   2.090   7.728  1.00  0.00    -0.340 N 
ATOM     15  C   UNL     1      -2.774   2.298   8.527  1.00  0.00     0.243 C 
ATOM     16  O   UNL     1      -2.282   1.407   9.218  1.00  0.00    -0.273 OA
ATOM     17  H   UNL     1      -4.319   2.908   7.300  1.00  0.00     0.164 HD
BRANCH  15  18
ATOM     18  C   UNL     1      -2.305   3.773   8.563  1.00  0.00     0.171 C 
BRANCH  18  19
ATOM     19  N   UNL     1      -3.208   4.521   7.689  1.00  0.00    -0.343 N 
ATOM     20  C   UNL     1      -2.762   5.567   6.905  1.00  0.00     0.242 CG0
ATOM     21  O   UNL     1      -1.617   6.003   7.004  1.00  0.00    -0.273 OA
ATOM     22  H   UNL     1      -4.190   4.272   7.659  1.00  0.00     0.164 HD
ATOM     23  G   UNL     1      -3.841   6.182   5.991  1.00  0.00     0.000 G0
ENDBRANCH  18  19
BRANCH  18  24
ATOM     24  C   UNL     1      -2.335   4.316   9.997  1.00  0.00     0.038 C 
BRANCH  24  25
ATOM     25  C   UNL     1      -0.950   4.661  10.584  1.00  0.00    -0.015 C 
ATOM     26  C   UNL     1      -0.519   6.093  10.263  1.00  0.00     0.007 C 
ATOM     27  C   UNL     1       0.095   3.677  10.051  1.00  0.00     0.007 C 
ENDBRANCH  24  25
ENDBRANCH  18  24
ENDBRANCH  15  18
ENDBRANCH  13  14
BRANCH  13  28
ATOM     28  C   UNL     1      -6.078   1.141   7.437  1.00  0.00     0.327 C 
ATOM     29  O   UNL     1      -6.512   1.992   6.676  1.00  0.00    -0.250 OA
BRANCH  28  30
ATOM     30  O   UNL     1      -6.913   0.460   8.248  1.00  0.00    -0.480 OA
ATOM     31  H   UNL     1      -6.415   0.369   9.087  1.00  0.00     0.296 HD
ENDBRANCH  28  30
ENDBRANCH  13  28
ENDBRANCH  11  13
ENDBRANCH   8  11
ENDBRANCH   6   7
BRANCH   6  32
ATOM     32  C   UNL     1      -4.874  -4.311   8.382  1.00  0.00     0.037 C 
BRANCH  32  33
ATOM     33  C   UNL     1      -3.517  -3.892   8.964  1.00  0.00     0.026 C 
BRANCH  33  34
ATOM     34  C   UNL     1      -3.215  -4.577  10.298  1.00  0.00     0.146 C 
BRANCH  34  35
ATOM     35  N   UNL     1      -4.367  -5.379  10.685  1.00  0.00    -0.254 NA
ATOM     36  C   UNL     1      -4.246  -6.654  10.715  1.00  0.00     0.185 C 
ATOM     37  N   UNL     1      -5.300  -7.403  11.075  1.00  0.00    -0.370 N 
ATOM     38  N   UNL     1      -3.169  -7.407  10.429  1.00  0.00    -0.370 N 
ATOM     39  H   UNL     1      -6.148  -6.907  11.318  1.00  0.00     0.159 HD
ATOM     40  H   UNL     1      -5.238  -8.383  11.291  1.00  0.00     0.159 HD
ATOM     41  H   UNL     1      -3.239  -8.409  10.355  1.00  0.00     0.159 HD
ATOM     42  H   UNL     1      -2.308  -6.978  10.127  1.00  0.00     0.159 HD
ENDBRANCH  34  35
ENDBRANCH  33  34
ENDBRANCH  32  33
ENDBRANCH   6  32
ENDBRANCH   4   6
ENDBRANCH   1   2
BRANCH   1  43
ATOM     43  C   UNL     1      -9.872  -4.450  10.213  1.00  0.00     0.102 C 
ATOM     44  C   UNL     1     -11.348  -4.321  10.626  1.00  0.00     0.020 C 
BRANCH  43  45
ATOM     45  C   UNL     1      -9.118  -5.565  10.944  1.00  0.00     0.225 C 
ATOM     46  O   UNL     1      -8.318  -6.311  10.386  1.00  0.00    -0.275 OA
ATOM     47  N   UNL     1      -9.462  -5.745  12.264  1.00  0.00    -0.342 N 
ATOM     48  H   UNL     1      -9.999  -5.036  12.743  1.00  0.00     0.164 HD
BRANCH  47  49
ATOM     49  C   UNL     1      -8.797  -6.751  13.098  1.00  0.00     0.192 C 
BRANCH  49  50
ATOM     50  C   UNL     1      -9.791  -7.312  14.119  1.00  0.00     0.047 C 
BRANCH  50  51
ATOM     51  C   UNL     1      -9.867  -8.844  14.076  1.00  0.00     0.103 C 
BRANCH  51  52
ATOM     52  C   UNL     1     -11.157  -9.337  13.423  1.00  0.00     0.226 C 
ATOM     53  O   UNL     1     -11.278  -9.287  12.198  1.00  0.00    -0.275 OA
BRANCH  52  54
ATOM     54  N   UNL     1     -12.119  -9.900  14.283  1.00  0.00    -0.311 N 
ATOM     55  C   UNL     1     -11.732 -10.863  15.322  1.00  0.00     0.153 C 
BRANCH  54  56
ATOM     56  C   UNL     1     -13.478  -9.560  14.183  1.00  0.00     0.102 C 
ATOM     57  C   UNL     1     -14.067  -8.547  14.839  1.00  0.00     0.043 C 
BRANCH  56  58
ATOM     58  C   UNL     1     -14.400 -10.317  13.256  1.00  0.00     0.268 C 
ATOM     59  O   UNL     1     -14.540 -10.035  12.074  1.00  0.00    -0.268 OA
ATOM     60  N   UNL     1     -15.012 -11.390  13.860  1.00  0.00    -0.339 N 
ATOM     61  H   UNL     1     -14.851 -11.550  14.847  1.00  0.00     0.164 HD
BRANCH  60  62
ATOM     62  C   UNL     1     -15.897 -12.295  13.128  1.00  0.00     0.168 CG0
ATOM     63  C   UNL     1     -17.047 -12.766  14.010  1.00  0.00     0.041 C 
ATOM     64  G   UNL     1     -15.086 -13.496  12.600  1.00  0.00     0.000 G0
ENDBRANCH  60  62
ENDBRANCH  56  58
ENDBRANCH  54  56
ENDBRANCH  52  54
ENDBRANCH  51  52
ENDBRANCH  50  51
ENDBRANCH  49  50
BRANCH  49  65
ATOM     65  C   UNL     1      -7.586  -6.163  13.838  1.00  0.00     0.326 C 
ATOM     66  O   UNL     1      -6.420  -6.260  13.483  1.00  0.00    -0.250 OA
BRANCH  65  67
ATOM     67  O   UNL     1      -7.882  -5.543  15.002  1.00  0.00    -0.480 OA
ATOM     68  H   UNL     1      -8.510  -6.158  15.438  1.00  0.00     0.296 HD
ENDBRANCH  65  67
ENDBRANCH  49  65
ENDBRANCH  47  49
ENDBRANCH  43  45
ENDBRANCH   1  43
BRANCH   1  69
ATOM     69  C   UNL     1      -9.852  -1.805  10.120  1.00  0.00    -0.001 C 
ATOM     70  C   UNL     1     -10.121  -0.890  11.069  1.00  0.00     0.001 C 
BRANCH  70  71
ATOM     71  C   UNL     1     -10.839   0.373  10.895  1.00  0.00    -0.055 C 
ATOM     72  C   UNL     1     -10.109   1.507  10.831  1.00  0.00    -0.018 C 
ATOM     73  C   UNL     1     -12.341   0.319  10.792  1.00  0.00     0.044 C 
BRANCH  72  74
ATOM     74  C   UNL     1     -10.576   2.944  10.653  1.00  0.00     0.038 C 
ATOM     75  C   UNL     1     -10.029   3.435   9.307  1.00  0.00     0.015 C 
BRANCH  74  76
ATOM     76  C   UNL     1     -10.117   3.776  11.887  1.00  0.00     0.128 C 
BRANCH  76  77
ATOM     77  O   UNL     1     -10.886   3.404  13.043  1.00  0.00    -0.381 OA
ATOM     78  C   UNL     1     -10.092   3.099  14.182  1.00  0.00     0.195 C 
ENDBRANCH  76  77
BRANCH  76  79
ATOM     79  C   UNL     1      -8.590   3.732  12.142  1.00  0.00     0.068 C 
BRANCH  79  80
ATOM     80  C   UNL     1      -7.687   4.438  11.159  1.00  0.00    -0.045 A 
ATOM     81  C   UNL     1      -7.749   5.828  10.992  1.00  0.00     0.004 A 
ATOM     82  C   UNL     1      -6.787   3.704  10.373  1.00  0.00     0.004 A 
ATOM     83  C   UNL     1      -6.921   6.472  10.070  1.00  0.00     0.000 A 
ATOM     84  C   UNL     1      -5.960   4.349   9.450  1.00  0.00     0.000 A 
ATOM     85  C   UNL     1      -6.026   5.732   9.301  1.00  0.00     0.000 A 
ENDBRANCH  79  80
ENDBRANCH  76  79
ENDBRANCH  74  76
ENDBRANCH  72  74
ENDBRANCH  70  71
ENDBRANCH   1  69
TORSDOF 17
ENDMDL
MODEL 11
REMARK VINA RESULT:    -7.891      2.877      4.123
REMARK INTER + INTRA:         -29.385
REMARK INTER:                 -22.612
REMARK INTRA:                  -6.773
REMARK UNBOUND:                -5.809
REMARK SMILES C=C1C(=O)N[C@H](C)C(=O)N[C@@H](CC(C)C)C(=O)N[C@@H](C(=O)O)[C@H](C)C(=O)N[C@@H](CCCN=C(N)N)C(=O)N[C@@H](/C=C/C(C)=C/[C@H](C)[C@H](Cc2ccccc2)OC)[C@H](C)C(=O)N[C@@H](C(=O)O)CCC(=O)N1C
REMARK SMILES IDX 39 1 38 2 37 3 36 4 28 6 27 7 25 8 26 9 23 11 24 12 19 13
REMARK SMILES IDX 18 14 16 15 17 16 11 18 10 19 8 20 9 21 12 24 13 25 14 26
REMARK SMILES IDX 15 27 20 28 21 29 22 30 29 32 30 33 31 34 32 35 33 36 34 37
REMARK SMILES IDX 35 38 57 43 58 44 59 45 60 46 61 47 62 49 66 50 67 51 68 52
REMARK SMILES IDX 69 53 70 54 71 55 2 56 1 57 3 58 4 59 5 60 6 62 7 63 63 65
REMARK SMILES IDX 64 66 65 67 40 69 41 70 42 71 44 72 43 73 45 74 46 75 47 76
REMARK SMILES IDX 55 77 56 78 48 79 49 80 50 81 54 82 51 83 53 84 52 85
REMARK H PARENT 38 5 27 10 18 17 10 22 22 31 34 39 34 40 35 41 35 42 61 48
REMARK H PARENT 5 61 65 68
REMARK Flexibility Score:  369.900
ROOT
ATOM      1  C   UNL     1      -8.208  -2.966  11.011  1.00  0.00     0.117 C 
ENDROOT
BRANCH   1   2
ATOM      2  N   UNL     1      -7.184  -2.759   9.986  1.00  0.00    -0.347 N 
ATOM      3  O   UNL     1      -5.635  -4.253  10.783  1.00  0.00    -0.273 OA
ATOM      4  C   UNL     1      -6.014  -3.488   9.903  1.00  0.00     0.243 C 
ATOM      5  H   UNL     1      -7.345  -2.080   9.257  1.00  0.00     0.164 HD
BRANCH   4   6
ATOM      6  C   UNL     1      -5.142  -3.129   8.673  1.00  0.00     0.171 C 
BRANCH   6   7
ATOM      7  N   UNL     1      -3.724  -3.411   8.948  1.00  0.00    -0.344 N 
ATOM      8  C   UNL     1      -2.746  -2.509   8.589  1.00  0.00     0.226 C 
ATOM      9  O   UNL     1      -2.997  -1.457   8.013  1.00  0.00    -0.275 OA
ATOM     10  H   UNL     1      -3.472  -4.300   9.361  1.00  0.00     0.164 HD
BRANCH   8  11
ATOM     11  C   UNL     1      -1.340  -2.919   8.989  1.00  0.00     0.109 C 
ATOM     12  C   UNL     1      -0.389  -2.766   7.802  1.00  0.00     0.021 C 
BRANCH  11  13
ATOM     13  C   UNL     1      -0.916  -2.157  10.261  1.00  0.00     0.204 C 
BRANCH  13  14
ATOM     14  N   UNL     1      -1.568  -0.848  10.363  1.00  0.00    -0.340 N 
ATOM     15  C   UNL     1      -0.910   0.285  10.791  1.00  0.00     0.243 C 
ATOM     16  O   UNL     1       0.290   0.289  11.061  1.00  0.00    -0.273 OA
ATOM     17  H   UNL     1      -2.589  -0.813  10.300  1.00  0.00     0.164 HD
BRANCH  15  18
ATOM     18  C   UNL     1      -1.847   1.497  11.016  1.00  0.00     0.171 C 
BRANCH  18  19
ATOM     19  N   UNL     1      -1.265   2.279  12.104  1.00  0.00    -0.343 N 
ATOM     20  C   UNL     1      -1.506   1.976  13.430  1.00  0.00     0.242 CG0
ATOM     21  O   UNL     1      -2.325   1.119  13.755  1.00  0.00    -0.273 OA
ATOM     22  H   UNL     1      -0.672   3.072  11.885  1.00  0.00     0.164 HD
ATOM     23  G   UNL     1      -0.743   2.863  14.436  1.00  0.00     0.000 G0
ENDBRANCH  18  19
BRANCH  18  24
ATOM     24  C   UNL     1      -1.975   2.327   9.733  1.00  0.00     0.038 C 
BRANCH  24  25
ATOM     25  C   UNL     1      -3.425   2.673   9.331  1.00  0.00    -0.015 C 
ATOM     26  C   UNL     1      -4.443   1.693   9.916  1.00  0.00     0.007 C 
ATOM     27  C   UNL     1      -3.545   2.692   7.805  1.00  0.00     0.007 C 
ENDBRANCH  24  25
ENDBRANCH  18  24
ENDBRANCH  15  18
ENDBRANCH  13  14
BRANCH  13  28
ATOM     28  C   UNL     1      -1.226  -2.920  11.553  1.00  0.00     0.327 C 
ATOM     29  O   UNL     1      -2.069  -3.793  11.692  1.00  0.00    -0.250 OA
BRANCH  28  30
ATOM     30  O   UNL     1      -0.542  -2.456  12.618  1.00  0.00    -0.480 OA
ATOM     31  H   UNL     1      -1.119  -1.759  12.991  1.00  0.00     0.296 HD
ENDBRANCH  28  30
ENDBRANCH  13  28
ENDBRANCH  11  13
ENDBRANCH   8  11
ENDBRANCH   6   7
BRANCH   6  32
ATOM     32  C   UNL     1      -5.633  -3.924   7.458  1.00  0.00     0.037 C 
BRANCH  32  33
ATOM     33  C   UNL     1      -4.604  -4.963   6.992  1.00  0.00     0.026 C 
BRANCH  33  34
ATOM     34  C   UNL     1      -4.225  -4.792   5.521  1.00  0.00     0.146 C 
BRANCH  34  35
ATOM     35  N   UNL     1      -3.152  -5.724   5.200  1.00  0.00    -0.254 NA
ATOM     36  C   UNL     1      -3.154  -6.291   4.052  1.00  0.00     0.185 C 
ATOM     37  N   UNL     1      -2.167  -7.148   3.744  1.00  0.00    -0.370 N 
ATOM     38  N   UNL     1      -4.035  -6.158   3.045  1.00  0.00    -0.370 N 
ATOM     39  H   UNL     1      -1.457  -7.294   4.449  1.00  0.00     0.159 HD
ATOM     40  H   UNL     1      -2.002  -7.495   2.815  1.00  0.00     0.159 HD
ATOM     41  H   UNL     1      -4.004  -6.764   2.242  1.00  0.00     0.159 HD
ATOM     42  H   UNL     1      -4.838  -5.557   3.143  1.00  0.00     0.159 HD
ENDBRANCH  34  35
ENDBRANCH  33  34
ENDBRANCH  32  33
ENDBRANCH   6  32
ENDBRANCH   4   6
ENDBRANCH   1   2
BRANCH   1  43
ATOM     43  C   UNL     1      -9.287  -3.934  10.445  1.00  0.00     0.102 C 
ATOM     44  C   UNL     1     -10.727  -3.494  10.758  1.00  0.00     0.020 C 
BRANCH  43  45
ATOM     45  C   UNL     1      -8.982  -5.384  10.830  1.00  0.00     0.225 C 
ATOM     46  O   UNL     1      -8.610  -6.229  10.021  1.00  0.00    -0.275 OA
ATOM     47  N   UNL     1      -9.243  -5.716  12.140  1.00  0.00    -0.342 N 
ATOM     48  H   UNL     1      -9.400  -4.986  12.820  1.00  0.00     0.164 HD
BRANCH  47  49
ATOM     49  C   UNL     1      -8.965  -7.059  12.659  1.00  0.00     0.192 C 
BRANCH  49  50
ATOM     50  C   UNL     1      -9.860  -7.337  13.870  1.00  0.00     0.047 C 
BRANCH  50  51
ATOM     51  C   UNL     1     -10.032  -8.839  14.134  1.00  0.00     0.103 C 
BRANCH  51  52
ATOM     52  C   UNL     1     -11.369  -9.364  13.615  1.00  0.00     0.226 C 
ATOM     53  O   UNL     1     -11.630  -9.288  12.413  1.00  0.00    -0.275 OA
BRANCH  52  54
ATOM     54  N   UNL     1     -12.207  -9.985  14.560  1.00  0.00    -0.311 N 
ATOM     55  C   UNL     1     -11.751 -11.155  15.322  1.00  0.00     0.153 C 
BRANCH  54  56
ATOM     56  C   UNL     1     -13.504  -9.509  14.813  1.00  0.00     0.102 C 
ATOM     57  C   UNL     1     -13.838  -8.213  14.927  1.00  0.00     0.043 C 
BRANCH  56  58
ATOM     58  C   UNL     1     -14.670 -10.462  14.934  1.00  0.00     0.268 C 
ATOM     59  O   UNL     1     -15.348 -10.565  15.948  1.00  0.00    -0.268 OA
ATOM     60  N   UNL     1     -14.930 -11.149  13.773  1.00  0.00    -0.339 N 
ATOM     61  H   UNL     1     -14.314 -11.015  12.979  1.00  0.00     0.164 HD
BRANCH  60  62
ATOM     62  C   UNL     1     -16.053 -12.077  13.651  1.00  0.00     0.168 CG0
ATOM     63  C   UNL     1     -15.569 -13.477  13.294  1.00  0.00     0.041 C 
ATOM     64  G   UNL     1     -17.043 -11.555  12.590  1.00  0.00     0.000 G0
ENDBRANCH  60  62
ENDBRANCH  56  58
ENDBRANCH  54  56
ENDBRANCH  52  54
ENDBRANCH  51  52
ENDBRANCH  50  51
ENDBRANCH  49  50
BRANCH  49  65
ATOM     65  C   UNL     1      -7.492  -7.215  13.069  1.00  0.00     0.326 C 
ATOM     66  O   UNL     1      -6.914  -6.543  13.911  1.00  0.00    -0.250 OA
BRANCH  65  67
ATOM     67  O   UNL     1      -6.809  -8.149  12.372  1.00  0.00    -0.480 OA
ATOM     68  H   UNL     1      -7.131  -8.033  11.452  1.00  0.00     0.296 HD
ENDBRANCH  65  67
ENDBRANCH  49  65
ENDBRANCH  47  49
ENDBRANCH  43  45
ENDBRANCH   1  43
BRANCH   1  69
ATOM     69  C   UNL     1      -8.632  -1.584  11.473  1.00  0.00    -0.001 C 
ATOM     70  C   UNL     1      -7.880  -0.470  11.513  1.00  0.00     0.001 C 
BRANCH  70  71
ATOM     71  C   UNL     1      -8.306   0.864  11.941  1.00  0.00    -0.055 C 
ATOM     72  C   UNL     1      -9.631   1.121  11.968  1.00  0.00    -0.018 C 
ATOM     73  C   UNL     1      -7.238   1.852  12.330  1.00  0.00     0.044 C 
BRANCH  72  74
ATOM     74  C   UNL     1     -10.357   2.398  12.366  1.00  0.00     0.038 C 
ATOM     75  C   UNL     1     -11.013   2.140  13.728  1.00  0.00     0.015 C 
BRANCH  74  76
ATOM     76  C   UNL     1     -11.346   2.788  11.228  1.00  0.00     0.128 C 
BRANCH  76  77
ATOM     77  O   UNL     1     -12.678   2.905  11.755  1.00  0.00    -0.381 OA
ATOM     78  C   UNL     1     -13.602   1.992  11.179  1.00  0.00     0.195 C 
ENDBRANCH  76  77
BRANCH  76  79
ATOM     79  C   UNL     1     -10.911   4.034  10.416  1.00  0.00     0.068 C 
BRANCH  79  80
ATOM     80  C   UNL     1      -9.443   4.200  10.107  1.00  0.00    -0.045 A 
ATOM     81  C   UNL     1      -8.701   5.249  10.667  1.00  0.00     0.004 A 
ATOM     82  C   UNL     1      -8.801   3.315   9.227  1.00  0.00     0.004 A 
ATOM     83  C   UNL     1      -7.347   5.403  10.365  1.00  0.00     0.000 A 
ATOM     84  C   UNL     1      -7.446   3.471   8.926  1.00  0.00     0.000 A 
ATOM     85  C   UNL     1      -6.719   4.514   9.496  1.00  0.00     0.000 A 
ENDBRANCH  79  80
ENDBRANCH  76  79
ENDBRANCH  74  76
ENDBRANCH  72  74
ENDBRANCH  70  71
ENDBRANCH   1  69
TORSDOF 17
ENDMDL
MODEL 12
REMARK VINA RESULT:    -7.885      4.179      8.466
REMARK INTER + INTRA:         -29.366
REMARK INTER:                 -22.243
REMARK INTRA:                  -7.123
REMARK UNBOUND:                -5.809
REMARK SMILES C=C1C(=O)N[C@H](C)C(=O)N[C@@H](CC(C)C)C(=O)N[C@@H](C(=O)O)[C@H](C)C(=O)N[C@@H](CCCN=C(N)N)C(=O)N[C@@H](/C=C/C(C)=C/[C@H](C)[C@H](Cc2ccccc2)OC)[C@H](C)C(=O)N[C@@H](C(=O)O)CCC(=O)N1C
REMARK SMILES IDX 39 1 38 2 37 3 36 4 28 6 27 7 25 8 26 9 23 11 24 12 19 13
REMARK SMILES IDX 18 14 16 15 17 16 11 18 10 19 8 20 9 21 12 24 13 25 14 26
REMARK SMILES IDX 15 27 20 28 21 29 22 30 29 32 30 33 31 34 32 35 33 36 34 37
REMARK SMILES IDX 35 38 57 43 58 44 59 45 60 46 61 47 62 49 66 50 67 51 68 52
REMARK SMILES IDX 69 53 70 54 71 55 2 56 1 57 3 58 4 59 5 60 6 62 7 63 63 65
REMARK SMILES IDX 64 66 65 67 40 69 41 70 42 71 44 72 43 73 45 74 46 75 47 76
REMARK SMILES IDX 55 77 56 78 48 79 49 80 50 81 54 82 51 83 53 84 52 85
REMARK H PARENT 38 5 27 10 18 17 10 22 22 31 34 39 34 40 35 41 35 42 61 48
REMARK H PARENT 5 61 65 68
REMARK Flexibility Score:  369.900
ROOT
ATOM      1  C   UNL     1     -10.653  -4.537  11.485  1.00  0.00     0.117 C 
ENDROOT
BRANCH   1   2
ATOM      2  N   UNL     1     -10.900  -3.098  11.572  1.00  0.00    -0.347 N 
ATOM      3  O   UNL     1     -13.109  -3.122  10.945  1.00  0.00    -0.273 OA
ATOM      4  C   UNL     1     -12.138  -2.513  11.383  1.00  0.00     0.243 C 
ATOM      5  H   UNL     1     -10.146  -2.481  11.834  1.00  0.00     0.164 HD
BRANCH   4   6
ATOM      6  C   UNL     1     -12.146  -0.981  11.617  1.00  0.00     0.171 C 
BRANCH   6   7
ATOM      7  N   UNL     1     -10.853  -0.538  12.162  1.00  0.00    -0.344 N 
ATOM      8  C   UNL     1     -10.746  -0.131  13.475  1.00  0.00     0.226 C 
ATOM      9  O   UNL     1     -11.705  -0.097  14.236  1.00  0.00    -0.275 OA
ATOM     10  H   UNL     1     -10.051  -0.488  11.546  1.00  0.00     0.164 HD
BRANCH   8  11
ATOM     11  C   UNL     1      -9.337   0.244  13.901  1.00  0.00     0.109 C 
ATOM     12  C   UNL     1      -8.313  -0.482  13.028  1.00  0.00     0.021 C 
BRANCH  11  13
ATOM     13  C   UNL     1      -9.192   1.778  13.929  1.00  0.00     0.204 C 
BRANCH  13  14
ATOM     14  N   UNL     1      -9.344   2.372  12.598  1.00  0.00    -0.340 N 
ATOM     15  C   UNL     1      -8.297   2.943  11.909  1.00  0.00     0.243 C 
ATOM     16  O   UNL     1      -7.144   2.941  12.338  1.00  0.00    -0.273 OA
ATOM     17  H   UNL     1     -10.293   2.542  12.253  1.00  0.00     0.164 HD
BRANCH  15  18
ATOM     18  C   UNL     1      -8.734   3.687  10.623  1.00  0.00     0.171 C 
BRANCH  18  19
ATOM     19  N   UNL     1      -7.586   4.479  10.186  1.00  0.00    -0.343 N 
ATOM     20  C   UNL     1      -7.528   5.846  10.379  1.00  0.00     0.242 CG0
ATOM     21  O   UNL     1      -8.493   6.477  10.804  1.00  0.00    -0.273 OA
ATOM     22  H   UNL     1      -6.811   4.018   9.723  1.00  0.00     0.164 HD
ATOM     23  G   UNL     1      -6.206   6.498   9.924  1.00  0.00     0.000 G0
ENDBRANCH  18  19
BRANCH  18  24
ATOM     24  C   UNL     1      -9.172   2.690   9.543  1.00  0.00     0.038 C 
BRANCH  24  25
ATOM     25  C   UNL     1      -8.127   1.606   9.205  1.00  0.00    -0.015 C 
ATOM     26  C   UNL     1      -7.573   1.749   7.787  1.00  0.00     0.007 C 
ATOM     27  C   UNL     1      -8.751   0.218   9.377  1.00  0.00     0.007 C 
ENDBRANCH  24  25
ENDBRANCH  18  24
ENDBRANCH  15  18
ENDBRANCH  13  14
BRANCH  13  28
ATOM     28  C   UNL     1     -10.207   2.463  14.850  1.00  0.00     0.327 C 
ATOM     29  O   UNL     1     -10.237   2.395  16.070  1.00  0.00    -0.250 OA
BRANCH  28  30
ATOM     30  O   UNL     1     -11.190   3.094  14.177  1.00  0.00    -0.480 OA
ATOM     31  H   UNL     1     -11.671   2.373  13.721  1.00  0.00     0.296 HD
ENDBRANCH  28  30
ENDBRANCH  13  28
ENDBRANCH  11  13
ENDBRANCH   8  11
ENDBRANCH   6   7
BRANCH   6  32
ATOM     32  C   UNL     1     -12.455  -0.271  10.295  1.00  0.00     0.037 C 
BRANCH  32  33
ATOM     33  C   UNL     1     -13.660   0.672  10.411  1.00  0.00     0.026 C 
BRANCH  33  34
ATOM     34  C   UNL     1     -13.611   1.531  11.676  1.00  0.00     0.146 C 
BRANCH  34  35
ATOM     35  N   UNL     1     -14.962   1.671  12.201  1.00  0.00    -0.254 NA
ATOM     36  C   UNL     1     -15.254   1.092  13.306  1.00  0.00     0.185 C 
ATOM     37  N   UNL     1     -16.495   1.219  13.802  1.00  0.00    -0.370 N 
ATOM     38  N   UNL     1     -14.473   0.334  14.096  1.00  0.00    -0.370 N 
ATOM     39  H   UNL     1     -17.142   1.786  13.268  1.00  0.00     0.159 HD
ATOM     40  H   UNL     1     -16.751   0.946  14.735  1.00  0.00     0.159 HD
ATOM     41  H   UNL     1     -14.859  -0.182  14.869  1.00  0.00     0.159 HD
ATOM     42  H   UNL     1     -13.518   0.141  13.838  1.00  0.00     0.159 HD
ENDBRANCH  34  35
ENDBRANCH  33  34
ENDBRANCH  32  33
ENDBRANCH   6  32
ENDBRANCH   4   6
ENDBRANCH   1   2
BRANCH   1  43
ATOM     43  C   UNL     1     -10.383  -5.081  12.918  1.00  0.00     0.102 C 
ATOM     44  C   UNL     1     -10.297  -6.615  12.984  1.00  0.00     0.020 C 
BRANCH  43  45
ATOM     45  C   UNL     1     -11.355  -4.469  13.931  1.00  0.00     0.225 C 
ATOM     46  O   UNL     1     -11.038  -3.573  14.708  1.00  0.00    -0.275 OA
ATOM     47  N   UNL     1     -12.600  -5.053  13.984  1.00  0.00    -0.342 N 
ATOM     48  H   UNL     1     -12.892  -5.677  13.245  1.00  0.00     0.164 HD
BRANCH  47  49
ATOM     49  C   UNL     1     -13.645  -4.549  14.881  1.00  0.00     0.192 C 
BRANCH  49  50
ATOM     50  C   UNL     1     -14.477  -5.720  15.411  1.00  0.00     0.047 C 
BRANCH  50  51
ATOM     51  C   UNL     1     -13.601  -6.855  15.960  1.00  0.00     0.103 C 
BRANCH  51  52
ATOM     52  C   UNL     1     -14.082  -8.227  15.493  1.00  0.00     0.226 C 
ATOM     53  O   UNL     1     -15.172  -8.332  14.927  1.00  0.00    -0.275 OA
BRANCH  52  54
ATOM     54  N   UNL     1     -13.190  -9.300  15.678  1.00  0.00    -0.311 N 
ATOM     55  C   UNL     1     -11.773  -9.177  15.311  1.00  0.00     0.153 C 
BRANCH  54  56
ATOM     56  C   UNL     1     -13.618 -10.522  16.223  1.00  0.00     0.102 C 
ATOM     57  C   UNL     1     -13.804 -10.756  17.532  1.00  0.00     0.043 C 
BRANCH  56  58
ATOM     58  C   UNL     1     -13.955 -11.693  15.330  1.00  0.00     0.268 C 
ATOM     59  O   UNL     1     -13.297 -12.725  15.302  1.00  0.00    -0.268 OA
ATOM     60  N   UNL     1     -15.108 -11.506  14.606  1.00  0.00    -0.339 N 
ATOM     61  H   UNL     1     -15.589 -10.618  14.677  1.00  0.00     0.164 HD
BRANCH  60  62
ATOM     62  C   UNL     1     -15.651 -12.540  13.725  1.00  0.00     0.168 CG0
ATOM     63  C   UNL     1     -16.680 -13.394  14.454  1.00  0.00     0.041 C 
ATOM     64  G   UNL     1     -14.501 -13.414  13.184  1.00  0.00     0.000 G0
ENDBRANCH  60  62
ENDBRANCH  56  58
ENDBRANCH  54  56
ENDBRANCH  52  54
ENDBRANCH  51  52
ENDBRANCH  50  51
ENDBRANCH  49  50
BRANCH  49  65
ATOM     65  C   UNL     1     -14.569  -3.550  14.168  1.00  0.00     0.326 C 
ATOM     66  O   UNL     1     -14.821  -2.417  14.552  1.00  0.00    -0.250 OA
BRANCH  65  67
ATOM     67  O   UNL     1     -15.172  -4.031  13.059  1.00  0.00    -0.480 OA
ATOM     68  H   UNL     1     -14.456  -4.032  12.388  1.00  0.00     0.296 HD
ENDBRANCH  65  67
ENDBRANCH  49  65
ENDBRANCH  47  49
ENDBRANCH  43  45
ENDBRANCH   1  43
BRANCH   1  69
ATOM     69  C   UNL     1      -9.588  -4.721  10.419  1.00  0.00    -0.001 C 
ATOM     70  C   UNL     1      -9.534  -4.135   9.209  1.00  0.00     0.001 C 
BRANCH  70  71
ATOM     71  C   UNL     1      -8.490  -4.303   8.197  1.00  0.00    -0.055 C 
ATOM     72  C   UNL     1      -7.209  -4.363   8.619  1.00  0.00    -0.018 C 
ATOM     73  C   UNL     1      -8.919  -4.406   6.756  1.00  0.00     0.044 C 
BRANCH  72  74
ATOM     74  C   UNL     1      -5.934  -4.534   7.807  1.00  0.00     0.038 C 
ATOM     75  C   UNL     1      -4.999  -5.440   8.617  1.00  0.00     0.015 C 
BRANCH  74  76
ATOM     76  C   UNL     1      -5.356  -3.126   7.478  1.00  0.00     0.128 C 
BRANCH  76  77
ATOM     77  O   UNL     1      -4.226  -2.850   8.322  1.00  0.00    -0.381 OA
ATOM     78  C   UNL     1      -4.346  -1.643   9.063  1.00  0.00     0.195 C 
ENDBRANCH  76  77
BRANCH  76  79
ATOM     79  C   UNL     1      -5.051  -2.905   5.975  1.00  0.00     0.068 C 
BRANCH  79  80
ATOM     80  C   UNL     1      -4.672  -4.109   5.147  1.00  0.00    -0.045 A 
ATOM     81  C   UNL     1      -3.576  -4.910   5.496  1.00  0.00     0.004 A 
ATOM     82  C   UNL     1      -5.401  -4.430   3.991  1.00  0.00     0.004 A 
ATOM     83  C   UNL     1      -3.224  -6.014   4.716  1.00  0.00     0.000 A 
ATOM     84  C   UNL     1      -5.047  -5.534   3.212  1.00  0.00     0.000 A 
ATOM     85  C   UNL     1      -3.960  -6.326   3.575  1.00  0.00     0.000 A 
ENDBRANCH  79  80
ENDBRANCH  76  79
ENDBRANCH  74  76
ENDBRANCH  72  74
ENDBRANCH  70  71
ENDBRANCH   1  69
TORSDOF 17
ENDMDL
MODEL 13
REMARK VINA RESULT:    -7.821      2.134      3.232
REMARK INTER + INTRA:         -29.176
REMARK INTER:                 -21.613
REMARK INTRA:                  -7.564
REMARK UNBOUND:                -5.809
REMARK SMILES C=C1C(=O)N[C@H](C)C(=O)N[C@@H](CC(C)C)C(=O)N[C@@H](C(=O)O)[C@H](C)C(=O)N[C@@H](CCCN=C(N)N)C(=O)N[C@@H](/C=C/C(C)=C/[C@H](C)[C@H](Cc2ccccc2)OC)[C@H](C)C(=O)N[C@@H](C(=O)O)CCC(=O)N1C
REMARK SMILES IDX 39 1 38 2 37 3 36 4 28 6 27 7 25 8 26 9 23 11 24 12 19 13
REMARK SMILES IDX 18 14 16 15 17 16 11 18 10 19 8 20 9 21 12 24 13 25 14 26
REMARK SMILES IDX 15 27 20 28 21 29 22 30 29 32 30 33 31 34 32 35 33 36 34 37
REMARK SMILES IDX 35 38 57 43 58 44 59 45 60 46 61 47 62 49 66 50 67 51 68 52
REMARK SMILES IDX 69 53 70 54 71 55 2 56 1 57 3 58 4 59 5 60 6 62 7 63 63 65
REMARK SMILES IDX 64 66 65 67 40 69 41 70 42 71 44 72 43 73 45 74 46 75 47 76
REMARK SMILES IDX 55 77 56 78 48 79 49 80 50 81 54 82 51 83 53 84 52 85
REMARK H PARENT 38 5 27 10 18 17 10 22 22 31 34 39 34 40 35 41 35 42 61 48
REMARK H PARENT 5 61 65 68
REMARK Flexibility Score:  369.900
ROOT
ATOM      1  C   UNL     1      -8.062  -2.819  10.441  1.00  0.00     0.117 C 
ENDROOT
BRANCH   1   2
ATOM      2  N   UNL     1      -6.781  -2.618   9.762  1.00  0.00    -0.347 N 
ATOM      3  O   UNL     1      -7.569  -2.606   7.606  1.00  0.00    -0.273 OA
ATOM      4  C   UNL     1      -6.649  -2.435   8.399  1.00  0.00     0.243 C 
ATOM      5  H   UNL     1      -5.936  -2.556  10.309  1.00  0.00     0.164 HD
BRANCH   4   6
ATOM      6  C   UNL     1      -5.193  -2.157   7.946  1.00  0.00     0.171 C 
BRANCH   6   7
ATOM      7  N   UNL     1      -4.304  -2.045   9.113  1.00  0.00    -0.344 N 
ATOM      8  C   UNL     1      -3.243  -1.165   9.106  1.00  0.00     0.226 C 
ATOM      9  O   UNL     1      -2.976  -0.460   8.141  1.00  0.00    -0.275 OA
ATOM     10  H   UNL     1      -4.452  -2.659   9.904  1.00  0.00     0.164 HD
BRANCH   8  11
ATOM     11  C   UNL     1      -2.454  -1.127  10.403  1.00  0.00     0.109 C 
ATOM     12  C   UNL     1      -0.963  -1.302  10.116  1.00  0.00     0.021 C 
BRANCH  11  13
ATOM     13  C   UNL     1      -2.817   0.144  11.198  1.00  0.00     0.204 C 
BRANCH  13  14
ATOM     14  N   UNL     1      -2.958   1.316  10.329  1.00  0.00    -0.340 N 
ATOM     15  C   UNL     1      -1.932   2.208  10.104  1.00  0.00     0.243 C 
ATOM     16  O   UNL     1      -0.805   2.050  10.569  1.00  0.00    -0.273 OA
ATOM     17  H   UNL     1      -3.901   1.587  10.037  1.00  0.00     0.164 HD
BRANCH  15  18
ATOM     18  C   UNL     1      -2.372   3.473   9.325  1.00  0.00     0.171 C 
BRANCH  18  19
ATOM     19  N   UNL     1      -1.148   4.160   8.918  1.00  0.00    -0.343 N 
ATOM     20  C   UNL     1      -0.833   5.423   9.380  1.00  0.00     0.242 CG0
ATOM     21  O   UNL     1      -1.627   6.081  10.048  1.00  0.00    -0.273 OA
ATOM     22  H   UNL     1      -0.513   3.704   8.273  1.00  0.00     0.164 HD
ATOM     23  G   UNL     1       0.535   5.953   8.903  1.00  0.00     0.000 G0
ENDBRANCH  18  19
BRANCH  18  24
ATOM     24  C   UNL     1      -3.232   3.092   8.115  1.00  0.00     0.038 C 
BRANCH  24  25
ATOM     25  C   UNL     1      -4.256   4.165   7.688  1.00  0.00    -0.015 C 
ATOM     26  C   UNL     1      -3.675   5.162   6.685  1.00  0.00     0.007 C 
ATOM     27  C   UNL     1      -4.762   4.914   8.924  1.00  0.00     0.007 C 
ENDBRANCH  24  25
ENDBRANCH  18  24
ENDBRANCH  15  18
ENDBRANCH  13  14
BRANCH  13  28
ATOM     28  C   UNL     1      -4.120   0.008  11.991  1.00  0.00     0.327 C 
ATOM     29  O   UNL     1      -4.964  -0.864  11.851  1.00  0.00    -0.250 OA
BRANCH  28  30
ATOM     30  O   UNL     1      -4.339   1.041  12.829  1.00  0.00    -0.480 OA
ATOM     31  H   UNL     1      -4.285   0.643  13.723  1.00  0.00     0.296 HD
ENDBRANCH  28  30
ENDBRANCH  13  28
ENDBRANCH  11  13
ENDBRANCH   8  11
ENDBRANCH   6   7
BRANCH   6  32
ATOM     32  C   UNL     1      -4.732  -3.282   7.012  1.00  0.00     0.037 C 
BRANCH  32  33
ATOM     33  C   UNL     1      -4.671  -2.830   5.547  1.00  0.00     0.026 C 
BRANCH  33  34
ATOM     34  C   UNL     1      -5.447  -3.762   4.614  1.00  0.00     0.146 C 
BRANCH  34  35
ATOM     35  N   UNL     1      -4.502  -4.444   3.740  1.00  0.00    -0.254 NA
ATOM     36  C   UNL     1      -4.038  -5.581   4.105  1.00  0.00     0.185 C 
ATOM     37  N   UNL     1      -3.171  -6.221   3.305  1.00  0.00    -0.370 N 
ATOM     38  N   UNL     1      -4.296  -6.279   5.225  1.00  0.00    -0.370 N 
ATOM     39  H   UNL     1      -2.934  -5.763   2.434  1.00  0.00     0.159 HD
ATOM     40  H   UNL     1      -2.900  -7.181   3.433  1.00  0.00     0.159 HD
ATOM     41  H   UNL     1      -3.762  -7.098   5.464  1.00  0.00     0.159 HD
ATOM     42  H   UNL     1      -4.920  -5.910   5.927  1.00  0.00     0.159 HD
ENDBRANCH  34  35
ENDBRANCH  33  34
ENDBRANCH  32  33
ENDBRANCH   6  32
ENDBRANCH   4   6
ENDBRANCH   1   2
BRANCH   1  43
ATOM     43  C   UNL     1      -8.827  -3.968   9.724  1.00  0.00     0.102 C 
ATOM     44  C   UNL     1     -10.353  -3.771   9.710  1.00  0.00     0.020 C 
BRANCH  43  45
ATOM     45  C   UNL     1      -8.382  -5.336  10.249  1.00  0.00     0.225 C 
ATOM     46  O   UNL     1      -8.213  -6.311   9.522  1.00  0.00    -0.275 OA
ATOM     47  N   UNL     1      -8.271  -5.438  11.617  1.00  0.00    -0.342 N 
ATOM     48  H   UNL     1      -8.264  -4.601  12.182  1.00  0.00     0.164 HD
BRANCH  47  49
ATOM     49  C   UNL     1      -7.820  -6.677  12.259  1.00  0.00     0.192 C 
BRANCH  49  50
ATOM     50  C   UNL     1      -7.979  -6.557  13.777  1.00  0.00     0.047 C 
BRANCH  50  51
ATOM     51  C   UNL     1      -8.406  -7.882  14.424  1.00  0.00     0.103 C 
BRANCH  51  52
ATOM     52  C   UNL     1      -9.846  -8.253  14.073  1.00  0.00     0.226 C 
ATOM     53  O   UNL     1     -10.644  -7.369  13.759  1.00  0.00    -0.275 OA
BRANCH  52  54
ATOM     54  N   UNL     1     -10.153  -9.626  14.060  1.00  0.00    -0.311 N 
ATOM     55  C   UNL     1      -9.200 -10.610  13.530  1.00  0.00     0.153 C 
BRANCH  54  56
ATOM     56  C   UNL     1     -11.376 -10.108  14.557  1.00  0.00     0.102 C 
ATOM     57  C   UNL     1     -11.506 -11.132  15.416  1.00  0.00     0.043 C 
BRANCH  56  58
ATOM     58  C   UNL     1     -12.680  -9.448  14.177  1.00  0.00     0.268 C 
ATOM     59  O   UNL     1     -13.252  -9.656  13.116  1.00  0.00    -0.268 OA
ATOM     60  N   UNL     1     -13.188  -8.644  15.170  1.00  0.00    -0.339 N 
ATOM     61  H   UNL     1     -12.647  -8.515  16.017  1.00  0.00     0.164 HD
BRANCH  60  62
ATOM     62  C   UNL     1     -14.473  -7.958  15.036  1.00  0.00     0.168 CG0
ATOM     63  C   UNL     1     -14.327  -6.466  15.307  1.00  0.00     0.041 C 
ATOM     64  G   UNL     1     -15.499  -8.590  16.000  1.00  0.00     0.000 G0
ENDBRANCH  60  62
ENDBRANCH  56  58
ENDBRANCH  54  56
ENDBRANCH  52  54
ENDBRANCH  51  52
ENDBRANCH  50  51
ENDBRANCH  49  50
BRANCH  49  65
ATOM     65  C   UNL     1      -6.353  -6.988  11.924  1.00  0.00     0.326 C 
ATOM     66  O   UNL     1      -5.388  -6.328  12.280  1.00  0.00    -0.250 OA
BRANCH  65  67
ATOM     67  O   UNL     1      -6.173  -8.058  11.118  1.00  0.00    -0.480 OA
ATOM     68  H   UNL     1      -5.636  -7.703  10.378  1.00  0.00     0.296 HD
ENDBRANCH  65  67
ENDBRANCH  49  65
ENDBRANCH  47  49
ENDBRANCH  43  45
ENDBRANCH   1  43
BRANCH   1  69
ATOM     69  C   UNL     1      -8.712  -1.450  10.533  1.00  0.00    -0.001 C 
ATOM     70  C   UNL     1      -9.113  -0.810  11.645  1.00  0.00     0.001 C 
BRANCH  70  71
ATOM     71  C   UNL     1      -9.720   0.521  11.723  1.00  0.00    -0.055 C 
ATOM     72  C   UNL     1      -9.234   1.379  12.645  1.00  0.00    -0.018 C 
ATOM     73  C   UNL     1     -10.838   0.840  10.765  1.00  0.00     0.044 C 
BRANCH  72  74
ATOM     74  C   UNL     1      -9.660   2.808  12.949  1.00  0.00     0.038 C 
ATOM     75  C   UNL     1     -11.047   2.739  13.599  1.00  0.00     0.015 C 
BRANCH  74  76
ATOM     76  C   UNL     1      -9.597   3.640  11.634  1.00  0.00     0.128 C 
BRANCH  76  77
ATOM     77  O   UNL     1     -10.278   4.894  11.813  1.00  0.00    -0.381 OA
ATOM     78  C   UNL     1      -9.545   6.014  11.336  1.00  0.00     0.195 C 
ENDBRANCH  76  77
BRANCH  76  79
ATOM     79  C   UNL     1      -8.166   3.811  11.065  1.00  0.00     0.068 C 
BRANCH  79  80
ATOM     80  C   UNL     1      -7.732   2.886   9.954  1.00  0.00    -0.045 A 
ATOM     81  C   UNL     1      -6.636   2.027  10.117  1.00  0.00     0.004 A 
ATOM     82  C   UNL     1      -8.406   2.893   8.724  1.00  0.00     0.004 A 
ATOM     83  C   UNL     1      -6.232   1.184   9.079  1.00  0.00     0.000 A 
ATOM     84  C   UNL     1      -8.000   2.050   7.686  1.00  0.00     0.000 A 
ATOM     85  C   UNL     1      -6.915   1.195   7.865  1.00  0.00     0.000 A 
ENDBRANCH  79  80
ENDBRANCH  76  79
ENDBRANCH  74  76
ENDBRANCH  72  74
ENDBRANCH  70  71
ENDBRANCH   1  69
TORSDOF 17
ENDMDL
MODEL 14
REMARK VINA RESULT:    -7.791      3.597     13.714
REMARK INTER + INTRA:         -29.084
REMARK INTER:                 -22.361
REMARK INTRA:                  -6.723
REMARK UNBOUND:                -5.809
REMARK SMILES C=C1C(=O)N[C@H](C)C(=O)N[C@@H](CC(C)C)C(=O)N[C@@H](C(=O)O)[C@H](C)C(=O)N[C@@H](CCCN=C(N)N)C(=O)N[C@@H](/C=C/C(C)=C/[C@H](C)[C@H](Cc2ccccc2)OC)[C@H](C)C(=O)N[C@@H](C(=O)O)CCC(=O)N1C
REMARK SMILES IDX 39 1 38 2 37 3 36 4 28 6 27 7 25 8 26 9 23 11 24 12 19 13
REMARK SMILES IDX 18 14 16 15 17 16 11 18 10 19 8 20 9 21 12 24 13 25 14 26
REMARK SMILES IDX 15 27 20 28 21 29 22 30 29 32 30 33 31 34 32 35 33 36 34 37
REMARK SMILES IDX 35 38 57 43 58 44 59 45 60 46 61 47 62 49 66 50 67 51 68 52
REMARK SMILES IDX 69 53 70 54 71 55 2 56 1 57 3 58 4 59 5 60 6 62 7 63 63 65
REMARK SMILES IDX 64 66 65 67 40 69 41 70 42 71 44 72 43 73 45 74 46 75 47 76
REMARK SMILES IDX 55 77 56 78 48 79 49 80 50 81 54 82 51 83 53 84 52 85
REMARK H PARENT 38 5 27 10 18 17 10 22 22 31 34 39 34 40 35 41 35 42 61 48
REMARK H PARENT 5 61 65 68
REMARK Flexibility Score:  369.900
ROOT
ATOM      1  C   UNL     1      -6.339   1.072   9.305  1.00  0.00     0.117 C 
ENDROOT
BRANCH   1   2
ATOM      2  N   UNL     1      -7.034   0.390  10.397  1.00  0.00    -0.347 N 
ATOM      3  O   UNL     1      -5.355   0.508  11.959  1.00  0.00    -0.273 OA
ATOM      4  C   UNL     1      -6.518   0.243  11.670  1.00  0.00     0.243 C 
ATOM      5  H   UNL     1      -7.969   0.042  10.247  1.00  0.00     0.164 HD
BRANCH   4   6
ATOM      6  C   UNL     1      -7.492  -0.441  12.663  1.00  0.00     0.171 C 
BRANCH   6   7
ATOM      7  N   UNL     1      -6.755  -0.985  13.815  1.00  0.00    -0.344 N 
ATOM      8  C   UNL     1      -7.304  -1.981  14.593  1.00  0.00     0.226 C 
ATOM      9  O   UNL     1      -8.421  -2.440  14.387  1.00  0.00    -0.275 OA
ATOM     10  H   UNL     1      -5.858  -0.584  14.057  1.00  0.00     0.164 HD
BRANCH   8  11
ATOM     11  C   UNL     1      -6.399  -2.474  15.708  1.00  0.00     0.109 C 
ATOM     12  C   UNL     1      -7.139  -2.429  17.045  1.00  0.00     0.021 C 
BRANCH  11  13
ATOM     13  C   UNL     1      -5.815  -3.852  15.336  1.00  0.00     0.204 C 
BRANCH  13  14
ATOM     14  N   UNL     1      -6.327  -4.338  14.051  1.00  0.00    -0.340 N 
ATOM     15  C   UNL     1      -6.935  -5.566  13.904  1.00  0.00     0.243 C 
ATOM     16  O   UNL     1      -7.145  -6.317  14.855  1.00  0.00    -0.273 OA
ATOM     17  H   UNL     1      -6.051  -3.836  13.202  1.00  0.00     0.164 HD
BRANCH  15  18
ATOM     18  C   UNL     1      -7.203  -5.951  12.428  1.00  0.00     0.171 C 
BRANCH  18  19
ATOM     19  N   UNL     1      -8.601  -5.621  12.157  1.00  0.00    -0.343 N 
ATOM     20  C   UNL     1      -9.594  -6.581  12.182  1.00  0.00     0.242 CG0
ATOM     21  O   UNL     1      -9.332  -7.776  12.300  1.00  0.00    -0.273 OA
ATOM     22  H   UNL     1      -8.853  -4.664  11.939  1.00  0.00     0.164 HD
ATOM     23  G   UNL     1     -11.017  -6.031  11.950  1.00  0.00     0.000 G0
ENDBRANCH  18  19
BRANCH  18  24
ATOM     24  C   UNL     1      -6.255  -5.194  11.490  1.00  0.00     0.038 C 
BRANCH  24  25
ATOM     25  C   UNL     1      -6.946  -4.507  10.293  1.00  0.00    -0.015 C 
ATOM     26  C   UNL     1      -6.881  -5.348   9.018  1.00  0.00     0.007 C 
ATOM     27  C   UNL     1      -6.303  -3.141  10.042  1.00  0.00     0.007 C 
ENDBRANCH  24  25
ENDBRANCH  18  24
ENDBRANCH  15  18
ENDBRANCH  13  14
BRANCH  13  28
ATOM     28  C   UNL     1      -4.286  -3.855  15.246  1.00  0.00     0.327 C 
ATOM     29  O   UNL     1      -3.547  -4.780  15.548  1.00  0.00    -0.250 OA
BRANCH  28  30
ATOM     30  O   UNL     1      -3.774  -2.658  14.896  1.00  0.00    -0.480 OA
ATOM     31  H   UNL     1      -2.877  -2.656  15.288  1.00  0.00     0.296 HD
ENDBRANCH  28  30
ENDBRANCH  13  28
ENDBRANCH  11  13
ENDBRANCH   8  11
ENDBRANCH   6   7
BRANCH   6  32
ATOM     32  C   UNL     1      -8.543   0.578  13.118  1.00  0.00     0.037 C 
BRANCH  32  33
ATOM     33  C   UNL     1      -7.925   1.946  13.438  1.00  0.00     0.026 C 
BRANCH  33  34
ATOM     34  C   UNL     1      -8.375   3.034  12.462  1.00  0.00     0.146 C 
BRANCH  34  35
ATOM     35  N   UNL     1      -9.736   2.746  12.033  1.00  0.00    -0.254 NA
ATOM     36  C   UNL     1     -10.533   3.725  11.815  1.00  0.00     0.185 C 
ATOM     37  N   UNL     1     -11.788   3.471  11.414  1.00  0.00    -0.370 N 
ATOM     38  N   UNL     1     -10.299   5.045  11.929  1.00  0.00    -0.370 N 
ATOM     39  H   UNL     1     -12.038   2.498  11.294  1.00  0.00     0.159 HD
ATOM     40  H   UNL     1     -12.411   4.175  11.059  1.00  0.00     0.159 HD
ATOM     41  H   UNL     1     -11.049   5.714  11.864  1.00  0.00     0.159 HD
ATOM     42  H   UNL     1      -9.401   5.382  12.238  1.00  0.00     0.159 HD
ENDBRANCH  34  35
ENDBRANCH  33  34
ENDBRANCH  32  33
ENDBRANCH   6  32
ENDBRANCH   4   6
ENDBRANCH   1   2
BRANCH   1  43
ATOM     43  C   UNL     1      -7.169   2.321   8.893  1.00  0.00     0.102 C 
ATOM     44  C   UNL     1      -7.999   2.110   7.615  1.00  0.00     0.020 C 
BRANCH  43  45
ATOM     45  C   UNL     1      -6.295   3.578   8.865  1.00  0.00     0.225 C 
ATOM     46  O   UNL     1      -6.662   4.661   9.312  1.00  0.00    -0.275 OA
ATOM     47  N   UNL     1      -5.088   3.447   8.216  1.00  0.00    -0.342 N 
ATOM     48  H   UNL     1      -4.739   2.526   7.991  1.00  0.00     0.164 HD
BRANCH  47  49
ATOM     49  C   UNL     1      -4.133   4.556   8.142  1.00  0.00     0.192 C 
BRANCH  49  50
ATOM     50  C   UNL     1      -3.807   4.857   6.676  1.00  0.00     0.047 C 
BRANCH  50  51
ATOM     51  C   UNL     1      -2.918   6.098   6.521  1.00  0.00     0.103 C 
BRANCH  51  52
ATOM     52  C   UNL     1      -3.062   6.738   5.142  1.00  0.00     0.226 C 
ATOM     53  O   UNL     1      -4.041   6.467   4.443  1.00  0.00    -0.275 OA
BRANCH  52  54
ATOM     54  N   UNL     1      -2.080   7.679   4.781  1.00  0.00    -0.311 N 
ATOM     55  C   UNL     1      -0.716   7.592   5.321  1.00  0.00     0.153 C 
BRANCH  54  56
ATOM     56  C   UNL     1      -2.362   8.728   3.891  1.00  0.00     0.102 C 
ATOM     57  C   UNL     1      -3.175   9.764   4.156  1.00  0.00     0.043 C 
BRANCH  56  58
ATOM     58  C   UNL     1      -1.706   8.788   2.531  1.00  0.00     0.268 C 
ATOM     59  O   UNL     1      -1.297   7.798   1.941  1.00  0.00    -0.268 OA
ATOM     60  N   UNL     1      -1.678  10.056   2.001  1.00  0.00    -0.339 N 
ATOM     61  H   UNL     1      -2.028  10.826   2.559  1.00  0.00     0.164 HD
BRANCH  60  62
ATOM     62  C   UNL     1      -1.144  10.331   0.668  1.00  0.00     0.168 CG0
ATOM     63  C   UNL     1       0.376  10.220   0.654  1.00  0.00     0.041 C 
ATOM     64  G   UNL     1      -1.593  11.734   0.211  1.00  0.00     0.000 G0
ENDBRANCH  60  62
ENDBRANCH  56  58
ENDBRANCH  54  56
ENDBRANCH  52  54
ENDBRANCH  51  52
ENDBRANCH  50  51
ENDBRANCH  49  50
BRANCH  49  65
ATOM     65  C   UNL     1      -2.834   4.236   8.897  1.00  0.00     0.326 C 
ATOM     66  O   UNL     1      -2.257   4.989   9.668  1.00  0.00    -0.250 OA
BRANCH  65  67
ATOM     67  O   UNL     1      -2.295   3.031   8.608  1.00  0.00    -0.480 OA
ATOM     68  H   UNL     1      -2.926   2.645   7.963  1.00  0.00     0.296 HD
ENDBRANCH  65  67
ENDBRANCH  49  65
ENDBRANCH  47  49
ENDBRANCH  43  45
ENDBRANCH   1  43
BRANCH   1  69
ATOM     69  C   UNL     1      -6.045   0.010   8.262  1.00  0.00    -0.001 C 
ATOM     70  C   UNL     1      -5.038  -0.003   7.370  1.00  0.00     0.001 C 
BRANCH  70  71
ATOM     71  C   UNL     1      -4.752  -1.045   6.381  1.00  0.00    -0.055 C 
ATOM     72  C   UNL     1      -5.256  -2.277   6.604  1.00  0.00    -0.018 C 
ATOM     73  C   UNL     1      -3.922  -0.666   5.182  1.00  0.00     0.044 C 
BRANCH  72  74
ATOM     74  C   UNL     1      -5.126  -3.537   5.761  1.00  0.00     0.038 C 
ATOM     75  C   UNL     1      -6.548  -4.026   5.457  1.00  0.00     0.015 C 
BRANCH  74  76
ATOM     76  C   UNL     1      -4.233  -4.560   6.522  1.00  0.00     0.128 C 
BRANCH  76  77
ATOM     77  O   UNL     1      -3.437  -5.309   5.587  1.00  0.00    -0.381 OA
ATOM     78  C   UNL     1      -3.991  -5.360   4.279  1.00  0.00     0.195 C 
ENDBRANCH  76  77
BRANCH  76  79
ATOM     79  C   UNL     1      -3.389  -3.934   7.661  1.00  0.00     0.068 C 
BRANCH  79  80
ATOM     80  C   UNL     1      -3.175  -4.749   8.913  1.00  0.00    -0.045 A 
ATOM     81  C   UNL     1      -2.752  -4.145  10.104  1.00  0.00     0.004 A 
ATOM     82  C   UNL     1      -3.370  -6.139   8.894  1.00  0.00     0.004 A 
ATOM     83  C   UNL     1      -2.543  -4.908  11.255  1.00  0.00     0.000 A 
ATOM     84  C   UNL     1      -3.159  -6.901  10.045  1.00  0.00     0.000 A 
ATOM     85  C   UNL     1      -2.747  -6.286  11.225  1.00  0.00     0.000 A 
ENDBRANCH  79  80
ENDBRANCH  76  79
ENDBRANCH  74  76
ENDBRANCH  72  74
ENDBRANCH  70  71
ENDBRANCH   1  69
TORSDOF 17
ENDMDL
MODEL 15
REMARK VINA RESULT:    -7.781      3.569     13.048
REMARK INTER + INTRA:         -29.055
REMARK INTER:                 -22.218
REMARK INTRA:                  -6.837
REMARK UNBOUND:                -5.809
REMARK SMILES C=C1C(=O)N[C@H](C)C(=O)N[C@@H](CC(C)C)C(=O)N[C@@H](C(=O)O)[C@H](C)C(=O)N[C@@H](CCCN=C(N)N)C(=O)N[C@@H](/C=C/C(C)=C/[C@H](C)[C@H](Cc2ccccc2)OC)[C@H](C)C(=O)N[C@@H](C(=O)O)CCC(=O)N1C
REMARK SMILES IDX 39 1 38 2 37 3 36 4 28 6 27 7 25 8 26 9 23 11 24 12 19 13
REMARK SMILES IDX 18 14 16 15 17 16 11 18 10 19 8 20 9 21 12 24 13 25 14 26
REMARK SMILES IDX 15 27 20 28 21 29 22 30 29 32 30 33 31 34 32 35 33 36 34 37
REMARK SMILES IDX 35 38 57 43 58 44 59 45 60 46 61 47 62 49 66 50 67 51 68 52
REMARK SMILES IDX 69 53 70 54 71 55 2 56 1 57 3 58 4 59 5 60 6 62 7 63 63 65
REMARK SMILES IDX 64 66 65 67 40 69 41 70 42 71 44 72 43 73 45 74 46 75 47 76
REMARK SMILES IDX 55 77 56 78 48 79 49 80 50 81 54 82 51 83 53 84 52 85
REMARK H PARENT 38 5 27 10 18 17 10 22 22 31 34 39 34 40 35 41 35 42 61 48
REMARK H PARENT 5 61 65 68
REMARK Flexibility Score:  369.900
ROOT
ATOM      1  C   UNL     1      -7.632   0.029   9.449  1.00  0.00     0.117 C 
ENDROOT
BRANCH   1   2
ATOM      2  N   UNL     1      -8.873  -0.099  10.214  1.00  0.00    -0.347 N 
ATOM      3  O   UNL     1      -7.936  -0.276  12.302  1.00  0.00    -0.273 OA
ATOM      4  C   UNL     1      -8.929  -0.150  11.594  1.00  0.00     0.243 C 
ATOM      5  H   UNL     1      -9.756  -0.103   9.727  1.00  0.00     0.164 HD
BRANCH   4   6
ATOM      6  C   UNL     1     -10.372  -0.198  12.158  1.00  0.00     0.171 C 
BRANCH   6   7
ATOM      7  N   UNL     1     -11.022  -1.468  11.797  1.00  0.00    -0.344 N 
ATOM      8  C   UNL     1     -12.342  -1.698  12.121  1.00  0.00     0.226 C 
ATOM      9  O   UNL     1     -13.022  -0.885  12.735  1.00  0.00    -0.275 OA
ATOM     10  H   UNL     1     -10.473  -2.191  11.349  1.00  0.00     0.164 HD
BRANCH   8  11
ATOM     11  C   UNL     1     -12.883  -3.031  11.633  1.00  0.00     0.109 C 
ATOM     12  C   UNL     1     -12.051  -3.535  10.454  1.00  0.00     0.021 C 
BRANCH  11  13
ATOM     13  C   UNL     1     -12.994  -4.013  12.815  1.00  0.00     0.204 C 
BRANCH  13  14
ATOM     14  N   UNL     1     -11.796  -3.999  13.660  1.00  0.00    -0.340 N 
ATOM     15  C   UNL     1     -10.917  -5.059  13.730  1.00  0.00     0.243 C 
ATOM     16  O   UNL     1     -11.045  -6.069  13.041  1.00  0.00    -0.273 OA
ATOM     17  H   UNL     1     -11.713  -3.261  14.364  1.00  0.00     0.164 HD
BRANCH  15  18
ATOM     18  C   UNL     1      -9.847  -4.902  14.837  1.00  0.00     0.171 C 
BRANCH  18  19
ATOM     19  N   UNL     1     -10.257  -5.768  15.941  1.00  0.00    -0.343 N 
ATOM     20  C   UNL     1     -11.174  -5.355  16.889  1.00  0.00     0.242 CG0
ATOM     21  O   UNL     1     -11.586  -4.198  16.924  1.00  0.00    -0.273 OA
ATOM     22  H   UNL     1      -9.855  -6.695  16.022  1.00  0.00     0.164 HD
ATOM     23  G   UNL     1     -11.541  -6.432  17.930  1.00  0.00     0.000 G0
ENDBRANCH  18  19
BRANCH  18  24
ATOM     24  C   UNL     1      -8.460  -5.286  14.307  1.00  0.00     0.038 C 
BRANCH  24  25
ATOM     25  C   UNL     1      -7.614  -4.101  13.796  1.00  0.00    -0.015 C 
ATOM     26  C   UNL     1      -7.845  -2.825  14.606  1.00  0.00     0.007 C 
ATOM     27  C   UNL     1      -7.933  -3.840  12.321  1.00  0.00     0.007 C 
ENDBRANCH  24  25
ENDBRANCH  18  24
ENDBRANCH  15  18
ENDBRANCH  13  14
BRANCH  13  28
ATOM     28  C   UNL     1     -14.194  -3.729  13.725  1.00  0.00     0.327 C 
ATOM     29  O   UNL     1     -14.147  -3.369  14.891  1.00  0.00    -0.250 OA
BRANCH  28  30
ATOM     30  O   UNL     1     -15.376  -4.029  13.150  1.00  0.00    -0.480 OA
ATOM     31  H   UNL     1     -15.892  -3.198  13.211  1.00  0.00     0.296 HD
ENDBRANCH  28  30
ENDBRANCH  13  28
ENDBRANCH  11  13
ENDBRANCH   8  11
ENDBRANCH   6   7
BRANCH   6  32
ATOM     32  C   UNL     1     -10.323  -0.021  13.680  1.00  0.00     0.037 C 
BRANCH  32  33
ATOM     33  C   UNL     1     -10.308   1.458  14.091  1.00  0.00     0.026 C 
BRANCH  33  34
ATOM     34  C   UNL     1     -11.672   2.127  13.919  1.00  0.00     0.146 C 
BRANCH  34  35
ATOM     35  N   UNL     1     -11.580   3.115  12.854  1.00  0.00    -0.254 NA
ATOM     36  C   UNL     1     -12.265   2.935  11.786  1.00  0.00     0.185 C 
ATOM     37  N   UNL     1     -12.191   3.842  10.800  1.00  0.00    -0.370 N 
ATOM     38  N   UNL     1     -13.096   1.923  11.477  1.00  0.00    -0.370 N 
ATOM     39  H   UNL     1     -11.593   4.641  10.963  1.00  0.00     0.159 HD
ATOM     40  H   UNL     1     -12.821   3.864  10.017  1.00  0.00     0.159 HD
ATOM     41  H   UNL     1     -13.470   1.822  10.548  1.00  0.00     0.159 HD
ATOM     42  H   UNL     1     -13.236   1.160  12.120  1.00  0.00     0.159 HD
ENDBRANCH  34  35
ENDBRANCH  33  34
ENDBRANCH  32  33
ENDBRANCH   6  32
ENDBRANCH   4   6
ENDBRANCH   1   2
BRANCH   1  43
ATOM     43  C   UNL     1      -7.880   1.006   8.264  1.00  0.00     0.102 C 
ATOM     44  C   UNL     1      -6.713   1.065   7.265  1.00  0.00     0.020 C 
BRANCH  43  45
ATOM     45  C   UNL     1      -8.335   2.379   8.769  1.00  0.00     0.225 C 
ATOM     46  O   UNL     1      -9.194   3.051   8.204  1.00  0.00    -0.275 OA
ATOM     47  N   UNL     1      -7.650   2.866   9.859  1.00  0.00    -0.342 N 
ATOM     48  H   UNL     1      -7.062   2.246  10.398  1.00  0.00     0.164 HD
BRANCH  47  49
ATOM     49  C   UNL     1      -8.001   4.150  10.473  1.00  0.00     0.192 C 
BRANCH  49  50
ATOM     50  C   UNL     1      -6.892   5.170  10.201  1.00  0.00     0.047 C 
BRANCH  50  51
ATOM     51  C   UNL     1      -5.609   4.509   9.677  1.00  0.00     0.103 C 
BRANCH  51  52
ATOM     52  C   UNL     1      -4.874   5.398   8.676  1.00  0.00     0.226 C 
ATOM     53  O   UNL     1      -5.045   6.618   8.703  1.00  0.00    -0.275 OA
BRANCH  52  54
ATOM     54  N   UNL     1      -3.968   4.754   7.813  1.00  0.00    -0.311 N 
ATOM     55  C   UNL     1      -4.160   3.350   7.426  1.00  0.00     0.153 C 
BRANCH  54  56
ATOM     56  C   UNL     1      -2.853   5.427   7.287  1.00  0.00     0.102 C 
ATOM     57  C   UNL     1      -1.632   5.444   7.847  1.00  0.00     0.043 C 
BRANCH  56  58
ATOM     58  C   UNL     1      -2.944   6.172   5.977  1.00  0.00     0.268 C 
ATOM     59  O   UNL     1      -3.906   6.089   5.225  1.00  0.00    -0.268 OA
ATOM     60  N   UNL     1      -1.870   6.999   5.749  1.00  0.00    -0.339 N 
ATOM     61  H   UNL     1      -1.108   7.002   6.417  1.00  0.00     0.164 HD
BRANCH  60  62
ATOM     62  C   UNL     1      -1.785   7.859   4.570  1.00  0.00     0.168 CG0
ATOM     63  C   UNL     1      -0.922   7.221   3.489  1.00  0.00     0.041 C 
ATOM     64  G   UNL     1      -1.223   9.238   4.975  1.00  0.00     0.000 G0
ENDBRANCH  60  62
ENDBRANCH  56  58
ENDBRANCH  54  56
ENDBRANCH  52  54
ENDBRANCH  51  52
ENDBRANCH  50  51
ENDBRANCH  49  50
BRANCH  49  65
ATOM     65  C   UNL     1      -8.209   4.016  11.989  1.00  0.00     0.326 C 
ATOM     66  O   UNL     1      -7.649   3.206  12.714  1.00  0.00    -0.250 OA
BRANCH  65  67
ATOM     67  O   UNL     1      -9.138   4.849  12.507  1.00  0.00    -0.480 OA
ATOM     68  H   UNL     1      -9.939   4.664  11.971  1.00  0.00     0.296 HD
ENDBRANCH  65  67
ENDBRANCH  49  65
ENDBRANCH  47  49
ENDBRANCH  43  45
ENDBRANCH   1  43
BRANCH   1  69
ATOM     69  C   UNL     1      -7.172  -1.386   9.148  1.00  0.00    -0.001 C 
ATOM     70  C   UNL     1      -7.795  -2.304   8.389  1.00  0.00     0.001 C 
BRANCH  70  71
ATOM     71  C   UNL     1      -7.330  -3.660   8.088  1.00  0.00    -0.055 C 
ATOM     72  C   UNL     1      -6.331  -4.162   8.845  1.00  0.00    -0.018 C 
ATOM     73  C   UNL     1      -8.003  -4.400   6.963  1.00  0.00     0.044 C 
BRANCH  72  74
ATOM     74  C   UNL     1      -5.656  -5.524   8.766  1.00  0.00     0.038 C 
ATOM     75  C   UNL     1      -6.409  -6.459   9.721  1.00  0.00     0.015 C 
BRANCH  74  76
ATOM     76  C   UNL     1      -4.141  -5.351   9.083  1.00  0.00     0.128 C 
BRANCH  76  77
ATOM     77  O   UNL     1      -3.556  -6.626   9.397  1.00  0.00    -0.381 OA
ATOM     78  C   UNL     1      -2.822  -6.633  10.614  1.00  0.00     0.195 C 
ENDBRANCH  76  77
BRANCH  76  79
ATOM     79  C   UNL     1      -3.354  -4.582   7.991  1.00  0.00     0.068 C 
BRANCH  79  80
ATOM     80  C   UNL     1      -3.289  -5.186   6.609  1.00  0.00    -0.045 A 
ATOM     81  C   UNL     1      -4.292  -4.934   5.664  1.00  0.00     0.004 A 
ATOM     82  C   UNL     1      -2.230  -6.037   6.258  1.00  0.00     0.004 A 
ATOM     83  C   UNL     1      -4.232  -5.508   4.392  1.00  0.00     0.000 A 
ATOM     84  C   UNL     1      -2.172  -6.611   4.986  1.00  0.00     0.000 A 
ATOM     85  C   UNL     1      -3.171  -6.345   4.053  1.00  0.00     0.000 A 
ENDBRANCH  79  80
ENDBRANCH  76  79
ENDBRANCH  74  76
ENDBRANCH  72  74
ENDBRANCH  70  71
ENDBRANCH   1  69
TORSDOF 17
ENDMDL
MODEL 16
REMARK VINA RESULT:    -7.744      3.247     13.206
REMARK INTER + INTRA:         -28.945
REMARK INTER:                 -22.323
REMARK INTRA:                  -6.622
REMARK UNBOUND:                -5.809
REMARK SMILES C=C1C(=O)N[C@H](C)C(=O)N[C@@H](CC(C)C)C(=O)N[C@@H](C(=O)O)[C@H](C)C(=O)N[C@@H](CCCN=C(N)N)C(=O)N[C@@H](/C=C/C(C)=C/[C@H](C)[C@H](Cc2ccccc2)OC)[C@H](C)C(=O)N[C@@H](C(=O)O)CCC(=O)N1C
REMARK SMILES IDX 39 1 38 2 37 3 36 4 28 6 27 7 25 8 26 9 23 11 24 12 19 13
REMARK SMILES IDX 18 14 16 15 17 16 11 18 10 19 8 20 9 21 12 24 13 25 14 26
REMARK SMILES IDX 15 27 20 28 21 29 22 30 29 32 30 33 31 34 32 35 33 36 34 37
REMARK SMILES IDX 35 38 57 43 58 44 59 45 60 46 61 47 62 49 66 50 67 51 68 52
REMARK SMILES IDX 69 53 70 54 71 55 2 56 1 57 3 58 4 59 5 60 6 62 7 63 63 65
REMARK SMILES IDX 64 66 65 67 40 69 41 70 42 71 44 72 43 73 45 74 46 75 47 76
REMARK SMILES IDX 55 77 56 78 48 79 49 80 50 81 54 82 51 83 53 84 52 85
REMARK H PARENT 38 5 27 10 18 17 10 22 22 31 34 39 34 40 35 41 35 42 61 48
REMARK H PARENT 5 61 65 68
REMARK Flexibility Score:  369.900
ROOT
ATOM      1  C   UNL     1      -7.702   0.579  10.509  1.00  0.00     0.117 C 
ENDROOT
BRANCH   1   2
ATOM      2  N   UNL     1      -8.888  -0.173  10.921  1.00  0.00    -0.347 N 
ATOM      3  O   UNL     1      -9.867   1.464  12.198  1.00  0.00    -0.273 OA
ATOM      4  C   UNL     1      -9.924   0.363  11.661  1.00  0.00     0.243 C 
ATOM      5  H   UNL     1      -8.999  -1.128  10.615  1.00  0.00     0.164 HD
BRANCH   4   6
ATOM      6  C   UNL     1     -11.100  -0.620  11.888  1.00  0.00     0.171 C 
BRANCH   6   7
ATOM      7  N   UNL     1     -10.713  -1.985  11.498  1.00  0.00    -0.344 N 
ATOM      8  C   UNL     1     -11.571  -2.778  10.767  1.00  0.00     0.226 C 
ATOM      9  O   UNL     1     -12.688  -2.404  10.429  1.00  0.00    -0.275 OA
ATOM     10  H   UNL     1      -9.825  -2.353  11.817  1.00  0.00     0.164 HD
BRANCH   8  11
ATOM     11  C   UNL     1     -11.005  -4.137  10.397  1.00  0.00     0.109 C 
ATOM     12  C   UNL     1     -10.243  -4.047   9.074  1.00  0.00     0.021 C 
BRANCH  11  13
ATOM     13  C   UNL     1     -10.189  -4.702  11.577  1.00  0.00     0.204 C 
BRANCH  13  14
ATOM     14  N   UNL     1     -11.051  -5.231  12.639  1.00  0.00    -0.340 N 
ATOM     15  C   UNL     1     -11.085  -4.699  13.910  1.00  0.00     0.243 C 
ATOM     16  O   UNL     1     -10.439  -3.701  14.226  1.00  0.00    -0.273 OA
ATOM     17  H   UNL     1     -11.493  -6.142  12.490  1.00  0.00     0.164 HD
BRANCH  15  18
ATOM     18  C   UNL     1     -11.906  -5.546  14.913  1.00  0.00     0.171 C 
BRANCH  18  19
ATOM     19  N   UNL     1     -11.041  -6.645  15.338  1.00  0.00    -0.343 N 
ATOM     20  C   UNL     1     -11.037  -7.863  14.686  1.00  0.00     0.242 CG0
ATOM     21  O   UNL     1     -11.853  -8.123  13.804  1.00  0.00    -0.273 OA
ATOM     22  H   UNL     1     -10.431  -6.517  16.137  1.00  0.00     0.164 HD
ATOM     23  G   UNL     1     -10.003  -8.871  15.228  1.00  0.00     0.000 G0
ENDBRANCH  18  19
BRANCH  18  24
ATOM     24  C   UNL     1     -12.354  -4.690  16.105  1.00  0.00     0.038 C 
BRANCH  24  25
ATOM     25  C   UNL     1     -13.883  -4.573  16.275  1.00  0.00    -0.015 C 
ATOM     26  C   UNL     1     -14.422  -5.490  17.374  1.00  0.00     0.007 C 
ATOM     27  C   UNL     1     -14.575  -4.897  14.948  1.00  0.00     0.007 C 
ENDBRANCH  24  25
ENDBRANCH  18  24
ENDBRANCH  15  18
ENDBRANCH  13  14
BRANCH  13  28
ATOM     28  C   UNL     1      -9.232  -5.825  11.167  1.00  0.00     0.327 C 
ATOM     29  O   UNL     1      -9.457  -7.024  11.225  1.00  0.00    -0.250 OA
BRANCH  28  30
ATOM     30  O   UNL     1      -8.008  -5.376  10.822  1.00  0.00    -0.480 OA
ATOM     31  H   UNL     1      -7.523  -5.321  11.671  1.00  0.00     0.296 HD
ENDBRANCH  28  30
ENDBRANCH  13  28
ENDBRANCH  11  13
ENDBRANCH   8  11
ENDBRANCH   6   7
BRANCH   6  32
ATOM     32  C   UNL     1     -11.520  -0.571  13.362  1.00  0.00     0.037 C 
BRANCH  32  33
ATOM     33  C   UNL     1     -13.042  -0.667  13.534  1.00  0.00     0.026 C 
BRANCH  33  34
ATOM     34  C   UNL     1     -13.689   0.694  13.794  1.00  0.00     0.146 C 
BRANCH  34  35
ATOM     35  N   UNL     1     -14.211   1.213  12.537  1.00  0.00    -0.254 NA
ATOM     36  C   UNL     1     -13.583   2.169  11.960  1.00  0.00     0.185 C 
ATOM     37  N   UNL     1     -14.052   2.652  10.799  1.00  0.00    -0.370 N 
ATOM     38  N   UNL     1     -12.463   2.803  12.352  1.00  0.00    -0.370 N 
ATOM     39  H   UNL     1     -14.889   2.218  10.432  1.00  0.00     0.159 HD
ATOM     40  H   UNL     1     -13.530   3.272  10.203  1.00  0.00     0.159 HD
ATOM     41  H   UNL     1     -12.144   3.634  11.882  1.00  0.00     0.159 HD
ATOM     42  H   UNL     1     -12.009   2.554  13.216  1.00  0.00     0.159 HD
ENDBRANCH  34  35
ENDBRANCH  33  34
ENDBRANCH  32  33
ENDBRANCH   6  32
ENDBRANCH   4   6
ENDBRANCH   1   2
BRANCH   1  43
ATOM     43  C   UNL     1      -7.950   1.154   9.084  1.00  0.00     0.102 C 
ATOM     44  C   UNL     1      -6.755   0.972   8.134  1.00  0.00     0.020 C 
BRANCH  43  45
ATOM     45  C   UNL     1      -8.474   2.592   9.156  1.00  0.00     0.225 C 
ATOM     46  O   UNL     1      -9.174   3.094   8.282  1.00  0.00    -0.275 OA
ATOM     47  N   UNL     1      -8.031   3.331  10.228  1.00  0.00    -0.342 N 
ATOM     48  H   UNL     1      -7.587   2.866  11.008  1.00  0.00     0.164 HD
BRANCH  47  49
ATOM     49  C   UNL     1      -8.478   4.710  10.445  1.00  0.00     0.192 C 
BRANCH  49  50
ATOM     50  C   UNL     1      -7.357   5.680  10.065  1.00  0.00     0.047 C 
BRANCH  50  51
ATOM     51  C   UNL     1      -6.143   4.960   9.463  1.00  0.00     0.103 C 
BRANCH  51  52
ATOM     52  C   UNL     1      -5.035   5.934   9.067  1.00  0.00     0.226 C 
ATOM     53  O   UNL     1      -5.167   7.136   9.304  1.00  0.00    -0.275 OA
BRANCH  52  54
ATOM     54  N   UNL     1      -3.873   5.369   8.510  1.00  0.00    -0.311 N 
ATOM     55  C   UNL     1      -2.650   5.213   9.309  1.00  0.00     0.153 C 
BRANCH  54  56
ATOM     56  C   UNL     1      -3.840   4.930   7.176  1.00  0.00     0.102 C 
ATOM     57  C   UNL     1      -4.164   3.693   6.766  1.00  0.00     0.043 C 
BRANCH  56  58
ATOM     58  C   UNL     1      -3.463   5.873   6.058  1.00  0.00     0.268 C 
ATOM     59  O   UNL     1      -4.286   6.414   5.332  1.00  0.00    -0.268 OA
ATOM     60  N   UNL     1      -2.111   6.111   5.984  1.00  0.00    -0.339 N 
ATOM     61  H   UNL     1      -1.494   5.614   6.616  1.00  0.00     0.164 HD
BRANCH  60  62
ATOM     62  C   UNL     1      -1.535   7.042   5.015  1.00  0.00     0.168 CG0
ATOM     63  C   UNL     1      -0.040   7.219   5.248  1.00  0.00     0.041 C 
ATOM     64  G   UNL     1      -2.266   8.397   5.103  1.00  0.00     0.000 G0
ENDBRANCH  60  62
ENDBRANCH  56  58
ENDBRANCH  54  56
ENDBRANCH  52  54
ENDBRANCH  51  52
ENDBRANCH  50  51
ENDBRANCH  49  50
BRANCH  49  65
ATOM     65  C   UNL     1      -8.885   4.951  11.907  1.00  0.00     0.326 C 
ATOM     66  O   UNL     1      -8.174   5.444  12.771  1.00  0.00    -0.250 OA
BRANCH  65  67
ATOM     67  O   UNL     1     -10.123   4.513  12.228  1.00  0.00    -0.480 OA
ATOM     68  H   UNL     1     -10.013   3.540  12.297  1.00  0.00     0.296 HD
ENDBRANCH  65  67
ENDBRANCH  49  65
ENDBRANCH  47  49
ENDBRANCH  43  45
ENDBRANCH   1  43
BRANCH   1  69
ATOM     69  C   UNL     1      -6.517  -0.344  10.731  1.00  0.00    -0.001 C 
ATOM     70  C   UNL     1      -6.490  -1.682  10.608  1.00  0.00     0.001 C 
BRANCH  70  71
ATOM     71  C   UNL     1      -5.334  -2.560  10.804  1.00  0.00    -0.055 C 
ATOM     72  C   UNL     1      -4.387  -2.575   9.843  1.00  0.00    -0.018 C 
ATOM     73  C   UNL     1      -5.280  -3.379  12.068  1.00  0.00     0.044 C 
BRANCH  72  74
ATOM     74  C   UNL     1      -3.093  -3.374   9.778  1.00  0.00     0.038 C 
ATOM     75  C   UNL     1      -1.983  -2.404   9.357  1.00  0.00     0.015 C 
BRANCH  74  76
ATOM     76  C   UNL     1      -3.301  -4.585   8.821  1.00  0.00     0.128 C 
BRANCH  76  77
ATOM     77  O   UNL     1      -4.098  -5.591   9.468  1.00  0.00    -0.381 OA
ATOM     78  C   UNL     1      -3.333  -6.608  10.099  1.00  0.00     0.195 C 
ENDBRANCH  76  77
BRANCH  76  79
ATOM     79  C   UNL     1      -3.844  -4.196   7.423  1.00  0.00     0.068 C 
BRANCH  79  80
ATOM     80  C   UNL     1      -3.478  -5.076   6.252  1.00  0.00    -0.045 A 
ATOM     81  C   UNL     1      -2.304  -5.841   6.263  1.00  0.00     0.004 A 
ATOM     82  C   UNL     1      -4.301  -5.121   5.116  1.00  0.00     0.004 A 
ATOM     83  C   UNL     1      -1.966  -6.642   5.170  1.00  0.00     0.000 A 
ATOM     84  C   UNL     1      -3.961  -5.922   4.024  1.00  0.00     0.000 A 
ATOM     85  C   UNL     1      -2.795  -6.683   4.052  1.00  0.00     0.000 A 
ENDBRANCH  79  80
ENDBRANCH  76  79
ENDBRANCH  74  76
ENDBRANCH  72  74
ENDBRANCH  70  71
ENDBRANCH   1  69
TORSDOF 17
ENDMDL
MODEL 17
REMARK VINA RESULT:    -7.744      4.242      8.422
REMARK INTER + INTRA:         -28.944
REMARK INTER:                 -20.449
REMARK INTRA:                  -8.494
REMARK UNBOUND:                -5.809
REMARK SMILES C=C1C(=O)N[C@H](C)C(=O)N[C@@H](CC(C)C)C(=O)N[C@@H](C(=O)O)[C@H](C)C(=O)N[C@@H](CCCN=C(N)N)C(=O)N[C@@H](/C=C/C(C)=C/[C@H](C)[C@H](Cc2ccccc2)OC)[C@H](C)C(=O)N[C@@H](C(=O)O)CCC(=O)N1C
REMARK SMILES IDX 39 1 38 2 37 3 36 4 28 6 27 7 25 8 26 9 23 11 24 12 19 13
REMARK SMILES IDX 18 14 16 15 17 16 11 18 10 19 8 20 9 21 12 24 13 25 14 26
REMARK SMILES IDX 15 27 20 28 21 29 22 30 29 32 30 33 31 34 32 35 33 36 34 37
REMARK SMILES IDX 35 38 57 43 58 44 59 45 60 46 61 47 62 49 66 50 67 51 68 52
REMARK SMILES IDX 69 53 70 54 71 55 2 56 1 57 3 58 4 59 5 60 6 62 7 63 63 65
REMARK SMILES IDX 64 66 65 67 40 69 41 70 42 71 44 72 43 73 45 74 46 75 47 76
REMARK SMILES IDX 55 77 56 78 48 79 49 80 50 81 54 82 51 83 53 84 52 85
REMARK H PARENT 38 5 27 10 18 17 10 22 22 31 34 39 34 40 35 41 35 42 61 48
REMARK H PARENT 5 61 65 68
REMARK Flexibility Score:  369.900
ROOT
ATOM      1  C   UNL     1      -8.151   2.503  10.406  1.00  0.00     0.117 C 
ENDROOT
BRANCH   1   2
ATOM      2  N   UNL     1      -7.761   1.463   9.453  1.00  0.00    -0.347 N 
ATOM      3  O   UNL     1      -8.664  -0.333  10.562  1.00  0.00    -0.273 OA
ATOM      4  C   UNL     1      -8.130   0.136   9.562  1.00  0.00     0.243 C 
ATOM      5  H   UNL     1      -7.233   1.718   8.632  1.00  0.00     0.164 HD
BRANCH   4   6
ATOM      6  C   UNL     1      -7.659  -0.741   8.374  1.00  0.00     0.171 C 
BRANCH   6   7
ATOM      7  N   UNL     1      -6.190  -0.760   8.299  1.00  0.00    -0.344 N 
ATOM      8  C   UNL     1      -5.512   0.185   7.560  1.00  0.00     0.226 C 
ATOM      9  O   UNL     1      -6.085   1.060   6.922  1.00  0.00    -0.275 OA
ATOM     10  H   UNL     1      -5.684  -1.507   8.759  1.00  0.00     0.164 HD
BRANCH   8  11
ATOM     11  C   UNL     1      -3.999   0.064   7.627  1.00  0.00     0.109 C 
ATOM     12  C   UNL     1      -3.500   0.467   9.015  1.00  0.00     0.021 C 
BRANCH  11  13
ATOM     13  C   UNL     1      -3.568  -1.342   7.166  1.00  0.00     0.204 C 
BRANCH  13  14
ATOM     14  N   UNL     1      -3.678  -2.333   8.240  1.00  0.00    -0.340 N 
ATOM     15  C   UNL     1      -2.605  -3.071   8.691  1.00  0.00     0.243 C 
ATOM     16  O   UNL     1      -1.464  -2.906   8.264  1.00  0.00    -0.273 OA
ATOM     17  H   UNL     1      -4.616  -2.626   8.529  1.00  0.00     0.164 HD
BRANCH  15  18
ATOM     18  C   UNL     1      -3.000  -4.197   9.679  1.00  0.00     0.171 C 
BRANCH  18  19
ATOM     19  N   UNL     1      -3.150  -3.569  10.990  1.00  0.00    -0.343 N 
ATOM     20  C   UNL     1      -2.080  -3.418  11.852  1.00  0.00     0.242 CG0
ATOM     21  O   UNL     1      -0.985  -3.921  11.613  1.00  0.00    -0.273 OA
ATOM     22  H   UNL     1      -4.062  -3.239  11.283  1.00  0.00     0.164 HD
ATOM     23  G   UNL     1      -2.415  -2.663  13.155  1.00  0.00     0.000 G0
ENDBRANCH  18  19
BRANCH  18  24
ATOM     24  C   UNL     1      -4.298  -4.879   9.231  1.00  0.00     0.038 C 
BRANCH  24  25
ATOM     25  C   UNL     1      -4.373  -6.389   9.542  1.00  0.00    -0.015 C 
ATOM     26  C   UNL     1      -5.440  -6.720  10.586  1.00  0.00     0.007 C 
ATOM     27  C   UNL     1      -3.007  -6.883  10.027  1.00  0.00     0.007 C 
ENDBRANCH  24  25
ENDBRANCH  18  24
ENDBRANCH  15  18
ENDBRANCH  13  14
BRANCH  13  28
ATOM     28  C   UNL     1      -4.384  -1.865   5.979  1.00  0.00     0.327 C 
ATOM     29  O   UNL     1      -4.310  -1.476   4.824  1.00  0.00    -0.250 OA
BRANCH  28  30
ATOM     30  O   UNL     1      -5.325  -2.760   6.339  1.00  0.00    -0.480 OA
ATOM     31  H   UNL     1      -5.446  -3.317   5.542  1.00  0.00     0.296 HD
ENDBRANCH  28  30
ENDBRANCH  13  28
ENDBRANCH  11  13
ENDBRANCH   8  11
ENDBRANCH   6   7
BRANCH   6  32
ATOM     32  C   UNL     1      -8.217  -2.159   8.544  1.00  0.00     0.037 C 
BRANCH  32  33
ATOM     33  C   UNL     1      -7.301  -3.043   9.402  1.00  0.00     0.026 C 
BRANCH  33  34
ATOM     34  C   UNL     1      -8.080  -3.880  10.417  1.00  0.00     0.146 C 
BRANCH  34  35
ATOM     35  N   UNL     1      -9.369  -4.238   9.841  1.00  0.00    -0.254 NA
ATOM     36  C   UNL     1     -10.409  -4.191  10.587  1.00  0.00     0.185 C 
ATOM     37  N   UNL     1     -11.603  -4.514  10.065  1.00  0.00    -0.370 N 
ATOM     38  N   UNL     1     -10.504  -3.849  11.884  1.00  0.00    -0.370 N 
ATOM     39  H   UNL     1     -11.616  -4.773   9.087  1.00  0.00     0.159 HD
ATOM     40  H   UNL     1     -12.478  -4.337  10.527  1.00  0.00     0.159 HD
ATOM     41  H   UNL     1     -11.360  -3.986  12.397  1.00  0.00     0.159 HD
ATOM     42  H   UNL     1      -9.682  -3.598  12.410  1.00  0.00     0.159 HD
ENDBRANCH  34  35
ENDBRANCH  33  34
ENDBRANCH  32  33
ENDBRANCH   6  32
ENDBRANCH   4   6
ENDBRANCH   1   2
BRANCH   1  43
ATOM     43  C   UNL     1      -9.656   2.834  10.190  1.00  0.00     0.102 C 
ATOM     44  C   UNL     1      -9.896   4.239   9.614  1.00  0.00     0.020 C 
BRANCH  43  45
ATOM     45  C   UNL     1     -10.472   2.531  11.450  1.00  0.00     0.225 C 
ATOM     46  O   UNL     1     -11.623   2.925  11.615  1.00  0.00    -0.275 OA
ATOM     47  N   UNL     1      -9.799   1.859  12.445  1.00  0.00    -0.342 N 
ATOM     48  H   UNL     1      -8.915   1.414  12.239  1.00  0.00     0.164 HD
BRANCH  47  49
ATOM     49  C   UNL     1     -10.463   1.470  13.692  1.00  0.00     0.192 C 
BRANCH  49  50
ATOM     50  C   UNL     1      -9.456   1.505  14.845  1.00  0.00     0.047 C 
BRANCH  50  51
ATOM     51  C   UNL     1      -8.022   1.753  14.357  1.00  0.00     0.103 C 
BRANCH  51  52
ATOM     52  C   UNL     1      -7.044   0.713  14.900  1.00  0.00     0.226 C 
ATOM     53  O   UNL     1      -6.728   0.737  16.091  1.00  0.00    -0.275 OA
BRANCH  52  54
ATOM     54  N   UNL     1      -6.615  -0.277  13.997  1.00  0.00    -0.311 N 
ATOM     55  C   UNL     1      -7.512  -1.366  13.586  1.00  0.00     0.153 C 
BRANCH  54  56
ATOM     56  C   UNL     1      -5.321  -0.258  13.450  1.00  0.00     0.102 C 
ATOM     57  C   UNL     1      -4.894   0.607  12.516  1.00  0.00     0.043 C 
BRANCH  56  58
ATOM     58  C   UNL     1      -4.263  -1.224  13.930  1.00  0.00     0.268 C 
ATOM     59  O   UNL     1      -4.177  -1.599  15.091  1.00  0.00    -0.268 OA
ATOM     60  N   UNL     1      -3.454  -1.685  12.919  1.00  0.00    -0.339 N 
ATOM     61  H   UNL     1      -3.584  -1.316  11.985  1.00  0.00     0.164 HD
BRANCH  60  62
ATOM     62  C   UNL     1      -2.404  -2.675  13.152  1.00  0.00     0.168 CG0
ATOM     63  C   UNL     1      -1.150  -2.020  13.719  1.00  0.00     0.041 C 
ATOM     64  G   UNL     1      -2.087  -3.412  11.835  1.00  0.00     0.000 G0
ENDBRANCH  60  62
ENDBRANCH  56  58
ENDBRANCH  54  56
ENDBRANCH  52  54
ENDBRANCH  51  52
ENDBRANCH  50  51
ENDBRANCH  49  50
BRANCH  49  65
ATOM     65  C   UNL     1     -11.075   0.064  13.594  1.00  0.00     0.326 C 
ATOM     66  O   UNL     1     -10.884  -0.851  14.381  1.00  0.00    -0.250 OA
BRANCH  65  67
ATOM     67  O   UNL     1     -11.838  -0.143  12.498  1.00  0.00    -0.480 OA
ATOM     68  H   UNL     1     -11.362  -0.853  12.016  1.00  0.00     0.296 HD
ENDBRANCH  65  67
ENDBRANCH  49  65
ENDBRANCH  47  49
ENDBRANCH  43  45
ENDBRANCH   1  43
BRANCH   1  69
ATOM     69  C   UNL     1      -7.127   3.614  10.263  1.00  0.00    -0.001 C 
ATOM     70  C   UNL     1      -6.288   3.825   9.233  1.00  0.00     0.001 C 
BRANCH  70  71
ATOM     71  C   UNL     1      -5.319   4.914   9.097  1.00  0.00    -0.055 C 
ATOM     72  C   UNL     1      -4.063   4.593   8.724  1.00  0.00    -0.018 C 
ATOM     73  C   UNL     1      -5.795   6.316   9.374  1.00  0.00     0.044 C 
BRANCH  72  74
ATOM     74  C   UNL     1      -2.862   5.502   8.502  1.00  0.00     0.038 C 
ATOM     75  C   UNL     1      -2.639   5.596   6.988  1.00  0.00     0.015 C 
BRANCH  74  76
ATOM     76  C   UNL     1      -1.653   4.939   9.306  1.00  0.00     0.128 C 
BRANCH  76  77
ATOM     77  O   UNL     1      -0.677   5.975   9.514  1.00  0.00    -0.381 OA
ATOM     78  C   UNL     1       0.581   5.702   8.912  1.00  0.00     0.195 C 
ENDBRANCH  76  77
BRANCH  76  79
ATOM     79  C   UNL     1      -2.050   4.218  10.619  1.00  0.00     0.068 C 
BRANCH  79  80
ATOM     80  C   UNL     1      -1.275   2.983  11.009  1.00  0.00    -0.045 A 
ATOM     81  C   UNL     1      -1.350   2.465  12.309  1.00  0.00     0.004 A 
ATOM     82  C   UNL     1      -0.441   2.347  10.077  1.00  0.00     0.004 A 
ATOM     83  C   UNL     1      -0.619   1.330  12.666  1.00  0.00     0.000 A 
ATOM     84  C   UNL     1       0.291   1.213  10.436  1.00  0.00     0.000 A 
ATOM     85  C   UNL     1       0.200   0.704  11.729  1.00  0.00     0.000 A 
ENDBRANCH  79  80
ENDBRANCH  76  79
ENDBRANCH  74  76
ENDBRANCH  72  74
ENDBRANCH  70  71
ENDBRANCH   1  69
TORSDOF 17
ENDMDL
MODEL 18
REMARK VINA RESULT:    -7.692      2.877      5.637
REMARK INTER + INTRA:         -28.789
REMARK INTER:                 -21.946
REMARK INTRA:                  -6.843
REMARK UNBOUND:                -5.809
REMARK SMILES C=C1C(=O)N[C@H](C)C(=O)N[C@@H](CC(C)C)C(=O)N[C@@H](C(=O)O)[C@H](C)C(=O)N[C@@H](CCCN=C(N)N)C(=O)N[C@@H](/C=C/C(C)=C/[C@H](C)[C@H](Cc2ccccc2)OC)[C@H](C)C(=O)N[C@@H](C(=O)O)CCC(=O)N1C
REMARK SMILES IDX 39 1 38 2 37 3 36 4 28 6 27 7 25 8 26 9 23 11 24 12 19 13
REMARK SMILES IDX 18 14 16 15 17 16 11 18 10 19 8 20 9 21 12 24 13 25 14 26
REMARK SMILES IDX 15 27 20 28 21 29 22 30 29 32 30 33 31 34 32 35 33 36 34 37
REMARK SMILES IDX 35 38 57 43 58 44 59 45 60 46 61 47 62 49 66 50 67 51 68 52
REMARK SMILES IDX 69 53 70 54 71 55 2 56 1 57 3 58 4 59 5 60 6 62 7 63 63 65
REMARK SMILES IDX 64 66 65 67 40 69 41 70 42 71 44 72 43 73 45 74 46 75 47 76
REMARK SMILES IDX 55 77 56 78 48 79 49 80 50 81 54 82 51 83 53 84 52 85
REMARK H PARENT 38 5 27 10 18 17 10 22 22 31 34 39 34 40 35 41 35 42 61 48
REMARK H PARENT 5 61 65 68
REMARK Flexibility Score:  369.900
ROOT
ATOM      1  C   UNL     1      -7.701  -5.293   9.113  1.00  0.00     0.117 C 
ENDROOT
BRANCH   1   2
ATOM      2  N   UNL     1      -6.602  -4.991   8.197  1.00  0.00    -0.347 N 
ATOM      3  O   UNL     1      -4.893  -5.855   9.462  1.00  0.00    -0.273 OA
ATOM      4  C   UNL     1      -5.292  -5.380   8.405  1.00  0.00     0.243 C 
ATOM      5  H   UNL     1      -6.798  -4.514   7.330  1.00  0.00     0.164 HD
BRANCH   4   6
ATOM      6  C   UNL     1      -4.340  -5.009   7.240  1.00  0.00     0.171 C 
BRANCH   6   7
ATOM      7  N   UNL     1      -3.901  -3.609   7.359  1.00  0.00    -0.344 N 
ATOM      8  C   UNL     1      -4.387  -2.645   6.503  1.00  0.00     0.226 C 
ATOM      9  O   UNL     1      -5.176  -2.900   5.601  1.00  0.00    -0.275 OA
ATOM     10  H   UNL     1      -3.199  -3.372   8.049  1.00  0.00     0.164 HD
BRANCH   8  11
ATOM     11  C   UNL     1      -3.882  -1.242   6.789  1.00  0.00     0.109 C 
ATOM     12  C   UNL     1      -4.013  -0.370   5.541  1.00  0.00     0.021 C 
BRANCH  11  13
ATOM     13  C   UNL     1      -4.578  -0.683   8.046  1.00  0.00     0.204 C 
BRANCH  13  14
ATOM     14  N   UNL     1      -4.262   0.731   8.270  1.00  0.00    -0.340 N 
ATOM     15  C   UNL     1      -4.293   1.317   9.516  1.00  0.00     0.243 C 
ATOM     16  O   UNL     1      -4.530   0.679  10.540  1.00  0.00    -0.273 OA
ATOM     17  H   UNL     1      -4.207   1.346   7.453  1.00  0.00     0.164 HD
BRANCH  15  18
ATOM     18  C   UNL     1      -4.129   2.856   9.481  1.00  0.00     0.171 C 
BRANCH  18  19
ATOM     19  N   UNL     1      -2.870   3.127   8.790  1.00  0.00    -0.343 N 
ATOM     20  C   UNL     1      -1.871   3.887   9.367  1.00  0.00     0.242 CG0
ATOM     21  O   UNL     1      -2.046   4.480  10.429  1.00  0.00    -0.273 OA
ATOM     22  H   UNL     1      -2.724   2.755   7.859  1.00  0.00     0.164 HD
ATOM     23  G   UNL     1      -0.586   3.998   8.521  1.00  0.00     0.000 G0
ENDBRANCH  18  19
BRANCH  18  24
ATOM     24  C   UNL     1      -5.316   3.511   8.763  1.00  0.00     0.038 C 
BRANCH  24  25
ATOM     25  C   UNL     1      -6.457   3.974   9.694  1.00  0.00    -0.015 C 
ATOM     26  C   UNL     1      -7.809   3.374   9.306  1.00  0.00     0.007 C 
ATOM     27  C   UNL     1      -6.547   5.502   9.677  1.00  0.00     0.007 C 
ENDBRANCH  24  25
ENDBRANCH  18  24
ENDBRANCH  15  18
ENDBRANCH  13  14
BRANCH  13  28
ATOM     28  C   UNL     1      -6.104  -0.805   7.995  1.00  0.00     0.327 C 
ATOM     29  O   UNL     1      -6.893   0.096   7.751  1.00  0.00    -0.250 OA
BRANCH  28  30
ATOM     30  O   UNL     1      -6.551  -2.021   8.370  1.00  0.00    -0.480 OA
ATOM     31  H   UNL     1      -6.285  -2.612   7.635  1.00  0.00     0.296 HD
ENDBRANCH  28  30
ENDBRANCH  13  28
ENDBRANCH  11  13
ENDBRANCH   8  11
ENDBRANCH   6   7
BRANCH   6  32
ATOM     32  C   UNL     1      -3.139  -5.961   7.249  1.00  0.00     0.037 C 
BRANCH  32  33
ATOM     33  C   UNL     1      -2.221  -5.748   6.038  1.00  0.00     0.026 C 
BRANCH  33  34
ATOM     34  C   UNL     1      -2.836  -6.268   4.738  1.00  0.00     0.146 C 
BRANCH  34  35
ATOM     35  N   UNL     1      -3.547  -5.177   4.085  1.00  0.00    -0.254 NA
ATOM     36  C   UNL     1      -4.383  -5.457   3.156  1.00  0.00     0.185 C 
ATOM     37  N   UNL     1      -5.047  -4.460   2.552  1.00  0.00    -0.370 N 
ATOM     38  N   UNL     1      -4.724  -6.660   2.661  1.00  0.00    -0.370 N 
ATOM     39  H   UNL     1      -4.853  -3.522   2.877  1.00  0.00     0.159 HD
ATOM     40  H   UNL     1      -5.836  -4.604   1.945  1.00  0.00     0.159 HD
ATOM     41  H   UNL     1      -5.292  -6.741   1.834  1.00  0.00     0.159 HD
ATOM     42  H   UNL     1      -4.291  -7.500   3.011  1.00  0.00     0.159 HD
ENDBRANCH  34  35
ENDBRANCH  33  34
ENDBRANCH  32  33
ENDBRANCH   6  32
ENDBRANCH   4   6
ENDBRANCH   1   2
BRANCH   1  43
ATOM     43  C   UNL     1      -9.011  -4.687   8.533  1.00  0.00     0.102 C 
ATOM     44  C   UNL     1      -8.876  -4.224   7.072  1.00  0.00     0.020 C 
BRANCH  43  45
ATOM     45  C   UNL     1      -9.588  -3.622   9.471  1.00  0.00     0.225 C 
ATOM     46  O   UNL     1      -9.268  -2.438   9.420  1.00  0.00    -0.275 OA
ATOM     47  N   UNL     1     -10.430  -4.091  10.453  1.00  0.00    -0.342 N 
ATOM     48  H   UNL     1     -10.799  -5.030  10.389  1.00  0.00     0.164 HD
BRANCH  47  49
ATOM     49  C   UNL     1     -11.084  -3.183  11.400  1.00  0.00     0.192 C 
BRANCH  49  50
ATOM     50  C   UNL     1     -10.686  -3.558  12.830  1.00  0.00     0.047 C 
BRANCH  50  51
ATOM     51  C   UNL     1     -10.676  -5.076  13.053  1.00  0.00     0.103 C 
BRANCH  51  52
ATOM     52  C   UNL     1     -11.606  -5.495  14.190  1.00  0.00     0.226 C 
ATOM     53  O   UNL     1     -12.732  -5.000  14.271  1.00  0.00    -0.275 OA
BRANCH  52  54
ATOM     54  N   UNL     1     -11.130  -6.502  15.050  1.00  0.00    -0.311 N 
ATOM     55  C   UNL     1     -10.640  -6.177  16.396  1.00  0.00     0.153 C 
BRANCH  54  56
ATOM     56  C   UNL     1     -11.111  -7.851  14.659  1.00  0.00     0.102 C 
ATOM     57  C   UNL     1     -10.001  -8.588  14.495  1.00  0.00     0.043 C 
BRANCH  56  58
ATOM     58  C   UNL     1     -12.398  -8.609  14.429  1.00  0.00     0.268 C 
ATOM     59  O   UNL     1     -12.610  -9.281  13.428  1.00  0.00    -0.268 OA
ATOM     60  N   UNL     1     -13.273  -8.521  15.485  1.00  0.00    -0.339 N 
ATOM     61  H   UNL     1     -13.027  -7.935  16.274  1.00  0.00     0.164 HD
BRANCH  60  62
ATOM     62  C   UNL     1     -14.551  -9.230  15.499  1.00  0.00     0.168 CG0
ATOM     63  C   UNL     1     -15.547  -8.545  16.427  1.00  0.00     0.041 C 
ATOM     64  G   UNL     1     -14.326 -10.695  15.926  1.00  0.00     0.000 G0
ENDBRANCH  60  62
ENDBRANCH  56  58
ENDBRANCH  54  56
ENDBRANCH  52  54
ENDBRANCH  51  52
ENDBRANCH  50  51
ENDBRANCH  49  50
BRANCH  49  65
ATOM     65  C   UNL     1     -12.614  -3.232  11.268  1.00  0.00     0.326 C 
ATOM     66  O   UNL     1     -13.231  -3.656  10.301  1.00  0.00    -0.250 OA
BRANCH  65  67
ATOM     67  O   UNL     1     -13.288  -2.701  12.312  1.00  0.00    -0.480 OA
ATOM     68  H   UNL     1     -13.377  -3.453  12.936  1.00  0.00     0.296 HD
ENDBRANCH  65  67
ENDBRANCH  49  65
ENDBRANCH  47  49
ENDBRANCH  43  45
ENDBRANCH   1  43
BRANCH   1  69
ATOM     69  C   UNL     1      -7.238  -4.855  10.491  1.00  0.00    -0.001 C 
ATOM     70  C   UNL     1      -7.334  -5.542  11.642  1.00  0.00     0.001 C 
BRANCH  70  71
ATOM     71  C   UNL     1      -6.863  -5.117  12.962  1.00  0.00    -0.055 C 
ATOM     72  C   UNL     1      -6.076  -4.022  13.025  1.00  0.00    -0.018 C 
ATOM     73  C   UNL     1      -7.296  -5.926  14.156  1.00  0.00     0.044 C 
BRANCH  72  74
ATOM     74  C   UNL     1      -5.450  -3.355  14.242  1.00  0.00     0.038 C 
ATOM     75  C   UNL     1      -5.888  -1.886  14.228  1.00  0.00     0.015 C 
BRANCH  74  76
ATOM     76  C   UNL     1      -3.910  -3.578  14.198  1.00  0.00     0.128 C 
BRANCH  76  77
ATOM     77  O   UNL     1      -3.546  -4.665  15.064  1.00  0.00    -0.381 OA
ATOM     78  C   UNL     1      -3.794  -4.407  16.440  1.00  0.00     0.195 C 
ENDBRANCH  76  77
BRANCH  76  79
ATOM     79  C   UNL     1      -3.337  -3.734  12.766  1.00  0.00     0.068 C 
BRANCH  79  80
ATOM     80  C   UNL     1      -2.204  -2.825  12.354  1.00  0.00    -0.045 A 
ATOM     81  C   UNL     1      -2.357  -1.432  12.363  1.00  0.00     0.004 A 
ATOM     82  C   UNL     1      -0.983  -3.366  11.927  1.00  0.00     0.004 A 
ATOM     83  C   UNL     1      -1.309  -0.598  11.967  1.00  0.00     0.000 A 
ATOM     84  C   UNL     1       0.064  -2.531  11.531  1.00  0.00     0.000 A 
ATOM     85  C   UNL     1      -0.099  -1.148  11.552  1.00  0.00     0.000 A 
ENDBRANCH  79  80
ENDBRANCH  76  79
ENDBRANCH  74  76
ENDBRANCH  72  74
ENDBRANCH  70  71
ENDBRANCH   1  69
TORSDOF 17
ENDMDL
MODEL 19
REMARK VINA RESULT:    -7.688      3.071     13.246
REMARK INTER + INTRA:         -28.779
REMARK INTER:                 -21.088
REMARK INTRA:                  -7.691
REMARK UNBOUND:                -5.809
REMARK SMILES C=C1C(=O)N[C@H](C)C(=O)N[C@@H](CC(C)C)C(=O)N[C@@H](C(=O)O)[C@H](C)C(=O)N[C@@H](CCCN=C(N)N)C(=O)N[C@@H](/C=C/C(C)=C/[C@H](C)[C@H](Cc2ccccc2)OC)[C@H](C)C(=O)N[C@@H](C(=O)O)CCC(=O)N1C
REMARK SMILES IDX 39 1 38 2 37 3 36 4 28 6 27 7 25 8 26 9 23 11 24 12 19 13
REMARK SMILES IDX 18 14 16 15 17 16 11 18 10 19 8 20 9 21 12 24 13 25 14 26
REMARK SMILES IDX 15 27 20 28 21 29 22 30 29 32 30 33 31 34 32 35 33 36 34 37
REMARK SMILES IDX 35 38 57 43 58 44 59 45 60 46 61 47 62 49 66 50 67 51 68 52
REMARK SMILES IDX 69 53 70 54 71 55 2 56 1 57 3 58 4 59 5 60 6 62 7 63 63 65
REMARK SMILES IDX 64 66 65 67 40 69 41 70 42 71 44 72 43 73 45 74 46 75 47 76
REMARK SMILES IDX 55 77 56 78 48 79 49 80 50 81 54 82 51 83 53 84 52 85
REMARK H PARENT 38 5 27 10 18 17 10 22 22 31 34 39 34 40 35 41 35 42 61 48
REMARK H PARENT 5 61 65 68
REMARK Flexibility Score:  369.900
ROOT
ATOM      1  C   UNL     1      -8.218  -0.037  10.796  1.00  0.00     0.117 C 
ENDROOT
BRANCH   1   2
ATOM      2  N   UNL     1      -9.167  -1.138  10.968  1.00  0.00    -0.347 N 
ATOM      3  O   UNL     1      -9.550  -0.873  13.215  1.00  0.00    -0.273 OA
ATOM      4  C   UNL     1      -9.829  -1.411  12.149  1.00  0.00     0.243 C 
ATOM      5  H   UNL     1      -9.404  -1.715  10.175  1.00  0.00     0.164 HD
BRANCH   4   6
ATOM      6  C   UNL     1     -10.844  -2.577  12.040  1.00  0.00     0.171 C 
BRANCH   6   7
ATOM      7  N   UNL     1     -10.140  -3.866  11.962  1.00  0.00    -0.344 N 
ATOM      8  C   UNL     1     -10.600  -4.870  11.137  1.00  0.00     0.226 C 
ATOM      9  O   UNL     1     -11.611  -4.752  10.455  1.00  0.00    -0.275 OA
ATOM     10  H   UNL     1      -9.339  -4.025  12.561  1.00  0.00     0.164 HD
BRANCH   8  11
ATOM     11  C   UNL     1      -9.734  -6.118  11.127  1.00  0.00     0.109 C 
ATOM     12  C   UNL     1      -8.410  -5.834  10.418  1.00  0.00     0.021 C 
BRANCH  11  13
ATOM     13  C   UNL     1      -9.596  -6.668  12.561  1.00  0.00     0.204 C 
BRANCH  13  14
ATOM     14  N   UNL     1     -10.254  -7.969  12.717  1.00  0.00    -0.340 N 
ATOM     15  C   UNL     1     -10.795  -8.395  13.911  1.00  0.00     0.243 C 
ATOM     16  O   UNL     1     -10.818  -7.687  14.916  1.00  0.00    -0.273 OA
ATOM     17  H   UNL     1     -10.135  -8.660  11.972  1.00  0.00     0.164 HD
BRANCH  15  18
ATOM     18  C   UNL     1     -11.246  -9.877  13.892  1.00  0.00     0.171 C 
BRANCH  18  19
ATOM     19  N   UNL     1     -10.191 -10.644  14.551  1.00  0.00    -0.343 N 
ATOM     20  C   UNL     1      -9.070 -11.076  13.870  1.00  0.00     0.242 CG0
ATOM     21  O   UNL     1      -8.969 -10.951  12.652  1.00  0.00    -0.273 OA
ATOM     22  H   UNL     1     -10.283 -10.873  15.535  1.00  0.00     0.164 HD
ATOM     23  G   UNL     1      -8.030 -11.801  14.750  1.00  0.00     0.000 G0
ENDBRANCH  18  19
BRANCH  18  24
ATOM     24  C   UNL     1     -12.592 -10.042  14.607  1.00  0.00     0.038 C 
BRANCH  24  25
ATOM     25  C   UNL     1     -12.638 -11.191  15.637  1.00  0.00    -0.015 C 
ATOM     26  C   UNL     1     -13.754 -12.195  15.344  1.00  0.00     0.007 C 
ATOM     27  C   UNL     1     -12.820 -10.615  17.043  1.00  0.00     0.007 C 
ENDBRANCH  24  25
ENDBRANCH  18  24
ENDBRANCH  15  18
ENDBRANCH  13  14
BRANCH  13  28
ATOM     28  C   UNL     1      -8.140  -6.839  13.005  1.00  0.00     0.327 C 
ATOM     29  O   UNL     1      -7.433  -5.980  13.509  1.00  0.00    -0.250 OA
BRANCH  28  30
ATOM     30  O   UNL     1      -7.626  -8.042  12.680  1.00  0.00    -0.480 OA
ATOM     31  H   UNL     1      -7.188  -7.892  11.816  1.00  0.00     0.296 HD
ENDBRANCH  28  30
ENDBRANCH  13  28
ENDBRANCH  11  13
ENDBRANCH   8  11
ENDBRANCH   6   7
BRANCH   6  32
ATOM     32  C   UNL     1     -11.786  -2.539  13.249  1.00  0.00     0.037 C 
BRANCH  32  33
ATOM     33  C   UNL     1     -12.999  -1.630  13.010  1.00  0.00     0.026 C 
BRANCH  33  34
ATOM     34  C   UNL     1     -12.930  -0.336  13.822  1.00  0.00     0.146 C 
BRANCH  34  35
ATOM     35  N   UNL     1     -13.295   0.780  12.961  1.00  0.00    -0.254 NA
ATOM     36  C   UNL     1     -12.422   1.689  12.729  1.00  0.00     0.185 C 
ATOM     37  N   UNL     1     -12.746   2.719  11.933  1.00  0.00    -0.370 N 
ATOM     38  N   UNL     1     -11.159   1.782  13.181  1.00  0.00    -0.370 N 
ATOM     39  H   UNL     1     -13.680   2.715  11.543  1.00  0.00     0.159 HD
ATOM     40  H   UNL     1     -12.075   3.371  11.566  1.00  0.00     0.159 HD
ATOM     41  H   UNL     1     -10.616   2.617  13.041  1.00  0.00     0.159 HD
ATOM     42  H   UNL     1     -10.785   1.083  13.804  1.00  0.00     0.159 HD
ENDBRANCH  34  35
ENDBRANCH  33  34
ENDBRANCH  32  33
ENDBRANCH   6  32
ENDBRANCH   4   6
ENDBRANCH   1   2
BRANCH   1  43
ATOM     43  C   UNL     1      -8.654   0.804   9.561  1.00  0.00     0.102 C 
ATOM     44  C   UNL     1      -7.602   0.835   8.440  1.00  0.00     0.020 C 
BRANCH  43  45
ATOM     45  C   UNL     1      -9.149   2.189   9.987  1.00  0.00     0.225 C 
ATOM     46  O   UNL     1     -10.331   2.443  10.201  1.00  0.00    -0.275 OA
ATOM     47  N   UNL     1      -8.189   3.175  10.026  1.00  0.00    -0.342 N 
ATOM     48  H   UNL     1      -7.212   2.923   9.998  1.00  0.00     0.164 HD
BRANCH  47  49
ATOM     49  C   UNL     1      -8.511   4.541  10.451  1.00  0.00     0.192 C 
BRANCH  49  50
ATOM     50  C   UNL     1      -7.316   5.459  10.180  1.00  0.00     0.047 C 
BRANCH  50  51
ATOM     51  C   UNL     1      -6.164   4.723   9.483  1.00  0.00     0.103 C 
BRANCH  51  52
ATOM     52  C   UNL     1      -5.004   5.660   9.150  1.00  0.00     0.226 C 
ATOM     53  O   UNL     1      -5.136   6.875   9.308  1.00  0.00    -0.275 OA
BRANCH  52  54
ATOM     54  N   UNL     1      -3.802   5.049   8.746  1.00  0.00    -0.311 N 
ATOM     55  C   UNL     1      -2.936   4.368   9.717  1.00  0.00     0.153 C 
BRANCH  54  56
ATOM     56  C   UNL     1      -3.389   5.064   7.403  1.00  0.00     0.102 C 
ATOM     57  C   UNL     1      -3.927   4.316   6.426  1.00  0.00     0.043 C 
BRANCH  56  58
ATOM     58  C   UNL     1      -2.294   5.995   6.939  1.00  0.00     0.268 C 
ATOM     59  O   UNL     1      -1.212   6.091   7.503  1.00  0.00    -0.268 OA
ATOM     60  N   UNL     1      -2.612   6.671   5.785  1.00  0.00    -0.339 N 
ATOM     61  H   UNL     1      -3.534   6.544   5.385  1.00  0.00     0.164 HD
BRANCH  60  62
ATOM     62  C   UNL     1      -1.671   7.577   5.129  1.00  0.00     0.168 CG0
ATOM     63  C   UNL     1      -0.911   6.865   4.017  1.00  0.00     0.041 C 
ATOM     64  G   UNL     1      -0.695   8.155   6.174  1.00  0.00     0.000 G0
ENDBRANCH  60  62
ENDBRANCH  56  58
ENDBRANCH  54  56
ENDBRANCH  52  54
ENDBRANCH  51  52
ENDBRANCH  50  51
ENDBRANCH  49  50
BRANCH  49  65
ATOM     65  C   UNL     1      -8.871   4.600  11.944  1.00  0.00     0.326 C 
ATOM     66  O   UNL     1      -8.072   4.579  12.869  1.00  0.00    -0.250 OA
BRANCH  65  67
ATOM     67  O   UNL     1     -10.197   4.622  12.204  1.00  0.00    -0.480 OA
ATOM     68  H   UNL     1     -10.345   3.797  12.715  1.00  0.00     0.296 HD
ENDBRANCH  65  67
ENDBRANCH  49  65
ENDBRANCH  47  49
ENDBRANCH  43  45
ENDBRANCH   1  43
BRANCH   1  69
ATOM     69  C   UNL     1      -6.836  -0.664  10.805  1.00  0.00    -0.001 C 
ATOM     70  C   UNL     1      -6.493  -1.894  10.381  1.00  0.00     0.001 C 
BRANCH  70  71
ATOM     71  C   UNL     1      -5.151  -2.480  10.375  1.00  0.00    -0.055 C 
ATOM     72  C   UNL     1      -4.187  -1.848  11.077  1.00  0.00    -0.018 C 
ATOM     73  C   UNL     1      -4.944  -3.751   9.593  1.00  0.00     0.044 C 
BRANCH  72  74
ATOM     74  C   UNL     1      -2.722  -2.222  11.253  1.00  0.00     0.038 C 
ATOM     75  C   UNL     1      -2.612  -3.018  12.559  1.00  0.00     0.015 C 
BRANCH  74  76
ATOM     76  C   UNL     1      -1.865  -0.922  11.206  1.00  0.00     0.128 C 
BRANCH  76  77
ATOM     77  O   UNL     1      -0.789  -1.010  12.155  1.00  0.00    -0.381 OA
ATOM     78  C   UNL     1      -0.602   0.175  12.918  1.00  0.00     0.195 C 
ENDBRANCH  76  77
BRANCH  76  79
ATOM     79  C   UNL     1      -1.381  -0.539   9.785  1.00  0.00     0.068 C 
BRANCH  79  80
ATOM     80  C   UNL     1      -2.423  -0.369   8.705  1.00  0.00    -0.045 A 
ATOM     81  C   UNL     1      -3.167   0.814   8.601  1.00  0.00     0.004 A 
ATOM     82  C   UNL     1      -2.682  -1.411   7.802  1.00  0.00     0.004 A 
ATOM     83  C   UNL     1      -4.139   0.958   7.608  1.00  0.00     0.000 A 
ATOM     84  C   UNL     1      -3.655  -1.266   6.811  1.00  0.00     0.000 A 
ATOM     85  C   UNL     1      -4.381  -0.082   6.713  1.00  0.00     0.000 A 
ENDBRANCH  79  80
ENDBRANCH  76  79
ENDBRANCH  74  76
ENDBRANCH  72  74
ENDBRANCH  70  71
ENDBRANCH   1  69
TORSDOF 17
ENDMDL
MODEL 20
REMARK VINA RESULT:    -7.688      3.123     12.792
REMARK INTER + INTRA:         -28.776
REMARK INTER:                 -20.468
REMARK INTRA:                  -8.308
REMARK UNBOUND:                -5.809
REMARK SMILES C=C1C(=O)N[C@H](C)C(=O)N[C@@H](CC(C)C)C(=O)N[C@@H](C(=O)O)[C@H](C)C(=O)N[C@@H](CCCN=C(N)N)C(=O)N[C@@H](/C=C/C(C)=C/[C@H](C)[C@H](Cc2ccccc2)OC)[C@H](C)C(=O)N[C@@H](C(=O)O)CCC(=O)N1C
REMARK SMILES IDX 39 1 38 2 37 3 36 4 28 6 27 7 25 8 26 9 23 11 24 12 19 13
REMARK SMILES IDX 18 14 16 15 17 16 11 18 10 19 8 20 9 21 12 24 13 25 14 26
REMARK SMILES IDX 15 27 20 28 21 29 22 30 29 32 30 33 31 34 32 35 33 36 34 37
REMARK SMILES IDX 35 38 57 43 58 44 59 45 60 46 61 47 62 49 66 50 67 51 68 52
REMARK SMILES IDX 69 53 70 54 71 55 2 56 1 57 3 58 4 59 5 60 6 62 7 63 63 65
REMARK SMILES IDX 64 66 65 67 40 69 41 70 42 71 44 72 43 73 45 74 46 75 47 76
REMARK SMILES IDX 55 77 56 78 48 79 49 80 50 81 54 82 51 83 53 84 52 85
REMARK H PARENT 38 5 27 10 18 17 10 22 22 31 34 39 34 40 35 41 35 42 61 48
REMARK H PARENT 5 61 65 68
REMARK Flexibility Score:  369.900
ROOT
ATOM      1  C   UNL     1      -7.932   0.197  10.350  1.00  0.00     0.117 C 
ENDROOT
BRANCH   1   2
ATOM      2  N   UNL     1      -8.931  -0.718  10.905  1.00  0.00    -0.347 N 
ATOM      3  O   UNL     1     -10.485   0.854  11.523  1.00  0.00    -0.273 OA
ATOM      4  C   UNL     1     -10.172  -0.321  11.365  1.00  0.00     0.243 C 
ATOM      5  H   UNL     1      -8.742  -1.709  10.915  1.00  0.00     0.164 HD
BRANCH   4   6
ATOM      6  C   UNL     1     -11.073  -1.497  11.820  1.00  0.00     0.171 C 
BRANCH   6   7
ATOM      7  N   UNL     1     -10.375  -2.779  11.639  1.00  0.00    -0.344 N 
ATOM      8  C   UNL     1     -11.059  -3.899  11.217  1.00  0.00     0.226 C 
ATOM      9  O   UNL     1     -12.264  -3.891  10.996  1.00  0.00    -0.275 OA
ATOM     10  H   UNL     1      -9.393  -2.841  11.877  1.00  0.00     0.164 HD
BRANCH   8  11
ATOM     11  C   UNL     1     -10.189  -5.129  11.027  1.00  0.00     0.109 C 
ATOM     12  C   UNL     1      -8.931  -4.767  10.239  1.00  0.00     0.021 C 
BRANCH  11  13
ATOM     13  C   UNL     1      -9.929  -5.799  12.391  1.00  0.00     0.204 C 
BRANCH  13  14
ATOM     14  N   UNL     1     -11.128  -5.817  13.235  1.00  0.00    -0.340 N 
ATOM     15  C   UNL     1     -11.112  -5.456  14.564  1.00  0.00     0.243 C 
ATOM     16  O   UNL     1     -10.101  -5.034  15.122  1.00  0.00    -0.273 OA
ATOM     17  H   UNL     1     -11.959  -6.296  12.879  1.00  0.00     0.164 HD
BRANCH  15  18
ATOM     18  C   UNL     1     -12.442  -5.751  15.301  1.00  0.00     0.171 C 
BRANCH  18  19
ATOM     19  N   UNL     1     -12.255  -7.015  16.011  1.00  0.00    -0.343 N 
ATOM     20  C   UNL     1     -12.288  -8.231  15.356  1.00  0.00     0.242 CG0
ATOM     21  O   UNL     1     -12.608  -8.315  14.172  1.00  0.00    -0.273 OA
ATOM     22  H   UNL     1     -12.102  -7.005  17.013  1.00  0.00     0.164 HD
ATOM     23  G   UNL     1     -11.992  -9.448  16.256  1.00  0.00     0.000 G0
ENDBRANCH  18  19
BRANCH  18  24
ATOM     24  C   UNL     1     -12.791  -4.611  16.266  1.00  0.00     0.038 C 
BRANCH  24  25
ATOM     25  C   UNL     1     -14.011  -3.764  15.847  1.00  0.00    -0.015 C 
ATOM     26  C   UNL     1     -14.421  -4.006  14.394  1.00  0.00     0.007 C 
ATOM     27  C   UNL     1     -13.702  -2.279  16.054  1.00  0.00     0.007 C 
ENDBRANCH  24  25
ENDBRANCH  18  24
ENDBRANCH  15  18
ENDBRANCH  13  14
BRANCH  13  28
ATOM     28  C   UNL     1      -9.439  -7.246  12.269  1.00  0.00     0.327 C 
ATOM     29  O   UNL     1      -8.277  -7.621  12.307  1.00  0.00    -0.250 OA
BRANCH  28  30
ATOM     30  O   UNL     1     -10.429  -8.117  11.988  1.00  0.00    -0.480 OA
ATOM     31  H   UNL     1     -10.900  -7.711  11.231  1.00  0.00     0.296 HD
ENDBRANCH  28  30
ENDBRANCH  13  28
ENDBRANCH  11  13
ENDBRANCH   8  11
ENDBRANCH   6   7
BRANCH   6  32
ATOM     32  C   UNL     1     -11.468  -1.290  13.286  1.00  0.00     0.037 C 
BRANCH  32  33
ATOM     33  C   UNL     1     -10.284  -1.499  14.240  1.00  0.00     0.026 C 
BRANCH  33  34
ATOM     34  C   UNL     1     -10.174  -0.390  15.287  1.00  0.00     0.146 C 
BRANCH  34  35
ATOM     35  N   UNL     1     -11.082   0.690  14.926  1.00  0.00    -0.254 NA
ATOM     36  C   UNL     1     -10.589   1.776  14.457  1.00  0.00     0.185 C 
ATOM     37  N   UNL     1     -11.417   2.775  14.115  1.00  0.00    -0.370 N 
ATOM     38  N   UNL     1      -9.301   2.093  14.238  1.00  0.00    -0.370 N 
ATOM     39  H   UNL     1     -12.407   2.608  14.242  1.00  0.00     0.159 HD
ATOM     40  H   UNL     1     -11.128   3.580  13.585  1.00  0.00     0.159 HD
ATOM     41  H   UNL     1      -9.030   3.032  13.996  1.00  0.00     0.159 HD
ATOM     42  H   UNL     1      -8.566   1.441  14.464  1.00  0.00     0.159 HD
ENDBRANCH  34  35
ENDBRANCH  33  34
ENDBRANCH  32  33
ENDBRANCH   6  32
ENDBRANCH   4   6
ENDBRANCH   1   2
BRANCH   1  43
ATOM     43  C   UNL     1      -8.411   0.660   8.944  1.00  0.00     0.102 C 
ATOM     44  C   UNL     1      -7.489   0.201   7.802  1.00  0.00     0.020 C 
BRANCH  43  45
ATOM     45  C   UNL     1      -8.713   2.162   8.934  1.00  0.00     0.225 C 
ATOM     46  O   UNL     1      -8.798   2.822   7.902  1.00  0.00    -0.275 OA
ATOM     47  N   UNL     1      -8.793   2.759  10.171  1.00  0.00    -0.342 N 
ATOM     48  H   UNL     1      -8.873   2.185  10.999  1.00  0.00     0.164 HD
BRANCH  47  49
ATOM     49  C   UNL     1      -9.112   4.182  10.316  1.00  0.00     0.192 C 
BRANCH  49  50
ATOM     50  C   UNL     1      -7.826   4.975  10.565  1.00  0.00     0.047 C 
BRANCH  50  51
ATOM     51  C   UNL     1      -6.567   4.127  10.340  1.00  0.00     0.103 C 
BRANCH  51  52
ATOM     52  C   UNL     1      -5.516   4.867   9.515  1.00  0.00     0.226 C 
ATOM     53  O   UNL     1      -5.652   6.072   9.295  1.00  0.00    -0.275 OA
BRANCH  52  54
ATOM     54  N   UNL     1      -4.394   4.120   9.113  1.00  0.00    -0.311 N 
ATOM     55  C   UNL     1      -3.543   3.443  10.101  1.00  0.00     0.153 C 
BRANCH  54  56
ATOM     56  C   UNL     1      -4.049   3.988   7.758  1.00  0.00     0.102 C 
ATOM     57  C   UNL     1      -4.411   2.964   6.969  1.00  0.00     0.043 C 
BRANCH  56  58
ATOM     58  C   UNL     1      -3.250   5.060   7.054  1.00  0.00     0.268 C 
ATOM     59  O   UNL     1      -2.169   5.465   7.460  1.00  0.00    -0.268 OA
ATOM     60  N   UNL     1      -3.829   5.484   5.882  1.00  0.00    -0.339 N 
ATOM     61  H   UNL     1      -4.732   5.106   5.621  1.00  0.00     0.164 HD
BRANCH  60  62
ATOM     62  C   UNL     1      -3.193   6.471   5.011  1.00  0.00     0.168 CG0
ATOM     63  C   UNL     1      -3.830   7.844   5.183  1.00  0.00     0.041 C 
ATOM     64  G   UNL     1      -3.289   6.004   3.544  1.00  0.00     0.000 G0
ENDBRANCH  60  62
ENDBRANCH  56  58
ENDBRANCH  54  56
ENDBRANCH  52  54
ENDBRANCH  51  52
ENDBRANCH  50  51
ENDBRANCH  49  50
BRANCH  49  65
ATOM     65  C   UNL     1     -10.094   4.429  11.471  1.00  0.00     0.326 C 
ATOM     66  O   UNL     1      -9.788   4.779  12.602  1.00  0.00    -0.250 OA
BRANCH  65  67
ATOM     67  O   UNL     1     -11.387   4.169  11.177  1.00  0.00    -0.480 OA
ATOM     68  H   UNL     1     -11.387   4.069  10.201  1.00  0.00     0.296 HD
ENDBRANCH  65  67
ENDBRANCH  49  65
ENDBRANCH  47  49
ENDBRANCH  43  45
ENDBRANCH   1  43
BRANCH   1  69
ATOM     69  C   UNL     1      -6.595  -0.511  10.473  1.00  0.00    -0.001 C 
ATOM     70  C   UNL     1      -5.387   0.050  10.661  1.00  0.00     0.001 C 
BRANCH  70  71
ATOM     71  C   UNL     1      -4.106  -0.645  10.799  1.00  0.00    -0.055 C 
ATOM     72  C   UNL     1      -3.661  -1.358   9.743  1.00  0.00    -0.018 C 
ATOM     73  C   UNL     1      -3.371  -0.508  12.107  1.00  0.00     0.044 C 
BRANCH  72  74
ATOM     74  C   UNL     1      -2.382  -2.169   9.599  1.00  0.00     0.038 C 
ATOM     75  C   UNL     1      -1.701  -1.713   8.302  1.00  0.00     0.015 C 
BRANCH  74  76
ATOM     76  C   UNL     1      -2.740  -3.684   9.650  1.00  0.00     0.128 C 
BRANCH  76  77
ATOM     77  O   UNL     1      -2.494  -4.201  10.969  1.00  0.00    -0.381 OA
ATOM     78  C   UNL     1      -1.285  -3.733  11.550  1.00  0.00     0.195 C 
ENDBRANCH  76  77
BRANCH  76  79
ATOM     79  C   UNL     1      -4.164  -4.011   9.133  1.00  0.00     0.068 C 
BRANCH  79  80
ATOM     80  C   UNL     1      -4.357  -4.164   7.644  1.00  0.00    -0.045 A 
ATOM     81  C   UNL     1      -3.738  -5.204   6.938  1.00  0.00     0.004 A 
ATOM     82  C   UNL     1      -5.143  -3.243   6.935  1.00  0.00     0.004 A 
ATOM     83  C   UNL     1      -3.910  -5.330   5.558  1.00  0.00     0.000 A 
ATOM     84  C   UNL     1      -5.315  -3.370   5.555  1.00  0.00     0.000 A 
ATOM     85  C   UNL     1      -4.700  -4.414   4.867  1.00  0.00     0.000 A 
ENDBRANCH  79  80
ENDBRANCH  76  79
ENDBRANCH  74  76
ENDBRANCH  72  74
ENDBRANCH  70  71
ENDBRANCH   1  69
TORSDOF 17
ENDMDL
MODEL 21
REMARK VINA RESULT:    -7.672      3.236     12.884
REMARK INTER + INTRA:         -28.731
REMARK INTER:                 -21.752
REMARK INTRA:                  -6.979
REMARK UNBOUND:                -5.809
REMARK SMILES C=C1C(=O)N[C@H](C)C(=O)N[C@@H](CC(C)C)C(=O)N[C@@H](C(=O)O)[C@H](C)C(=O)N[C@@H](CCCN=C(N)N)C(=O)N[C@@H](/C=C/C(C)=C/[C@H](C)[C@H](Cc2ccccc2)OC)[C@H](C)C(=O)N[C@@H](C(=O)O)CCC(=O)N1C
REMARK SMILES IDX 39 1 38 2 37 3 36 4 28 6 27 7 25 8 26 9 23 11 24 12 19 13
REMARK SMILES IDX 18 14 16 15 17 16 11 18 10 19 8 20 9 21 12 24 13 25 14 26
REMARK SMILES IDX 15 27 20 28 21 29 22 30 29 32 30 33 31 34 32 35 33 36 34 37
REMARK SMILES IDX 35 38 57 43 58 44 59 45 60 46 61 47 62 49 66 50 67 51 68 52
REMARK SMILES IDX 69 53 70 54 71 55 2 56 1 57 3 58 4 59 5 60 6 62 7 63 63 65
REMARK SMILES IDX 64 66 65 67 40 69 41 70 42 71 44 72 43 73 45 74 46 75 47 76
REMARK SMILES IDX 55 77 56 78 48 79 49 80 50 81 54 82 51 83 53 84 52 85
REMARK H PARENT 38 5 27 10 18 17 10 22 22 31 34 39 34 40 35 41 35 42 61 48
REMARK H PARENT 5 61 65 68
REMARK Flexibility Score:  369.900
ROOT
ATOM      1  C   UNL     1      -7.157   0.529  13.124  1.00  0.00     0.117 C 
ENDROOT
BRANCH   1   2
ATOM      2  N   UNL     1      -8.618   0.586  13.054  1.00  0.00    -0.347 N 
ATOM      3  O   UNL     1      -9.069  -0.572  14.984  1.00  0.00    -0.273 OA
ATOM      4  C   UNL     1      -9.458   0.109  14.041  1.00  0.00     0.243 C 
ATOM      5  H   UNL     1      -9.058   1.042  12.269  1.00  0.00     0.164 HD
BRANCH   4   6
ATOM      6  C   UNL     1     -10.960   0.371  13.761  1.00  0.00     0.171 C 
BRANCH   6   7
ATOM      7  N   UNL     1     -11.799  -0.506  14.593  1.00  0.00    -0.344 N 
ATOM      8  C   UNL     1     -12.883  -1.162  14.052  1.00  0.00     0.226 C 
ATOM      9  O   UNL     1     -13.214  -1.034  12.879  1.00  0.00    -0.275 OA
ATOM     10  H   UNL     1     -11.597  -0.584  15.582  1.00  0.00     0.164 HD
BRANCH   8  11
ATOM     11  C   UNL     1     -13.614  -2.071  15.024  1.00  0.00     0.109 C 
ATOM     12  C   UNL     1     -15.013  -1.522  15.307  1.00  0.00     0.021 C 
BRANCH  11  13
ATOM     13  C   UNL     1     -13.579  -3.523  14.507  1.00  0.00     0.204 C 
BRANCH  13  14
ATOM     14  N   UNL     1     -12.218  -3.962  14.186  1.00  0.00    -0.340 N 
ATOM     15  C   UNL     1     -11.810  -4.258  12.904  1.00  0.00     0.243 C 
ATOM     16  O   UNL     1     -12.545  -4.116  11.928  1.00  0.00    -0.273 OA
ATOM     17  H   UNL     1     -11.609  -4.244  14.959  1.00  0.00     0.164 HD
BRANCH  15  18
ATOM     18  C   UNL     1     -10.401  -4.897  12.834  1.00  0.00     0.171 C 
BRANCH  18  19
ATOM     19  N   UNL     1     -10.600  -6.321  12.572  1.00  0.00    -0.343 N 
ATOM     20  C   UNL     1     -10.240  -7.288  13.491  1.00  0.00     0.242 CG0
ATOM     21  O   UNL     1      -9.615  -7.006  14.510  1.00  0.00    -0.273 OA
ATOM     22  H   UNL     1     -11.008  -6.612  11.691  1.00  0.00     0.164 HD
ATOM     23  G   UNL     1     -10.598  -8.729  13.072  1.00  0.00     0.000 G0
ENDBRANCH  18  19
BRANCH  18  24
ATOM     24  C   UNL     1      -9.560  -4.235  11.736  1.00  0.00     0.038 C 
BRANCH  24  25
ATOM     25  C   UNL     1      -9.567  -4.979  10.383  1.00  0.00    -0.015 C 
ATOM     26  C   UNL     1      -8.191  -5.534  10.014  1.00  0.00     0.007 C 
ATOM     27  C   UNL     1     -10.055  -4.037   9.280  1.00  0.00     0.007 C 
ENDBRANCH  24  25
ENDBRANCH  18  24
ENDBRANCH  15  18
ENDBRANCH  13  14
BRANCH  13  28
ATOM     28  C   UNL     1     -14.158  -4.532  15.504  1.00  0.00     0.327 C 
ATOM     29  O   UNL     1     -14.004  -4.522  16.715  1.00  0.00    -0.250 OA
BRANCH  28  30
ATOM     30  O   UNL     1     -14.796  -5.559  14.906  1.00  0.00    -0.480 OA
ATOM     31  H   UNL     1     -14.920  -5.260  13.981  1.00  0.00     0.296 HD
ENDBRANCH  28  30
ENDBRANCH  13  28
ENDBRANCH  11  13
ENDBRANCH   8  11
ENDBRANCH   6   7
BRANCH   6  32
ATOM     32  C   UNL     1     -11.273   1.846  14.033  1.00  0.00     0.037 C 
BRANCH  32  33
ATOM     33  C   UNL     1     -11.774   2.573  12.777  1.00  0.00     0.026 C 
BRANCH  33  34
ATOM     34  C   UNL     1     -11.715   1.692  11.529  1.00  0.00     0.146 C 
BRANCH  34  35
ATOM     35  N   UNL     1     -10.506   2.014  10.783  1.00  0.00    -0.254 NA
ATOM     36  C   UNL     1      -9.917   1.080  10.134  1.00  0.00     0.185 C 
ATOM     37  N   UNL     1      -8.806   1.367   9.439  1.00  0.00    -0.370 N 
ATOM     38  N   UNL     1     -10.254  -0.218  10.030  1.00  0.00    -0.370 N 
ATOM     39  H   UNL     1      -8.493   2.329   9.459  1.00  0.00     0.159 HD
ATOM     40  H   UNL     1      -8.389   0.739   8.773  1.00  0.00     0.159 HD
ATOM     41  H   UNL     1      -9.631  -0.885   9.604  1.00  0.00     0.159 HD
ATOM     42  H   UNL     1     -11.061  -0.579  10.515  1.00  0.00     0.159 HD
ENDBRANCH  34  35
ENDBRANCH  33  34
ENDBRANCH  32  33
ENDBRANCH   6  32
ENDBRANCH   4   6
ENDBRANCH   1   2
BRANCH   1  43
ATOM     43  C   UNL     1      -6.626   1.932  13.537  1.00  0.00     0.102 C 
ATOM     44  C   UNL     1      -6.296   2.044  15.035  1.00  0.00     0.020 C 
BRANCH  43  45
ATOM     45  C   UNL     1      -7.544   3.043  13.018  1.00  0.00     0.225 C 
ATOM     46  O   UNL     1      -8.538   3.429  13.625  1.00  0.00    -0.275 OA
ATOM     47  N   UNL     1      -7.238   3.528  11.767  1.00  0.00    -0.342 N 
ATOM     48  H   UNL     1      -6.342   3.313  11.353  1.00  0.00     0.164 HD
BRANCH  47  49
ATOM     49  C   UNL     1      -8.007   4.617  11.159  1.00  0.00     0.192 C 
BRANCH  49  50
ATOM     50  C   UNL     1      -7.643   4.739   9.677  1.00  0.00     0.047 C 
BRANCH  50  51
ATOM     51  C   UNL     1      -6.327   4.025   9.341  1.00  0.00     0.103 C 
BRANCH  51  52
ATOM     52  C   UNL     1      -5.301   4.972   8.722  1.00  0.00     0.226 C 
ATOM     53  O   UNL     1      -5.273   6.154   9.071  1.00  0.00    -0.275 OA
BRANCH  52  54
ATOM     54  N   UNL     1      -4.382   4.400   7.822  1.00  0.00    -0.311 N 
ATOM     55  C   UNL     1      -4.672   3.124   7.154  1.00  0.00     0.153 C 
BRANCH  54  56
ATOM     56  C   UNL     1      -3.161   5.028   7.525  1.00  0.00     0.102 C 
ATOM     57  C   UNL     1      -2.030   4.883   8.235  1.00  0.00     0.043 C 
BRANCH  56  58
ATOM     58  C   UNL     1      -3.019   5.911   6.308  1.00  0.00     0.268 C 
ATOM     59  O   UNL     1      -3.924   6.095   5.506  1.00  0.00    -0.268 OA
ATOM     60  N   UNL     1      -1.796   6.535   6.233  1.00  0.00    -0.339 N 
ATOM     61  H   UNL     1      -1.096   6.320   6.933  1.00  0.00     0.164 HD
BRANCH  60  62
ATOM     62  C   UNL     1      -1.470   7.482   5.168  1.00  0.00     0.168 CG0
ATOM     63  C   UNL     1      -0.563   6.842   4.125  1.00  0.00     0.041 C 
ATOM     64  G   UNL     1      -0.803   8.734   5.777  1.00  0.00     0.000 G0
ENDBRANCH  60  62
ENDBRANCH  56  58
ENDBRANCH  54  56
ENDBRANCH  52  54
ENDBRANCH  51  52
ENDBRANCH  50  51
ENDBRANCH  49  50
BRANCH  49  65
ATOM     65  C   UNL     1      -7.743   5.959  11.860  1.00  0.00     0.326 C 
ATOM     66  O   UNL     1      -8.040   6.227  13.016  1.00  0.00    -0.250 OA
BRANCH  65  67
ATOM     67  O   UNL     1      -7.185   6.906  11.074  1.00  0.00    -0.480 OA
ATOM     68  H   UNL     1      -7.089   6.458  10.206  1.00  0.00     0.296 HD
ENDBRANCH  65  67
ENDBRANCH  49  65
ENDBRANCH  47  49
ENDBRANCH  43  45
ENDBRANCH   1  43
BRANCH   1  69
ATOM     69  C   UNL     1      -6.693  -0.073  11.810  1.00  0.00    -0.001 C 
ATOM     70  C   UNL     1      -5.483   0.050  11.237  1.00  0.00     0.001 C 
BRANCH  70  71
ATOM     71  C   UNL     1      -5.040  -0.553   9.978  1.00  0.00    -0.055 C 
ATOM     72  C   UNL     1      -5.676  -1.667   9.558  1.00  0.00    -0.018 C 
ATOM     73  C   UNL     1      -3.912   0.116   9.237  1.00  0.00     0.044 C 
BRANCH  72  74
ATOM     74  C   UNL     1      -5.437  -2.498   8.306  1.00  0.00     0.038 C 
ATOM     75  C   UNL     1      -6.811  -2.946   7.792  1.00  0.00     0.015 C 
BRANCH  74  76
ATOM     76  C   UNL     1      -4.459  -3.659   8.653  1.00  0.00     0.128 C 
BRANCH  76  77
ATOM     77  O   UNL     1      -4.347  -3.795  10.080  1.00  0.00    -0.381 OA
ATOM     78  C   UNL     1      -4.201  -5.140  10.515  1.00  0.00     0.195 C 
ENDBRANCH  76  77
BRANCH  76  79
ATOM     79  C   UNL     1      -4.795  -4.997   7.948  1.00  0.00     0.068 C 
BRANCH  79  80
ATOM     80  C   UNL     1      -3.906  -5.439   6.810  1.00  0.00    -0.045 A 
ATOM     81  C   UNL     1      -4.312  -5.292   5.478  1.00  0.00     0.004 A 
ATOM     82  C   UNL     1      -2.663  -6.033   7.075  1.00  0.00     0.004 A 
ATOM     83  C   UNL     1      -3.490  -5.716   4.432  1.00  0.00     0.000 A 
ATOM     84  C   UNL     1      -1.841  -6.457   6.028  1.00  0.00     0.000 A 
ATOM     85  C   UNL     1      -2.254  -6.298   4.707  1.00  0.00     0.000 A 
ENDBRANCH  79  80
ENDBRANCH  76  79
ENDBRANCH  74  76
ENDBRANCH  72  74
ENDBRANCH  70  71
ENDBRANCH   1  69
TORSDOF 17
ENDMDL
MODEL 22
REMARK VINA RESULT:    -7.665      3.111     12.792
REMARK INTER + INTRA:         -28.708
REMARK INTER:                 -21.359
REMARK INTRA:                  -7.348
REMARK UNBOUND:                -5.809
REMARK SMILES C=C1C(=O)N[C@H](C)C(=O)N[C@@H](CC(C)C)C(=O)N[C@@H](C(=O)O)[C@H](C)C(=O)N[C@@H](CCCN=C(N)N)C(=O)N[C@@H](/C=C/C(C)=C/[C@H](C)[C@H](Cc2ccccc2)OC)[C@H](C)C(=O)N[C@@H](C(=O)O)CCC(=O)N1C
REMARK SMILES IDX 39 1 38 2 37 3 36 4 28 6 27 7 25 8 26 9 23 11 24 12 19 13
REMARK SMILES IDX 18 14 16 15 17 16 11 18 10 19 8 20 9 21 12 24 13 25 14 26
REMARK SMILES IDX 15 27 20 28 21 29 22 30 29 32 30 33 31 34 32 35 33 36 34 37
REMARK SMILES IDX 35 38 57 43 58 44 59 45 60 46 61 47 62 49 66 50 67 51 68 52
REMARK SMILES IDX 69 53 70 54 71 55 2 56 1 57 3 58 4 59 5 60 6 62 7 63 63 65
REMARK SMILES IDX 64 66 65 67 40 69 41 70 42 71 44 72 43 73 45 74 46 75 47 76
REMARK SMILES IDX 55 77 56 78 48 79 49 80 50 81 54 82 51 83 53 84 52 85
REMARK H PARENT 38 5 27 10 18 17 10 22 22 31 34 39 34 40 35 41 35 42 61 48
REMARK H PARENT 5 61 65 68
REMARK Flexibility Score:  369.900
ROOT
ATOM      1  C   UNL     1      -8.378   0.940  10.361  1.00  0.00     0.117 C 
ENDROOT
BRANCH   1   2
ATOM      2  N   UNL     1      -9.351  -0.125  10.608  1.00  0.00    -0.347 N 
ATOM      3  O   UNL     1      -9.116  -1.234   8.612  1.00  0.00    -0.273 OA
ATOM      4  C   UNL     1      -9.576  -1.182   9.748  1.00  0.00     0.243 C 
ATOM      5  H   UNL     1      -9.865  -0.134  11.476  1.00  0.00     0.164 HD
BRANCH   4   6
ATOM      6  C   UNL     1     -10.595  -2.218  10.286  1.00  0.00     0.171 C 
BRANCH   6   7
ATOM      7  N   UNL     1      -9.919  -3.483  10.615  1.00  0.00    -0.344 N 
ATOM      8  C   UNL     1     -10.574  -4.687  10.475  1.00  0.00     0.226 C 
ATOM      9  O   UNL     1     -11.737  -4.766  10.099  1.00  0.00    -0.275 OA
ATOM     10  H   UNL     1      -8.980  -3.454  10.992  1.00  0.00     0.164 HD
BRANCH   8  11
ATOM     11  C   UNL     1      -9.724  -5.903  10.801  1.00  0.00     0.109 C 
ATOM     12  C   UNL     1      -8.324  -5.741  10.208  1.00  0.00     0.021 C 
BRANCH  11  13
ATOM     13  C   UNL     1      -9.759  -6.171  12.319  1.00  0.00     0.204 C 
BRANCH  13  14
ATOM     14  N   UNL     1     -11.026  -5.751  12.925  1.00  0.00    -0.340 N 
ATOM     15  C   UNL     1     -11.097  -4.831  13.948  1.00  0.00     0.243 C 
ATOM     16  O   UNL     1     -10.105  -4.252  14.385  1.00  0.00    -0.273 OA
ATOM     17  H   UNL     1     -11.864  -6.300  12.715  1.00  0.00     0.164 HD
BRANCH  15  18
ATOM     18  C   UNL     1     -12.511  -4.701  14.566  1.00  0.00     0.171 C 
BRANCH  18  19
ATOM     19  N   UNL     1     -12.534  -5.564  15.745  1.00  0.00    -0.343 N 
ATOM     20  C   UNL     1     -13.480  -6.558  15.903  1.00  0.00     0.242 CG0
ATOM     21  O   UNL     1     -14.425  -6.676  15.126  1.00  0.00    -0.273 OA
ATOM     22  H   UNL     1     -11.842  -5.429  16.474  1.00  0.00     0.164 HD
ATOM     23  G   UNL     1     -13.297  -7.416  17.172  1.00  0.00     0.000 G0
ENDBRANCH  18  19
BRANCH  18  24
ATOM     24  C   UNL     1     -12.810  -3.242  14.931  1.00  0.00     0.038 C 
BRANCH  24  25
ATOM     25  C   UNL     1     -14.302  -2.852  14.858  1.00  0.00    -0.015 C 
ATOM     26  C   UNL     1     -15.066  -3.654  13.804  1.00  0.00     0.007 C 
ATOM     27  C   UNL     1     -14.430  -1.356  14.559  1.00  0.00     0.007 C 
ENDBRANCH  24  25
ENDBRANCH  18  24
ENDBRANCH  15  18
ENDBRANCH  13  14
BRANCH  13  28
ATOM     28  C   UNL     1      -9.552  -7.647  12.676  1.00  0.00     0.327 C 
ATOM     29  O   UNL     1      -8.513  -8.157  13.066  1.00  0.00    -0.250 OA
BRANCH  28  30
ATOM     30  O   UNL     1     -10.630  -8.411  12.408  1.00  0.00    -0.480 OA
ATOM     31  H   UNL     1     -10.942  -8.092  11.536  1.00  0.00     0.296 HD
ENDBRANCH  28  30
ENDBRANCH  13  28
ENDBRANCH  11  13
ENDBRANCH   8  11
ENDBRANCH   6   7
BRANCH   6  32
ATOM     32  C   UNL     1     -11.299  -1.638  11.518  1.00  0.00     0.037 C 
BRANCH  32  33
ATOM     33  C   UNL     1     -12.730  -1.179  11.204  1.00  0.00     0.026 C 
BRANCH  33  34
ATOM     34  C   UNL     1     -12.913   0.329  11.381  1.00  0.00     0.146 C 
BRANCH  34  35
ATOM     35  N   UNL     1     -11.801   0.848  12.165  1.00  0.00    -0.254 NA
ATOM     36  C   UNL     1     -11.609   2.114  12.196  1.00  0.00     0.185 C 
ATOM     37  N   UNL     1     -10.590   2.604  12.919  1.00  0.00    -0.370 N 
ATOM     38  N   UNL     1     -12.306   3.089  11.586  1.00  0.00    -0.370 N 
ATOM     39  H   UNL     1     -10.023   1.931  13.419  1.00  0.00     0.159 HD
ATOM     40  H   UNL     1     -10.480   3.580  13.134  1.00  0.00     0.159 HD
ATOM     41  H   UNL     1     -11.972   4.039  11.575  1.00  0.00     0.159 HD
ATOM     42  H   UNL     1     -13.091   2.865  10.995  1.00  0.00     0.159 HD
ENDBRANCH  34  35
ENDBRANCH  33  34
ENDBRANCH  32  33
ENDBRANCH   6  32
ENDBRANCH   4   6
ENDBRANCH   1   2
BRANCH   1  43
ATOM     43  C   UNL     1      -8.899   1.824   9.191  1.00  0.00     0.102 C 
ATOM     44  C   UNL     1      -8.024   1.745   7.928  1.00  0.00     0.020 C 
BRANCH  43  45
ATOM     45  C   UNL     1      -9.179   3.253   9.664  1.00  0.00     0.225 C 
ATOM     46  O   UNL     1     -10.189   3.877   9.353  1.00  0.00    -0.275 OA
ATOM     47  N   UNL     1      -8.172   3.843  10.395  1.00  0.00    -0.342 N 
ATOM     48  H   UNL     1      -7.425   3.274  10.767  1.00  0.00     0.164 HD
BRANCH  47  49
ATOM     49  C   UNL     1      -8.315   5.195  10.943  1.00  0.00     0.192 C 
BRANCH  49  50
ATOM     50  C   UNL     1      -7.298   6.129  10.282  1.00  0.00     0.047 C 
BRANCH  50  51
ATOM     51  C   UNL     1      -6.334   5.377   9.355  1.00  0.00     0.103 C 
BRANCH  51  52
ATOM     52  C   UNL     1      -5.064   6.178   9.076  1.00  0.00     0.226 C 
ATOM     53  O   UNL     1      -5.045   7.389   9.305  1.00  0.00    -0.275 OA
BRANCH  52  54
ATOM     54  N   UNL     1      -3.946   5.448   8.634  1.00  0.00    -0.311 N 
ATOM     55  C   UNL     1      -2.786   5.236   9.510  1.00  0.00     0.153 C 
BRANCH  54  56
ATOM     56  C   UNL     1      -3.898   4.890   7.345  1.00  0.00     0.102 C 
ATOM     57  C   UNL     1      -4.226   3.622   7.044  1.00  0.00     0.043 C 
BRANCH  56  58
ATOM     58  C   UNL     1      -3.502   5.727   6.153  1.00  0.00     0.268 C 
ATOM     59  O   UNL     1      -4.296   6.092   5.296  1.00  0.00    -0.268 OA
ATOM     60  N   UNL     1      -2.176   6.090   6.164  1.00  0.00    -0.339 N 
ATOM     61  H   UNL     1      -1.581   5.738   6.905  1.00  0.00     0.164 HD
BRANCH  60  62
ATOM     62  C   UNL     1      -1.595   6.953   5.136  1.00  0.00     0.168 CG0
ATOM     63  C   UNL     1      -2.211   8.346   5.180  1.00  0.00     0.041 C 
ATOM     64  G   UNL     1      -1.796   6.310   3.749  1.00  0.00     0.000 G0
ENDBRANCH  60  62
ENDBRANCH  56  58
ENDBRANCH  54  56
ENDBRANCH  52  54
ENDBRANCH  51  52
ENDBRANCH  50  51
ENDBRANCH  49  50
BRANCH  49  65
ATOM     65  C   UNL     1      -8.109   5.213  12.466  1.00  0.00     0.326 C 
ATOM     66  O   UNL     1      -8.169   4.240  13.203  1.00  0.00    -0.250 OA
BRANCH  65  67
ATOM     67  O   UNL     1      -7.900   6.440  12.992  1.00  0.00    -0.480 OA
ATOM     68  H   UNL     1      -8.634   6.544  13.635  1.00  0.00     0.296 HD
ENDBRANCH  65  67
ENDBRANCH  49  65
ENDBRANCH  47  49
ENDBRANCH  43  45
ENDBRANCH   1  43
BRANCH   1  69
ATOM     69  C   UNL     1      -7.030   0.257  10.221  1.00  0.00    -0.001 C 
ATOM     70  C   UNL     1      -6.411  -0.523  11.125  1.00  0.00     0.001 C 
BRANCH  70  71
ATOM     71  C   UNL     1      -5.119  -1.194  10.970  1.00  0.00    -0.055 C 
ATOM     72  C   UNL     1      -4.207  -0.619  10.157  1.00  0.00    -0.018 C 
ATOM     73  C   UNL     1      -4.895  -2.472  11.735  1.00  0.00     0.044 C 
BRANCH  72  74
ATOM     74  C   UNL     1      -2.799  -1.081   9.812  1.00  0.00     0.038 C 
ATOM     75  C   UNL     1      -1.856   0.098  10.083  1.00  0.00     0.015 C 
BRANCH  74  76
ATOM     76  C   UNL     1      -2.788  -1.601   8.344  1.00  0.00     0.128 C 
BRANCH  76  77
ATOM     77  O   UNL     1      -2.657  -3.033   8.331  1.00  0.00    -0.381 OA
ATOM     78  C   UNL     1      -2.195  -3.574   9.562  1.00  0.00     0.195 C 
ENDBRANCH  76  77
BRANCH  76  79
ATOM     79  C   UNL     1      -3.980  -1.101   7.490  1.00  0.00     0.068 C 
BRANCH  79  80
ATOM     80  C   UNL     1      -4.903  -2.134   6.890  1.00  0.00    -0.045 A 
ATOM     81  C   UNL     1      -4.675  -2.647   5.606  1.00  0.00     0.004 A 
ATOM     82  C   UNL     1      -6.026  -2.579   7.604  1.00  0.00     0.004 A 
ATOM     83  C   UNL     1      -5.541  -3.592   5.053  1.00  0.00     0.000 A 
ATOM     84  C   UNL     1      -6.892  -3.523   7.049  1.00  0.00     0.000 A 
ATOM     85  C   UNL     1      -6.649  -4.031   5.774  1.00  0.00     0.000 A 
ENDBRANCH  79  80
ENDBRANCH  76  79
ENDBRANCH  74  76
ENDBRANCH  72  74
ENDBRANCH  70  71
ENDBRANCH   1  69
TORSDOF 17
ENDMDL
MODEL 23
REMARK VINA RESULT:    -7.654      2.652      4.427
REMARK INTER + INTRA:         -28.675
REMARK INTER:                 -23.926
REMARK INTRA:                  -4.749
REMARK UNBOUND:                -5.809
REMARK SMILES C=C1C(=O)N[C@H](C)C(=O)N[C@@H](CC(C)C)C(=O)N[C@@H](C(=O)O)[C@H](C)C(=O)N[C@@H](CCCN=C(N)N)C(=O)N[C@@H](/C=C/C(C)=C/[C@H](C)[C@H](Cc2ccccc2)OC)[C@H](C)C(=O)N[C@@H](C(=O)O)CCC(=O)N1C
REMARK SMILES IDX 39 1 38 2 37 3 36 4 28 6 27 7 25 8 26 9 23 11 24 12 19 13
REMARK SMILES IDX 18 14 16 15 17 16 11 18 10 19 8 20 9 21 12 24 13 25 14 26
REMARK SMILES IDX 15 27 20 28 21 29 22 30 29 32 30 33 31 34 32 35 33 36 34 37
REMARK SMILES IDX 35 38 57 43 58 44 59 45 60 46 61 47 62 49 66 50 67 51 68 52
REMARK SMILES IDX 69 53 70 54 71 55 2 56 1 57 3 58 4 59 5 60 6 62 7 63 63 65
REMARK SMILES IDX 64 66 65 67 40 69 41 70 42 71 44 72 43 73 45 74 46 75 47 76
REMARK SMILES IDX 55 77 56 78 48 79 49 80 50 81 54 82 51 83 53 84 52 85
REMARK H PARENT 38 5 27 10 18 17 10 22 22 31 34 39 34 40 35 41 35 42 61 48
REMARK H PARENT 5 61 65 68
REMARK Flexibility Score:  369.900
ROOT
ATOM      1  C   UNL     1      -8.663  -3.783  10.255  1.00  0.00     0.117 C 
ENDROOT
BRANCH   1   2
ATOM      2  N   UNL     1      -7.675  -3.814   9.175  1.00  0.00    -0.347 N 
ATOM      3  O   UNL     1      -5.867  -4.475  10.425  1.00  0.00    -0.273 OA
ATOM      4  C   UNL     1      -6.373  -4.248   9.331  1.00  0.00     0.243 C 
ATOM      5  H   UNL     1      -7.955  -3.554   8.242  1.00  0.00     0.164 HD
BRANCH   4   6
ATOM      6  C   UNL     1      -5.559  -4.262   8.012  1.00  0.00     0.171 C 
BRANCH   6   7
ATOM      7  N   UNL     1      -4.755  -3.036   7.891  1.00  0.00    -0.344 N 
ATOM      8  C   UNL     1      -4.704  -2.344   6.700  1.00  0.00     0.226 C 
ATOM      9  O   UNL     1      -5.295  -2.717   5.694  1.00  0.00    -0.275 OA
ATOM     10  H   UNL     1      -4.199  -2.734   8.681  1.00  0.00     0.164 HD
BRANCH   8  11
ATOM     11  C   UNL     1      -3.876  -1.072   6.751  1.00  0.00     0.109 C 
ATOM     12  C   UNL     1      -3.922  -0.360   5.399  1.00  0.00     0.021 C 
BRANCH  11  13
ATOM     13  C   UNL     1      -4.316  -0.211   7.952  1.00  0.00     0.204 C 
BRANCH  13  14
ATOM     14  N   UNL     1      -3.198   0.539   8.532  1.00  0.00    -0.340 N 
ATOM     15  C   UNL     1      -2.781   0.374   9.835  1.00  0.00     0.243 C 
ATOM     16  O   UNL     1      -3.281  -0.461  10.587  1.00  0.00    -0.273 OA
ATOM     17  H   UNL     1      -2.842   1.348   8.015  1.00  0.00     0.164 HD
BRANCH  15  18
ATOM     18  C   UNL     1      -1.727   1.416  10.285  1.00  0.00     0.171 C 
BRANCH  18  19
ATOM     19  N   UNL     1      -0.446   0.715  10.348  1.00  0.00    -0.343 N 
ATOM     20  C   UNL     1       0.156   0.404  11.552  1.00  0.00     0.242 CG0
ATOM     21  O   UNL     1      -0.289   0.818  12.620  1.00  0.00    -0.273 OA
ATOM     22  H   UNL     1       0.020   0.452   9.487  1.00  0.00     0.164 HD
ATOM     23  G   UNL     1       1.462  -0.406  11.420  1.00  0.00     0.000 G0
ENDBRANCH  18  19
BRANCH  18  24
ATOM     24  C   UNL     1      -1.676   2.593   9.303  1.00  0.00     0.038 C 
BRANCH  24  25
ATOM     25  C   UNL     1      -1.876   3.980   9.949  1.00  0.00    -0.015 C 
ATOM     26  C   UNL     1      -1.649   5.124   8.960  1.00  0.00     0.007 C 
ATOM     27  C   UNL     1      -0.929   4.134  11.141  1.00  0.00     0.007 C 
ENDBRANCH  24  25
ENDBRANCH  18  24
ENDBRANCH  15  18
ENDBRANCH  13  14
BRANCH  13  28
ATOM     28  C   UNL     1      -5.409   0.803   7.600  1.00  0.00     0.327 C 
ATOM     29  O   UNL     1      -5.236   1.966   7.268  1.00  0.00    -0.250 OA
BRANCH  28  30
ATOM     30  O   UNL     1      -6.655   0.328   7.801  1.00  0.00    -0.480 OA
ATOM     31  H   UNL     1      -7.145   1.089   8.176  1.00  0.00     0.296 HD
ENDBRANCH  28  30
ENDBRANCH  13  28
ENDBRANCH  11  13
ENDBRANCH   8  11
ENDBRANCH   6   7
BRANCH   6  32
ATOM     32  C   UNL     1      -4.666  -5.508   7.985  1.00  0.00     0.037 C 
BRANCH  32  33
ATOM     33  C   UNL     1      -3.188  -5.156   7.771  1.00  0.00     0.026 C 
BRANCH  33  34
ATOM     34  C   UNL     1      -2.578  -5.893   6.578  1.00  0.00     0.146 C 
BRANCH  34  35
ATOM     35  N   UNL     1      -3.450  -5.724   5.424  1.00  0.00    -0.254 NA
ATOM     36  C   UNL     1      -3.122  -6.281   4.319  1.00  0.00     0.185 C 
ATOM     37  N   UNL     1      -3.922  -6.136   3.251  1.00  0.00    -0.370 N 
ATOM     38  N   UNL     1      -2.043  -7.034   4.040  1.00  0.00    -0.370 N 
ATOM     39  H   UNL     1      -4.763  -5.589   3.384  1.00  0.00     0.159 HD
ATOM     40  H   UNL     1      -3.828  -6.676   2.408  1.00  0.00     0.159 HD
ATOM     41  H   UNL     1      -1.825  -7.301   3.094  1.00  0.00     0.159 HD
ATOM     42  H   UNL     1      -1.347  -7.214   4.746  1.00  0.00     0.159 HD
ENDBRANCH  34  35
ENDBRANCH  33  34
ENDBRANCH  32  33
ENDBRANCH   6  32
ENDBRANCH   4   6
ENDBRANCH   1   2
BRANCH   1  43
ATOM     43  C   UNL     1      -9.549  -5.058  10.152  1.00  0.00     0.102 C 
ATOM     44  C   UNL     1     -10.978  -4.773   9.660  1.00  0.00     0.020 C 
BRANCH  43  45
ATOM     45  C   UNL     1      -9.489  -5.875  11.447  1.00  0.00     0.225 C 
ATOM     46  O   UNL     1      -9.893  -7.031  11.530  1.00  0.00    -0.275 OA
ATOM     47  N   UNL     1      -9.036  -5.196  12.555  1.00  0.00    -0.342 N 
ATOM     48  H   UNL     1      -8.570  -4.307  12.441  1.00  0.00     0.164 HD
BRANCH  47  49
ATOM     49  C   UNL     1      -8.892  -5.860  13.854  1.00  0.00     0.192 C 
BRANCH  49  50
ATOM     50  C   UNL     1     -10.160  -5.646  14.684  1.00  0.00     0.047 C 
BRANCH  50  51
ATOM     51  C   UNL     1     -10.411  -6.795  15.671  1.00  0.00     0.103 C 
BRANCH  51  52
ATOM     52  C   UNL     1     -11.617  -7.641  15.270  1.00  0.00     0.226 C 
ATOM     53  O   UNL     1     -12.738  -7.129  15.238  1.00  0.00    -0.275 OA
BRANCH  52  54
ATOM     54  N   UNL     1     -11.352  -8.967  14.881  1.00  0.00    -0.311 N 
ATOM     55  C   UNL     1     -10.118  -9.311  14.161  1.00  0.00     0.153 C 
BRANCH  54  56
ATOM     56  C   UNL     1     -12.249 -10.009  15.170  1.00  0.00     0.102 C 
ATOM     57  C   UNL     1     -12.202 -10.782  16.267  1.00  0.00     0.043 C 
BRANCH  56  58
ATOM     58  C   UNL     1     -13.405 -10.315  14.246  1.00  0.00     0.268 C 
ATOM     59  O   UNL     1     -13.655  -9.656  13.246  1.00  0.00    -0.268 OA
ATOM     60  N   UNL     1     -14.102 -11.442  14.609  1.00  0.00    -0.339 N 
ATOM     61  H   UNL     1     -13.838 -11.927  15.458  1.00  0.00     0.164 HD
BRANCH  60  62
ATOM     62  C   UNL     1     -15.220 -11.954  13.818  1.00  0.00     0.168 CG0
ATOM     63  C   UNL     1     -16.444 -12.194  14.693  1.00  0.00     0.041 C 
ATOM     64  G   UNL     1     -14.796 -13.255  13.104  1.00  0.00     0.000 G0
ENDBRANCH  60  62
ENDBRANCH  56  58
ENDBRANCH  54  56
ENDBRANCH  52  54
ENDBRANCH  51  52
ENDBRANCH  50  51
ENDBRANCH  49  50
BRANCH  49  65
ATOM     65  C   UNL     1      -7.678  -5.327  14.631  1.00  0.00     0.326 C 
ATOM     66  O   UNL     1      -7.341  -4.154  14.705  1.00  0.00    -0.250 OA
BRANCH  65  67
ATOM     67  O   UNL     1      -6.922  -6.280  15.220  1.00  0.00    -0.480 OA
ATOM     68  H   UNL     1      -7.581  -6.855  15.667  1.00  0.00     0.296 HD
ENDBRANCH  65  67
ENDBRANCH  49  65
ENDBRANCH  47  49
ENDBRANCH  43  45
ENDBRANCH   1  43
BRANCH   1  69
ATOM     69  C   UNL     1      -9.328  -2.421  10.182  1.00  0.00    -0.001 C 
ATOM     70  C   UNL     1     -10.528  -2.070  10.678  1.00  0.00     0.001 C 
BRANCH  70  71
ATOM     71  C   UNL     1     -11.150  -0.745  10.620  1.00  0.00    -0.055 C 
ATOM     72  C   UNL     1     -10.409   0.313  11.010  1.00  0.00    -0.018 C 
ATOM     73  C   UNL     1     -12.569  -0.657  10.123  1.00  0.00     0.044 C 
BRANCH  72  74
ATOM     74  C   UNL     1     -10.784   1.788  11.054  1.00  0.00     0.038 C 
ATOM     75  C   UNL     1      -9.543   2.584  10.632  1.00  0.00     0.015 C 
BRANCH  74  76
ATOM     76  C   UNL     1     -11.324   2.125  12.476  1.00  0.00     0.128 C 
BRANCH  76  77
ATOM     77  O   UNL     1     -10.670   3.300  12.983  1.00  0.00    -0.381 OA
ATOM     78  C   UNL     1     -10.008   3.094  14.224  1.00  0.00     0.195 C 
ENDBRANCH  76  77
BRANCH  76  79
ATOM     79  C   UNL     1     -12.868   2.216  12.558  1.00  0.00     0.068 C 
BRANCH  79  80
ATOM     80  C   UNL     1     -13.603   1.123  13.297  1.00  0.00    -0.045 A 
ATOM     81  C   UNL     1     -12.929  -0.014  13.760  1.00  0.00     0.004 A 
ATOM     82  C   UNL     1     -14.987   1.219  13.507  1.00  0.00     0.004 A 
ATOM     83  C   UNL     1     -13.618  -1.027  14.431  1.00  0.00     0.000 A 
ATOM     84  C   UNL     1     -15.675   0.206  14.178  1.00  0.00     0.000 A 
ATOM     85  C   UNL     1     -14.991  -0.916  14.640  1.00  0.00     0.000 A 
ENDBRANCH  79  80
ENDBRANCH  76  79
ENDBRANCH  74  76
ENDBRANCH  72  74
ENDBRANCH  70  71
ENDBRANCH   1  69
TORSDOF 17
ENDMDL
MODEL 24
REMARK VINA RESULT:    -7.644      3.008      4.243
REMARK INTER + INTRA:         -28.646
REMARK INTER:                 -22.923
REMARK INTRA:                  -5.723
REMARK UNBOUND:                -5.809
REMARK SMILES C=C1C(=O)N[C@H](C)C(=O)N[C@@H](CC(C)C)C(=O)N[C@@H](C(=O)O)[C@H](C)C(=O)N[C@@H](CCCN=C(N)N)C(=O)N[C@@H](/C=C/C(C)=C/[C@H](C)[C@H](Cc2ccccc2)OC)[C@H](C)C(=O)N[C@@H](C(=O)O)CCC(=O)N1C
REMARK SMILES IDX 39 1 38 2 37 3 36 4 28 6 27 7 25 8 26 9 23 11 24 12 19 13
REMARK SMILES IDX 18 14 16 15 17 16 11 18 10 19 8 20 9 21 12 24 13 25 14 26
REMARK SMILES IDX 15 27 20 28 21 29 22 30 29 32 30 33 31 34 32 35 33 36 34 37
REMARK SMILES IDX 35 38 57 43 58 44 59 45 60 46 61 47 62 49 66 50 67 51 68 52
REMARK SMILES IDX 69 53 70 54 71 55 2 56 1 57 3 58 4 59 5 60 6 62 7 63 63 65
REMARK SMILES IDX 64 66 65 67 40 69 41 70 42 71 44 72 43 73 45 74 46 75 47 76
REMARK SMILES IDX 55 77 56 78 48 79 49 80 50 81 54 82 51 83 53 84 52 85
REMARK H PARENT 38 5 27 10 18 17 10 22 22 31 34 39 34 40 35 41 35 42 61 48
REMARK H PARENT 5 61 65 68
REMARK Flexibility Score:  369.900
ROOT
ATOM      1  C   UNL     1      -9.142  -3.130  10.664  1.00  0.00     0.117 C 
ENDROOT
BRANCH   1   2
ATOM      2  N   UNL     1      -7.965  -3.245   9.801  1.00  0.00    -0.347 N 
ATOM      3  O   UNL     1      -8.889  -2.367   7.892  1.00  0.00    -0.273 OA
ATOM      4  C   UNL     1      -7.906  -2.769   8.506  1.00  0.00     0.243 C 
ATOM      5  H   UNL     1      -7.119  -3.650  10.172  1.00  0.00     0.164 HD
BRANCH   4   6
ATOM      6  C   UNL     1      -6.516  -2.940   7.842  1.00  0.00     0.171 C 
BRANCH   6   7
ATOM      7  N   UNL     1      -5.588  -3.619   8.760  1.00  0.00    -0.344 N 
ATOM      8  C   UNL     1      -4.975  -2.924   9.780  1.00  0.00     0.226 C 
ATOM      9  O   UNL     1      -5.149  -1.724   9.959  1.00  0.00    -0.275 OA
ATOM     10  H   UNL     1      -5.367  -4.594   8.602  1.00  0.00     0.164 HD
BRANCH   8  11
ATOM     11  C   UNL     1      -4.089  -3.775  10.673  1.00  0.00     0.109 C 
ATOM     12  C   UNL     1      -4.335  -5.258  10.397  1.00  0.00     0.021 C 
BRANCH  11  13
ATOM     13  C   UNL     1      -2.621  -3.325  10.533  1.00  0.00     0.204 C 
BRANCH  13  14
ATOM     14  N   UNL     1      -2.463  -1.884  10.754  1.00  0.00    -0.340 N 
ATOM     15  C   UNL     1      -1.926  -1.036   9.810  1.00  0.00     0.243 C 
ATOM     16  O   UNL     1      -1.597  -1.420   8.689  1.00  0.00    -0.273 OA
ATOM     17  H   UNL     1      -2.573  -1.530  11.708  1.00  0.00     0.164 HD
BRANCH  15  18
ATOM     18  C   UNL     1      -1.665   0.395  10.340  1.00  0.00     0.171 C 
BRANCH  18  19
ATOM     19  N   UNL     1      -0.246   0.462  10.685  1.00  0.00    -0.343 N 
ATOM     20  C   UNL     1       0.223   0.061  11.921  1.00  0.00     0.242 CG0
ATOM     21  O   UNL     1      -0.543  -0.243  12.832  1.00  0.00    -0.273 OA
ATOM     22  H   UNL     1       0.415   0.817  10.003  1.00  0.00     0.164 HD
ATOM     23  G   UNL     1       1.757   0.130  12.073  1.00  0.00     0.000 G0
ENDBRANCH  18  19
BRANCH  18  24
ATOM     24  C   UNL     1      -2.036   1.441   9.281  1.00  0.00     0.038 C 
BRANCH  24  25
ATOM     25  C   UNL     1      -2.364   2.840   9.844  1.00  0.00    -0.015 C 
ATOM     26  C   UNL     1      -1.181   3.803   9.745  1.00  0.00     0.007 C 
ATOM     27  C   UNL     1      -2.806   2.716  11.305  1.00  0.00     0.007 C 
ENDBRANCH  24  25
ENDBRANCH  18  24
ENDBRANCH  15  18
ENDBRANCH  13  14
BRANCH  13  28
ATOM     28  C   UNL     1      -1.676  -4.040  11.503  1.00  0.00     0.327 C 
ATOM     29  O   UNL     1      -1.826  -5.161  11.964  1.00  0.00    -0.250 OA
BRANCH  28  30
ATOM     30  O   UNL     1      -0.662  -3.258  11.926  1.00  0.00    -0.480 OA
ATOM     31  H   UNL     1      -0.975  -2.899  12.783  1.00  0.00     0.296 HD
ENDBRANCH  28  30
ENDBRANCH  13  28
ENDBRANCH  11  13
ENDBRANCH   8  11
ENDBRANCH   6   7
BRANCH   6  32
ATOM     32  C   UNL     1      -6.675  -3.733   6.540  1.00  0.00     0.037 C 
BRANCH  32  33
ATOM     33  C   UNL     1      -5.525  -3.471   5.558  1.00  0.00     0.026 C 
BRANCH  33  34
ATOM     34  C   UNL     1      -5.561  -4.408   4.350  1.00  0.00     0.146 C 
BRANCH  34  35
ATOM     35  N   UNL     1      -4.371  -5.247   4.370  1.00  0.00    -0.254 NA
ATOM     36  C   UNL     1      -4.050  -5.884   3.306  1.00  0.00     0.185 C 
ATOM     37  N   UNL     1      -2.953  -6.656   3.312  1.00  0.00    -0.370 N 
ATOM     38  N   UNL     1      -4.672  -5.903   2.113  1.00  0.00    -0.370 N 
ATOM     39  H   UNL     1      -2.423  -6.685   4.173  1.00  0.00     0.159 HD
ATOM     40  H   UNL     1      -2.541  -7.044   2.480  1.00  0.00     0.159 HD
ATOM     41  H   UNL     1      -4.399  -6.554   1.395  1.00  0.00     0.159 HD
ATOM     42  H   UNL     1      -5.521  -5.380   1.969  1.00  0.00     0.159 HD
ENDBRANCH  34  35
ENDBRANCH  33  34
ENDBRANCH  32  33
ENDBRANCH   6  32
ENDBRANCH   4   6
ENDBRANCH   1   2
BRANCH   1  43
ATOM     43  C   UNL     1     -10.091  -4.327  10.370  1.00  0.00     0.102 C 
ATOM     44  C   UNL     1     -11.551  -4.065  10.776  1.00  0.00     0.020 C 
BRANCH  43  45
ATOM     45  C   UNL     1      -9.516  -5.634  10.925  1.00  0.00     0.225 C 
ATOM     46  O   UNL     1      -8.705  -6.323  10.313  1.00  0.00    -0.275 OA
ATOM     47  N   UNL     1     -10.039  -6.047  12.129  1.00  0.00    -0.342 N 
ATOM     48  H   UNL     1     -10.583  -5.402  12.685  1.00  0.00     0.164 HD
BRANCH  47  49
ATOM     49  C   UNL     1      -9.558  -7.260  12.798  1.00  0.00     0.192 C 
BRANCH  49  50
ATOM     50  C   UNL     1     -10.655  -7.811  13.713  1.00  0.00     0.047 C 
BRANCH  50  51
ATOM     51  C   UNL     1     -11.032  -9.257  13.362  1.00  0.00     0.103 C 
BRANCH  51  52
ATOM     52  C   UNL     1     -11.823  -9.931  14.482  1.00  0.00     0.226 C 
ATOM     53  O   UNL     1     -11.232 -10.621  15.315  1.00  0.00    -0.275 OA
BRANCH  52  54
ATOM     54  N   UNL     1     -13.201  -9.651  14.533  1.00  0.00    -0.311 N 
ATOM     55  C   UNL     1     -14.092 -10.034  13.429  1.00  0.00     0.153 C 
BRANCH  54  56
ATOM     56  C   UNL     1     -13.776  -9.002  15.638  1.00  0.00     0.102 C 
ATOM     57  C   UNL     1     -13.751  -7.676  15.849  1.00  0.00     0.043 C 
BRANCH  56  58
ATOM     58  C   UNL     1     -14.532  -9.783  16.688  1.00  0.00     0.268 C 
ATOM     59  O   UNL     1     -15.643  -9.464  17.088  1.00  0.00    -0.268 OA
ATOM     60  N   UNL     1     -13.873 -10.918  17.095  1.00  0.00    -0.339 N 
ATOM     61  H   UNL     1     -12.950 -11.106  16.723  1.00  0.00     0.164 HD
BRANCH  60  62
ATOM     62  C   UNL     1     -14.454 -11.852  18.059  1.00  0.00     0.168 CG0
ATOM     63  C   UNL     1     -15.122 -13.024  17.351  1.00  0.00     0.041 C 
ATOM     64  G   UNL     1     -15.465 -11.107  18.955  1.00  0.00     0.000 G0
ENDBRANCH  60  62
ENDBRANCH  56  58
ENDBRANCH  54  56
ENDBRANCH  52  54
ENDBRANCH  51  52
ENDBRANCH  50  51
ENDBRANCH  49  50
BRANCH  49  65
ATOM     65  C   UNL     1      -8.293  -6.986  13.626  1.00  0.00     0.326 C 
ATOM     66  O   UNL     1      -7.370  -7.770  13.794  1.00  0.00    -0.250 OA
BRANCH  65  67
ATOM     67  O   UNL     1      -8.274  -5.786  14.247  1.00  0.00    -0.480 OA
ATOM     68  H   UNL     1      -9.215  -5.507  14.241  1.00  0.00     0.296 HD
ENDBRANCH  65  67
ENDBRANCH  49  65
ENDBRANCH  47  49
ENDBRANCH  43  45
ENDBRANCH   1  43
BRANCH   1  69
ATOM     69  C   UNL     1      -9.665  -1.717  10.480  1.00  0.00    -0.001 C 
ATOM     70  C   UNL     1      -9.259  -0.605  11.118  1.00  0.00     0.001 C 
BRANCH  70  71
ATOM     71  C   UNL     1      -9.757   0.757  10.916  1.00  0.00    -0.055 C 
ATOM     72  C   UNL     1      -9.047   1.571  10.107  1.00  0.00    -0.018 C 
ATOM     73  C   UNL     1     -11.030   1.150  11.619  1.00  0.00     0.044 C 
BRANCH  72  74
ATOM     74  C   UNL     1      -9.321   3.016   9.715  1.00  0.00     0.038 C 
ATOM     75  C   UNL     1      -9.170   3.108   8.192  1.00  0.00     0.015 C 
BRANCH  74  76
ATOM     76  C   UNL     1      -8.365   3.944  10.523  1.00  0.00     0.128 C 
BRANCH  76  77
ATOM     77  O   UNL     1      -8.923   4.213  11.820  1.00  0.00    -0.381 OA
ATOM     78  C   UNL     1      -7.961   4.222  12.865  1.00  0.00     0.195 C 
ENDBRANCH  76  77
BRANCH  76  79
ATOM     79  C   UNL     1      -6.904   3.434  10.593  1.00  0.00     0.068 C 
BRANCH  79  80
ATOM     80  C   UNL     1      -5.985   3.760   9.441  1.00  0.00    -0.045 A 
ATOM     81  C   UNL     1      -5.429   5.039   9.301  1.00  0.00     0.004 A 
ATOM     82  C   UNL     1      -5.694   2.789   8.471  1.00  0.00     0.004 A 
ATOM     83  C   UNL     1      -4.591   5.337   8.224  1.00  0.00     0.000 A 
ATOM     84  C   UNL     1      -4.857   3.089   7.394  1.00  0.00     0.000 A 
ATOM     85  C   UNL     1      -4.304   4.362   7.272  1.00  0.00     0.000 A 
ENDBRANCH  79  80
ENDBRANCH  76  79
ENDBRANCH  74  76
ENDBRANCH  72  74
ENDBRANCH  70  71
ENDBRANCH   1  69
TORSDOF 17
ENDMDL
MODEL 25
REMARK VINA RESULT:    -7.610      2.977      4.522
REMARK INTER + INTRA:         -28.546
REMARK INTER:                 -22.434
REMARK INTRA:                  -6.111
REMARK UNBOUND:                -5.809
REMARK SMILES C=C1C(=O)N[C@H](C)C(=O)N[C@@H](CC(C)C)C(=O)N[C@@H](C(=O)O)[C@H](C)C(=O)N[C@@H](CCCN=C(N)N)C(=O)N[C@@H](/C=C/C(C)=C/[C@H](C)[C@H](Cc2ccccc2)OC)[C@H](C)C(=O)N[C@@H](C(=O)O)CCC(=O)N1C
REMARK SMILES IDX 39 1 38 2 37 3 36 4 28 6 27 7 25 8 26 9 23 11 24 12 19 13
REMARK SMILES IDX 18 14 16 15 17 16 11 18 10 19 8 20 9 21 12 24 13 25 14 26
REMARK SMILES IDX 15 27 20 28 21 29 22 30 29 32 30 33 31 34 32 35 33 36 34 37
REMARK SMILES IDX 35 38 57 43 58 44 59 45 60 46 61 47 62 49 66 50 67 51 68 52
REMARK SMILES IDX 69 53 70 54 71 55 2 56 1 57 3 58 4 59 5 60 6 62 7 63 63 65
REMARK SMILES IDX 64 66 65 67 40 69 41 70 42 71 44 72 43 73 45 74 46 75 47 76
REMARK SMILES IDX 55 77 56 78 48 79 49 80 50 81 54 82 51 83 53 84 52 85
REMARK H PARENT 38 5 27 10 18 17 10 22 22 31 34 39 34 40 35 41 35 42 61 48
REMARK H PARENT 5 61 65 68
REMARK Flexibility Score:  369.900
ROOT
ATOM      1  C   UNL     1      -5.414  -5.832  10.894  1.00  0.00     0.117 C 
ENDROOT
BRANCH   1   2
ATOM      2  N   UNL     1      -4.983  -5.535   9.527  1.00  0.00    -0.347 N 
ATOM      3  O   UNL     1      -2.806  -6.234   9.727  1.00  0.00    -0.273 OA
ATOM      4  C   UNL     1      -3.734  -5.846   9.025  1.00  0.00     0.243 C 
ATOM      5  H   UNL     1      -5.639  -5.123   8.880  1.00  0.00     0.164 HD
BRANCH   4   6
ATOM      6  C   UNL     1      -3.563  -5.504   7.524  1.00  0.00     0.171 C 
BRANCH   6   7
ATOM      7  N   UNL     1      -3.297  -4.067   7.351  1.00  0.00    -0.344 N 
ATOM      8  C   UNL     1      -4.329  -3.185   7.111  1.00  0.00     0.226 C 
ATOM      9  O   UNL     1      -5.495  -3.546   7.009  1.00  0.00    -0.275 OA
ATOM     10  H   UNL     1      -2.339  -3.740   7.362  1.00  0.00     0.164 HD
BRANCH   8  11
ATOM     11  C   UNL     1      -3.899  -1.732   7.011  1.00  0.00     0.109 C 
ATOM     12  C   UNL     1      -4.297  -1.158   5.651  1.00  0.00     0.021 C 
BRANCH  11  13
ATOM     13  C   UNL     1      -4.430  -0.946   8.227  1.00  0.00     0.204 C 
BRANCH  13  14
ATOM     14  N   UNL     1      -3.456   0.033   8.719  1.00  0.00    -0.340 N 
ATOM     15  C   UNL     1      -2.650  -0.197   9.813  1.00  0.00     0.243 C 
ATOM     16  O   UNL     1      -2.649  -1.268  10.418  1.00  0.00    -0.273 OA
ATOM     17  H   UNL     1      -3.513   0.990   8.360  1.00  0.00     0.164 HD
BRANCH  15  18
ATOM     18  C   UNL     1      -1.856   1.051  10.270  1.00  0.00     0.171 C 
BRANCH  18  19
ATOM     19  N   UNL     1      -0.453   0.650  10.346  1.00  0.00    -0.343 N 
ATOM     20  C   UNL     1       0.186   0.459  11.557  1.00  0.00     0.242 CG0
ATOM     21  O   UNL     1      -0.355   0.746  12.622  1.00  0.00    -0.273 OA
ATOM     22  H   UNL     1       0.072   0.512   9.490  1.00  0.00     0.164 HD
ATOM     23  G   UNL     1       1.641  -0.039  11.437  1.00  0.00     0.000 G0
ENDBRANCH  18  19
BRANCH  18  24
ATOM     24  C   UNL     1      -2.056   2.210   9.287  1.00  0.00     0.038 C 
BRANCH  24  25
ATOM     25  C   UNL     1      -1.352   3.524   9.687  1.00  0.00    -0.015 C 
ATOM     26  C   UNL     1      -1.504   3.839  11.176  1.00  0.00     0.007 C 
ATOM     27  C   UNL     1      -1.910   4.682   8.856  1.00  0.00     0.007 C 
ENDBRANCH  24  25
ENDBRANCH  18  24
ENDBRANCH  15  18
ENDBRANCH  13  14
BRANCH  13  28
ATOM     28  C   UNL     1      -5.728  -0.188   7.935  1.00  0.00     0.327 C 
ATOM     29  O   UNL     1      -5.822   0.986   7.609  1.00  0.00    -0.250 OA
BRANCH  28  30
ATOM     30  O   UNL     1      -6.834  -0.917   8.186  1.00  0.00    -0.480 OA
ATOM     31  H   UNL     1      -6.769  -1.674   7.568  1.00  0.00     0.296 HD
ENDBRANCH  28  30
ENDBRANCH  13  28
ENDBRANCH  11  13
ENDBRANCH   8  11
ENDBRANCH   6   7
BRANCH   6  32
ATOM     32  C   UNL     1      -2.421  -6.345   6.943  1.00  0.00     0.037 C 
BRANCH  32  33
ATOM     33  C   UNL     1      -2.038  -5.901   5.524  1.00  0.00     0.026 C 
BRANCH  33  34
ATOM     34  C   UNL     1      -3.065  -6.336   4.477  1.00  0.00     0.146 C 
BRANCH  34  35
ATOM     35  N   UNL     1      -4.129  -5.344   4.422  1.00  0.00    -0.254 NA
ATOM     36  C   UNL     1      -4.801  -5.223   3.339  1.00  0.00     0.185 C 
ATOM     37  N   UNL     1      -5.788  -4.316   3.279  1.00  0.00    -0.370 N 
ATOM     38  N   UNL     1      -4.671  -5.900   2.184  1.00  0.00    -0.370 N 
ATOM     39  H   UNL     1      -5.956  -3.771   4.115  1.00  0.00     0.159 HD
ATOM     40  H   UNL     1      -6.466  -4.280   2.537  1.00  0.00     0.159 HD
ATOM     41  H   UNL     1      -5.168  -5.618   1.355  1.00  0.00     0.159 HD
ATOM     42  H   UNL     1      -3.957  -6.604   2.080  1.00  0.00     0.159 HD
ENDBRANCH  34  35
ENDBRANCH  33  34
ENDBRANCH  32  33
ENDBRANCH   6  32
ENDBRANCH   4   6
ENDBRANCH   1   2
BRANCH   1  43
ATOM     43  C   UNL     1      -6.714  -6.685  10.829  1.00  0.00     0.102 C 
ATOM     44  C   UNL     1      -7.811  -6.064   9.948  1.00  0.00     0.020 C 
BRANCH  43  45
ATOM     45  C   UNL     1      -7.189  -7.072  12.232  1.00  0.00     0.225 C 
ATOM     46  O   UNL     1      -6.548  -7.806  12.979  1.00  0.00    -0.275 OA
ATOM     47  N   UNL     1      -8.440  -6.618  12.580  1.00  0.00    -0.342 N 
ATOM     48  H   UNL     1      -8.884  -5.899  12.025  1.00  0.00     0.164 HD
BRANCH  47  49
ATOM     49  C   UNL     1      -9.010  -6.880  13.906  1.00  0.00     0.192 C 
BRANCH  49  50
ATOM     50  C   UNL     1     -10.527  -7.045  13.790  1.00  0.00     0.047 C 
BRANCH  50  51
ATOM     51  C   UNL     1     -11.059  -8.177  14.679  1.00  0.00     0.103 C 
BRANCH  51  52
ATOM     52  C   UNL     1     -11.879  -9.192  13.886  1.00  0.00     0.226 C 
ATOM     53  O   UNL     1     -11.720  -9.288  12.668  1.00  0.00    -0.275 OA
BRANCH  52  54
ATOM     54  N   UNL     1     -12.733 -10.027  14.631  1.00  0.00    -0.311 N 
ATOM     55  C   UNL     1     -12.200 -11.156  15.406  1.00  0.00     0.153 C 
BRANCH  54  56
ATOM     56  C   UNL     1     -14.121  -9.812  14.666  1.00  0.00     0.102 C 
ATOM     57  C   UNL     1     -14.710  -8.656  15.014  1.00  0.00     0.043 C 
BRANCH  56  58
ATOM     58  C   UNL     1     -15.085 -10.899  14.253  1.00  0.00     0.268 C 
ATOM     59  O   UNL     1     -15.873 -11.424  15.028  1.00  0.00    -0.268 OA
ATOM     60  N   UNL     1     -15.030 -11.188  12.911  1.00  0.00    -0.339 N 
ATOM     61  H   UNL     1     -14.341 -10.716  12.338  1.00  0.00     0.164 HD
BRANCH  60  62
ATOM     62  C   UNL     1     -15.921 -12.166  12.287  1.00  0.00     0.168 CG0
ATOM     63  C   UNL     1     -16.064 -11.901  10.794  1.00  0.00     0.041 C 
ATOM     64  G   UNL     1     -17.298 -12.128  12.983  1.00  0.00     0.000 G0
ENDBRANCH  60  62
ENDBRANCH  56  58
ENDBRANCH  54  56
ENDBRANCH  52  54
ENDBRANCH  51  52
ENDBRANCH  50  51
ENDBRANCH  49  50
BRANCH  49  65
ATOM     65  C   UNL     1      -8.695  -5.745  14.893  1.00  0.00     0.326 C 
ATOM     66  O   UNL     1      -8.522  -4.572  14.595  1.00  0.00    -0.250 OA
BRANCH  65  67
ATOM     67  O   UNL     1      -8.553  -6.139  16.178  1.00  0.00    -0.480 OA
ATOM     68  H   UNL     1      -8.385  -5.300  16.659  1.00  0.00     0.296 HD
ENDBRANCH  65  67
ENDBRANCH  49  65
ENDBRANCH  47  49
ENDBRANCH  43  45
ENDBRANCH   1  43
BRANCH   1  69
ATOM     69  C   UNL     1      -5.445  -4.504  11.627  1.00  0.00    -0.001 C 
ATOM     70  C   UNL     1      -6.392  -3.551  11.552  1.00  0.00     0.001 C 
BRANCH  70  71
ATOM     71  C   UNL     1      -6.422  -2.282  12.281  1.00  0.00    -0.055 C 
ATOM     72  C   UNL     1      -7.577  -1.585  12.281  1.00  0.00    -0.018 C 
ATOM     73  C   UNL     1      -5.163  -1.847  12.986  1.00  0.00     0.044 C 
BRANCH  72  74
ATOM     74  C   UNL     1      -7.900  -0.254  12.946  1.00  0.00     0.038 C 
ATOM     75  C   UNL     1      -9.241  -0.423  13.670  1.00  0.00     0.015 C 
BRANCH  74  76
ATOM     76  C   UNL     1      -7.879   0.865  11.863  1.00  0.00     0.128 C 
BRANCH  76  77
ATOM     77  O   UNL     1      -9.211   1.105  11.380  1.00  0.00    -0.381 OA
ATOM     78  C   UNL     1      -9.375   0.823   9.996  1.00  0.00     0.195 C 
ENDBRANCH  76  77
BRANCH  76  79
ATOM     79  C   UNL     1      -7.161   2.163  12.314  1.00  0.00     0.068 C 
BRANCH  79  80
ATOM     80  C   UNL     1      -6.809   3.179  11.255  1.00  0.00    -0.045 A 
ATOM     81  C   UNL     1      -7.619   4.301  11.033  1.00  0.00     0.004 A 
ATOM     82  C   UNL     1      -5.671   3.000  10.453  1.00  0.00     0.004 A 
ATOM     83  C   UNL     1      -7.294   5.230  10.042  1.00  0.00     0.000 A 
ATOM     84  C   UNL     1      -5.348   3.929   9.462  1.00  0.00     0.000 A 
ATOM     85  C   UNL     1      -6.157   5.044   9.258  1.00  0.00     0.000 A 
ENDBRANCH  79  80
ENDBRANCH  76  79
ENDBRANCH  74  76
ENDBRANCH  72  74
ENDBRANCH  70  71
ENDBRANCH   1  69
TORSDOF 17
ENDMDL
MODEL 26
REMARK VINA RESULT:    -7.598      3.055      4.236
REMARK INTER + INTRA:         -28.510
REMARK INTER:                 -20.351
REMARK INTRA:                  -8.159
REMARK UNBOUND:                -5.809
REMARK SMILES C=C1C(=O)N[C@H](C)C(=O)N[C@@H](CC(C)C)C(=O)N[C@@H](C(=O)O)[C@H](C)C(=O)N[C@@H](CCCN=C(N)N)C(=O)N[C@@H](/C=C/C(C)=C/[C@H](C)[C@H](Cc2ccccc2)OC)[C@H](C)C(=O)N[C@@H](C(=O)O)CCC(=O)N1C
REMARK SMILES IDX 39 1 38 2 37 3 36 4 28 6 27 7 25 8 26 9 23 11 24 12 19 13
REMARK SMILES IDX 18 14 16 15 17 16 11 18 10 19 8 20 9 21 12 24 13 25 14 26
REMARK SMILES IDX 15 27 20 28 21 29 22 30 29 32 30 33 31 34 32 35 33 36 34 37
REMARK SMILES IDX 35 38 57 43 58 44 59 45 60 46 61 47 62 49 66 50 67 51 68 52
REMARK SMILES IDX 69 53 70 54 71 55 2 56 1 57 3 58 4 59 5 60 6 62 7 63 63 65
REMARK SMILES IDX 64 66 65 67 40 69 41 70 42 71 44 72 43 73 45 74 46 75 47 76
REMARK SMILES IDX 55 77 56 78 48 79 49 80 50 81 54 82 51 83 53 84 52 85
REMARK H PARENT 38 5 27 10 18 17 10 22 22 31 34 39 34 40 35 41 35 42 61 48
REMARK H PARENT 5 61 65 68
REMARK Flexibility Score:  369.900
ROOT
ATOM      1  C   UNL     1      -9.209  -3.178  11.796  1.00  0.00     0.117 C 
ENDROOT
BRANCH   1   2
ATOM      2  N   UNL     1      -7.831  -2.765  11.529  1.00  0.00    -0.347 N 
ATOM      3  O   UNL     1      -6.932  -3.344  13.561  1.00  0.00    -0.273 OA
ATOM      4  C   UNL     1      -6.780  -2.966  12.404  1.00  0.00     0.243 C 
ATOM      5  H   UNL     1      -7.602  -2.350  10.639  1.00  0.00     0.164 HD
BRANCH   4   6
ATOM      6  C   UNL     1      -5.408  -2.514  11.844  1.00  0.00     0.171 C 
BRANCH   6   7
ATOM      7  N   UNL     1      -5.589  -1.722  10.617  1.00  0.00    -0.344 N 
ATOM      8  C   UNL     1      -4.829  -1.979   9.496  1.00  0.00     0.226 C 
ATOM      9  O   UNL     1      -3.965  -2.848   9.469  1.00  0.00    -0.275 OA
ATOM     10  H   UNL     1      -6.246  -0.952  10.622  1.00  0.00     0.164 HD
BRANCH   8  11
ATOM     11  C   UNL     1      -5.172  -1.114   8.296  1.00  0.00     0.109 C 
ATOM     12  C   UNL     1      -6.289  -1.765   7.480  1.00  0.00     0.021 C 
BRANCH  11  13
ATOM     13  C   UNL     1      -5.463   0.328   8.758  1.00  0.00     0.204 C 
BRANCH  13  14
ATOM     14  N   UNL     1      -4.233   1.099   8.967  1.00  0.00    -0.340 N 
ATOM     15  C   UNL     1      -3.796   1.486  10.214  1.00  0.00     0.243 C 
ATOM     16  O   UNL     1      -4.375   1.159  11.249  1.00  0.00    -0.273 OA
ATOM     17  H   UNL     1      -3.792   1.528   8.149  1.00  0.00     0.164 HD
BRANCH  15  18
ATOM     18  C   UNL     1      -2.595   2.463  10.173  1.00  0.00     0.171 C 
BRANCH  18  19
ATOM     19  N   UNL     1      -1.408   1.683  10.516  1.00  0.00    -0.343 N 
ATOM     20  C   UNL     1      -0.683   1.926  11.666  1.00  0.00     0.242 CG0
ATOM     21  O   UNL     1      -0.923   2.893  12.386  1.00  0.00    -0.273 OA
ATOM     22  H   UNL     1      -1.100   0.946   9.892  1.00  0.00     0.164 HD
ATOM     23  G   UNL     1       0.490   0.951  11.898  1.00  0.00     0.000 G0
ENDBRANCH  18  19
BRANCH  18  24
ATOM     24  C   UNL     1      -2.466   3.104   8.785  1.00  0.00     0.038 C 
BRANCH  24  25
ATOM     25  C   UNL     1      -2.418   4.646   8.789  1.00  0.00    -0.015 C 
ATOM     26  C   UNL     1      -2.749   5.245   7.422  1.00  0.00     0.007 C 
ATOM     27  C   UNL     1      -1.032   5.117   9.237  1.00  0.00     0.007 C 
ENDBRANCH  24  25
ENDBRANCH  18  24
ENDBRANCH  15  18
ENDBRANCH  13  14
BRANCH  13  28
ATOM     28  C   UNL     1      -6.330   1.115   7.771  1.00  0.00     0.327 C 
ATOM     29  O   UNL     1      -7.543   1.249   7.823  1.00  0.00    -0.250 OA
BRANCH  28  30
ATOM     30  O   UNL     1      -5.636   1.584   6.715  1.00  0.00    -0.480 OA
ATOM     31  H   UNL     1      -4.958   0.897   6.547  1.00  0.00     0.296 HD
ENDBRANCH  28  30
ENDBRANCH  13  28
ENDBRANCH  11  13
ENDBRANCH   8  11
ENDBRANCH   6   7
BRANCH   6  32
ATOM     32  C   UNL     1      -4.670  -1.703  12.915  1.00  0.00     0.037 C 
BRANCH  32  33
ATOM     33  C   UNL     1      -3.406  -2.417  13.414  1.00  0.00     0.026 C 
BRANCH  33  34
ATOM     34  C   UNL     1      -2.137  -1.598  13.174  1.00  0.00     0.146 C 
BRANCH  34  35
ATOM     35  N   UNL     1      -2.002  -1.349  11.745  1.00  0.00    -0.254 NA
ATOM     36  C   UNL     1      -1.082  -1.963  11.099  1.00  0.00     0.185 C 
ATOM     37  N   UNL     1      -0.952  -1.745   9.781  1.00  0.00    -0.370 N 
ATOM     38  N   UNL     1      -0.174  -2.844  11.554  1.00  0.00    -0.370 N 
ATOM     39  H   UNL     1      -1.608  -1.100   9.361  1.00  0.00     0.159 HD
ATOM     40  H   UNL     1      -0.379  -2.310   9.178  1.00  0.00     0.159 HD
ATOM     41  H   UNL     1       0.588  -3.153  10.974  1.00  0.00     0.159 HD
ATOM     42  H   UNL     1      -0.144  -3.091  12.531  1.00  0.00     0.159 HD
ENDBRANCH  34  35
ENDBRANCH  33  34
ENDBRANCH  32  33
ENDBRANCH   6  32
ENDBRANCH   4   6
ENDBRANCH   1   2
BRANCH   1  43
ATOM     43  C   UNL     1      -9.577  -4.333  10.821  1.00  0.00     0.102 C 
ATOM     44  C   UNL     1     -11.017  -4.250  10.289  1.00  0.00     0.020 C 
BRANCH  43  45
ATOM     45  C   UNL     1      -9.214  -5.695  11.420  1.00  0.00     0.225 C 
ATOM     46  O   UNL     1      -8.860  -6.655  10.741  1.00  0.00    -0.275 OA
ATOM     47  N   UNL     1      -9.400  -5.813  12.779  1.00  0.00    -0.342 N 
ATOM     48  H   UNL     1      -9.543  -4.984  13.338  1.00  0.00     0.164 HD
BRANCH  47  49
ATOM     49  C   UNL     1      -9.062  -7.047  13.494  1.00  0.00     0.192 C 
BRANCH  49  50
ATOM     50  C   UNL     1      -9.724  -7.040  14.874  1.00  0.00     0.047 C 
BRANCH  50  51
ATOM     51  C   UNL     1     -11.212  -6.671  14.804  1.00  0.00     0.103 C 
BRANCH  51  52
ATOM     52  C   UNL     1     -12.111  -7.906  14.835  1.00  0.00     0.226 C 
ATOM     53  O   UNL     1     -12.298  -8.550  13.801  1.00  0.00    -0.275 OA
BRANCH  52  54
ATOM     54  N   UNL     1     -12.620  -8.279  16.092  1.00  0.00    -0.311 N 
ATOM     55  C   UNL     1     -12.871  -7.276  17.135  1.00  0.00     0.153 C 
BRANCH  54  56
ATOM     56  C   UNL     1     -12.911  -9.620  16.396  1.00  0.00     0.102 C 
ATOM     57  C   UNL     1     -12.169 -10.406  17.193  1.00  0.00     0.043 C 
BRANCH  56  58
ATOM     58  C   UNL     1     -14.157 -10.283  15.858  1.00  0.00     0.268 C 
ATOM     59  O   UNL     1     -15.285 -10.001  16.242  1.00  0.00    -0.268 OA
ATOM     60  N   UNL     1     -13.899 -11.183  14.851  1.00  0.00    -0.339 N 
ATOM     61  H   UNL     1     -12.936 -11.368  14.599  1.00  0.00     0.164 HD
BRANCH  60  62
ATOM     62  C   UNL     1     -14.967 -11.892  14.147  1.00  0.00     0.168 CG0
ATOM     63  C   UNL     1     -15.311 -11.198  12.835  1.00  0.00     0.041 C 
ATOM     64  G   UNL     1     -16.210 -11.988  15.056  1.00  0.00     0.000 G0
ENDBRANCH  60  62
ENDBRANCH  56  58
ENDBRANCH  54  56
ENDBRANCH  52  54
ENDBRANCH  51  52
ENDBRANCH  50  51
ENDBRANCH  49  50
BRANCH  49  65
ATOM     65  C   UNL     1      -7.542  -7.207  13.660  1.00  0.00     0.326 C 
ATOM     66  O   UNL     1      -6.897  -8.204  13.368  1.00  0.00    -0.250 OA
BRANCH  65  67
ATOM     67  O   UNL     1      -6.923  -6.151  14.231  1.00  0.00    -0.480 OA
ATOM     68  H   UNL     1      -6.232  -5.908  13.578  1.00  0.00     0.296 HD
ENDBRANCH  65  67
ENDBRANCH  49  65
ENDBRANCH  47  49
ENDBRANCH  43  45
ENDBRANCH   1  43
BRANCH   1  69
ATOM     69  C   UNL     1     -10.043  -1.910  11.778  1.00  0.00    -0.001 C 
ATOM     70  C   UNL     1      -9.679  -0.699  11.320  1.00  0.00     0.001 C 
BRANCH  70  71
ATOM     71  C   UNL     1     -10.500   0.513  11.288  1.00  0.00    -0.055 C 
ATOM     72  C   UNL     1      -9.921   1.652  10.854  1.00  0.00    -0.018 C 
ATOM     73  C   UNL     1     -11.934   0.401  11.735  1.00  0.00     0.044 C 
BRANCH  72  74
ATOM     74  C   UNL     1     -10.521   3.044  10.712  1.00  0.00     0.038 C 
ATOM     75  C   UNL     1     -10.097   3.581   9.339  1.00  0.00     0.015 C 
BRANCH  74  76
ATOM     76  C   UNL     1     -10.066   3.911  11.922  1.00  0.00     0.128 C 
BRANCH  76  77
ATOM     77  O   UNL     1     -10.843   3.578  13.085  1.00  0.00    -0.381 OA
ATOM     78  C   UNL     1     -10.066   3.093  14.171  1.00  0.00     0.195 C 
ENDBRANCH  76  77
BRANCH  76  79
ATOM     79  C   UNL     1      -8.540   3.869  12.188  1.00  0.00     0.068 C 
BRANCH  79  80
ATOM     80  C   UNL     1      -7.629   4.541  11.190  1.00  0.00    -0.045 A 
ATOM     81  C   UNL     1      -7.672   5.927  10.992  1.00  0.00     0.004 A 
ATOM     82  C   UNL     1      -6.739   3.777  10.419  1.00  0.00     0.004 A 
ATOM     83  C   UNL     1      -6.835   6.539  10.056  1.00  0.00     0.000 A 
ATOM     84  C   UNL     1      -5.904   4.390   9.483  1.00  0.00     0.000 A 
ATOM     85  C   UNL     1      -5.951   5.771   9.303  1.00  0.00     0.000 A 
ENDBRANCH  79  80
ENDBRANCH  76  79
ENDBRANCH  74  76
ENDBRANCH  72  74
ENDBRANCH  70  71
ENDBRANCH   1  69
TORSDOF 17
ENDMDL
MODEL 27
REMARK VINA RESULT:    -7.592      3.575     13.930
REMARK INTER + INTRA:         -28.490
REMARK INTER:                 -22.800
REMARK INTRA:                  -5.690
REMARK UNBOUND:                -5.809
REMARK SMILES C=C1C(=O)N[C@H](C)C(=O)N[C@@H](CC(C)C)C(=O)N[C@@H](C(=O)O)[C@H](C)C(=O)N[C@@H](CCCN=C(N)N)C(=O)N[C@@H](/C=C/C(C)=C/[C@H](C)[C@H](Cc2ccccc2)OC)[C@H](C)C(=O)N[C@@H](C(=O)O)CCC(=O)N1C
REMARK SMILES IDX 39 1 38 2 37 3 36 4 28 6 27 7 25 8 26 9 23 11 24 12 19 13
REMARK SMILES IDX 18 14 16 15 17 16 11 18 10 19 8 20 9 21 12 24 13 25 14 26
REMARK SMILES IDX 15 27 20 28 21 29 22 30 29 32 30 33 31 34 32 35 33 36 34 37
REMARK SMILES IDX 35 38 57 43 58 44 59 45 60 46 61 47 62 49 66 50 67 51 68 52
REMARK SMILES IDX 69 53 70 54 71 55 2 56 1 57 3 58 4 59 5 60 6 62 7 63 63 65
REMARK SMILES IDX 64 66 65 67 40 69 41 70 42 71 44 72 43 73 45 74 46 75 47 76
REMARK SMILES IDX 55 77 56 78 48 79 49 80 50 81 54 82 51 83 53 84 52 85
REMARK H PARENT 38 5 27 10 18 17 10 22 22 31 34 39 34 40 35 41 35 42 61 48
REMARK H PARENT 5 61 65 68
REMARK Flexibility Score:  369.900
ROOT
ATOM      1  C   UNL     1      -8.355   0.795   9.862  1.00  0.00     0.117 C 
ENDROOT
BRANCH   1   2
ATOM      2  N   UNL     1      -9.483  -0.127  10.004  1.00  0.00    -0.347 N 
ATOM      3  O   UNL     1      -8.712  -1.285  11.831  1.00  0.00    -0.273 OA
ATOM      4  C   UNL     1      -9.613  -1.036  11.037  1.00  0.00     0.243 C 
ATOM      5  H   UNL     1     -10.246  -0.079   9.347  1.00  0.00     0.164 HD
BRANCH   4   6
ATOM      6  C   UNL     1     -10.942  -1.832  11.002  1.00  0.00     0.171 C 
BRANCH   6   7
ATOM      7  N   UNL     1     -11.205  -2.453  12.310  1.00  0.00    -0.344 N 
ATOM      8  C   UNL     1     -11.706  -3.734  12.392  1.00  0.00     0.226 C 
ATOM      9  O   UNL     1     -11.977  -4.402  11.401  1.00  0.00    -0.275 OA
ATOM     10  H   UNL     1     -11.057  -1.908  13.150  1.00  0.00     0.164 HD
BRANCH   8  11
ATOM     11  C   UNL     1     -11.870  -4.252  13.810  1.00  0.00     0.109 C 
ATOM     12  C   UNL     1     -11.445  -3.180  14.814  1.00  0.00     0.021 C 
BRANCH  11  13
ATOM     13  C   UNL     1     -13.301  -4.793  14.005  1.00  0.00     0.204 C 
BRANCH  13  14
ATOM     14  N   UNL     1     -13.433  -5.566  15.244  1.00  0.00    -0.340 N 
ATOM     15  C   UNL     1     -13.131  -6.908  15.324  1.00  0.00     0.243 C 
ATOM     16  O   UNL     1     -12.669  -7.539  14.375  1.00  0.00    -0.273 OA
ATOM     17  H   UNL     1     -13.950  -5.145  16.020  1.00  0.00     0.164 HD
BRANCH  15  18
ATOM     18  C   UNL     1     -13.545  -7.556  16.668  1.00  0.00     0.171 C 
BRANCH  18  19
ATOM     19  N   UNL     1     -12.345  -8.187  17.216  1.00  0.00    -0.343 N 
ATOM     20  C   UNL     1     -12.291  -9.542  17.481  1.00  0.00     0.242 CG0
ATOM     21  O   UNL     1     -13.289 -10.255  17.396  1.00  0.00    -0.273 OA
ATOM     22  H   UNL     1     -11.530  -7.619  17.414  1.00  0.00     0.164 HD
ATOM     23  G   UNL     1     -10.919 -10.039  17.980  1.00  0.00     0.000 G0
ENDBRANCH  18  19
BRANCH  18  24
ATOM     24  C   UNL     1     -14.112  -6.501  17.626  1.00  0.00     0.038 C 
BRANCH  24  25
ATOM     25  C   UNL     1     -15.179  -7.030  18.608  1.00  0.00    -0.015 C 
ATOM     26  C   UNL     1     -14.571  -7.534  19.917  1.00  0.00     0.007 C 
ATOM     27  C   UNL     1     -15.978  -8.154  17.944  1.00  0.00     0.007 C 
ENDBRANCH  24  25
ENDBRANCH  18  24
ENDBRANCH  15  18
ENDBRANCH  13  14
BRANCH  13  28
ATOM     28  C   UNL     1     -14.363  -3.690  14.043  1.00  0.00     0.327 C 
ATOM     29  O   UNL     1     -14.290  -2.636  14.656  1.00  0.00    -0.250 OA
BRANCH  28  30
ATOM     30  O   UNL     1     -15.501  -4.031  13.405  1.00  0.00    -0.480 OA
ATOM     31  H   UNL     1     -16.142  -3.338  13.667  1.00  0.00     0.296 HD
ENDBRANCH  28  30
ENDBRANCH  13  28
ENDBRANCH  11  13
ENDBRANCH   8  11
ENDBRANCH   6   7
BRANCH   6  32
ATOM     32  C   UNL     1     -12.084  -0.889  10.605  1.00  0.00     0.037 C 
BRANCH  32  33
ATOM     33  C   UNL     1     -12.656  -0.132  11.811  1.00  0.00     0.026 C 
BRANCH  33  34
ATOM     34  C   UNL     1     -12.284   1.351  11.801  1.00  0.00     0.146 C 
BRANCH  34  35
ATOM     35  N   UNL     1     -11.026   1.525  12.514  1.00  0.00    -0.254 NA
ATOM     36  C   UNL     1     -10.866   2.574  13.231  1.00  0.00     0.185 C 
ATOM     37  N   UNL     1      -9.712   2.742  13.896  1.00  0.00    -0.370 N 
ATOM     38  N   UNL     1     -11.717   3.594  13.437  1.00  0.00    -0.370 N 
ATOM     39  H   UNL     1      -9.021   2.009  13.799  1.00  0.00     0.159 HD
ATOM     40  H   UNL     1      -9.577   3.440  14.607  1.00  0.00     0.159 HD
ATOM     41  H   UNL     1     -11.422   4.432  13.912  1.00  0.00     0.159 HD
ATOM     42  H   UNL     1     -12.619   3.609  12.986  1.00  0.00     0.159 HD
ENDBRANCH  34  35
ENDBRANCH  33  34
ENDBRANCH  32  33
ENDBRANCH   6  32
ENDBRANCH   4   6
ENDBRANCH   1   2
BRANCH   1  43
ATOM     43  C   UNL     1      -8.894   2.160   9.344  1.00  0.00     0.102 C 
ATOM     44  C   UNL     1      -8.633   2.392   7.846  1.00  0.00     0.020 C 
BRANCH  43  45
ATOM     45  C   UNL     1      -8.429   3.310  10.241  1.00  0.00     0.225 C 
ATOM     46  O   UNL     1      -8.072   3.151  11.405  1.00  0.00    -0.275 OA
ATOM     47  N   UNL     1      -8.525   4.568   9.690  1.00  0.00    -0.342 N 
ATOM     48  H   UNL     1      -8.672   4.667   8.695  1.00  0.00     0.164 HD
BRANCH  47  49
ATOM     49  C   UNL     1      -8.083   5.760  10.419  1.00  0.00     0.192 C 
BRANCH  49  50
ATOM     50  C   UNL     1      -6.555   5.767  10.517  1.00  0.00     0.047 C 
BRANCH  50  51
ATOM     51  C   UNL     1      -5.884   5.500   9.163  1.00  0.00     0.103 C 
BRANCH  51  52
ATOM     52  C   UNL     1      -4.985   4.266   9.202  1.00  0.00     0.226 C 
ATOM     53  O   UNL     1      -5.052   3.492  10.158  1.00  0.00    -0.275 OA
BRANCH  52  54
ATOM     54  N   UNL     1      -4.169   4.049   8.076  1.00  0.00    -0.311 N 
ATOM     55  C   UNL     1      -4.454   2.957   7.135  1.00  0.00     0.153 C 
BRANCH  54  56
ATOM     56  C   UNL     1      -3.060   4.868   7.806  1.00  0.00     0.102 C 
ATOM     57  C   UNL     1      -1.958   4.944   8.568  1.00  0.00     0.043 C 
BRANCH  56  58
ATOM     58  C   UNL     1      -3.013   5.722   6.561  1.00  0.00     0.268 C 
ATOM     59  O   UNL     1      -3.936   5.791   5.760  1.00  0.00    -0.268 OA
ATOM     60  N   UNL     1      -1.859   6.461   6.456  1.00  0.00    -0.339 N 
ATOM     61  H   UNL     1      -1.137   6.339   7.157  1.00  0.00     0.164 HD
BRANCH  60  62
ATOM     62  C   UNL     1      -1.633   7.403   5.360  1.00  0.00     0.168 CG0
ATOM     63  C   UNL     1      -0.639   6.839   4.352  1.00  0.00     0.041 C 
ATOM     64  G   UNL     1      -1.132   8.746   5.928  1.00  0.00     0.000 G0
ENDBRANCH  60  62
ENDBRANCH  56  58
ENDBRANCH  54  56
ENDBRANCH  52  54
ENDBRANCH  51  52
ENDBRANCH  50  51
ENDBRANCH  49  50
BRANCH  49  65
ATOM     65  C   UNL     1      -8.684   5.814  11.833  1.00  0.00     0.326 C 
ATOM     66  O   UNL     1      -8.048   5.929  12.871  1.00  0.00    -0.250 OA
BRANCH  65  67
ATOM     67  O   UNL     1     -10.026   5.663  11.881  1.00  0.00    -0.480 OA
ATOM     68  H   UNL     1     -10.156   4.973  12.567  1.00  0.00     0.296 HD
ENDBRANCH  65  67
ENDBRANCH  49  65
ENDBRANCH  47  49
ENDBRANCH  43  45
ENDBRANCH   1  43
BRANCH   1  69
ATOM     69  C   UNL     1      -7.309   0.061   9.043  1.00  0.00    -0.001 C 
ATOM     70  C   UNL     1      -5.974   0.092   9.207  1.00  0.00     0.001 C 
BRANCH  70  71
ATOM     71  C   UNL     1      -4.975  -0.637   8.424  1.00  0.00    -0.055 C 
ATOM     72  C   UNL     1      -5.298  -0.983   7.160  1.00  0.00    -0.018 C 
ATOM     73  C   UNL     1      -3.654  -0.943   9.081  1.00  0.00     0.044 C 
BRANCH  72  74
ATOM     74  C   UNL     1      -4.471  -1.732   6.125  1.00  0.00     0.038 C 
ATOM     75  C   UNL     1      -3.921  -0.689   5.144  1.00  0.00     0.015 C 
BRANCH  74  76
ATOM     76  C   UNL     1      -5.359  -2.834   5.476  1.00  0.00     0.128 C 
BRANCH  76  77
ATOM     77  O   UNL     1      -4.634  -3.492   4.423  1.00  0.00    -0.381 OA
ATOM     78  C   UNL     1      -5.414  -4.426   3.689  1.00  0.00     0.195 C 
ENDBRANCH  76  77
BRANCH  76  79
ATOM     79  C   UNL     1      -5.971  -3.829   6.494  1.00  0.00     0.068 C 
BRANCH  79  80
ATOM     80  C   UNL     1      -5.039  -4.502   7.473  1.00  0.00    -0.045 A 
ATOM     81  C   UNL     1      -5.201  -4.337   8.855  1.00  0.00     0.004 A 
ATOM     82  C   UNL     1      -3.972  -5.287   7.008  1.00  0.00     0.004 A 
ATOM     83  C   UNL     1      -4.326  -4.951   9.753  1.00  0.00     0.000 A 
ATOM     84  C   UNL     1      -3.098  -5.901   7.908  1.00  0.00     0.000 A 
ATOM     85  C   UNL     1      -3.276  -5.734   9.279  1.00  0.00     0.000 A 
ENDBRANCH  79  80
ENDBRANCH  76  79
ENDBRANCH  74  76
ENDBRANCH  72  74
ENDBRANCH  70  71
ENDBRANCH   1  69
TORSDOF 17
ENDMDL
MODEL 28
REMARK VINA RESULT:    -7.588      2.770     11.661
REMARK INTER + INTRA:         -28.479
REMARK INTER:                 -21.296
REMARK INTRA:                  -7.183
REMARK UNBOUND:                -5.809
REMARK SMILES C=C1C(=O)N[C@H](C)C(=O)N[C@@H](CC(C)C)C(=O)N[C@@H](C(=O)O)[C@H](C)C(=O)N[C@@H](CCCN=C(N)N)C(=O)N[C@@H](/C=C/C(C)=C/[C@H](C)[C@H](Cc2ccccc2)OC)[C@H](C)C(=O)N[C@@H](C(=O)O)CCC(=O)N1C
REMARK SMILES IDX 39 1 38 2 37 3 36 4 28 6 27 7 25 8 26 9 23 11 24 12 19 13
REMARK SMILES IDX 18 14 16 15 17 16 11 18 10 19 8 20 9 21 12 24 13 25 14 26
REMARK SMILES IDX 15 27 20 28 21 29 22 30 29 32 30 33 31 34 32 35 33 36 34 37
REMARK SMILES IDX 35 38 57 43 58 44 59 45 60 46 61 47 62 49 66 50 67 51 68 52
REMARK SMILES IDX 69 53 70 54 71 55 2 56 1 57 3 58 4 59 5 60 6 62 7 63 63 65
REMARK SMILES IDX 64 66 65 67 40 69 41 70 42 71 44 72 43 73 45 74 46 75 47 76
REMARK SMILES IDX 55 77 56 78 48 79 49 80 50 81 54 82 51 83 53 84 52 85
REMARK H PARENT 38 5 27 10 18 17 10 22 22 31 34 39 34 40 35 41 35 42 61 48
REMARK H PARENT 5 61 65 68
REMARK Flexibility Score:  369.900
ROOT
ATOM      1  C   UNL     1     -11.714  -2.470  12.091  1.00  0.00     0.117 C 
ENDROOT
BRANCH   1   2
ATOM      2  N   UNL     1     -10.705  -3.138  12.914  1.00  0.00    -0.347 N 
ATOM      3  O   UNL     1     -11.909  -5.026  13.416  1.00  0.00    -0.273 OA
ATOM      4  C   UNL     1     -10.850  -4.408  13.437  1.00  0.00     0.243 C 
ATOM      5  H   UNL     1      -9.821  -2.680  13.081  1.00  0.00     0.164 HD
BRANCH   4   6
ATOM      6  C   UNL     1      -9.599  -4.916  14.198  1.00  0.00     0.171 C 
BRANCH   6   7
ATOM      7  N   UNL     1      -9.117  -6.177  13.612  1.00  0.00    -0.344 N 
ATOM      8  C   UNL     1      -9.337  -7.378  14.250  1.00  0.00     0.226 C 
ATOM      9  O   UNL     1      -9.914  -7.457  15.329  1.00  0.00    -0.275 OA
ATOM     10  H   UNL     1      -8.578  -6.145  12.756  1.00  0.00     0.164 HD
BRANCH   8  11
ATOM     11  C   UNL     1      -8.828  -8.592  13.493  1.00  0.00     0.109 C 
ATOM     12  C   UNL     1      -7.300  -8.578  13.444  1.00  0.00     0.021 C 
BRANCH  11  13
ATOM     13  C   UNL     1      -9.445  -9.874  14.086  1.00  0.00     0.204 C 
BRANCH  13  14
ATOM     14  N   UNL     1     -10.906  -9.890  13.962  1.00  0.00    -0.340 N 
ATOM     15  C   UNL     1     -11.737 -10.342  14.964  1.00  0.00     0.243 C 
ATOM     16  O   UNL     1     -11.313 -10.708  16.059  1.00  0.00    -0.273 OA
ATOM     17  H   UNL     1     -11.311  -9.745  13.033  1.00  0.00     0.164 HD
BRANCH  15  18
ATOM     18  C   UNL     1     -13.219 -10.461  14.533  1.00  0.00     0.171 C 
BRANCH  18  19
ATOM     19  N   UNL     1     -13.759 -11.640  15.207  1.00  0.00    -0.343 N 
ATOM     20  C   UNL     1     -14.748 -12.417  14.636  1.00  0.00     0.242 CG0
ATOM     21  O   UNL     1     -15.314 -12.079  13.599  1.00  0.00    -0.273 OA
ATOM     22  H   UNL     1     -13.404 -11.896  16.121  1.00  0.00     0.164 HD
ATOM     23  G   UNL     1     -15.134 -13.664  15.460  1.00  0.00     0.000 G0
ENDBRANCH  18  19
BRANCH  18  24
ATOM     24  C   UNL     1     -13.996  -9.194  14.909  1.00  0.00     0.038 C 
BRANCH  24  25
ATOM     25  C   UNL     1     -14.403  -9.105  16.396  1.00  0.00    -0.015 C 
ATOM     26  C   UNL     1     -15.920  -9.091  16.587  1.00  0.00     0.007 C 
ATOM     27  C   UNL     1     -13.792  -7.850  17.023  1.00  0.00     0.007 C 
ENDBRANCH  24  25
ENDBRANCH  18  24
ENDBRANCH  15  18
ENDBRANCH  13  14
BRANCH  13  28
ATOM     28  C   UNL     1      -8.920 -11.155  13.432  1.00  0.00     0.327 C 
ATOM     29  O   UNL     1      -9.167 -11.543  12.300  1.00  0.00    -0.250 OA
BRANCH  28  30
ATOM     30  O   UNL     1      -8.213 -11.930  14.279  1.00  0.00    -0.480 OA
ATOM     31  H   UNL     1      -8.765 -12.732  14.390  1.00  0.00     0.296 HD
ENDBRANCH  28  30
ENDBRANCH  13  28
ENDBRANCH  11  13
ENDBRANCH   8  11
ENDBRANCH   6   7
BRANCH   6  32
ATOM     32  C   UNL     1      -8.510  -3.839  14.151  1.00  0.00     0.037 C 
BRANCH  32  33
ATOM     33  C   UNL     1      -7.118  -4.409  14.458  1.00  0.00     0.026 C 
BRANCH  33  34
ATOM     34  C   UNL     1      -7.026  -5.006  15.862  1.00  0.00     0.146 C 
BRANCH  34  35
ATOM     35  N   UNL     1      -5.653  -4.889  16.334  1.00  0.00    -0.254 NA
ATOM     36  C   UNL     1      -5.350  -3.916  17.109  1.00  0.00     0.185 C 
ATOM     37  N   UNL     1      -4.089  -3.802  17.553  1.00  0.00    -0.370 N 
ATOM     38  N   UNL     1      -6.138  -2.932  17.577  1.00  0.00    -0.370 N 
ATOM     39  H   UNL     1      -3.435  -4.513  17.251  1.00  0.00     0.159 HD
ATOM     40  H   UNL     1      -3.813  -3.178  18.292  1.00  0.00     0.159 HD
ATOM     41  H   UNL     1      -5.750  -2.143  18.068  1.00  0.00     0.159 HD
ATOM     42  H   UNL     1      -7.109  -2.883  17.311  1.00  0.00     0.159 HD
ENDBRANCH  34  35
ENDBRANCH  33  34
ENDBRANCH  32  33
ENDBRANCH   6  32
ENDBRANCH   4   6
ENDBRANCH   1   2
BRANCH   1  43
ATOM     43  C   UNL     1     -11.471  -2.852  10.603  1.00  0.00     0.102 C 
ATOM     44  C   UNL     1     -12.344  -4.023  10.121  1.00  0.00     0.020 C 
BRANCH  43  45
ATOM     45  C   UNL     1      -9.977  -3.032  10.318  1.00  0.00     0.225 C 
ATOM     46  O   UNL     1      -9.126  -2.214  10.657  1.00  0.00    -0.275 OA
ATOM     47  N   UNL     1      -9.646  -4.135   9.565  1.00  0.00    -0.342 N 
ATOM     48  H   UNL     1     -10.327  -4.869   9.427  1.00  0.00     0.164 HD
BRANCH  47  49
ATOM     49  C   UNL     1      -8.252  -4.455   9.245  1.00  0.00     0.192 C 
BRANCH  49  50
ATOM     50  C   UNL     1      -8.003  -4.233   7.751  1.00  0.00     0.047 C 
BRANCH  50  51
ATOM     51  C   UNL     1      -6.735  -3.411   7.487  1.00  0.00     0.103 C 
BRANCH  51  52
ATOM     52  C   UNL     1      -6.840  -1.996   8.053  1.00  0.00     0.226 C 
ATOM     53  O   UNL     1      -7.835  -1.312   7.805  1.00  0.00    -0.275 OA
BRANCH  52  54
ATOM     54  N   UNL     1      -5.800  -1.582   8.906  1.00  0.00    -0.311 N 
ATOM     55  C   UNL     1      -4.770  -2.528   9.356  1.00  0.00     0.153 C 
BRANCH  54  56
ATOM     56  C   UNL     1      -5.703  -0.254   9.352  1.00  0.00     0.102 C 
ATOM     57  C   UNL     1      -6.200   0.205  10.513  1.00  0.00     0.043 C 
BRANCH  56  58
ATOM     58  C   UNL     1      -4.962   0.784   8.543  1.00  0.00     0.268 C 
ATOM     59  O   UNL     1      -5.391   1.248   7.495  1.00  0.00    -0.268 OA
ATOM     60  N   UNL     1      -3.793   1.198   9.136  1.00  0.00    -0.339 N 
ATOM     61  H   UNL     1      -3.502   0.756  10.000  1.00  0.00     0.164 HD
BRANCH  60  62
ATOM     62  C   UNL     1      -2.951   2.242   8.553  1.00  0.00     0.168 CG0
ATOM     63  C   UNL     1      -1.835   2.642   9.510  1.00  0.00     0.041 C 
ATOM     64  G   UNL     1      -3.820   3.463   8.188  1.00  0.00     0.000 G0
ENDBRANCH  60  62
ENDBRANCH  56  58
ENDBRANCH  54  56
ENDBRANCH  52  54
ENDBRANCH  51  52
ENDBRANCH  50  51
ENDBRANCH  49  50
BRANCH  49  65
ATOM     65  C   UNL     1      -7.905  -5.907   9.608  1.00  0.00     0.326 C 
ATOM     66  O   UNL     1      -7.815  -6.353  10.743  1.00  0.00    -0.250 OA
BRANCH  65  67
ATOM     67  O   UNL     1      -7.631  -6.703   8.551  1.00  0.00    -0.480 OA
ATOM     68  H   UNL     1      -8.518  -6.920   8.190  1.00  0.00     0.296 HD
ENDBRANCH  65  67
ENDBRANCH  49  65
ENDBRANCH  47  49
ENDBRANCH  43  45
ENDBRANCH   1  43
BRANCH   1  69
ATOM     69  C   UNL     1     -11.682  -1.005  12.487  1.00  0.00    -0.001 C 
ATOM     70  C   UNL     1     -11.937   0.059  11.705  1.00  0.00     0.001 C 
BRANCH  70  71
ATOM     71  C   UNL     1     -11.924   1.467  12.104  1.00  0.00    -0.055 C 
ATOM     72  C   UNL     1     -11.163   2.317  11.383  1.00  0.00    -0.018 C 
ATOM     73  C   UNL     1     -12.767   1.870  13.286  1.00  0.00     0.044 C 
BRANCH  72  74
ATOM     74  C   UNL     1     -10.959   3.815  11.560  1.00  0.00     0.038 C 
ATOM     75  C   UNL     1     -11.129   4.461  10.180  1.00  0.00     0.015 C 
BRANCH  74  76
ATOM     76  C   UNL     1      -9.574   4.057  12.228  1.00  0.00     0.128 C 
BRANCH  76  77
ATOM     77  O   UNL     1      -9.611   3.635  13.602  1.00  0.00    -0.381 OA
ATOM     78  C   UNL     1      -8.346   3.235  14.112  1.00  0.00     0.195 C 
ENDBRANCH  76  77
BRANCH  76  79
ATOM     79  C   UNL     1      -8.383   3.447  11.447  1.00  0.00     0.068 C 
BRANCH  79  80
ATOM     80  C   UNL     1      -7.464   4.391  10.709  1.00  0.00    -0.045 A 
ATOM     81  C   UNL     1      -7.669   5.776  10.749  1.00  0.00     0.004 A 
ATOM     82  C   UNL     1      -6.400   3.888   9.944  1.00  0.00     0.004 A 
ATOM     83  C   UNL     1      -6.823   6.642  10.052  1.00  0.00     0.000 A 
ATOM     84  C   UNL     1      -5.555   4.755   9.247  1.00  0.00     0.000 A 
ATOM     85  C   UNL     1      -5.766   6.131   9.302  1.00  0.00     0.000 A 
ENDBRANCH  79  80
ENDBRANCH  76  79
ENDBRANCH  74  76
ENDBRANCH  72  74
ENDBRANCH  70  71
ENDBRANCH   1  69
TORSDOF 17
ENDMDL
MODEL 29
REMARK VINA RESULT:    -7.586      3.163     12.571
REMARK INTER + INTRA:         -28.472
REMARK INTER:                 -20.469
REMARK INTRA:                  -8.003
REMARK UNBOUND:                -5.809
REMARK SMILES C=C1C(=O)N[C@H](C)C(=O)N[C@@H](CC(C)C)C(=O)N[C@@H](C(=O)O)[C@H](C)C(=O)N[C@@H](CCCN=C(N)N)C(=O)N[C@@H](/C=C/C(C)=C/[C@H](C)[C@H](Cc2ccccc2)OC)[C@H](C)C(=O)N[C@@H](C(=O)O)CCC(=O)N1C
REMARK SMILES IDX 39 1 38 2 37 3 36 4 28 6 27 7 25 8 26 9 23 11 24 12 19 13
REMARK SMILES IDX 18 14 16 15 17 16 11 18 10 19 8 20 9 21 12 24 13 25 14 26
REMARK SMILES IDX 15 27 20 28 21 29 22 30 29 32 30 33 31 34 32 35 33 36 34 37
REMARK SMILES IDX 35 38 57 43 58 44 59 45 60 46 61 47 62 49 66 50 67 51 68 52
REMARK SMILES IDX 69 53 70 54 71 55 2 56 1 57 3 58 4 59 5 60 6 62 7 63 63 65
REMARK SMILES IDX 64 66 65 67 40 69 41 70 42 71 44 72 43 73 45 74 46 75 47 76
REMARK SMILES IDX 55 77 56 78 48 79 49 80 50 81 54 82 51 83 53 84 52 85
REMARK H PARENT 38 5 27 10 18 17 10 22 22 31 34 39 34 40 35 41 35 42 61 48
REMARK H PARENT 5 61 65 68
REMARK Flexibility Score:  369.900
ROOT
ATOM      1  C   UNL     1      -8.327   0.130   9.925  1.00  0.00     0.117 C 
ENDROOT
BRANCH   1   2
ATOM      2  N   UNL     1      -9.756  -0.167  10.040  1.00  0.00    -0.347 N 
ATOM      3  O   UNL     1      -9.781  -0.725  12.267  1.00  0.00    -0.273 OA
ATOM      4  C   UNL     1     -10.386  -0.484  11.228  1.00  0.00     0.243 C 
ATOM      5  H   UNL     1     -10.343  -0.094   9.224  1.00  0.00     0.164 HD
BRANCH   4   6
ATOM      6  C   UNL     1     -11.919  -0.668  11.090  1.00  0.00     0.171 C 
BRANCH   6   7
ATOM      7  N   UNL     1     -12.499  -1.120  12.364  1.00  0.00    -0.344 N 
ATOM      8  C   UNL     1     -12.954  -2.413  12.510  1.00  0.00     0.226 C 
ATOM      9  O   UNL     1     -12.921  -3.231  11.598  1.00  0.00    -0.275 OA
ATOM     10  H   UNL     1     -12.605  -0.454  13.119  1.00  0.00     0.164 HD
BRANCH   8  11
ATOM     11  C   UNL     1     -13.474  -2.741  13.898  1.00  0.00     0.109 C 
ATOM     12  C   UNL     1     -14.664  -3.696  13.803  1.00  0.00     0.021 C 
BRANCH  11  13
ATOM     13  C   UNL     1     -12.314  -3.236  14.786  1.00  0.00     0.204 C 
BRANCH  13  14
ATOM     14  N   UNL     1     -11.213  -3.794  13.994  1.00  0.00    -0.340 N 
ATOM     15  C   UNL     1     -11.078  -5.142  13.746  1.00  0.00     0.243 C 
ATOM     16  O   UNL     1     -11.908  -5.969  14.121  1.00  0.00    -0.273 OA
ATOM     17  H   UNL     1     -10.417  -3.186  13.785  1.00  0.00     0.164 HD
BRANCH  15  18
ATOM     18  C   UNL     1      -9.736  -5.516  13.071  1.00  0.00     0.171 C 
BRANCH  18  19
ATOM     19  N   UNL     1      -9.254  -6.725  13.736  1.00  0.00    -0.343 N 
ATOM     20  C   UNL     1      -9.530  -7.986  13.245  1.00  0.00     0.242 CG0
ATOM     21  O   UNL     1     -10.302  -8.156  12.304  1.00  0.00    -0.273 OA
ATOM     22  H   UNL     1      -8.708  -6.640  14.586  1.00  0.00     0.164 HD
ATOM     23  G   UNL     1      -8.872  -9.135  14.036  1.00  0.00     0.000 G0
ENDBRANCH  18  19
BRANCH  18  24
ATOM     24  C   UNL     1      -9.930  -5.742  11.566  1.00  0.00     0.038 C 
BRANCH  24  25
ATOM     25  C   UNL     1      -8.862  -5.079  10.671  1.00  0.00    -0.015 C 
ATOM     26  C   UNL     1      -7.897  -6.096  10.061  1.00  0.00     0.007 C 
ATOM     27  C   UNL     1      -8.077  -4.047  11.485  1.00  0.00     0.007 C 
ENDBRANCH  24  25
ENDBRANCH  18  24
ENDBRANCH  15  18
ENDBRANCH  13  14
BRANCH  13  28
ATOM     28  C   UNL     1     -11.723  -2.138  15.675  1.00  0.00     0.327 C 
ATOM     29  O   UNL     1     -11.988  -1.940  16.851  1.00  0.00    -0.250 OA
BRANCH  28  30
ATOM     30  O   UNL     1     -10.926  -1.284  15.001  1.00  0.00    -0.480 OA
ATOM     31  H   UNL     1     -10.613  -1.803  14.231  1.00  0.00     0.296 HD
ENDBRANCH  28  30
ENDBRANCH  13  28
ENDBRANCH  11  13
ENDBRANCH   8  11
ENDBRANCH   6   7
BRANCH   6  32
ATOM     32  C   UNL     1     -12.547   0.657  10.642  1.00  0.00     0.037 C 
BRANCH  32  33
ATOM     33  C   UNL     1     -13.145   1.441  11.818  1.00  0.00     0.026 C 
BRANCH  33  34
ATOM     34  C   UNL     1     -12.157   2.442  12.417  1.00  0.00     0.146 C 
BRANCH  34  35
ATOM     35  N   UNL     1     -11.659   3.304  11.354  1.00  0.00    -0.254 NA
ATOM     36  C   UNL     1     -10.433   3.674  11.386  1.00  0.00     0.185 C 
ATOM     37  N   UNL     1      -9.963   4.465  10.408  1.00  0.00    -0.370 N 
ATOM     38  N   UNL     1      -9.486   3.381  12.294  1.00  0.00    -0.370 N 
ATOM     39  H   UNL     1     -10.616   4.722   9.679  1.00  0.00     0.159 HD
ATOM     40  H   UNL     1      -8.985   4.653  10.268  1.00  0.00     0.159 HD
ATOM     41  H   UNL     1      -8.593   3.847  12.285  1.00  0.00     0.159 HD
ATOM     42  H   UNL     1      -9.703   2.807  13.094  1.00  0.00     0.159 HD
ENDBRANCH  34  35
ENDBRANCH  33  34
ENDBRANCH  32  33
ENDBRANCH   6  32
ENDBRANCH   4   6
ENDBRANCH   1   2
BRANCH   1  43
ATOM     43  C   UNL     1      -8.165   1.590   9.411  1.00  0.00     0.102 C 
ATOM     44  C   UNL     1      -8.296   1.719   7.884  1.00  0.00     0.020 C 
BRANCH  43  45
ATOM     45  C   UNL     1      -6.900   2.237   9.983  1.00  0.00     0.225 C 
ATOM     46  O   UNL     1      -6.892   3.350  10.501  1.00  0.00    -0.275 OA
ATOM     47  N   UNL     1      -5.736   1.528   9.796  1.00  0.00    -0.342 N 
ATOM     48  H   UNL     1      -5.780   0.560   9.510  1.00  0.00     0.164 HD
BRANCH  47  49
ATOM     49  C   UNL     1      -4.454   2.008  10.322  1.00  0.00     0.192 C 
BRANCH  49  50
ATOM     50  C   UNL     1      -3.314   1.510   9.430  1.00  0.00     0.047 C 
BRANCH  50  51
ATOM     51  C   UNL     1      -2.643   2.650   8.652  1.00  0.00     0.103 C 
BRANCH  51  52
ATOM     52  C   UNL     1      -3.632   3.390   7.753  1.00  0.00     0.226 C 
ATOM     53  O   UNL     1      -4.421   2.750   7.056  1.00  0.00    -0.275 OA
BRANCH  52  54
ATOM     54  N   UNL     1      -3.627   4.795   7.841  1.00  0.00    -0.311 N 
ATOM     55  C   UNL     1      -4.664   5.509   8.596  1.00  0.00     0.153 C 
BRANCH  54  56
ATOM     56  C   UNL     1      -2.631   5.564   7.216  1.00  0.00     0.102 C 
ATOM     57  C   UNL     1      -1.380   5.722   7.677  1.00  0.00     0.043 C 
BRANCH  56  58
ATOM     58  C   UNL     1      -2.899   6.259   5.901  1.00  0.00     0.268 C 
ATOM     59  O   UNL     1      -3.922   6.089   5.251  1.00  0.00    -0.268 OA
ATOM     60  N   UNL     1      -1.911   7.146   5.548  1.00  0.00    -0.339 N 
ATOM     61  H   UNL     1      -1.090   7.221   6.137  1.00  0.00     0.164 HD
BRANCH  60  62
ATOM     62  C   UNL     1      -1.999   7.972   4.344  1.00  0.00     0.168 CG0
ATOM     63  C   UNL     1      -0.939   7.570   3.327  1.00  0.00     0.041 C 
ATOM     64  G   UNL     1      -1.854   9.460   4.726  1.00  0.00     0.000 G0
ENDBRANCH  60  62
ENDBRANCH  56  58
ENDBRANCH  54  56
ENDBRANCH  52  54
ENDBRANCH  51  52
ENDBRANCH  50  51
ENDBRANCH  49  50
BRANCH  49  65
ATOM     65  C   UNL     1      -4.218   1.531  11.763  1.00  0.00     0.326 C 
ATOM     66  O   UNL     1      -3.172   1.072  12.198  1.00  0.00    -0.250 OA
BRANCH  65  67
ATOM     67  O   UNL     1      -5.306   1.593  12.563  1.00  0.00    -0.480 OA
ATOM     68  H   UNL     1      -5.268   0.754  13.071  1.00  0.00     0.296 HD
ENDBRANCH  65  67
ENDBRANCH  49  65
ENDBRANCH  47  49
ENDBRANCH  43  45
ENDBRANCH   1  43
BRANCH   1  69
ATOM     69  C   UNL     1      -7.722  -1.004   9.118  1.00  0.00    -0.001 C 
ATOM     70  C   UNL     1      -8.373  -2.012   8.510  1.00  0.00     0.001 C 
BRANCH  70  71
ATOM     71  C   UNL     1      -7.779  -3.089   7.715  1.00  0.00    -0.055 C 
ATOM     72  C   UNL     1      -6.433  -3.146   7.642  1.00  0.00    -0.018 C 
ATOM     73  C   UNL     1      -8.712  -4.061   7.041  1.00  0.00     0.044 C 
BRANCH  72  74
ATOM     74  C   UNL     1      -5.550  -4.142   6.903  1.00  0.00     0.038 C 
ATOM     75  C   UNL     1      -5.088  -5.185   7.928  1.00  0.00     0.015 C 
BRANCH  74  76
ATOM     76  C   UNL     1      -4.399  -3.365   6.199  1.00  0.00     0.128 C 
BRANCH  76  77
ATOM     77  O   UNL     1      -4.687  -3.226   4.797  1.00  0.00    -0.381 OA
ATOM     78  C   UNL     1      -5.112  -4.434   4.179  1.00  0.00     0.195 C 
ENDBRANCH  76  77
BRANCH  76  79
ATOM     79  C   UNL     1      -4.045  -2.016   6.874  1.00  0.00     0.068 C 
BRANCH  79  80
ATOM     80  C   UNL     1      -3.140  -2.046   8.082  1.00  0.00    -0.045 A 
ATOM     81  C   UNL     1      -1.750  -2.157   7.941  1.00  0.00     0.004 A 
ATOM     82  C   UNL     1      -3.683  -1.991   9.375  1.00  0.00     0.004 A 
ATOM     83  C   UNL     1      -0.921  -2.199   9.063  1.00  0.00     0.000 A 
ATOM     84  C   UNL     1      -2.853  -2.033  10.497  1.00  0.00     0.000 A 
ATOM     85  C   UNL     1      -1.473  -2.136  10.341  1.00  0.00     0.000 A 
ENDBRANCH  79  80
ENDBRANCH  76  79
ENDBRANCH  74  76
ENDBRANCH  72  74
ENDBRANCH  70  71
ENDBRANCH   1  69
TORSDOF 17
ENDMDL
MODEL 30
REMARK VINA RESULT:    -7.553      2.815      4.548
REMARK INTER + INTRA:         -28.375
REMARK INTER:                 -19.473
REMARK INTRA:                  -8.902
REMARK UNBOUND:                -5.809
REMARK SMILES C=C1C(=O)N[C@H](C)C(=O)N[C@@H](CC(C)C)C(=O)N[C@@H](C(=O)O)[C@H](C)C(=O)N[C@@H](CCCN=C(N)N)C(=O)N[C@@H](/C=C/C(C)=C/[C@H](C)[C@H](Cc2ccccc2)OC)[C@H](C)C(=O)N[C@@H](C(=O)O)CCC(=O)N1C
REMARK SMILES IDX 39 1 38 2 37 3 36 4 28 6 27 7 25 8 26 9 23 11 24 12 19 13
REMARK SMILES IDX 18 14 16 15 17 16 11 18 10 19 8 20 9 21 12 24 13 25 14 26
REMARK SMILES IDX 15 27 20 28 21 29 22 30 29 32 30 33 31 34 32 35 33 36 34 37
REMARK SMILES IDX 35 38 57 43 58 44 59 45 60 46 61 47 62 49 66 50 67 51 68 52
REMARK SMILES IDX 69 53 70 54 71 55 2 56 1 57 3 58 4 59 5 60 6 62 7 63 63 65
REMARK SMILES IDX 64 66 65 67 40 69 41 70 42 71 44 72 43 73 45 74 46 75 47 76
REMARK SMILES IDX 55 77 56 78 48 79 49 80 50 81 54 82 51 83 53 84 52 85
REMARK H PARENT 38 5 27 10 18 17 10 22 22 31 34 39 34 40 35 41 35 42 61 48
REMARK H PARENT 5 61 65 68
REMARK Flexibility Score:  369.900
ROOT
ATOM      1  C   UNL     1      -8.522  -2.321  13.271  1.00  0.00     0.117 C 
ENDROOT
BRANCH   1   2
ATOM      2  N   UNL     1      -7.560  -2.852  12.304  1.00  0.00    -0.347 N 
ATOM      3  O   UNL     1      -5.657  -2.525  13.546  1.00  0.00    -0.273 OA
ATOM      4  C   UNL     1      -6.209  -2.996  12.557  1.00  0.00     0.243 C 
ATOM      5  H   UNL     1      -7.889  -3.184  11.411  1.00  0.00     0.164 HD
BRANCH   4   6
ATOM      6  C   UNL     1      -5.426  -3.663  11.398  1.00  0.00     0.171 C 
BRANCH   6   7
ATOM      7  N   UNL     1      -6.292  -3.827  10.219  1.00  0.00    -0.344 N 
ATOM      8  C   UNL     1      -5.795  -4.362   9.051  1.00  0.00     0.226 C 
ATOM      9  O   UNL     1      -4.624  -4.701   8.926  1.00  0.00    -0.275 OA
ATOM     10  H   UNL     1      -7.248  -3.496  10.263  1.00  0.00     0.164 HD
BRANCH   8  11
ATOM     11  C   UNL     1      -6.824  -4.516   7.945  1.00  0.00     0.109 C 
ATOM     12  C   UNL     1      -8.233  -4.536   8.538  1.00  0.00     0.021 C 
BRANCH  11  13
ATOM     13  C   UNL     1      -6.592  -3.443   6.863  1.00  0.00     0.204 C 
BRANCH  13  14
ATOM     14  N   UNL     1      -5.895  -2.267   7.392  1.00  0.00    -0.340 N 
ATOM     15  C   UNL     1      -6.557  -1.151   7.857  1.00  0.00     0.243 C 
ATOM     16  O   UNL     1      -7.783  -1.088   7.916  1.00  0.00    -0.273 OA
ATOM     17  H   UNL     1      -4.887  -2.193   7.231  1.00  0.00     0.164 HD
BRANCH  15  18
ATOM     18  C   UNL     1      -5.618   0.040   8.169  1.00  0.00     0.171 C 
BRANCH  18  19
ATOM     19  N   UNL     1      -5.708   0.953   7.032  1.00  0.00    -0.343 N 
ATOM     20  C   UNL     1      -4.672   1.804   6.696  1.00  0.00     0.242 CG0
ATOM     21  O   UNL     1      -3.682   1.926   7.414  1.00  0.00    -0.273 OA
ATOM     22  H   UNL     1      -6.555   0.972   6.475  1.00  0.00     0.164 HD
ATOM     23  G   UNL     1      -4.919   2.635   5.420  1.00  0.00     0.000 G0
ENDBRANCH  18  19
BRANCH  18  24
ATOM     24  C   UNL     1      -6.031   0.727   9.476  1.00  0.00     0.038 C 
BRANCH  24  25
ATOM     25  C   UNL     1      -5.200   0.318  10.710  1.00  0.00    -0.015 C 
ATOM     26  C   UNL     1      -5.882   0.692  12.026  1.00  0.00     0.007 C 
ATOM     27  C   UNL     1      -3.819   0.975  10.641  1.00  0.00     0.007 C 
ENDBRANCH  24  25
ENDBRANCH  18  24
ENDBRANCH  15  18
ENDBRANCH  13  14
BRANCH  13  28
ATOM     28  C   UNL     1      -5.777  -3.956   5.671  1.00  0.00     0.327 C 
ATOM     29  O   UNL     1      -6.018  -3.755   4.490  1.00  0.00    -0.250 OA
BRANCH  28  30
ATOM     30  O   UNL     1      -4.778  -4.786   6.032  1.00  0.00    -0.480 OA
ATOM     31  H   UNL     1      -4.000  -4.199   6.132  1.00  0.00     0.296 HD
ENDBRANCH  28  30
ENDBRANCH  13  28
ENDBRANCH  11  13
ENDBRANCH   8  11
ENDBRANCH   6   7
BRANCH   6  32
ATOM     32  C   UNL     1      -4.199  -2.809  11.062  1.00  0.00     0.037 C 
BRANCH  32  33
ATOM     33  C   UNL     1      -2.895  -3.446  11.561  1.00  0.00     0.026 C 
BRANCH  33  34
ATOM     34  C   UNL     1      -3.127  -4.793  12.247  1.00  0.00     0.146 C 
BRANCH  34  35
ATOM     35  N   UNL     1      -2.273  -5.792  11.619  1.00  0.00    -0.254 NA
ATOM     36  C   UNL     1      -2.824  -6.760  10.986  1.00  0.00     0.185 C 
ATOM     37  N   UNL     1      -2.047  -7.684  10.399  1.00  0.00    -0.370 N 
ATOM     38  N   UNL     1      -4.132  -7.014  10.802  1.00  0.00    -0.370 N 
ATOM     39  H   UNL     1      -1.047  -7.556  10.484  1.00  0.00     0.159 HD
ATOM     40  H   UNL     1      -2.391  -8.366   9.746  1.00  0.00     0.159 HD
ATOM     41  H   UNL     1      -4.443  -7.885  10.403  1.00  0.00     0.159 HD
ATOM     42  H   UNL     1      -4.833  -6.409  11.202  1.00  0.00     0.159 HD
ENDBRANCH  34  35
ENDBRANCH  33  34
ENDBRANCH  32  33
ENDBRANCH   6  32
ENDBRANCH   4   6
ENDBRANCH   1   2
BRANCH   1  43
ATOM     43  C   UNL     1      -9.374  -3.501  13.821  1.00  0.00     0.102 C 
ATOM     44  C   UNL     1      -9.085  -3.829  15.296  1.00  0.00     0.020 C 
BRANCH  43  45
ATOM     45  C   UNL     1      -9.300  -4.714  12.889  1.00  0.00     0.225 C 
ATOM     46  O   UNL     1      -9.670  -4.684  11.719  1.00  0.00    -0.275 OA
ATOM     47  N   UNL     1      -8.875  -5.885  13.473  1.00  0.00    -0.342 N 
ATOM     48  H   UNL     1      -8.435  -5.860  14.382  1.00  0.00     0.164 HD
BRANCH  47  49
ATOM     49  C   UNL     1      -8.721  -7.118  12.695  1.00  0.00     0.192 C 
BRANCH  49  50
ATOM     50  C   UNL     1      -9.799  -8.124  13.106  1.00  0.00     0.047 C 
BRANCH  50  51
ATOM     51  C   UNL     1     -10.260  -7.923  14.556  1.00  0.00     0.103 C 
BRANCH  51  52
ATOM     52  C   UNL     1     -11.721  -7.485  14.638  1.00  0.00     0.226 C 
ATOM     53  O   UNL     1     -12.058  -6.393  14.177  1.00  0.00    -0.275 OA
BRANCH  52  54
ATOM     54  N   UNL     1     -12.625  -8.417  15.181  1.00  0.00    -0.311 N 
ATOM     55  C   UNL     1     -13.435  -9.281  14.312  1.00  0.00     0.153 C 
BRANCH  54  56
ATOM     56  C   UNL     1     -12.782  -8.560  16.570  1.00  0.00     0.102 C 
ATOM     57  C   UNL     1     -13.070  -7.559  17.418  1.00  0.00     0.043 C 
BRANCH  56  58
ATOM     58  C   UNL     1     -12.678  -9.917  17.226  1.00  0.00     0.268 C 
ATOM     59  O   UNL     1     -11.797 -10.724  16.959  1.00  0.00    -0.268 OA
ATOM     60  N   UNL     1     -13.630 -10.123  18.196  1.00  0.00    -0.339 N 
ATOM     61  H   UNL     1     -14.331  -9.408  18.349  1.00  0.00     0.164 HD
BRANCH  60  62
ATOM     62  C   UNL     1     -13.672 -11.344  18.999  1.00  0.00     0.168 CG0
ATOM     63  C   UNL     1     -12.936 -11.156  20.320  1.00  0.00     0.041 C 
ATOM     64  G   UNL     1     -13.063 -12.512  18.196  1.00  0.00     0.000 G0
ENDBRANCH  60  62
ENDBRANCH  56  58
ENDBRANCH  54  56
ENDBRANCH  52  54
ENDBRANCH  51  52
ENDBRANCH  50  51
ENDBRANCH  49  50
BRANCH  49  65
ATOM     65  C   UNL     1      -7.334  -7.747  12.898  1.00  0.00     0.326 C 
ATOM     66  O   UNL     1      -7.110  -8.939  13.052  1.00  0.00    -0.250 OA
BRANCH  65  67
ATOM     67  O   UNL     1      -6.316  -6.861  12.960  1.00  0.00    -0.480 OA
ATOM     68  H   UNL     1      -5.649  -7.312  13.521  1.00  0.00     0.296 HD
ENDBRANCH  65  67
ENDBRANCH  49  65
ENDBRANCH  47  49
ENDBRANCH  43  45
ENDBRANCH   1  43
BRANCH   1  69
ATOM     69  C   UNL     1      -9.226  -1.168  12.579  1.00  0.00    -0.001 C 
ATOM     70  C   UNL     1      -9.185  -0.852  11.272  1.00  0.00     0.001 C 
BRANCH  70  71
ATOM     71  C   UNL     1      -9.887   0.250  10.612  1.00  0.00    -0.055 C 
ATOM     72  C   UNL     1      -9.153   1.307  10.204  1.00  0.00    -0.018 C 
ATOM     73  C   UNL     1     -11.377   0.125  10.427  1.00  0.00     0.044 C 
BRANCH  72  74
ATOM     74  C   UNL     1      -9.603   2.577   9.497  1.00  0.00     0.038 C 
ATOM     75  C   UNL     1      -8.797   2.681   8.196  1.00  0.00     0.015 C 
BRANCH  74  76
ATOM     76  C   UNL     1      -9.430   3.780  10.470  1.00  0.00     0.128 C 
BRANCH  76  77
ATOM     77  O   UNL     1     -10.479   3.772  11.452  1.00  0.00    -0.381 OA
ATOM     78  C   UNL     1     -10.009   3.844  12.791  1.00  0.00     0.195 C 
ENDBRANCH  76  77
BRANCH  76  79
ATOM     79  C   UNL     1      -8.018   3.881  11.101  1.00  0.00     0.068 C 
BRANCH  79  80
ATOM     80  C   UNL     1      -6.976   4.697  10.376  1.00  0.00    -0.045 A 
ATOM     81  C   UNL     1      -7.036   6.097  10.362  1.00  0.00     0.004 A 
ATOM     82  C   UNL     1      -5.939   4.060   9.677  1.00  0.00     0.004 A 
ATOM     83  C   UNL     1      -6.075   6.844   9.677  1.00  0.00     0.000 A 
ATOM     84  C   UNL     1      -4.980   4.808   8.992  1.00  0.00     0.000 A 
ATOM     85  C   UNL     1      -5.047   6.199   8.993  1.00  0.00     0.000 A 
ENDBRANCH  79  80
ENDBRANCH  76  79
ENDBRANCH  74  76
ENDBRANCH  72  74
ENDBRANCH  70  71
ENDBRANCH   1  69
TORSDOF 17
ENDMDL
MODEL 31
REMARK VINA RESULT:    -7.553      3.130     11.607
REMARK INTER + INTRA:         -28.375
REMARK INTER:                 -20.609
REMARK INTRA:                  -7.766
REMARK UNBOUND:                -5.809
REMARK SMILES C=C1C(=O)N[C@H](C)C(=O)N[C@@H](CC(C)C)C(=O)N[C@@H](C(=O)O)[C@H](C)C(=O)N[C@@H](CCCN=C(N)N)C(=O)N[C@@H](/C=C/C(C)=C/[C@H](C)[C@H](Cc2ccccc2)OC)[C@H](C)C(=O)N[C@@H](C(=O)O)CCC(=O)N1C
REMARK SMILES IDX 39 1 38 2 37 3 36 4 28 6 27 7 25 8 26 9 23 11 24 12 19 13
REMARK SMILES IDX 18 14 16 15 17 16 11 18 10 19 8 20 9 21 12 24 13 25 14 26
REMARK SMILES IDX 15 27 20 28 21 29 22 30 29 32 30 33 31 34 32 35 33 36 34 37
REMARK SMILES IDX 35 38 57 43 58 44 59 45 60 46 61 47 62 49 66 50 67 51 68 52
REMARK SMILES IDX 69 53 70 54 71 55 2 56 1 57 3 58 4 59 5 60 6 62 7 63 63 65
REMARK SMILES IDX 64 66 65 67 40 69 41 70 42 71 44 72 43 73 45 74 46 75 47 76
REMARK SMILES IDX 55 77 56 78 48 79 49 80 50 81 54 82 51 83 53 84 52 85
REMARK H PARENT 38 5 27 10 18 17 10 22 22 31 34 39 34 40 35 41 35 42 61 48
REMARK H PARENT 5 61 65 68
REMARK Flexibility Score:  369.900
ROOT
ATOM      1  C   UNL     1      -9.458  -3.139   8.892  1.00  0.00     0.117 C 
ENDROOT
BRANCH   1   2
ATOM      2  N   UNL     1     -10.008  -3.072  10.247  1.00  0.00    -0.347 N 
ATOM      3  O   UNL     1     -11.549  -4.760  10.043  1.00  0.00    -0.273 OA
ATOM      4  C   UNL     1     -10.950  -3.952  10.744  1.00  0.00     0.243 C 
ATOM      5  H   UNL     1      -9.656  -2.378  10.890  1.00  0.00     0.164 HD
BRANCH   4   6
ATOM      6  C   UNL     1     -11.299  -3.715  12.235  1.00  0.00     0.171 C 
BRANCH   6   7
ATOM      7  N   UNL     1     -10.558  -4.653  13.093  1.00  0.00    -0.344 N 
ATOM      8  C   UNL     1     -11.215  -5.407  14.041  1.00  0.00     0.226 C 
ATOM      9  O   UNL     1     -12.422  -5.321  14.233  1.00  0.00    -0.275 OA
ATOM     10  H   UNL     1      -9.550  -4.702  13.010  1.00  0.00     0.164 HD
BRANCH   8  11
ATOM     11  C   UNL     1     -10.321  -6.366  14.807  1.00  0.00     0.109 C 
ATOM     12  C   UNL     1     -10.459  -6.127  16.311  1.00  0.00     0.021 C 
BRANCH  11  13
ATOM     13  C   UNL     1     -10.597  -7.813  14.352  1.00  0.00     0.204 C 
BRANCH  13  14
ATOM     14  N   UNL     1     -12.032  -8.095  14.252  1.00  0.00    -0.340 N 
ATOM     15  C   UNL     1     -12.587  -9.297  14.633  1.00  0.00     0.243 C 
ATOM     16  O   UNL     1     -11.924 -10.198  15.143  1.00  0.00    -0.273 OA
ATOM     17  H   UNL     1     -12.611  -7.453  13.702  1.00  0.00     0.164 HD
BRANCH  15  18
ATOM     18  C   UNL     1     -14.079  -9.441  14.244  1.00  0.00     0.171 C 
BRANCH  18  19
ATOM     19  N   UNL     1     -14.492 -10.781  14.656  1.00  0.00    -0.343 N 
ATOM     20  C   UNL     1     -15.156 -11.636  13.798  1.00  0.00     0.242 CG0
ATOM     21  O   UNL     1     -15.548 -11.263  12.694  1.00  0.00    -0.273 OA
ATOM     22  H   UNL     1     -14.293 -11.094  15.600  1.00  0.00     0.164 HD
ATOM     23  G   UNL     1     -15.439 -13.034  14.385  1.00  0.00     0.000 G0
ENDBRANCH  18  19
BRANCH  18  24
ATOM     24  C   UNL     1     -14.924  -8.358  14.925  1.00  0.00     0.038 C 
BRANCH  24  25
ATOM     25  C   UNL     1     -14.813  -8.327  16.464  1.00  0.00    -0.015 C 
ATOM     26  C   UNL     1     -16.121  -8.718  17.153  1.00  0.00     0.007 C 
ATOM     27  C   UNL     1     -14.387  -6.930  16.922  1.00  0.00     0.007 C 
ENDBRANCH  24  25
ENDBRANCH  18  24
ENDBRANCH  15  18
ENDBRANCH  13  14
BRANCH  13  28
ATOM     28  C   UNL     1      -9.973  -8.148  12.994  1.00  0.00     0.327 C 
ATOM     29  O   UNL     1     -10.270  -7.650  11.919  1.00  0.00    -0.250 OA
BRANCH  28  30
ATOM     30  O   UNL     1      -9.098  -9.173  13.054  1.00  0.00    -0.480 OA
ATOM     31  H   UNL     1      -9.640  -9.937  13.337  1.00  0.00     0.296 HD
ENDBRANCH  28  30
ENDBRANCH  13  28
ENDBRANCH  11  13
ENDBRANCH   8  11
ENDBRANCH   6   7
BRANCH   6  32
ATOM     32  C   UNL     1     -10.974  -2.263  12.603  1.00  0.00     0.037 C 
BRANCH  32  33
ATOM     33  C   UNL     1     -11.355  -1.934  14.054  1.00  0.00     0.026 C 
BRANCH  33  34
ATOM     34  C   UNL     1     -10.137  -1.597  14.915  1.00  0.00     0.146 C 
BRANCH  34  35
ATOM     35  N   UNL     1      -8.934  -2.039  14.223  1.00  0.00    -0.254 NA
ATOM     36  C   UNL     1      -8.118  -2.809  14.841  1.00  0.00     0.185 C 
ATOM     37  N   UNL     1      -7.009  -3.226  14.211  1.00  0.00    -0.370 N 
ATOM     38  N   UNL     1      -8.199  -3.297  16.091  1.00  0.00    -0.370 N 
ATOM     39  H   UNL     1      -6.882  -2.910  13.258  1.00  0.00     0.159 HD
ATOM     40  H   UNL     1      -6.416  -3.961  14.557  1.00  0.00     0.159 HD
ATOM     41  H   UNL     1      -7.423  -3.781  16.513  1.00  0.00     0.159 HD
ATOM     42  H   UNL     1      -8.974  -3.052  16.688  1.00  0.00     0.159 HD
ENDBRANCH  34  35
ENDBRANCH  33  34
ENDBRANCH  32  33
ENDBRANCH   6  32
ENDBRANCH   4   6
ENDBRANCH   1   2
BRANCH   1  43
ATOM     43  C   UNL     1      -8.409  -4.287   8.840  1.00  0.00     0.102 C 
ATOM     44  C   UNL     1      -7.449  -4.293  10.041  1.00  0.00     0.020 C 
BRANCH  43  45
ATOM     45  C   UNL     1      -7.705  -4.326   7.481  1.00  0.00     0.225 C 
ATOM     46  O   UNL     1      -8.307  -4.422   6.415  1.00  0.00    -0.275 OA
ATOM     47  N   UNL     1      -6.329  -4.341   7.527  1.00  0.00    -0.342 N 
ATOM     48  H   UNL     1      -5.855  -4.110   8.388  1.00  0.00     0.164 HD
BRANCH  47  49
ATOM     49  C   UNL     1      -5.522  -4.342   6.303  1.00  0.00     0.192 C 
BRANCH  49  50
ATOM     50  C   UNL     1      -4.247  -5.160   6.529  1.00  0.00     0.047 C 
BRANCH  50  51
ATOM     51  C   UNL     1      -3.920  -5.329   8.019  1.00  0.00     0.103 C 
BRANCH  51  52
ATOM     52  C   UNL     1      -2.992  -4.229   8.531  1.00  0.00     0.226 C 
ATOM     53  O   UNL     1      -2.101  -3.793   7.799  1.00  0.00    -0.275 OA
BRANCH  52  54
ATOM     54  N   UNL     1      -3.271  -3.719   9.812  1.00  0.00    -0.311 N 
ATOM     55  C   UNL     1      -3.623  -4.615  10.922  1.00  0.00     0.153 C 
BRANCH  54  56
ATOM     56  C   UNL     1      -3.218  -2.341  10.080  1.00  0.00     0.102 C 
ATOM     57  C   UNL     1      -4.277  -1.516  10.075  1.00  0.00     0.043 C 
BRANCH  56  58
ATOM     58  C   UNL     1      -1.915  -1.674  10.453  1.00  0.00     0.268 C 
ATOM     59  O   UNL     1      -0.945  -2.288  10.877  1.00  0.00    -0.268 OA
ATOM     60  N   UNL     1      -1.910  -0.322  10.204  1.00  0.00    -0.339 N 
ATOM     61  H   UNL     1      -2.758   0.113   9.862  1.00  0.00     0.164 HD
BRANCH  60  62
ATOM     62  C   UNL     1      -0.727   0.507  10.433  1.00  0.00     0.168 CG0
ATOM     63  C   UNL     1      -0.771   1.152  11.813  1.00  0.00     0.041 C 
ATOM     64  G   UNL     1      -0.629   1.582   9.331  1.00  0.00     0.000 G0
ENDBRANCH  60  62
ENDBRANCH  56  58
ENDBRANCH  54  56
ENDBRANCH  52  54
ENDBRANCH  51  52
ENDBRANCH  50  51
ENDBRANCH  49  50
BRANCH  49  65
ATOM     65  C   UNL     1      -5.142  -2.917   5.874  1.00  0.00     0.326 C 
ATOM     66  O   UNL     1      -4.671  -2.603   4.790  1.00  0.00    -0.250 OA
BRANCH  65  67
ATOM     67  O   UNL     1      -5.311  -1.976   6.829  1.00  0.00    -0.480 OA
ATOM     68  H   UNL     1      -5.603  -1.185   6.326  1.00  0.00     0.296 HD
ENDBRANCH  65  67
ENDBRANCH  49  65
ENDBRANCH  47  49
ENDBRANCH  43  45
ENDBRANCH   1  43
BRANCH   1  69
ATOM     69  C   UNL     1      -9.020  -1.728   8.543  1.00  0.00    -0.001 C 
ATOM     70  C   UNL     1      -8.507  -0.802   9.372  1.00  0.00     0.001 C 
BRANCH  70  71
ATOM     71  C   UNL     1      -8.068   0.549   9.019  1.00  0.00    -0.055 C 
ATOM     72  C   UNL     1      -6.855   0.684   8.443  1.00  0.00    -0.018 C 
ATOM     73  C   UNL     1      -9.004   1.692   9.315  1.00  0.00     0.044 C 
BRANCH  72  74
ATOM     74  C   UNL     1      -6.147   1.946   7.972  1.00  0.00     0.038 C 
ATOM     75  C   UNL     1      -5.403   1.592   6.678  1.00  0.00     0.015 C 
BRANCH  74  76
ATOM     76  C   UNL     1      -5.241   2.472   9.124  1.00  0.00     0.128 C 
BRANCH  76  77
ATOM     77  O   UNL     1      -3.896   1.995   8.947  1.00  0.00    -0.381 OA
ATOM     78  C   UNL     1      -2.915   3.021   9.000  1.00  0.00     0.195 C 
ENDBRANCH  76  77
BRANCH  76  79
ATOM     79  C   UNL     1      -5.310   4.006   9.329  1.00  0.00     0.068 C 
BRANCH  79  80
ATOM     80  C   UNL     1      -6.449   4.559  10.151  1.00  0.00    -0.045 A 
ATOM     81  C   UNL     1      -6.923   5.861   9.945  1.00  0.00     0.004 A 
ATOM     82  C   UNL     1      -7.035   3.780  11.161  1.00  0.00     0.004 A 
ATOM     83  C   UNL     1      -7.968   6.369  10.720  1.00  0.00     0.000 A 
ATOM     84  C   UNL     1      -8.080   4.290  11.935  1.00  0.00     0.000 A 
ATOM     85  C   UNL     1      -8.547   5.583  11.714  1.00  0.00     0.000 A 
ENDBRANCH  79  80
ENDBRANCH  76  79
ENDBRANCH  74  76
ENDBRANCH  72  74
ENDBRANCH  70  71
ENDBRANCH   1  69
TORSDOF 17
ENDMDL
MODEL 32
REMARK VINA RESULT:    -7.508      3.182     12.938
REMARK INTER + INTRA:         -28.239
REMARK INTER:                 -20.346
REMARK INTRA:                  -7.894
REMARK UNBOUND:                -5.809
REMARK SMILES C=C1C(=O)N[C@H](C)C(=O)N[C@@H](CC(C)C)C(=O)N[C@@H](C(=O)O)[C@H](C)C(=O)N[C@@H](CCCN=C(N)N)C(=O)N[C@@H](/C=C/C(C)=C/[C@H](C)[C@H](Cc2ccccc2)OC)[C@H](C)C(=O)N[C@@H](C(=O)O)CCC(=O)N1C
REMARK SMILES IDX 39 1 38 2 37 3 36 4 28 6 27 7 25 8 26 9 23 11 24 12 19 13
REMARK SMILES IDX 18 14 16 15 17 16 11 18 10 19 8 20 9 21 12 24 13 25 14 26
REMARK SMILES IDX 15 27 20 28 21 29 22 30 29 32 30 33 31 34 32 35 33 36 34 37
REMARK SMILES IDX 35 38 57 43 58 44 59 45 60 46 61 47 62 49 66 50 67 51 68 52
REMARK SMILES IDX 69 53 70 54 71 55 2 56 1 57 3 58 4 59 5 60 6 62 7 63 63 65
REMARK SMILES IDX 64 66 65 67 40 69 41 70 42 71 44 72 43 73 45 74 46 75 47 76
REMARK SMILES IDX 55 77 56 78 48 79 49 80 50 81 54 82 51 83 53 84 52 85
REMARK H PARENT 38 5 27 10 18 17 10 22 22 31 34 39 34 40 35 41 35 42 61 48
REMARK H PARENT 5 61 65 68
REMARK Flexibility Score:  369.900
ROOT
ATOM      1  C   UNL     1      -6.849   0.570  10.420  1.00  0.00     0.117 C 
ENDROOT
BRANCH   1   2
ATOM      2  N   UNL     1      -7.350  -0.519  11.260  1.00  0.00    -0.347 N 
ATOM      3  O   UNL     1      -9.147   0.584  12.165  1.00  0.00    -0.273 OA
ATOM      4  C   UNL     1      -8.516  -0.453  11.998  1.00  0.00     0.243 C 
ATOM      5  H   UNL     1      -6.855  -1.398  11.277  1.00  0.00     0.164 HD
BRANCH   4   6
ATOM      6  C   UNL     1      -8.864  -1.774  12.731  1.00  0.00     0.171 C 
BRANCH   6   7
ATOM      7  N   UNL     1      -7.714  -2.692  12.713  1.00  0.00    -0.344 N 
ATOM      8  C   UNL     1      -7.662  -3.734  11.813  1.00  0.00     0.226 C 
ATOM      9  O   UNL     1      -8.561  -3.961  11.013  1.00  0.00    -0.275 OA
ATOM     10  H   UNL     1      -6.983  -2.576  13.403  1.00  0.00     0.164 HD
BRANCH   8  11
ATOM     11  C   UNL     1      -6.387  -4.557  11.882  1.00  0.00     0.109 C 
ATOM     12  C   UNL     1      -5.480  -4.029  12.994  1.00  0.00     0.021 C 
BRANCH  11  13
ATOM     13  C   UNL     1      -6.739  -6.054  11.989  1.00  0.00     0.204 C 
BRANCH  13  14
ATOM     14  N   UNL     1      -8.077  -6.268  12.549  1.00  0.00    -0.340 N 
ATOM     15  C   UNL     1      -8.296  -6.963  13.719  1.00  0.00     0.243 C 
ATOM     16  O   UNL     1      -7.377  -7.401  14.409  1.00  0.00    -0.273 OA
ATOM     17  H   UNL     1      -8.885  -6.066  11.954  1.00  0.00     0.164 HD
BRANCH  15  18
ATOM     18  C   UNL     1      -9.792  -7.241  14.002  1.00  0.00     0.171 C 
BRANCH  18  19
ATOM     19  N   UNL     1      -9.906  -8.669  14.292  1.00  0.00    -0.343 N 
ATOM     20  C   UNL     1     -10.891  -9.453  13.722  1.00  0.00     0.242 CG0
ATOM     21  O   UNL     1     -11.796  -8.961  13.052  1.00  0.00    -0.273 OA
ATOM     22  H   UNL     1      -9.249  -9.101  14.932  1.00  0.00     0.164 HD
ATOM     23  G   UNL     1     -10.803 -10.950  14.083  1.00  0.00     0.000 G0
ENDBRANCH  18  19
BRANCH  18  24
ATOM     24  C   UNL     1     -10.289  -6.389  15.177  1.00  0.00     0.038 C 
BRANCH  24  25
ATOM     25  C   UNL     1     -11.455  -5.438  14.836  1.00  0.00    -0.015 C 
ATOM     26  C   UNL     1     -12.817  -6.126  14.927  1.00  0.00     0.007 C 
ATOM     27  C   UNL     1     -11.259  -4.868  13.428  1.00  0.00     0.007 C 
ENDBRANCH  24  25
ENDBRANCH  18  24
ENDBRANCH  15  18
ENDBRANCH  13  14
BRANCH  13  28
ATOM     28  C   UNL     1      -6.688  -6.784  10.643  1.00  0.00     0.327 C 
ATOM     29  O   UNL     1      -6.172  -7.870  10.428  1.00  0.00    -0.250 OA
BRANCH  28  30
ATOM     30  O   UNL     1      -7.184  -6.050   9.626  1.00  0.00    -0.480 OA
ATOM     31  H   UNL     1      -6.392  -5.780   9.115  1.00  0.00     0.296 HD
ENDBRANCH  28  30
ENDBRANCH  13  28
ENDBRANCH  11  13
ENDBRANCH   8  11
ENDBRANCH   6   7
BRANCH   6  32
ATOM     32  C   UNL     1      -9.286  -1.454  14.170  1.00  0.00     0.037 C 
BRANCH  32  33
ATOM     33  C   UNL     1      -8.104  -0.984  15.029  1.00  0.00     0.026 C 
BRANCH  33  34
ATOM     34  C   UNL     1      -7.952  -1.802  16.313  1.00  0.00     0.146 C 
BRANCH  34  35
ATOM     35  N   UNL     1      -7.748  -3.199  15.958  1.00  0.00    -0.254 NA
ATOM     36  C   UNL     1      -6.846  -3.865  16.579  1.00  0.00     0.185 C 
ATOM     37  N   UNL     1      -6.653  -5.155  16.263  1.00  0.00    -0.370 N 
ATOM     38  N   UNL     1      -6.014  -3.456  17.552  1.00  0.00    -0.370 N 
ATOM     39  H   UNL     1      -7.250  -5.541  15.544  1.00  0.00     0.159 HD
ATOM     40  H   UNL     1      -6.095  -5.785  16.815  1.00  0.00     0.159 HD
ATOM     41  H   UNL     1      -5.252  -4.036  17.864  1.00  0.00     0.159 HD
ATOM     42  H   UNL     1      -6.037  -2.502  17.879  1.00  0.00     0.159 HD
ENDBRANCH  34  35
ENDBRANCH  33  34
ENDBRANCH  32  33
ENDBRANCH   6  32
ENDBRANCH   4   6
ENDBRANCH   1   2
BRANCH   1  43
ATOM     43  C   UNL     1      -7.831   0.768   9.229  1.00  0.00     0.102 C 
ATOM     44  C   UNL     1      -7.308   0.193   7.902  1.00  0.00     0.020 C 
BRANCH  43  45
ATOM     45  C   UNL     1      -8.295   2.225   9.136  1.00  0.00     0.225 C 
ATOM     46  O   UNL     1      -8.797   2.705   8.123  1.00  0.00    -0.275 OA
ATOM     47  N   UNL     1      -8.029   3.003  10.239  1.00  0.00    -0.342 N 
ATOM     48  H   UNL     1      -7.760   2.564  11.108  1.00  0.00     0.164 HD
BRANCH  47  49
ATOM     49  C   UNL     1      -8.448   4.407  10.305  1.00  0.00     0.192 C 
BRANCH  49  50
ATOM     50  C   UNL     1      -7.242   5.315  10.052  1.00  0.00     0.047 C 
BRANCH  50  51
ATOM     51  C   UNL     1      -6.032   4.541   9.512  1.00  0.00     0.103 C 
BRANCH  51  52
ATOM     52  C   UNL     1      -5.094   5.434   8.703  1.00  0.00     0.226 C 
ATOM     53  O   UNL     1      -5.047   6.642   8.940  1.00  0.00    -0.275 OA
BRANCH  52  54
ATOM     54  N   UNL     1      -4.268   4.788   7.765  1.00  0.00    -0.311 N 
ATOM     55  C   UNL     1      -4.627   3.471   7.221  1.00  0.00     0.153 C 
BRANCH  54  56
ATOM     56  C   UNL     1      -3.076   5.376   7.311  1.00  0.00     0.102 C 
ATOM     57  C   UNL     1      -1.886   5.277   7.926  1.00  0.00     0.043 C 
BRANCH  56  58
ATOM     58  C   UNL     1      -3.041   6.159   6.019  1.00  0.00     0.268 C 
ATOM     59  O   UNL     1      -3.922   6.094   5.173  1.00  0.00    -0.268 OA
ATOM     60  N   UNL     1      -1.955   6.996   5.923  1.00  0.00    -0.339 N 
ATOM     61  H   UNL     1      -1.263   6.982   6.663  1.00  0.00     0.164 HD
BRANCH  60  62
ATOM     62  C   UNL     1      -1.758   7.890   4.783  1.00  0.00     0.168 CG0
ATOM     63  C   UNL     1      -0.922   7.219   3.700  1.00  0.00     0.041 C 
ATOM     64  G   UNL     1      -1.088   9.195   5.259  1.00  0.00     0.000 G0
ENDBRANCH  60  62
ENDBRANCH  56  58
ENDBRANCH  54  56
ENDBRANCH  52  54
ENDBRANCH  51  52
ENDBRANCH  50  51
ENDBRANCH  49  50
BRANCH  49  65
ATOM     65  C   UNL     1      -9.066   4.750  11.669  1.00  0.00     0.326 C 
ATOM     66  O   UNL     1      -8.687   4.320  12.749  1.00  0.00    -0.250 OA
BRANCH  65  67
ATOM     67  O   UNL     1     -10.151   5.553  11.611  1.00  0.00    -0.480 OA
ATOM     68  H   UNL     1      -9.995   6.206  12.327  1.00  0.00     0.296 HD
ENDBRANCH  65  67
ENDBRANCH  49  65
ENDBRANCH  47  49
ENDBRANCH  43  45
ENDBRANCH   1  43
BRANCH   1  69
ATOM     69  C   UNL     1      -5.396   0.245  10.126  1.00  0.00    -0.001 C 
ATOM     70  C   UNL     1      -4.376   1.111   9.996  1.00  0.00     0.001 C 
BRANCH  70  71
ATOM     71  C   UNL     1      -2.973   0.784   9.733  1.00  0.00    -0.055 C 
ATOM     72  C   UNL     1      -2.588  -0.500   9.887  1.00  0.00    -0.018 C 
ATOM     73  C   UNL     1      -2.060   1.902   9.302  1.00  0.00     0.044 C 
BRANCH  72  74
ATOM     74  C   UNL     1      -1.215  -1.126   9.685  1.00  0.00     0.038 C 
ATOM     75  C   UNL     1      -1.217  -1.782   8.298  1.00  0.00     0.015 C 
BRANCH  74  76
ATOM     76  C   UNL     1      -0.928  -2.098  10.867  1.00  0.00     0.128 C 
BRANCH  76  77
ATOM     77  O   UNL     1      -0.155  -1.428  11.877  1.00  0.00    -0.381 OA
ATOM     78  C   UNL     1       0.165  -0.082  11.551  1.00  0.00     0.195 C 
ENDBRANCH  76  77
BRANCH  76  79
ATOM     79  C   UNL     1      -2.194  -2.785  11.438  1.00  0.00     0.068 C 
BRANCH  79  80
ATOM     80  C   UNL     1      -2.530  -4.171  10.944  1.00  0.00    -0.045 A 
ATOM     81  C   UNL     1      -2.114  -5.309  11.648  1.00  0.00     0.004 A 
ATOM     82  C   UNL     1      -3.246  -4.342   9.749  1.00  0.00     0.004 A 
ATOM     83  C   UNL     1      -2.417  -6.588  11.177  1.00  0.00     0.000 A 
ATOM     84  C   UNL     1      -3.548  -5.622   9.279  1.00  0.00     0.000 A 
ATOM     85  C   UNL     1      -3.135  -6.744   9.993  1.00  0.00     0.000 A 
ENDBRANCH  79  80
ENDBRANCH  76  79
ENDBRANCH  74  76
ENDBRANCH  72  74
ENDBRANCH  70  71
ENDBRANCH   1  69
TORSDOF 17
ENDMDL
MODEL 33
REMARK VINA RESULT:    -7.470      2.789      4.372
REMARK INTER + INTRA:         -28.127
REMARK INTER:                 -20.420
REMARK INTRA:                  -7.707
REMARK UNBOUND:                -5.809
REMARK SMILES C=C1C(=O)N[C@H](C)C(=O)N[C@@H](CC(C)C)C(=O)N[C@@H](C(=O)O)[C@H](C)C(=O)N[C@@H](CCCN=C(N)N)C(=O)N[C@@H](/C=C/C(C)=C/[C@H](C)[C@H](Cc2ccccc2)OC)[C@H](C)C(=O)N[C@@H](C(=O)O)CCC(=O)N1C
REMARK SMILES IDX 39 1 38 2 37 3 36 4 28 6 27 7 25 8 26 9 23 11 24 12 19 13
REMARK SMILES IDX 18 14 16 15 17 16 11 18 10 19 8 20 9 21 12 24 13 25 14 26
REMARK SMILES IDX 15 27 20 28 21 29 22 30 29 32 30 33 31 34 32 35 33 36 34 37
REMARK SMILES IDX 35 38 57 43 58 44 59 45 60 46 61 47 62 49 66 50 67 51 68 52
REMARK SMILES IDX 69 53 70 54 71 55 2 56 1 57 3 58 4 59 5 60 6 62 7 63 63 65
REMARK SMILES IDX 64 66 65 67 40 69 41 70 42 71 44 72 43 73 45 74 46 75 47 76
REMARK SMILES IDX 55 77 56 78 48 79 49 80 50 81 54 82 51 83 53 84 52 85
REMARK H PARENT 38 5 27 10 18 17 10 22 22 31 34 39 34 40 35 41 35 42 61 48
REMARK H PARENT 5 61 65 68
REMARK Flexibility Score:  369.900
ROOT
ATOM      1  C   UNL     1      -8.398  -3.938  11.320  1.00  0.00     0.117 C 
ENDROOT
BRANCH   1   2
ATOM      2  N   UNL     1      -7.582  -3.183  10.369  1.00  0.00    -0.347 N 
ATOM      3  O   UNL     1      -5.864  -4.691  10.163  1.00  0.00    -0.273 OA
ATOM      4  C   UNL     1      -6.421  -3.663   9.795  1.00  0.00     0.243 C 
ATOM      5  H   UNL     1      -7.894  -2.274  10.062  1.00  0.00     0.164 HD
BRANCH   4   6
ATOM      6  C   UNL     1      -5.795  -2.698   8.755  1.00  0.00     0.171 C 
BRANCH   6   7
ATOM      7  N   UNL     1      -5.621  -1.358   9.336  1.00  0.00    -0.344 N 
ATOM      8  C   UNL     1      -6.202  -0.256   8.747  1.00  0.00     0.226 C 
ATOM      9  O   UNL     1      -6.862  -0.328   7.717  1.00  0.00    -0.275 OA
ATOM     10  H   UNL     1      -5.027  -1.248  10.149  1.00  0.00     0.164 HD
BRANCH   8  11
ATOM     11  C   UNL     1      -5.976   1.046   9.496  1.00  0.00     0.109 C 
ATOM     12  C   UNL     1      -7.261   1.874   9.512  1.00  0.00     0.021 C 
BRANCH  11  13
ATOM     13  C   UNL     1      -5.378   0.751  10.886  1.00  0.00     0.204 C 
BRANCH  13  14
ATOM     14  N   UNL     1      -4.182   1.556  11.155  1.00  0.00    -0.340 N 
ATOM     15  C   UNL     1      -2.917   1.169  10.770  1.00  0.00     0.243 C 
ATOM     16  O   UNL     1      -2.709   0.147  10.118  1.00  0.00    -0.273 OA
ATOM     17  H   UNL     1      -4.265   2.332  11.817  1.00  0.00     0.164 HD
BRANCH  15  18
ATOM     18  C   UNL     1      -1.794   2.069  11.341  1.00  0.00     0.171 C 
BRANCH  18  19
ATOM     19  N   UNL     1      -0.536   1.568  10.792  1.00  0.00    -0.343 N 
ATOM     20  C   UNL     1       0.357   0.844  11.558  1.00  0.00     0.242 CG0
ATOM     21  O   UNL     1       0.198   0.700  12.768  1.00  0.00    -0.273 OA
ATOM     22  H   UNL     1      -0.304   1.761   9.824  1.00  0.00     0.164 HD
ATOM     23  G   UNL     1       1.590   0.333  10.785  1.00  0.00     0.000 G0
ENDBRANCH  18  19
BRANCH  18  24
ATOM     24  C   UNL     1      -2.029   3.536  10.961  1.00  0.00     0.038 C 
BRANCH  24  25
ATOM     25  C   UNL     1      -1.359   3.975   9.642  1.00  0.00    -0.015 C 
ATOM     26  C   UNL     1      -0.573   5.278   9.790  1.00  0.00     0.007 C 
ATOM     27  C   UNL     1      -2.422   4.136   8.552  1.00  0.00     0.007 C 
ENDBRANCH  24  25
ENDBRANCH  18  24
ENDBRANCH  15  18
ENDBRANCH  13  14
BRANCH  13  28
ATOM     28  C   UNL     1      -6.362   1.003  12.032  1.00  0.00     0.327 C 
ATOM     29  O   UNL     1      -7.267   0.262  12.384  1.00  0.00    -0.250 OA
BRANCH  28  30
ATOM     30  O   UNL     1      -6.224   2.223  12.590  1.00  0.00    -0.480 OA
ATOM     31  H   UNL     1      -7.113   2.626  12.511  1.00  0.00     0.296 HD
ENDBRANCH  28  30
ENDBRANCH  13  28
ENDBRANCH  11  13
ENDBRANCH   8  11
ENDBRANCH   6   7
BRANCH   6  32
ATOM     32  C   UNL     1      -4.453  -3.269   8.283  1.00  0.00     0.037 C 
BRANCH  32  33
ATOM     33  C   UNL     1      -4.340  -3.293   6.753  1.00  0.00     0.026 C 
BRANCH  33  34
ATOM     34  C   UNL     1      -5.526  -3.994   6.089  1.00  0.00     0.146 C 
BRANCH  34  35
ATOM     35  N   UNL     1      -5.485  -3.733   4.657  1.00  0.00    -0.254 NA
ATOM     36  C   UNL     1      -5.084  -4.664   3.874  1.00  0.00     0.185 C 
ATOM     37  N   UNL     1      -5.047  -4.436   2.552  1.00  0.00    -0.370 N 
ATOM     38  N   UNL     1      -4.670  -5.906   4.181  1.00  0.00    -0.370 N 
ATOM     39  H   UNL     1      -5.354  -3.523   2.240  1.00  0.00     0.159 HD
ATOM     40  H   UNL     1      -4.914  -5.159   1.866  1.00  0.00     0.159 HD
ATOM     41  H   UNL     1      -4.246  -6.500   3.487  1.00  0.00     0.159 HD
ATOM     42  H   UNL     1      -4.630  -6.211   5.141  1.00  0.00     0.159 HD
ENDBRANCH  34  35
ENDBRANCH  33  34
ENDBRANCH  32  33
ENDBRANCH   6  32
ENDBRANCH   4   6
ENDBRANCH   1   2
BRANCH   1  43
ATOM     43  C   UNL     1      -9.181  -5.034  10.540  1.00  0.00     0.102 C 
ATOM     44  C   UNL     1     -10.442  -4.503   9.839  1.00  0.00     0.020 C 
BRANCH  43  45
ATOM     45  C   UNL     1      -9.429  -6.263  11.419  1.00  0.00     0.225 C 
ATOM     46  O   UNL     1     -10.297  -7.098  11.176  1.00  0.00    -0.275 OA
ATOM     47  N   UNL     1      -8.674  -6.333  12.568  1.00  0.00    -0.342 N 
ATOM     48  H   UNL     1      -7.870  -5.730  12.675  1.00  0.00     0.164 HD
BRANCH  47  49
ATOM     49  C   UNL     1      -8.780  -7.470  13.486  1.00  0.00     0.192 C 
BRANCH  49  50
ATOM     50  C   UNL     1      -8.841  -6.963  14.929  1.00  0.00     0.047 C 
BRANCH  50  51
ATOM     51  C   UNL     1      -9.983  -5.960  15.145  1.00  0.00     0.103 C 
BRANCH  51  52
ATOM     52  C   UNL     1     -11.349  -6.573  14.846  1.00  0.00     0.226 C 
ATOM     53  O   UNL     1     -12.012  -6.154  13.895  1.00  0.00    -0.275 OA
BRANCH  52  54
ATOM     54  N   UNL     1     -11.739  -7.658  15.653  1.00  0.00    -0.311 N 
ATOM     55  C   UNL     1     -11.780  -7.535  17.117  1.00  0.00     0.153 C 
BRANCH  54  56
ATOM     56  C   UNL     1     -12.109  -8.892  15.093  1.00  0.00     0.102 C 
ATOM     57  C   UNL     1     -11.249  -9.852  14.715  1.00  0.00     0.043 C 
BRANCH  56  58
ATOM     58  C   UNL     1     -13.563  -9.257  14.913  1.00  0.00     0.268 C 
ATOM     59  O   UNL     1     -14.443  -8.428  14.723  1.00  0.00    -0.268 OA
ATOM     60  N   UNL     1     -13.785 -10.613  14.917  1.00  0.00    -0.339 N 
ATOM     61  H   UNL     1     -13.003 -11.234  15.092  1.00  0.00     0.164 HD
BRANCH  60  62
ATOM     62  C   UNL     1     -15.112 -11.187  14.696  1.00  0.00     0.168 CG0
ATOM     63  C   UNL     1     -15.320 -11.532  13.227  1.00  0.00     0.041 C 
ATOM     64  G   UNL     1     -16.190 -10.197  15.183  1.00  0.00     0.000 G0
ENDBRANCH  60  62
ENDBRANCH  56  58
ENDBRANCH  54  56
ENDBRANCH  52  54
ENDBRANCH  51  52
ENDBRANCH  50  51
ENDBRANCH  49  50
BRANCH  49  65
ATOM     65  C   UNL     1      -7.591  -8.432  13.336  1.00  0.00     0.326 C 
ATOM     66  O   UNL     1      -6.436  -8.104  13.102  1.00  0.00    -0.250 OA
BRANCH  65  67
ATOM     67  O   UNL     1      -7.910  -9.742  13.423  1.00  0.00    -0.480 OA
ATOM     68  H   UNL     1      -7.103 -10.153  13.801  1.00  0.00     0.296 HD
ENDBRANCH  65  67
ENDBRANCH  49  65
ENDBRANCH  47  49
ENDBRANCH  43  45
ENDBRANCH   1  43
BRANCH   1  69
ATOM     69  C   UNL     1      -9.177  -2.910  12.120  1.00  0.00    -0.001 C 
ATOM     70  C   UNL     1      -9.844  -3.106  13.271  1.00  0.00     0.001 C 
BRANCH  70  71
ATOM     71  C   UNL     1     -10.575  -2.100  14.046  1.00  0.00    -0.055 C 
ATOM     72  C   UNL     1     -11.905  -2.269  14.197  1.00  0.00    -0.018 C 
ATOM     73  C   UNL     1      -9.789  -0.954  14.627  1.00  0.00     0.044 C 
BRANCH  72  74
ATOM     74  C   UNL     1     -12.908  -1.400  14.942  1.00  0.00     0.038 C 
ATOM     75  C   UNL     1     -13.494  -2.253  16.073  1.00  0.00     0.015 C 
BRANCH  74  76
ATOM     76  C   UNL     1     -13.954  -0.857  13.924  1.00  0.00     0.128 C 
BRANCH  76  77
ATOM     77  O   UNL     1     -15.231  -0.705  14.567  1.00  0.00    -0.381 OA
ATOM     78  C   UNL     1     -15.930   0.469  14.177  1.00  0.00     0.195 C 
ENDBRANCH  76  77
BRANCH  76  79
ATOM     79  C   UNL     1     -13.502   0.424  13.179  1.00  0.00     0.068 C 
BRANCH  79  80
ATOM     80  C   UNL     1     -12.457   0.282  12.098  1.00  0.00    -0.045 A 
ATOM     81  C   UNL     1     -12.547  -0.734  11.137  1.00  0.00     0.004 A 
ATOM     82  C   UNL     1     -11.359   1.154  12.058  1.00  0.00     0.004 A 
ATOM     83  C   UNL     1     -11.569  -0.867  10.149  1.00  0.00     0.000 A 
ATOM     84  C   UNL     1     -10.381   1.019  11.069  1.00  0.00     0.000 A 
ATOM     85  C   UNL     1     -10.488   0.010  10.115  1.00  0.00     0.000 A 
ENDBRANCH  79  80
ENDBRANCH  76  79
ENDBRANCH  74  76
ENDBRANCH  72  74
ENDBRANCH  70  71
ENDBRANCH   1  69
TORSDOF 17
ENDMDL
MODEL 34
REMARK VINA RESULT:    -7.443      3.253     12.299
REMARK INTER + INTRA:         -28.046
REMARK INTER:                 -20.581
REMARK INTRA:                  -7.465
REMARK UNBOUND:                -5.809
REMARK SMILES C=C1C(=O)N[C@H](C)C(=O)N[C@@H](CC(C)C)C(=O)N[C@@H](C(=O)O)[C@H](C)C(=O)N[C@@H](CCCN=C(N)N)C(=O)N[C@@H](/C=C/C(C)=C/[C@H](C)[C@H](Cc2ccccc2)OC)[C@H](C)C(=O)N[C@@H](C(=O)O)CCC(=O)N1C
REMARK SMILES IDX 39 1 38 2 37 3 36 4 28 6 27 7 25 8 26 9 23 11 24 12 19 13
REMARK SMILES IDX 18 14 16 15 17 16 11 18 10 19 8 20 9 21 12 24 13 25 14 26
REMARK SMILES IDX 15 27 20 28 21 29 22 30 29 32 30 33 31 34 32 35 33 36 34 37
REMARK SMILES IDX 35 38 57 43 58 44 59 45 60 46 61 47 62 49 66 50 67 51 68 52
REMARK SMILES IDX 69 53 70 54 71 55 2 56 1 57 3 58 4 59 5 60 6 62 7 63 63 65
REMARK SMILES IDX 64 66 65 67 40 69 41 70 42 71 44 72 43 73 45 74 46 75 47 76
REMARK SMILES IDX 55 77 56 78 48 79 49 80 50 81 54 82 51 83 53 84 52 85
REMARK H PARENT 38 5 27 10 18 17 10 22 22 31 34 39 34 40 35 41 35 42 61 48
REMARK H PARENT 5 61 65 68
REMARK Flexibility Score:  369.900
ROOT
ATOM      1  C   UNL     1      -7.753  -0.231  10.165  1.00  0.00     0.117 C 
ENDROOT
BRANCH   1   2
ATOM      2  N   UNL     1      -8.826  -1.163  10.512  1.00  0.00    -0.347 N 
ATOM      3  O   UNL     1     -10.578   0.314  10.377  1.00  0.00    -0.273 OA
ATOM      4  C   UNL     1     -10.168  -0.835  10.501  1.00  0.00     0.243 C 
ATOM      5  H   UNL     1      -8.598  -2.121  10.728  1.00  0.00     0.164 HD
BRANCH   4   6
ATOM      6  C   UNL     1     -11.104  -2.028  10.824  1.00  0.00     0.171 C 
BRANCH   6   7
ATOM      7  N   UNL     1     -10.315  -3.226  11.153  1.00  0.00    -0.344 N 
ATOM      8  C   UNL     1     -10.744  -4.477  10.768  1.00  0.00     0.226 C 
ATOM      9  O   UNL     1     -11.795  -4.658  10.164  1.00  0.00    -0.275 OA
ATOM     10  H   UNL     1      -9.475  -3.123  11.710  1.00  0.00     0.164 HD
BRANCH   8  11
ATOM     11  C   UNL     1      -9.794  -5.604  11.134  1.00  0.00     0.109 C 
ATOM     12  C   UNL     1      -8.421  -5.358  10.510  1.00  0.00     0.021 C 
BRANCH  11  13
ATOM     13  C   UNL     1      -9.785  -5.804  12.663  1.00  0.00     0.204 C 
BRANCH  13  14
ATOM     14  N   UNL     1     -11.138  -5.958  13.207  1.00  0.00    -0.340 N 
ATOM     15  C   UNL     1     -11.444  -5.724  14.530  1.00  0.00     0.243 C 
ATOM     16  O   UNL     1     -10.613  -5.309  15.336  1.00  0.00    -0.273 OA
ATOM     17  H   UNL     1     -11.834  -6.441  12.633  1.00  0.00     0.164 HD
BRANCH  15  18
ATOM     18  C   UNL     1     -12.881  -6.152  14.918  1.00  0.00     0.171 C 
BRANCH  18  19
ATOM     19  N   UNL     1     -12.758  -7.403  15.662  1.00  0.00    -0.343 N 
ATOM     20  C   UNL     1     -12.528  -8.609  15.028  1.00  0.00     0.242 CG0
ATOM     21  O   UNL     1     -12.548  -8.706  13.804  1.00  0.00    -0.273 OA
ATOM     22  H   UNL     1     -12.850  -7.393  16.672  1.00  0.00     0.164 HD
ATOM     23  G   UNL     1     -12.350  -9.807  15.984  1.00  0.00     0.000 G0
ENDBRANCH  18  19
BRANCH  18  24
ATOM     24  C   UNL     1     -13.562  -5.063  15.757  1.00  0.00     0.038 C 
BRANCH  24  25
ATOM     25  C   UNL     1     -13.637  -3.679  15.078  1.00  0.00    -0.015 C 
ATOM     26  C   UNL     1     -13.673  -2.533  16.088  1.00  0.00     0.007 C 
ATOM     27  C   UNL     1     -14.875  -3.613  14.179  1.00  0.00     0.007 C 
ENDBRANCH  24  25
ENDBRANCH  18  24
ENDBRANCH  15  18
ENDBRANCH  13  14
BRANCH  13  28
ATOM     28  C   UNL     1      -8.975  -7.025  13.108  1.00  0.00     0.327 C 
ATOM     29  O   UNL     1      -9.119  -8.171  12.712  1.00  0.00    -0.250 OA
BRANCH  28  30
ATOM     30  O   UNL     1      -8.114  -6.752  14.109  1.00  0.00    -0.480 OA
ATOM     31  H   UNL     1      -7.498  -6.093  13.725  1.00  0.00     0.296 HD
ENDBRANCH  28  30
ENDBRANCH  13  28
ENDBRANCH  11  13
ENDBRANCH   8  11
ENDBRANCH   6   7
BRANCH   6  32
ATOM     32  C   UNL     1     -12.026  -1.643  11.987  1.00  0.00     0.037 C 
BRANCH  32  33
ATOM     33  C   UNL     1     -11.245  -1.373  13.281  1.00  0.00     0.026 C 
BRANCH  33  34
ATOM     34  C   UNL     1     -11.705  -0.097  13.986  1.00  0.00     0.146 C 
BRANCH  34  35
ATOM     35  N   UNL     1     -12.242   0.822  12.992  1.00  0.00    -0.254 NA
ATOM     36  C   UNL     1     -12.060   2.079  13.155  1.00  0.00     0.185 C 
ATOM     37  N   UNL     1     -12.546   2.934  12.242  1.00  0.00    -0.370 N 
ATOM     38  N   UNL     1     -11.420   2.718  14.151  1.00  0.00    -0.370 N 
ATOM     39  H   UNL     1     -13.033   2.528  11.453  1.00  0.00     0.159 HD
ATOM     40  H   UNL     1     -12.299   3.908  12.205  1.00  0.00     0.159 HD
ATOM     41  H   UNL     1     -11.464   3.720  14.240  1.00  0.00     0.159 HD
ATOM     42  H   UNL     1     -11.017   2.200  14.916  1.00  0.00     0.159 HD
ENDBRANCH  34  35
ENDBRANCH  33  34
ENDBRANCH  32  33
ENDBRANCH   6  32
ENDBRANCH   4   6
ENDBRANCH   1   2
BRANCH   1  43
ATOM     43  C   UNL     1      -7.944   0.215   8.686  1.00  0.00     0.102 C 
ATOM     44  C   UNL     1      -6.869  -0.339   7.736  1.00  0.00     0.020 C 
BRANCH  43  45
ATOM     45  C   UNL     1      -8.136   1.732   8.590  1.00  0.00     0.225 C 
ATOM     46  O   UNL     1      -8.120   2.344   7.526  1.00  0.00    -0.275 OA
ATOM     47  N   UNL     1      -8.236   2.394   9.792  1.00  0.00    -0.342 N 
ATOM     48  H   UNL     1      -8.399   1.869  10.640  1.00  0.00     0.164 HD
BRANCH  47  49
ATOM     49  C   UNL     1      -8.458   3.841   9.854  1.00  0.00     0.192 C 
BRANCH  49  50
ATOM     50  C   UNL     1      -7.204   4.532  10.396  1.00  0.00     0.047 C 
BRANCH  50  51
ATOM     51  C   UNL     1      -5.966   4.253   9.531  1.00  0.00     0.103 C 
BRANCH  51  52
ATOM     52  C   UNL     1      -5.182   3.040  10.027  1.00  0.00     0.226 C 
ATOM     53  O   UNL     1      -5.343   2.639  11.181  1.00  0.00    -0.275 OA
BRANCH  52  54
ATOM     54  N   UNL     1      -4.361   2.396   9.082  1.00  0.00    -0.311 N 
ATOM     55  C   UNL     1      -3.644   1.160   9.422  1.00  0.00     0.153 C 
BRANCH  54  56
ATOM     56  C   UNL     1      -4.201   2.906   7.783  1.00  0.00     0.102 C 
ATOM     57  C   UNL     1      -4.743   2.372   6.676  1.00  0.00     0.043 C 
BRANCH  56  58
ATOM     58  C   UNL     1      -3.410   4.169   7.538  1.00  0.00     0.268 C 
ATOM     59  O   UNL     1      -2.434   4.488   8.203  1.00  0.00    -0.268 OA
ATOM     60  N   UNL     1      -3.859   4.885   6.454  1.00  0.00    -0.339 N 
ATOM     61  H   UNL     1      -4.681   4.559   5.961  1.00  0.00     0.164 HD
BRANCH  60  62
ATOM     62  C   UNL     1      -3.198   6.109   6.002  1.00  0.00     0.168 CG0
ATOM     63  C   UNL     1      -3.921   6.709   4.802  1.00  0.00     0.041 C 
ATOM     64  G   UNL     1      -1.726   5.804   5.656  1.00  0.00     0.000 G0
ENDBRANCH  60  62
ENDBRANCH  56  58
ENDBRANCH  54  56
ENDBRANCH  52  54
ENDBRANCH  51  52
ENDBRANCH  50  51
ENDBRANCH  49  50
BRANCH  49  65
ATOM     65  C   UNL     1      -9.659   4.193  10.746  1.00  0.00     0.326 C 
ATOM     66  O   UNL     1      -9.653   4.215  11.968  1.00  0.00    -0.250 OA
BRANCH  65  67
ATOM     67  O   UNL     1     -10.806   4.437  10.076  1.00  0.00    -0.480 OA
ATOM     68  H   UNL     1     -10.924   3.638   9.519  1.00  0.00     0.296 HD
ENDBRANCH  65  67
ENDBRANCH  49  65
ENDBRANCH  47  49
ENDBRANCH  43  45
ENDBRANCH   1  43
BRANCH   1  69
ATOM     69  C   UNL     1      -6.456  -0.911  10.564  1.00  0.00    -0.001 C 
ATOM     70  C   UNL     1      -6.130  -2.206  10.407  1.00  0.00     0.001 C 
BRANCH  70  71
ATOM     71  C   UNL     1      -4.866  -2.846  10.777  1.00  0.00    -0.055 C 
ATOM     72  C   UNL     1      -4.310  -2.502  11.957  1.00  0.00    -0.018 C 
ATOM     73  C   UNL     1      -4.281  -3.850   9.818  1.00  0.00     0.044 C 
BRANCH  72  74
ATOM     74  C   UNL     1      -3.021  -2.998  12.596  1.00  0.00     0.038 C 
ATOM     75  C   UNL     1      -3.297  -4.406  13.137  1.00  0.00     0.015 C 
BRANCH  74  76
ATOM     76  C   UNL     1      -2.562  -1.965  13.667  1.00  0.00     0.128 C 
BRANCH  76  77
ATOM     77  O   UNL     1      -2.727  -2.518  14.984  1.00  0.00    -0.381 OA
ATOM     78  C   UNL     1      -3.908  -2.081  15.643  1.00  0.00     0.195 C 
ENDBRANCH  76  77
BRANCH  76  79
ATOM     79  C   UNL     1      -1.140  -1.400  13.428  1.00  0.00     0.068 C 
BRANCH  79  80
ATOM     80  C   UNL     1      -1.013  -0.106  12.660  1.00  0.00    -0.045 A 
ATOM     81  C   UNL     1      -0.134   0.006  11.575  1.00  0.00     0.004 A 
ATOM     82  C   UNL     1      -1.759   1.019  13.043  1.00  0.00     0.004 A 
ATOM     83  C   UNL     1      -0.012   1.211  10.879  1.00  0.00     0.000 A 
ATOM     84  C   UNL     1      -1.635   2.224  12.346  1.00  0.00     0.000 A 
ATOM     85  C   UNL     1      -0.763   2.319  11.264  1.00  0.00     0.000 A 
ENDBRANCH  79  80
ENDBRANCH  76  79
ENDBRANCH  74  76
ENDBRANCH  72  74
ENDBRANCH  70  71
ENDBRANCH   1  69
TORSDOF 17
ENDMDL
MODEL 35
REMARK VINA RESULT:    -7.439      3.202     13.163
REMARK INTER + INTRA:         -28.034
REMARK INTER:                 -21.721
REMARK INTRA:                  -6.313
REMARK UNBOUND:                -5.809
REMARK SMILES C=C1C(=O)N[C@H](C)C(=O)N[C@@H](CC(C)C)C(=O)N[C@@H](C(=O)O)[C@H](C)C(=O)N[C@@H](CCCN=C(N)N)C(=O)N[C@@H](/C=C/C(C)=C/[C@H](C)[C@H](Cc2ccccc2)OC)[C@H](C)C(=O)N[C@@H](C(=O)O)CCC(=O)N1C
REMARK SMILES IDX 39 1 38 2 37 3 36 4 28 6 27 7 25 8 26 9 23 11 24 12 19 13
REMARK SMILES IDX 18 14 16 15 17 16 11 18 10 19 8 20 9 21 12 24 13 25 14 26
REMARK SMILES IDX 15 27 20 28 21 29 22 30 29 32 30 33 31 34 32 35 33 36 34 37
REMARK SMILES IDX 35 38 57 43 58 44 59 45 60 46 61 47 62 49 66 50 67 51 68 52
REMARK SMILES IDX 69 53 70 54 71 55 2 56 1 57 3 58 4 59 5 60 6 62 7 63 63 65
REMARK SMILES IDX 64 66 65 67 40 69 41 70 42 71 44 72 43 73 45 74 46 75 47 76
REMARK SMILES IDX 55 77 56 78 48 79 49 80 50 81 54 82 51 83 53 84 52 85
REMARK H PARENT 38 5 27 10 18 17 10 22 22 31 34 39 34 40 35 41 35 42 61 48
REMARK H PARENT 5 61 65 68
REMARK Flexibility Score:  369.900
ROOT
ATOM      1  C   UNL     1      -7.147  -0.158  11.831  1.00  0.00     0.117 C 
ENDROOT
BRANCH   1   2
ATOM      2  N   UNL     1      -8.489  -0.535  11.386  1.00  0.00    -0.347 N 
ATOM      3  O   UNL     1      -8.267  -2.809  11.614  1.00  0.00    -0.273 OA
ATOM      4  C   UNL     1      -8.973  -1.829  11.400  1.00  0.00     0.243 C 
ATOM      5  H   UNL     1      -9.133   0.184  11.093  1.00  0.00     0.164 HD
BRANCH   4   6
ATOM      6  C   UNL     1     -10.455  -1.945  10.959  1.00  0.00     0.171 C 
BRANCH   6   7
ATOM      7  N   UNL     1     -11.271  -2.515  12.043  1.00  0.00    -0.344 N 
ATOM      8  C   UNL     1     -11.180  -2.020  13.326  1.00  0.00     0.226 C 
ATOM      9  O   UNL     1     -10.415  -1.114  13.631  1.00  0.00    -0.275 OA
ATOM     10  H   UNL     1     -11.865  -3.310  11.844  1.00  0.00     0.164 HD
BRANCH   8  11
ATOM     11  C   UNL     1     -12.125  -2.677  14.318  1.00  0.00     0.109 C 
ATOM     12  C   UNL     1     -13.216  -1.691  14.736  1.00  0.00     0.021 C 
BRANCH  11  13
ATOM     13  C   UNL     1     -12.641  -4.010  13.742  1.00  0.00     0.204 C 
BRANCH  13  14
ATOM     14  N   UNL     1     -11.863  -5.157  14.221  1.00  0.00    -0.340 N 
ATOM     15  C   UNL     1     -10.984  -5.852  13.419  1.00  0.00     0.243 C 
ATOM     16  O   UNL     1     -10.745  -5.522  12.259  1.00  0.00    -0.273 OA
ATOM     17  H   UNL     1     -12.124  -5.573  15.119  1.00  0.00     0.164 HD
BRANCH  15  18
ATOM     18  C   UNL     1     -10.437  -7.143  14.076  1.00  0.00     0.171 C 
BRANCH  18  19
ATOM     19  N   UNL     1     -11.059  -8.265  13.376  1.00  0.00    -0.343 N 
ATOM     20  C   UNL     1     -11.764  -9.244  14.050  1.00  0.00     0.242 CG0
ATOM     21  O   UNL     1     -11.789  -9.289  15.278  1.00  0.00    -0.273 OA
ATOM     22  H   UNL     1     -10.969  -8.335  12.369  1.00  0.00     0.164 HD
ATOM     23  G   UNL     1     -12.416 -10.302  13.137  1.00  0.00     0.000 G0
ENDBRANCH  18  19
BRANCH  18  24
ATOM     24  C   UNL     1      -8.907  -7.196  13.974  1.00  0.00     0.038 C 
BRANCH  24  25
ATOM     25  C   UNL     1      -8.180  -5.965  14.555  1.00  0.00    -0.015 C 
ATOM     26  C   UNL     1      -7.002  -5.519  13.688  1.00  0.00     0.007 C 
ATOM     27  C   UNL     1      -7.688  -6.279  15.970  1.00  0.00     0.007 C 
ENDBRANCH  24  25
ENDBRANCH  18  24
ENDBRANCH  15  18
ENDBRANCH  13  14
BRANCH  13  28
ATOM     28  C   UNL     1     -14.110  -4.286  14.080  1.00  0.00     0.327 C 
ATOM     29  O   UNL     1     -14.533  -4.780  15.114  1.00  0.00    -0.250 OA
BRANCH  28  30
ATOM     30  O   UNL     1     -14.945  -4.033  13.052  1.00  0.00    -0.480 OA
ATOM     31  H   UNL     1     -15.122  -4.915  12.663  1.00  0.00     0.296 HD
ENDBRANCH  28  30
ENDBRANCH  13  28
ENDBRANCH  11  13
ENDBRANCH   8  11
ENDBRANCH   6   7
BRANCH   6  32
ATOM     32  C   UNL     1     -10.970  -0.558  10.558  1.00  0.00     0.037 C 
BRANCH  32  33
ATOM     33  C   UNL     1     -12.500  -0.520  10.444  1.00  0.00     0.026 C 
BRANCH  33  34
ATOM     34  C   UNL     1     -13.141   0.410  11.475  1.00  0.00     0.146 C 
BRANCH  34  35
ATOM     35  N   UNL     1     -13.730   1.547  10.781  1.00  0.00    -0.254 NA
ATOM     36  C   UNL     1     -13.311   2.724  11.064  1.00  0.00     0.185 C 
ATOM     37  N   UNL     1     -13.843   3.778  10.427  1.00  0.00    -0.370 N 
ATOM     38  N   UNL     1     -12.367   3.095  11.948  1.00  0.00    -0.370 N 
ATOM     39  H   UNL     1     -14.555   3.579   9.736  1.00  0.00     0.159 HD
ATOM     40  H   UNL     1     -13.453   4.704  10.463  1.00  0.00     0.159 HD
ATOM     41  H   UNL     1     -12.224   4.063  12.181  1.00  0.00     0.159 HD
ATOM     42  H   UNL     1     -11.893   2.406  12.511  1.00  0.00     0.159 HD
ENDBRANCH  34  35
ENDBRANCH  33  34
ENDBRANCH  32  33
ENDBRANCH   6  32
ENDBRANCH   4   6
ENDBRANCH   1   2
BRANCH   1  43
ATOM     43  C   UNL     1      -7.249   1.161  12.650  1.00  0.00     0.102 C 
ATOM     44  C   UNL     1      -7.618   0.938  14.127  1.00  0.00     0.020 C 
BRANCH  43  45
ATOM     45  C   UNL     1      -8.138   2.184  11.936  1.00  0.00     0.225 C 
ATOM     46  O   UNL     1      -9.341   2.019  11.758  1.00  0.00    -0.275 OA
ATOM     47  N   UNL     1      -7.482   3.275  11.413  1.00  0.00    -0.342 N 
ATOM     48  H   UNL     1      -6.532   3.471  11.696  1.00  0.00     0.164 HD
BRANCH  47  49
ATOM     49  C   UNL     1      -8.208   4.353  10.734  1.00  0.00     0.192 C 
BRANCH  49  50
ATOM     50  C   UNL     1      -7.221   5.232   9.962  1.00  0.00     0.047 C 
BRANCH  50  51
ATOM     51  C   UNL     1      -6.128   4.408   9.267  1.00  0.00     0.103 C 
BRANCH  51  52
ATOM     52  C   UNL     1      -5.022   5.291   8.693  1.00  0.00     0.226 C 
ATOM     53  O   UNL     1      -4.970   6.483   9.002  1.00  0.00    -0.275 OA
BRANCH  52  54
ATOM     54  N   UNL     1      -4.065   4.650   7.885  1.00  0.00    -0.311 N 
ATOM     55  C   UNL     1      -4.213   3.236   7.514  1.00  0.00     0.153 C 
BRANCH  54  56
ATOM     56  C   UNL     1      -2.939   5.336   7.400  1.00  0.00     0.102 C 
ATOM     57  C   UNL     1      -1.727   5.330   7.979  1.00  0.00     0.043 C 
BRANCH  56  58
ATOM     58  C   UNL     1      -3.006   6.124   6.113  1.00  0.00     0.268 C 
ATOM     59  O   UNL     1      -3.968   6.090   5.357  1.00  0.00    -0.268 OA
ATOM     60  N   UNL     1      -1.910   6.929   5.914  1.00  0.00    -0.339 N 
ATOM     61  H   UNL     1      -1.150   6.891   6.583  1.00  0.00     0.164 HD
BRANCH  60  62
ATOM     62  C   UNL     1      -1.799   7.824   4.763  1.00  0.00     0.168 CG0
ATOM     63  C   UNL     1      -0.923   7.211   3.677  1.00  0.00     0.041 C 
ATOM     64  G   UNL     1      -1.232   9.184   5.218  1.00  0.00     0.000 G0
ENDBRANCH  60  62
ENDBRANCH  56  58
ENDBRANCH  54  56
ENDBRANCH  52  54
ENDBRANCH  51  52
ENDBRANCH  50  51
ENDBRANCH  49  50
BRANCH  49  65
ATOM     65  C   UNL     1      -8.993   5.222  11.729  1.00  0.00     0.326 C 
ATOM     66  O   UNL     1      -8.505   6.030  12.506  1.00  0.00    -0.250 OA
BRANCH  65  67
ATOM     67  O   UNL     1     -10.325   4.997  11.746  1.00  0.00    -0.480 OA
ATOM     68  H   UNL     1     -10.514   4.660  10.844  1.00  0.00     0.296 HD
ENDBRANCH  65  67
ENDBRANCH  49  65
ENDBRANCH  47  49
ENDBRANCH  43  45
ENDBRANCH   1  43
BRANCH   1  69
ATOM     69  C   UNL     1      -6.266  -0.188  10.596  1.00  0.00    -0.001 C 
ATOM     70  C   UNL     1      -5.159  -0.926  10.399  1.00  0.00     0.001 C 
BRANCH  70  71
ATOM     71  C   UNL     1      -4.329  -0.962   9.194  1.00  0.00    -0.055 C 
ATOM     72  C   UNL     1      -4.789  -1.663   8.136  1.00  0.00    -0.018 C 
ATOM     73  C   UNL     1      -3.025  -0.209   9.216  1.00  0.00     0.044 C 
BRANCH  72  74
ATOM     74  C   UNL     1      -4.153  -1.873   6.769  1.00  0.00     0.038 C 
ATOM     75  C   UNL     1      -4.459  -0.625   5.931  1.00  0.00     0.015 C 
BRANCH  74  76
ATOM     76  C   UNL     1      -4.684  -3.208   6.169  1.00  0.00     0.128 C 
BRANCH  76  77
ATOM     77  O   UNL     1      -4.716  -3.123   4.734  1.00  0.00    -0.381 OA
ATOM     78  C   UNL     1      -5.063  -4.345   4.098  1.00  0.00     0.195 C 
ENDBRANCH  76  77
BRANCH  76  79
ATOM     79  C   UNL     1      -3.938  -4.467   6.678  1.00  0.00     0.068 C 
BRANCH  79  80
ATOM     80  C   UNL     1      -4.157  -4.887   8.112  1.00  0.00    -0.045 A 
ATOM     81  C   UNL     1      -3.130  -4.783   9.060  1.00  0.00     0.004 A 
ATOM     82  C   UNL     1      -5.392  -5.419   8.512  1.00  0.00     0.004 A 
ATOM     83  C   UNL     1      -3.337  -5.187  10.380  1.00  0.00     0.000 A 
ATOM     84  C   UNL     1      -5.597  -5.823   9.833  1.00  0.00     0.000 A 
ATOM     85  C   UNL     1      -4.570  -5.705  10.767  1.00  0.00     0.000 A 
ENDBRANCH  79  80
ENDBRANCH  76  79
ENDBRANCH  74  76
ENDBRANCH  72  74
ENDBRANCH  70  71
ENDBRANCH   1  69
TORSDOF 17
ENDMDL
MODEL 36
REMARK VINA RESULT:    -7.416      3.548      9.832
REMARK INTER + INTRA:         -27.966
REMARK INTER:                 -20.349
REMARK INTRA:                  -7.617
REMARK UNBOUND:                -5.809
REMARK SMILES C=C1C(=O)N[C@H](C)C(=O)N[C@@H](CC(C)C)C(=O)N[C@@H](C(=O)O)[C@H](C)C(=O)N[C@@H](CCCN=C(N)N)C(=O)N[C@@H](/C=C/C(C)=C/[C@H](C)[C@H](Cc2ccccc2)OC)[C@H](C)C(=O)N[C@@H](C(=O)O)CCC(=O)N1C
REMARK SMILES IDX 39 1 38 2 37 3 36 4 28 6 27 7 25 8 26 9 23 11 24 12 19 13
REMARK SMILES IDX 18 14 16 15 17 16 11 18 10 19 8 20 9 21 12 24 13 25 14 26
REMARK SMILES IDX 15 27 20 28 21 29 22 30 29 32 30 33 31 34 32 35 33 36 34 37
REMARK SMILES IDX 35 38 57 43 58 44 59 45 60 46 61 47 62 49 66 50 67 51 68 52
REMARK SMILES IDX 69 53 70 54 71 55 2 56 1 57 3 58 4 59 5 60 6 62 7 63 63 65
REMARK SMILES IDX 64 66 65 67 40 69 41 70 42 71 44 72 43 73 45 74 46 75 47 76
REMARK SMILES IDX 55 77 56 78 48 79 49 80 50 81 54 82 51 83 53 84 52 85
REMARK H PARENT 38 5 27 10 18 17 10 22 22 31 34 39 34 40 35 41 35 42 61 48
REMARK H PARENT 5 61 65 68
REMARK Flexibility Score:  369.900
ROOT
ATOM      1  C   UNL     1      -9.138  -1.511   9.097  1.00  0.00     0.117 C 
ENDROOT
BRANCH   1   2
ATOM      2  N   UNL     1      -9.798  -1.973  10.319  1.00  0.00    -0.347 N 
ATOM      3  O   UNL     1     -11.512  -0.447  10.347  1.00  0.00    -0.273 OA
ATOM      4  C   UNL     1     -10.988  -1.460  10.797  1.00  0.00     0.243 C 
ATOM      5  H   UNL     1      -9.402  -2.746  10.832  1.00  0.00     0.164 HD
BRANCH   4   6
ATOM      6  C   UNL     1     -11.516  -2.185  12.062  1.00  0.00     0.171 C 
BRANCH   6   7
ATOM      7  N   UNL     1     -10.575  -2.017  13.181  1.00  0.00    -0.344 N 
ATOM      8  C   UNL     1     -10.395  -3.024  14.104  1.00  0.00     0.226 C 
ATOM      9  O   UNL     1     -11.013  -4.082  14.057  1.00  0.00    -0.275 OA
ATOM     10  H   UNL     1     -10.097  -1.132  13.292  1.00  0.00     0.164 HD
BRANCH   8  11
ATOM     11  C   UNL     1      -9.352  -2.721  15.166  1.00  0.00     0.109 C 
ATOM     12  C   UNL     1      -9.968  -2.847  16.559  1.00  0.00     0.021 C 
BRANCH  11  13
ATOM     13  C   UNL     1      -8.100  -3.589  14.929  1.00  0.00     0.204 C 
BRANCH  13  14
ATOM     14  N   UNL     1      -8.405  -4.801  14.163  1.00  0.00    -0.340 N 
ATOM     15  C   UNL     1      -8.011  -6.059  14.564  1.00  0.00     0.243 C 
ATOM     16  O   UNL     1      -7.425  -6.260  15.627  1.00  0.00    -0.273 OA
ATOM     17  H   UNL     1      -8.751  -4.690  13.206  1.00  0.00     0.164 HD
BRANCH  15  18
ATOM     18  C   UNL     1      -8.261  -7.154  13.499  1.00  0.00     0.171 C 
BRANCH  18  19
ATOM     19  N   UNL     1      -7.076  -7.185  12.643  1.00  0.00    -0.343 N 
ATOM     20  C   UNL     1      -6.995  -6.438  11.484  1.00  0.00     0.242 CG0
ATOM     21  O   UNL     1      -7.962  -5.817  11.049  1.00  0.00    -0.273 OA
ATOM     22  H   UNL     1      -6.292  -7.774  12.900  1.00  0.00     0.164 HD
ATOM     23  G   UNL     1      -5.639  -6.538  10.756  1.00  0.00     0.000 G0
ENDBRANCH  18  19
BRANCH  18  24
ATOM     24  C   UNL     1      -8.507  -8.513  14.167  1.00  0.00     0.038 C 
BRANCH  24  25
ATOM     25  C   UNL     1      -9.572  -9.388  13.473  1.00  0.00    -0.015 C 
ATOM     26  C   UNL     1     -10.998  -8.972  13.834  1.00  0.00     0.007 C 
ATOM     27  C   UNL     1      -9.354 -10.857  13.847  1.00  0.00     0.007 C 
ENDBRANCH  24  25
ENDBRANCH  18  24
ENDBRANCH  15  18
ENDBRANCH  13  14
BRANCH  13  28
ATOM     28  C   UNL     1      -6.985  -2.849  14.184  1.00  0.00     0.327 C 
ATOM     29  O   UNL     1      -6.153  -3.352  13.444  1.00  0.00    -0.250 OA
BRANCH  28  30
ATOM     30  O   UNL     1      -6.911  -1.542  14.506  1.00  0.00    -0.480 OA
ATOM     31  H   UNL     1      -6.721  -1.541  15.467  1.00  0.00     0.296 HD
ENDBRANCH  28  30
ENDBRANCH  13  28
ENDBRANCH  11  13
ENDBRANCH   8  11
ENDBRANCH   6   7
BRANCH   6  32
ATOM     32  C   UNL     1     -12.898  -1.629  12.420  1.00  0.00     0.037 C 
BRANCH  32  33
ATOM     33  C   UNL     1     -12.940  -1.053  13.843  1.00  0.00     0.026 C 
BRANCH  33  34
ATOM     34  C   UNL     1     -14.167  -1.519  14.627  1.00  0.00     0.146 C 
BRANCH  34  35
ATOM     35  N   UNL     1     -13.963  -2.900  15.042  1.00  0.00    -0.254 NA
ATOM     36  C   UNL     1     -14.772  -3.796  14.613  1.00  0.00     0.185 C 
ATOM     37  N   UNL     1     -14.590  -5.073  14.985  1.00  0.00    -0.370 N 
ATOM     38  N   UNL     1     -15.835  -3.656  13.801  1.00  0.00    -0.370 N 
ATOM     39  H   UNL     1     -13.802  -5.262  15.590  1.00  0.00     0.159 HD
ATOM     40  H   UNL     1     -15.067  -5.849  14.559  1.00  0.00     0.159 HD
ATOM     41  H   UNL     1     -16.477  -4.416  13.647  1.00  0.00     0.159 HD
ATOM     42  H   UNL     1     -16.100  -2.747  13.456  1.00  0.00     0.159 HD
ENDBRANCH  34  35
ENDBRANCH  33  34
ENDBRANCH  32  33
ENDBRANCH   6  32
ENDBRANCH   4   6
ENDBRANCH   1   2
BRANCH   1  43
ATOM     43  C   UNL     1      -8.743  -2.753   8.248  1.00  0.00     0.102 C 
ATOM     44  C   UNL     1      -9.547  -4.016   8.598  1.00  0.00     0.020 C 
BRANCH  43  45
ATOM     45  C   UNL     1      -7.225  -2.961   8.252  1.00  0.00     0.225 C 
ATOM     46  O   UNL     1      -6.620  -3.468   9.192  1.00  0.00    -0.275 OA
ATOM     47  N   UNL     1      -6.555  -2.455   7.162  1.00  0.00    -0.342 N 
ATOM     48  H   UNL     1      -7.072  -2.182   6.338  1.00  0.00     0.164 HD
BRANCH  47  49
ATOM     49  C   UNL     1      -5.105  -2.613   7.014  1.00  0.00     0.192 C 
BRANCH  49  50
ATOM     50  C   UNL     1      -4.383  -1.582   7.886  1.00  0.00     0.047 C 
BRANCH  50  51
ATOM     51  C   UNL     1      -3.118  -2.156   8.538  1.00  0.00     0.103 C 
BRANCH  51  52
ATOM     52  C   UNL     1      -3.229  -2.206  10.060  1.00  0.00     0.226 C 
ATOM     53  O   UNL     1      -4.095  -1.540  10.631  1.00  0.00    -0.275 OA
BRANCH  52  54
ATOM     54  N   UNL     1      -2.359  -3.091  10.724  1.00  0.00    -0.311 N 
ATOM     55  C   UNL     1      -0.907  -3.027  10.509  1.00  0.00     0.153 C 
BRANCH  54  56
ATOM     56  C   UNL     1      -2.843  -4.062  11.616  1.00  0.00     0.102 C 
ATOM     57  C   UNL     1      -2.848  -3.941  12.954  1.00  0.00     0.043 C 
BRANCH  56  58
ATOM     58  C   UNL     1      -3.459  -5.344  11.108  1.00  0.00     0.268 C 
ATOM     59  O   UNL     1      -2.797  -6.303  10.736  1.00  0.00    -0.268 OA
ATOM     60  N   UNL     1      -4.832  -5.345  11.169  1.00  0.00    -0.339 N 
ATOM     61  H   UNL     1      -5.307  -4.506  11.480  1.00  0.00     0.164 HD
BRANCH  60  62
ATOM     62  C   UNL     1      -5.628  -6.510  10.785  1.00  0.00     0.168 CG0
ATOM     63  C   UNL     1      -5.799  -6.581   9.273  1.00  0.00     0.041 C 
ATOM     64  G   UNL     1      -7.000  -6.453  11.488  1.00  0.00     0.000 G0
ENDBRANCH  60  62
ENDBRANCH  56  58
ENDBRANCH  54  56
ENDBRANCH  52  54
ENDBRANCH  51  52
ENDBRANCH  50  51
ENDBRANCH  49  50
BRANCH  49  65
ATOM     65  C   UNL     1      -4.663  -2.441   5.552  1.00  0.00     0.326 C 
ATOM     66  O   UNL     1      -4.210  -1.416   5.062  1.00  0.00    -0.250 OA
BRANCH  65  67
ATOM     67  O   UNL     1      -4.863  -3.525   4.771  1.00  0.00    -0.480 OA
ATOM     68  H   UNL     1      -5.321  -4.158   5.366  1.00  0.00     0.296 HD
ENDBRANCH  65  67
ENDBRANCH  49  65
ENDBRANCH  47  49
ENDBRANCH  43  45
ENDBRANCH   1  43
BRANCH   1  69
ATOM     69  C   UNL     1      -8.051  -0.549   9.541  1.00  0.00    -0.001 C 
ATOM     70  C   UNL     1      -7.783   0.669   9.037  1.00  0.00     0.001 C 
BRANCH  70  71
ATOM     71  C   UNL     1      -6.744   1.598   9.488  1.00  0.00    -0.055 C 
ATOM     72  C   UNL     1      -6.583   2.744   8.793  1.00  0.00    -0.018 C 
ATOM     73  C   UNL     1      -5.935   1.213  10.698  1.00  0.00     0.044 C 
BRANCH  72  74
ATOM     74  C   UNL     1      -5.600   3.882   9.027  1.00  0.00     0.038 C 
ATOM     75  C   UNL     1      -6.414   5.095   9.493  1.00  0.00     0.015 C 
BRANCH  74  76
ATOM     76  C   UNL     1      -4.777   4.108   7.725  1.00  0.00     0.128 C 
BRANCH  76  77
ATOM     77  O   UNL     1      -4.235   5.440   7.712  1.00  0.00    -0.381 OA
ATOM     78  C   UNL     1      -3.578   5.777   6.498  1.00  0.00     0.195 C 
ENDBRANCH  76  77
BRANCH  76  79
ATOM     79  C   UNL     1      -3.703   3.022   7.462  1.00  0.00     0.068 C 
BRANCH  79  80
ATOM     80  C   UNL     1      -2.717   2.721   8.565  1.00  0.00    -0.045 A 
ATOM     81  C   UNL     1      -2.441   1.401   8.945  1.00  0.00     0.004 A 
ATOM     82  C   UNL     1      -2.081   3.767   9.250  1.00  0.00     0.004 A 
ATOM     83  C   UNL     1      -1.538   1.131   9.976  1.00  0.00     0.000 A 
ATOM     84  C   UNL     1      -1.179   3.496  10.281  1.00  0.00     0.000 A 
ATOM     85  C   UNL     1      -0.906   2.179  10.643  1.00  0.00     0.000 A 
ENDBRANCH  79  80
ENDBRANCH  76  79
ENDBRANCH  74  76
ENDBRANCH  72  74
ENDBRANCH  70  71
ENDBRANCH   1  69
TORSDOF 17
ENDMDL
MODEL 37
REMARK VINA RESULT:    -7.407      4.106      8.719
REMARK INTER + INTRA:         -27.939
REMARK INTER:                 -20.612
REMARK INTRA:                  -7.327
REMARK UNBOUND:                -5.809
REMARK SMILES C=C1C(=O)N[C@H](C)C(=O)N[C@@H](CC(C)C)C(=O)N[C@@H](C(=O)O)[C@H](C)C(=O)N[C@@H](CCCN=C(N)N)C(=O)N[C@@H](/C=C/C(C)=C/[C@H](C)[C@H](Cc2ccccc2)OC)[C@H](C)C(=O)N[C@@H](C(=O)O)CCC(=O)N1C
REMARK SMILES IDX 39 1 38 2 37 3 36 4 28 6 27 7 25 8 26 9 23 11 24 12 19 13
REMARK SMILES IDX 18 14 16 15 17 16 11 18 10 19 8 20 9 21 12 24 13 25 14 26
REMARK SMILES IDX 15 27 20 28 21 29 22 30 29 32 30 33 31 34 32 35 33 36 34 37
REMARK SMILES IDX 35 38 57 43 58 44 59 45 60 46 61 47 62 49 66 50 67 51 68 52
REMARK SMILES IDX 69 53 70 54 71 55 2 56 1 57 3 58 4 59 5 60 6 62 7 63 63 65
REMARK SMILES IDX 64 66 65 67 40 69 41 70 42 71 44 72 43 73 45 74 46 75 47 76
REMARK SMILES IDX 55 77 56 78 48 79 49 80 50 81 54 82 51 83 53 84 52 85
REMARK H PARENT 38 5 27 10 18 17 10 22 22 31 34 39 34 40 35 41 35 42 61 48
REMARK H PARENT 5 61 65 68
REMARK Flexibility Score:  369.900
ROOT
ATOM      1  C   UNL     1      -8.547   2.753  10.220  1.00  0.00     0.117 C 
ENDROOT
BRANCH   1   2
ATOM      2  N   UNL     1      -8.403   1.447   9.575  1.00  0.00    -0.347 N 
ATOM      3  O   UNL     1      -6.183   1.108  10.049  1.00  0.00    -0.273 OA
ATOM      4  C   UNL     1      -7.251   0.685   9.620  1.00  0.00     0.243 C 
ATOM      5  H   UNL     1      -9.196   1.038   9.104  1.00  0.00     0.164 HD
BRANCH   4   6
ATOM      6  C   UNL     1      -7.390  -0.695   8.930  1.00  0.00     0.171 C 
BRANCH   6   7
ATOM      7  N   UNL     1      -6.158  -1.030   8.197  1.00  0.00    -0.344 N 
ATOM      8  C   UNL     1      -6.086  -2.170   7.427  1.00  0.00     0.226 C 
ATOM      9  O   UNL     1      -7.017  -2.962   7.331  1.00  0.00    -0.275 OA
ATOM     10  H   UNL     1      -5.346  -0.435   8.306  1.00  0.00     0.164 HD
BRANCH   8  11
ATOM     11  C   UNL     1      -4.770  -2.347   6.691  1.00  0.00     0.109 C 
ATOM     12  C   UNL     1      -4.266  -0.995   6.184  1.00  0.00     0.021 C 
BRANCH  11  13
ATOM     13  C   UNL     1      -3.774  -3.117   7.582  1.00  0.00     0.204 C 
BRANCH  13  14
ATOM     14  N   UNL     1      -4.277  -3.292   8.948  1.00  0.00    -0.340 N 
ATOM     15  C   UNL     1      -3.457  -3.596  10.013  1.00  0.00     0.243 C 
ATOM     16  O   UNL     1      -2.236  -3.682   9.903  1.00  0.00    -0.273 OA
ATOM     17  H   UNL     1      -5.287  -3.384   9.080  1.00  0.00     0.164 HD
BRANCH  15  18
ATOM     18  C   UNL     1      -4.231  -3.938  11.310  1.00  0.00     0.171 C 
BRANCH  18  19
ATOM     19  N   UNL     1      -4.304  -2.705  12.092  1.00  0.00    -0.343 N 
ATOM     20  C   UNL     1      -3.346  -2.382  13.034  1.00  0.00     0.242 CG0
ATOM     21  O   UNL     1      -2.464  -3.176  13.353  1.00  0.00    -0.273 OA
ATOM     22  H   UNL     1      -5.079  -2.069  11.946  1.00  0.00     0.164 HD
ATOM     23  G   UNL     1      -3.548  -1.006  13.701  1.00  0.00     0.000 G0
ENDBRANCH  18  19
BRANCH  18  24
ATOM     24  C   UNL     1      -5.628  -4.478  10.981  1.00  0.00     0.038 C 
BRANCH  24  25
ATOM     25  C   UNL     1      -5.761  -6.014  11.061  1.00  0.00    -0.015 C 
ATOM     26  C   UNL     1      -5.526  -6.693   9.712  1.00  0.00     0.007 C 
ATOM     27  C   UNL     1      -7.149  -6.383  11.590  1.00  0.00     0.007 C 
ENDBRANCH  24  25
ENDBRANCH  18  24
ENDBRANCH  15  18
ENDBRANCH  13  14
BRANCH  13  28
ATOM     28  C   UNL     1      -3.433  -4.509   7.041  1.00  0.00     0.327 C 
ATOM     29  O   UNL     1      -4.232  -5.375   6.718  1.00  0.00    -0.250 OA
BRANCH  28  30
ATOM     30  O   UNL     1      -2.110  -4.771   7.052  1.00  0.00    -0.480 OA
ATOM     31  H   UNL     1      -2.012  -5.538   6.451  1.00  0.00     0.296 HD
ENDBRANCH  28  30
ENDBRANCH  13  28
ENDBRANCH  11  13
ENDBRANCH   8  11
ENDBRANCH   6   7
BRANCH   6  32
ATOM     32  C   UNL     1      -7.702  -1.758   9.989  1.00  0.00     0.037 C 
BRANCH  32  33
ATOM     33  C   UNL     1      -9.113  -2.342   9.825  1.00  0.00     0.026 C 
BRANCH  33  34
ATOM     34  C   UNL     1      -9.338  -3.581  10.693  1.00  0.00     0.146 C 
BRANCH  34  35
ATOM     35  N   UNL     1     -10.530  -3.376  11.504  1.00  0.00    -0.254 NA
ATOM     36  C   UNL     1     -11.630  -3.913  11.127  1.00  0.00     0.185 C 
ATOM     37  N   UNL     1     -12.733  -3.735  11.870  1.00  0.00    -0.370 N 
ATOM     38  N   UNL     1     -11.871  -4.672  10.043  1.00  0.00    -0.370 N 
ATOM     39  H   UNL     1     -12.630  -3.181  12.710  1.00  0.00     0.159 HD
ATOM     40  H   UNL     1     -13.582  -4.259  11.739  1.00  0.00     0.159 HD
ATOM     41  H   UNL     1     -12.811  -4.921   9.780  1.00  0.00     0.159 HD
ATOM     42  H   UNL     1     -11.135  -4.876   9.385  1.00  0.00     0.159 HD
ENDBRANCH  34  35
ENDBRANCH  33  34
ENDBRANCH  32  33
ENDBRANCH   6  32
ENDBRANCH   4   6
ENDBRANCH   1   2
BRANCH   1  43
ATOM     43  C   UNL     1     -10.054   3.141  10.220  1.00  0.00     0.102 C 
ATOM     44  C   UNL     1     -10.321   4.558   9.683  1.00  0.00     0.020 C 
BRANCH  43  45
ATOM     45  C   UNL     1     -10.694   2.862  11.583  1.00  0.00     0.225 C 
ATOM     46  O   UNL     1     -10.378   3.461  12.607  1.00  0.00    -0.275 OA
ATOM     47  N   UNL     1     -11.592   1.820  11.613  1.00  0.00    -0.342 N 
ATOM     48  H   UNL     1     -11.951   1.444  10.747  1.00  0.00     0.164 HD
BRANCH  47  49
ATOM     49  C   UNL     1     -12.309   1.462  12.841  1.00  0.00     0.192 C 
BRANCH  49  50
ATOM     50  C   UNL     1     -11.829   0.096  13.337  1.00  0.00     0.047 C 
BRANCH  50  51
ATOM     51  C   UNL     1     -10.347  -0.150  13.022  1.00  0.00     0.103 C 
BRANCH  51  52
ATOM     52  C   UNL     1      -9.455   0.084  14.239  1.00  0.00     0.226 C 
ATOM     53  O   UNL     1      -9.923   0.621  15.245  1.00  0.00    -0.275 OA
BRANCH  52  54
ATOM     54  N   UNL     1      -8.140  -0.410  14.157  1.00  0.00    -0.311 N 
ATOM     55  C   UNL     1      -7.867  -1.851  14.248  1.00  0.00     0.153 C 
BRANCH  54  56
ATOM     56  C   UNL     1      -7.044   0.450  13.980  1.00  0.00     0.102 C 
ATOM     57  C   UNL     1      -7.109   1.674  13.431  1.00  0.00     0.043 C 
BRANCH  56  58
ATOM     58  C   UNL     1      -5.665   0.057  14.456  1.00  0.00     0.268 C 
ATOM     59  O   UNL     1      -5.299   0.176  15.617  1.00  0.00    -0.268 OA
ATOM     60  N   UNL     1      -4.892  -0.506  13.468  1.00  0.00    -0.339 N 
ATOM     61  H   UNL     1      -5.266  -0.558  12.528  1.00  0.00     0.164 HD
BRANCH  60  62
ATOM     62  C   UNL     1      -3.546  -1.014  13.727  1.00  0.00     0.168 CG0
ATOM     63  C   UNL     1      -2.488  -0.021  13.262  1.00  0.00     0.041 C 
ATOM     64  G   UNL     1      -3.364  -2.375  13.024  1.00  0.00     0.000 G0
ENDBRANCH  60  62
ENDBRANCH  56  58
ENDBRANCH  54  56
ENDBRANCH  52  54
ENDBRANCH  51  52
ENDBRANCH  50  51
ENDBRANCH  49  50
BRANCH  49  65
ATOM     65  C   UNL     1     -13.829   1.417  12.618  1.00  0.00     0.326 C 
ATOM     66  O   UNL     1     -14.442   2.055  11.774  1.00  0.00    -0.250 OA
BRANCH  65  67
ATOM     67  O   UNL     1     -14.504   0.634  13.488  1.00  0.00    -0.480 OA
ATOM     68  H   UNL     1     -14.206   0.955  14.367  1.00  0.00     0.296 HD
ENDBRANCH  65  67
ENDBRANCH  49  65
ENDBRANCH  47  49
ENDBRANCH  43  45
ENDBRANCH   1  43
BRANCH   1  69
ATOM     69  C   UNL     1      -7.552   3.675   9.538  1.00  0.00    -0.001 C 
ATOM     70  C   UNL     1      -6.652   4.482  10.126  1.00  0.00     0.001 C 
BRANCH  70  71
ATOM     71  C   UNL     1      -5.682   5.352   9.458  1.00  0.00    -0.055 C 
ATOM     72  C   UNL     1      -4.718   4.765   8.718  1.00  0.00    -0.018 C 
ATOM     73  C   UNL     1      -5.833   6.840   9.636  1.00  0.00     0.044 C 
BRANCH  72  74
ATOM     74  C   UNL     1      -3.592   5.405   7.919  1.00  0.00     0.038 C 
ATOM     75  C   UNL     1      -3.931   5.226   6.435  1.00  0.00     0.015 C 
BRANCH  74  76
ATOM     76  C   UNL     1      -2.240   4.772   8.362  1.00  0.00     0.128 C 
BRANCH  76  77
ATOM     77  O   UNL     1      -1.204   5.768   8.352  1.00  0.00    -0.381 OA
ATOM     78  C   UNL     1      -0.157   5.513   9.278  1.00  0.00     0.195 C 
ENDBRANCH  76  77
BRANCH  76  79
ATOM     79  C   UNL     1      -2.316   3.999   9.703  1.00  0.00     0.068 C 
BRANCH  79  80
ATOM     80  C   UNL     1      -1.970   2.530   9.693  1.00  0.00    -0.045 A 
ATOM     81  C   UNL     1      -2.796   1.598   9.052  1.00  0.00     0.004 A 
ATOM     82  C   UNL     1      -0.822   2.070  10.356  1.00  0.00     0.004 A 
ATOM     83  C   UNL     1      -2.476   0.239   9.060  1.00  0.00     0.000 A 
ATOM     84  C   UNL     1      -0.503   0.710  10.363  1.00  0.00     0.000 A 
ATOM     85  C   UNL     1      -1.329  -0.205   9.714  1.00  0.00     0.000 A 
ENDBRANCH  79  80
ENDBRANCH  76  79
ENDBRANCH  74  76
ENDBRANCH  72  74
ENDBRANCH  70  71
ENDBRANCH   1  69
TORSDOF 17
ENDMDL
MODEL 38
REMARK VINA RESULT:    -7.379      3.488     12.873
REMARK INTER + INTRA:         -27.855
REMARK INTER:                 -20.714
REMARK INTRA:                  -7.141
REMARK UNBOUND:                -5.809
REMARK SMILES C=C1C(=O)N[C@H](C)C(=O)N[C@@H](CC(C)C)C(=O)N[C@@H](C(=O)O)[C@H](C)C(=O)N[C@@H](CCCN=C(N)N)C(=O)N[C@@H](/C=C/C(C)=C/[C@H](C)[C@H](Cc2ccccc2)OC)[C@H](C)C(=O)N[C@@H](C(=O)O)CCC(=O)N1C
REMARK SMILES IDX 39 1 38 2 37 3 36 4 28 6 27 7 25 8 26 9 23 11 24 12 19 13
REMARK SMILES IDX 18 14 16 15 17 16 11 18 10 19 8 20 9 21 12 24 13 25 14 26
REMARK SMILES IDX 15 27 20 28 21 29 22 30 29 32 30 33 31 34 32 35 33 36 34 37
REMARK SMILES IDX 35 38 57 43 58 44 59 45 60 46 61 47 62 49 66 50 67 51 68 52
REMARK SMILES IDX 69 53 70 54 71 55 2 56 1 57 3 58 4 59 5 60 6 62 7 63 63 65
REMARK SMILES IDX 64 66 65 67 40 69 41 70 42 71 44 72 43 73 45 74 46 75 47 76
REMARK SMILES IDX 55 77 56 78 48 79 49 80 50 81 54 82 51 83 53 84 52 85
REMARK H PARENT 38 5 27 10 18 17 10 22 22 31 34 39 34 40 35 41 35 42 61 48
REMARK H PARENT 5 61 65 68
REMARK Flexibility Score:  369.900
ROOT
ATOM      1  C   UNL     1      -7.109   0.725  10.622  1.00  0.00     0.117 C 
ENDROOT
BRANCH   1   2
ATOM      2  N   UNL     1      -7.727  -0.096  11.664  1.00  0.00    -0.347 N 
ATOM      3  O   UNL     1      -9.637   1.144  11.949  1.00  0.00    -0.273 OA
ATOM      4  C   UNL     1      -8.988   0.130  12.180  1.00  0.00     0.243 C 
ATOM      5  H   UNL     1      -7.240  -0.911  12.005  1.00  0.00     0.164 HD
BRANCH   4   6
ATOM      6  C   UNL     1      -9.440  -0.937  13.210  1.00  0.00     0.171 C 
BRANCH   6   7
ATOM      7  N   UNL     1      -9.507  -2.265  12.578  1.00  0.00    -0.344 N 
ATOM      8  C   UNL     1     -10.713  -2.782  12.156  1.00  0.00     0.226 C 
ATOM      9  O   UNL     1     -11.774  -2.187  12.301  1.00  0.00    -0.275 OA
ATOM     10  H   UNL     1      -8.661  -2.816  12.503  1.00  0.00     0.164 HD
BRANCH   8  11
ATOM     11  C   UNL     1     -10.609  -4.136  11.476  1.00  0.00     0.109 C 
ATOM     12  C   UNL     1     -10.418  -3.955   9.970  1.00  0.00     0.021 C 
BRANCH  11  13
ATOM     13  C   UNL     1      -9.526  -4.986  12.170  1.00  0.00     0.204 C 
BRANCH  13  14
ATOM     14  N   UNL     1      -9.826  -5.213  13.587  1.00  0.00    -0.340 N 
ATOM     15  C   UNL     1      -8.939  -4.908  14.598  1.00  0.00     0.243 C 
ATOM     16  O   UNL     1      -7.856  -4.367  14.385  1.00  0.00    -0.273 OA
ATOM     17  H   UNL     1     -10.636  -5.793  13.820  1.00  0.00     0.164 HD
BRANCH  15  18
ATOM     18  C   UNL     1      -9.385  -5.425  15.988  1.00  0.00     0.171 C 
BRANCH  18  19
ATOM     19  N   UNL     1      -9.980  -6.742  15.774  1.00  0.00    -0.343 N 
ATOM     20  C   UNL     1     -11.102  -7.157  16.466  1.00  0.00     0.242 CG0
ATOM     21  O   UNL     1     -11.571  -6.492  17.387  1.00  0.00    -0.273 OA
ATOM     22  H   UNL     1      -9.558  -7.376  15.104  1.00  0.00     0.164 HD
ATOM     23  G   UNL     1     -11.630  -8.545  16.049  1.00  0.00     0.000 G0
ENDBRANCH  18  19
BRANCH  18  24
ATOM     24  C   UNL     1      -8.191  -5.496  16.947  1.00  0.00     0.038 C 
BRANCH  24  25
ATOM     25  C   UNL     1      -8.557  -5.380  18.442  1.00  0.00    -0.015 C 
ATOM     26  C   UNL     1      -8.440  -3.948  18.964  1.00  0.00     0.007 C 
ATOM     27  C   UNL     1      -7.656  -6.304  19.266  1.00  0.00     0.007 C 
ENDBRANCH  24  25
ENDBRANCH  18  24
ENDBRANCH  15  18
ENDBRANCH  13  14
BRANCH  13  28
ATOM     28  C   UNL     1      -9.330  -6.360  11.522  1.00  0.00     0.327 C 
ATOM     29  O   UNL     1      -8.521  -6.639  10.651  1.00  0.00    -0.250 OA
BRANCH  28  30
ATOM     30  O   UNL     1     -10.242  -7.269  11.923  1.00  0.00    -0.480 OA
ATOM     31  H   UNL     1      -9.781  -8.129  11.833  1.00  0.00     0.296 HD
ENDBRANCH  28  30
ENDBRANCH  13  28
ENDBRANCH  11  13
ENDBRANCH   8  11
ENDBRANCH   6   7
BRANCH   6  32
ATOM     32  C   UNL     1      -8.465  -0.942  14.392  1.00  0.00     0.037 C 
BRANCH  32  33
ATOM     33  C   UNL     1      -9.165  -0.630  15.722  1.00  0.00     0.026 C 
BRANCH  33  34
ATOM     34  C   UNL     1      -9.130   0.860  16.066  1.00  0.00     0.146 C 
BRANCH  34  35
ATOM     35  N   UNL     1     -10.308   1.501  15.497  1.00  0.00    -0.254 NA
ATOM     36  C   UNL     1     -10.144   2.501  14.713  1.00  0.00     0.185 C 
ATOM     37  N   UNL     1     -11.222   3.096  14.179  1.00  0.00    -0.370 N 
ATOM     38  N   UNL     1      -9.000   3.084  14.315  1.00  0.00    -0.370 N 
ATOM     39  H   UNL     1     -12.124   2.706  14.423  1.00  0.00     0.159 HD
ATOM     40  H   UNL     1     -11.174   3.764  13.429  1.00  0.00     0.159 HD
ATOM     41  H   UNL     1      -9.008   3.953  13.806  1.00  0.00     0.159 HD
ATOM     42  H   UNL     1      -8.110   2.750  14.651  1.00  0.00     0.159 HD
ENDBRANCH  34  35
ENDBRANCH  33  34
ENDBRANCH  32  33
ENDBRANCH   6  32
ENDBRANCH   4   6
ENDBRANCH   1   2
BRANCH   1  43
ATOM     43  C   UNL     1      -8.102   0.842   9.430  1.00  0.00     0.102 C 
ATOM     44  C   UNL     1      -7.675   0.030   8.196  1.00  0.00     0.020 C 
BRANCH  43  45
ATOM     45  C   UNL     1      -8.427   2.308   9.127  1.00  0.00     0.225 C 
ATOM     46  O   UNL     1      -8.783   2.701   8.020  1.00  0.00    -0.275 OA
ATOM     47  N   UNL     1      -8.203   3.190  10.159  1.00  0.00    -0.342 N 
ATOM     48  H   UNL     1      -8.059   2.838  11.095  1.00  0.00     0.164 HD
BRANCH  47  49
ATOM     49  C   UNL     1      -8.503   4.619  10.025  1.00  0.00     0.192 C 
BRANCH  49  50
ATOM     50  C   UNL     1      -7.203   5.425  10.083  1.00  0.00     0.047 C 
BRANCH  50  51
ATOM     51  C   UNL     1      -5.997   4.622   9.577  1.00  0.00     0.103 C 
BRANCH  51  52
ATOM     52  C   UNL     1      -5.050   5.478   8.738  1.00  0.00     0.226 C 
ATOM     53  O   UNL     1      -5.000   6.695   8.924  1.00  0.00    -0.275 OA
BRANCH  52  54
ATOM     54  N   UNL     1      -4.220   4.790   7.833  1.00  0.00    -0.311 N 
ATOM     55  C   UNL     1      -4.566   3.443   7.362  1.00  0.00     0.153 C 
BRANCH  54  56
ATOM     56  C   UNL     1      -3.036   5.366   7.343  1.00  0.00     0.102 C 
ATOM     57  C   UNL     1      -1.830   5.257   7.925  1.00  0.00     0.043 C 
BRANCH  56  58
ATOM     58  C   UNL     1      -3.030   6.143   6.048  1.00  0.00     0.268 C 
ATOM     59  O   UNL     1      -3.934   6.080   5.225  1.00  0.00    -0.268 OA
ATOM     60  N   UNL     1      -1.942   6.973   5.920  1.00  0.00    -0.339 N 
ATOM     61  H   UNL     1      -1.231   6.959   6.642  1.00  0.00     0.164 HD
BRANCH  60  62
ATOM     62  C   UNL     1      -1.770   7.862   4.772  1.00  0.00     0.168 CG0
ATOM     63  C   UNL     1      -0.921   7.202   3.692  1.00  0.00     0.041 C 
ATOM     64  G   UNL     1      -1.132   9.188   5.235  1.00  0.00     0.000 G0
ENDBRANCH  60  62
ENDBRANCH  56  58
ENDBRANCH  54  56
ENDBRANCH  52  54
ENDBRANCH  51  52
ENDBRANCH  50  51
ENDBRANCH  49  50
BRANCH  49  65
ATOM     65  C   UNL     1      -9.453   5.105  11.130  1.00  0.00     0.326 C 
ATOM     66  O   UNL     1     -10.253   4.407  11.738  1.00  0.00    -0.250 OA
BRANCH  65  67
ATOM     67  O   UNL     1      -9.400   6.433  11.376  1.00  0.00    -0.480 OA
ATOM     68  H   UNL     1     -10.209   6.781  10.942  1.00  0.00     0.296 HD
ENDBRANCH  65  67
ENDBRANCH  49  65
ENDBRANCH  47  49
ENDBRANCH  43  45
ENDBRANCH   1  43
BRANCH   1  69
ATOM     69  C   UNL     1      -5.733   0.133  10.375  1.00  0.00    -0.001 C 
ATOM     70  C   UNL     1      -4.629   0.777   9.958  1.00  0.00     0.001 C 
BRANCH  70  71
ATOM     71  C   UNL     1      -3.301   0.198   9.744  1.00  0.00    -0.055 C 
ATOM     72  C   UNL     1      -3.155  -1.128   9.943  1.00  0.00    -0.018 C 
ATOM     73  C   UNL     1      -2.195   1.123   9.308  1.00  0.00     0.044 C 
BRANCH  72  74
ATOM     74  C   UNL     1      -1.911  -1.993   9.797  1.00  0.00     0.038 C 
ATOM     75  C   UNL     1      -2.158  -2.946   8.620  1.00  0.00     0.015 C 
BRANCH  74  76
ATOM     76  C   UNL     1      -1.627  -2.696  11.157  1.00  0.00     0.128 C 
BRANCH  76  77
ATOM     77  O   UNL     1      -1.363  -4.092  10.942  1.00  0.00    -0.381 OA
ATOM     78  C   UNL     1      -2.098  -4.951  11.803  1.00  0.00     0.195 C 
ENDBRANCH  76  77
BRANCH  76  79
ATOM     79  C   UNL     1      -0.532  -2.002  12.006  1.00  0.00     0.068 C 
BRANCH  79  80
ATOM     80  C   UNL     1      -0.728  -0.548  12.362  1.00  0.00    -0.045 A 
ATOM     81  C   UNL     1      -1.836  -0.132  13.112  1.00  0.00     0.004 A 
ATOM     82  C   UNL     1       0.188   0.418  11.920  1.00  0.00     0.004 A 
ATOM     83  C   UNL     1      -2.018   1.217  13.425  1.00  0.00     0.000 A 
ATOM     84  C   UNL     1       0.005   1.767  12.233  1.00  0.00     0.000 A 
ATOM     85  C   UNL     1      -1.097   2.165  12.987  1.00  0.00     0.000 A 
ENDBRANCH  79  80
ENDBRANCH  76  79
ENDBRANCH  74  76
ENDBRANCH  72  74
ENDBRANCH  70  71
ENDBRANCH   1  69
TORSDOF 17
ENDMDL
MODEL 39
REMARK VINA RESULT:    -7.364      3.223     13.118
REMARK INTER + INTRA:         -27.811
REMARK INTER:                 -21.397
REMARK INTRA:                  -6.414
REMARK UNBOUND:                -5.809
REMARK SMILES C=C1C(=O)N[C@H](C)C(=O)N[C@@H](CC(C)C)C(=O)N[C@@H](C(=O)O)[C@H](C)C(=O)N[C@@H](CCCN=C(N)N)C(=O)N[C@@H](/C=C/C(C)=C/[C@H](C)[C@H](Cc2ccccc2)OC)[C@H](C)C(=O)N[C@@H](C(=O)O)CCC(=O)N1C
REMARK SMILES IDX 39 1 38 2 37 3 36 4 28 6 27 7 25 8 26 9 23 11 24 12 19 13
REMARK SMILES IDX 18 14 16 15 17 16 11 18 10 19 8 20 9 21 12 24 13 25 14 26
REMARK SMILES IDX 15 27 20 28 21 29 22 30 29 32 30 33 31 34 32 35 33 36 34 37
REMARK SMILES IDX 35 38 57 43 58 44 59 45 60 46 61 47 62 49 66 50 67 51 68 52
REMARK SMILES IDX 69 53 70 54 71 55 2 56 1 57 3 58 4 59 5 60 6 62 7 63 63 65
REMARK SMILES IDX 64 66 65 67 40 69 41 70 42 71 44 72 43 73 45 74 46 75 47 76
REMARK SMILES IDX 55 77 56 78 48 79 49 80 50 81 54 82 51 83 53 84 52 85
REMARK H PARENT 38 5 27 10 18 17 10 22 22 31 34 39 34 40 35 41 35 42 61 48
REMARK H PARENT 5 61 65 68
REMARK Flexibility Score:  369.900
ROOT
ATOM      1  C   UNL     1      -8.728   1.122  10.745  1.00  0.00     0.117 C 
ENDROOT
BRANCH   1   2
ATOM      2  N   UNL     1      -9.660   0.025  11.006  1.00  0.00    -0.347 N 
ATOM      3  O   UNL     1      -9.013  -1.352   9.287  1.00  0.00    -0.273 OA
ATOM      4  C   UNL     1      -9.666  -1.168  10.309  1.00  0.00     0.243 C 
ATOM      5  H   UNL     1     -10.315   0.104  11.769  1.00  0.00     0.164 HD
BRANCH   4   6
ATOM      6  C   UNL     1     -10.696  -2.196  10.841  1.00  0.00     0.171 C 
BRANCH   6   7
ATOM      7  N   UNL     1     -10.038  -3.480  11.133  1.00  0.00    -0.344 N 
ATOM      8  C   UNL     1     -10.655  -4.672  10.821  1.00  0.00     0.226 C 
ATOM      9  O   UNL     1     -11.770  -4.726  10.316  1.00  0.00    -0.275 OA
ATOM     10  H   UNL     1      -9.146  -3.476  11.611  1.00  0.00     0.164 HD
BRANCH   8  11
ATOM     11  C   UNL     1      -9.826  -5.905  11.133  1.00  0.00     0.109 C 
ATOM     12  C   UNL     1      -8.460  -5.806  10.454  1.00  0.00     0.021 C 
BRANCH  11  13
ATOM     13  C   UNL     1      -9.778  -6.129  12.658  1.00  0.00     0.204 C 
BRANCH  13  14
ATOM     14  N   UNL     1     -11.114  -6.117  13.260  1.00  0.00    -0.340 N 
ATOM     15  C   UNL     1     -11.395  -5.476  14.447  1.00  0.00     0.243 C 
ATOM     16  O   UNL     1     -10.554  -4.816  15.056  1.00  0.00    -0.273 OA
ATOM     17  H   UNL     1     -11.814  -6.765  12.889  1.00  0.00     0.164 HD
BRANCH  15  18
ATOM     18  C   UNL     1     -12.814  -5.773  14.991  1.00  0.00     0.171 C 
BRANCH  18  19
ATOM     19  N   UNL     1     -12.744  -7.073  15.656  1.00  0.00    -0.343 N 
ATOM     20  C   UNL     1     -13.740  -8.020  15.511  1.00  0.00     0.242 CG0
ATOM     21  O   UNL     1     -14.790  -7.765  14.927  1.00  0.00    -0.273 OA
ATOM     22  H   UNL     1     -11.948  -7.288  16.245  1.00  0.00     0.164 HD
ATOM     23  G   UNL     1     -13.453  -9.358  16.223  1.00  0.00     0.000 G0
ENDBRANCH  18  19
BRANCH  18  24
ATOM     24  C   UNL     1     -13.265  -4.671  15.957  1.00  0.00     0.038 C 
BRANCH  24  25
ATOM     25  C   UNL     1     -14.078  -3.534  15.303  1.00  0.00    -0.015 C 
ATOM     26  C   UNL     1     -14.513  -3.871  13.877  1.00  0.00     0.007 C 
ATOM     27  C   UNL     1     -13.251  -2.246  15.299  1.00  0.00     0.007 C 
ENDBRANCH  24  25
ENDBRANCH  18  24
ENDBRANCH  15  18
ENDBRANCH  13  14
BRANCH  13  28
ATOM     28  C   UNL     1      -9.114  -7.452  13.053  1.00  0.00     0.327 C 
ATOM     29  O   UNL     1      -8.010  -7.584  13.559  1.00  0.00    -0.250 OA
BRANCH  28  30
ATOM     30  O   UNL     1      -9.827  -8.534  12.680  1.00  0.00    -0.480 OA
ATOM     31  H   UNL     1     -10.739  -8.194  12.567  1.00  0.00     0.296 HD
ENDBRANCH  28  30
ENDBRANCH  13  28
ENDBRANCH  11  13
ENDBRANCH   8  11
ENDBRANCH   6   7
BRANCH   6  32
ATOM     32  C   UNL     1     -11.371  -1.629  12.096  1.00  0.00     0.037 C 
BRANCH  32  33
ATOM     33  C   UNL     1     -12.712  -0.955  11.777  1.00  0.00     0.026 C 
BRANCH  33  34
ATOM     34  C   UNL     1     -12.909   0.350  12.550  1.00  0.00     0.146 C 
BRANCH  34  35
ATOM     35  N   UNL     1     -13.411   1.367  11.635  1.00  0.00    -0.254 NA
ATOM     36  C   UNL     1     -12.860   2.523  11.640  1.00  0.00     0.185 C 
ATOM     37  N   UNL     1     -13.311   3.466  10.798  1.00  0.00    -0.370 N 
ATOM     38  N   UNL     1     -11.842   2.971  12.396  1.00  0.00    -0.370 N 
ATOM     39  H   UNL     1     -14.072   3.201  10.185  1.00  0.00     0.159 HD
ATOM     40  H   UNL     1     -12.827   4.329  10.618  1.00  0.00     0.159 HD
ATOM     41  H   UNL     1     -11.589   3.945  12.405  1.00  0.00     0.159 HD
ATOM     42  H   UNL     1     -11.414   2.373  13.086  1.00  0.00     0.159 HD
ENDBRANCH  34  35
ENDBRANCH  33  34
ENDBRANCH  32  33
ENDBRANCH   6  32
ENDBRANCH   4   6
ENDBRANCH   1   2
BRANCH   1  43
ATOM     43  C   UNL     1      -9.193   1.873   9.464  1.00  0.00     0.102 C 
ATOM     44  C   UNL     1      -8.266   1.653   8.256  1.00  0.00     0.020 C 
BRANCH  43  45
ATOM     45  C   UNL     1      -9.483   3.346   9.764  1.00  0.00     0.225 C 
ATOM     46  O   UNL     1     -10.575   3.869   9.564  1.00  0.00    -0.275 OA
ATOM     47  N   UNL     1      -8.405   4.087  10.192  1.00  0.00    -0.342 N 
ATOM     48  H   UNL     1      -7.563   3.617  10.494  1.00  0.00     0.164 HD
BRANCH  47  49
ATOM     49  C   UNL     1      -8.541   5.502  10.551  1.00  0.00     0.192 C 
BRANCH  49  50
ATOM     50  C   UNL     1      -7.214   6.225  10.308  1.00  0.00     0.047 C 
BRANCH  50  51
ATOM     51  C   UNL     1      -6.157   5.306   9.679  1.00  0.00     0.103 C 
BRANCH  51  52
ATOM     52  C   UNL     1      -4.993   6.095   9.083  1.00  0.00     0.226 C 
ATOM     53  O   UNL     1      -5.047   7.326   9.044  1.00  0.00    -0.275 OA
BRANCH  52  54
ATOM     54  N   UNL     1      -3.874   5.347   8.673  1.00  0.00    -0.311 N 
ATOM     55  C   UNL     1      -2.795   5.023   9.615  1.00  0.00     0.153 C 
BRANCH  54  56
ATOM     56  C   UNL     1      -3.749   4.879   7.354  1.00  0.00     0.102 C 
ATOM     57  C   UNL     1      -3.941   3.606   6.969  1.00  0.00     0.043 C 
BRANCH  56  58
ATOM     58  C   UNL     1      -3.418   5.825   6.224  1.00  0.00     0.268 C 
ATOM     59  O   UNL     1      -4.269   6.343   5.514  1.00  0.00    -0.268 OA
ATOM     60  N   UNL     1      -2.074   6.093   6.119  1.00  0.00    -0.339 N 
ATOM     61  H   UNL     1      -1.432   5.614   6.740  1.00  0.00     0.164 HD
BRANCH  60  62
ATOM     62  C   UNL     1      -1.541   7.031   5.133  1.00  0.00     0.168 CG0
ATOM     63  C   UNL     1      -0.040   7.220   5.312  1.00  0.00     0.041 C 
ATOM     64  G   UNL     1      -2.279   8.381   5.252  1.00  0.00     0.000 G0
ENDBRANCH  60  62
ENDBRANCH  56  58
ENDBRANCH  54  56
ENDBRANCH  52  54
ENDBRANCH  51  52
ENDBRANCH  50  51
ENDBRANCH  49  50
BRANCH  49  65
ATOM     65  C   UNL     1      -8.954   5.676  12.021  1.00  0.00     0.326 C 
ATOM     66  O   UNL     1      -8.194   5.900  12.951  1.00  0.00    -0.250 OA
BRANCH  65  67
ATOM     67  O   UNL     1     -10.273   5.504  12.260  1.00  0.00    -0.480 OA
ATOM     68  H   UNL     1     -10.295   5.099  13.154  1.00  0.00     0.296 HD
ENDBRANCH  65  67
ENDBRANCH  49  65
ENDBRANCH  47  49
ENDBRANCH  43  45
ENDBRANCH   1  43
BRANCH   1  69
ATOM     69  C   UNL     1      -7.338   0.513  10.774  1.00  0.00    -0.001 C 
ATOM     70  C   UNL     1      -6.219   1.055  11.288  1.00  0.00     0.001 C 
BRANCH  70  71
ATOM     71  C   UNL     1      -4.887   0.448  11.330  1.00  0.00    -0.055 C 
ATOM     72  C   UNL     1      -4.033   0.739  10.326  1.00  0.00    -0.018 C 
ATOM     73  C   UNL     1      -4.561  -0.451  12.494  1.00  0.00     0.044 C 
BRANCH  72  74
ATOM     74  C   UNL     1      -2.603   0.265  10.110  1.00  0.00     0.038 C 
ATOM     75  C   UNL     1      -1.882   1.352   9.305  1.00  0.00     0.015 C 
BRANCH  74  76
ATOM     76  C   UNL     1      -2.638  -1.136   9.430  1.00  0.00     0.128 C 
BRANCH  76  77
ATOM     77  O   UNL     1      -2.528  -0.992   8.004  1.00  0.00    -0.381 OA
ATOM     78  C   UNL     1      -3.770  -1.095   7.321  1.00  0.00     0.195 C 
ENDBRANCH  76  77
BRANCH  76  79
ATOM     79  C   UNL     1      -1.615  -2.144  10.012  1.00  0.00     0.068 C 
BRANCH  79  80
ATOM     80  C   UNL     1      -2.116  -3.514  10.402  1.00  0.00    -0.045 A 
ATOM     81  C   UNL     1      -3.097  -4.166   9.644  1.00  0.00     0.004 A 
ATOM     82  C   UNL     1      -1.622  -4.145  11.553  1.00  0.00     0.004 A 
ATOM     83  C   UNL     1      -3.564  -5.428  10.019  1.00  0.00     0.000 A 
ATOM     84  C   UNL     1      -2.091  -5.406  11.928  1.00  0.00     0.000 A 
ATOM     85  C   UNL     1      -3.061  -6.048  11.160  1.00  0.00     0.000 A 
ENDBRANCH  79  80
ENDBRANCH  76  79
ENDBRANCH  74  76
ENDBRANCH  72  74
ENDBRANCH  70  71
ENDBRANCH   1  69
TORSDOF 17
ENDMDL
MODEL 40
REMARK VINA RESULT:    -7.358      2.692      4.282
REMARK INTER + INTRA:         -27.791
REMARK INTER:                 -20.235
REMARK INTRA:                  -7.556
REMARK UNBOUND:                -5.809
REMARK SMILES C=C1C(=O)N[C@H](C)C(=O)N[C@@H](CC(C)C)C(=O)N[C@@H](C(=O)O)[C@H](C)C(=O)N[C@@H](CCCN=C(N)N)C(=O)N[C@@H](/C=C/C(C)=C/[C@H](C)[C@H](Cc2ccccc2)OC)[C@H](C)C(=O)N[C@@H](C(=O)O)CCC(=O)N1C
REMARK SMILES IDX 39 1 38 2 37 3 36 4 28 6 27 7 25 8 26 9 23 11 24 12 19 13
REMARK SMILES IDX 18 14 16 15 17 16 11 18 10 19 8 20 9 21 12 24 13 25 14 26
REMARK SMILES IDX 15 27 20 28 21 29 22 30 29 32 30 33 31 34 32 35 33 36 34 37
REMARK SMILES IDX 35 38 57 43 58 44 59 45 60 46 61 47 62 49 66 50 67 51 68 52
REMARK SMILES IDX 69 53 70 54 71 55 2 56 1 57 3 58 4 59 5 60 6 62 7 63 63 65
REMARK SMILES IDX 64 66 65 67 40 69 41 70 42 71 44 72 43 73 45 74 46 75 47 76
REMARK SMILES IDX 55 77 56 78 48 79 49 80 50 81 54 82 51 83 53 84 52 85
REMARK H PARENT 38 5 27 10 18 17 10 22 22 31 34 39 34 40 35 41 35 42 61 48
REMARK H PARENT 5 61 65 68
REMARK Flexibility Score:  369.900
ROOT
ATOM      1  C   UNL     1      -7.070  -1.857   9.954  1.00  0.00     0.117 C 
ENDROOT
BRANCH   1   2
ATOM      2  N   UNL     1      -5.624  -1.926   9.740  1.00  0.00    -0.347 N 
ATOM      3  O   UNL     1      -5.659  -2.267   7.470  1.00  0.00    -0.273 OA
ATOM      4  C   UNL     1      -5.030  -2.034   8.497  1.00  0.00     0.243 C 
ATOM      5  H   UNL     1      -5.003  -1.841  10.530  1.00  0.00     0.164 HD
BRANCH   4   6
ATOM      6  C   UNL     1      -3.481  -1.999   8.542  1.00  0.00     0.171 C 
BRANCH   6   7
ATOM      7  N   UNL     1      -3.010  -1.830   9.926  1.00  0.00    -0.344 N 
ATOM      8  C   UNL     1      -1.856  -1.126  10.194  1.00  0.00     0.226 C 
ATOM      9  O   UNL     1      -1.163  -0.634   9.311  1.00  0.00    -0.275 OA
ATOM     10  H   UNL     1      -3.520  -2.279  10.676  1.00  0.00     0.164 HD
BRANCH   8  11
ATOM     11  C   UNL     1      -1.533  -0.994  11.672  1.00  0.00     0.109 C 
ATOM     12  C   UNL     1      -0.073  -1.366  11.927  1.00  0.00     0.021 C 
BRANCH  11  13
ATOM     13  C   UNL     1      -1.942   0.407  12.171  1.00  0.00     0.204 C 
BRANCH  13  14
ATOM     14  N   UNL     1      -1.865   1.415  11.109  1.00  0.00    -0.340 N 
ATOM     15  C   UNL     1      -1.379   2.687  11.319  1.00  0.00     0.243 C 
ATOM     16  O   UNL     1      -0.918   3.048  12.401  1.00  0.00    -0.273 OA
ATOM     17  H   UNL     1      -2.367   1.232  10.236  1.00  0.00     0.164 HD
BRANCH  15  18
ATOM     18  C   UNL     1      -1.588   3.636  10.114  1.00  0.00     0.171 C 
BRANCH  18  19
ATOM     19  N   UNL     1      -0.277   4.192   9.786  1.00  0.00    -0.343 N 
ATOM     20  C   UNL     1      -0.020   5.547   9.861  1.00  0.00     0.242 CG0
ATOM     21  O   UNL     1      -0.915   6.361  10.077  1.00  0.00    -0.273 OA
ATOM     22  H   UNL     1       0.467   3.570   9.489  1.00  0.00     0.164 HD
ATOM     23  G   UNL     1       1.441   5.936   9.554  1.00  0.00     0.000 G0
ENDBRANCH  18  19
BRANCH  18  24
ATOM     24  C   UNL     1      -2.190   2.877   8.925  1.00  0.00     0.038 C 
BRANCH  24  25
ATOM     25  C   UNL     1      -3.491   3.488   8.362  1.00  0.00    -0.015 C 
ATOM     26  C   UNL     1      -4.253   2.515   7.462  1.00  0.00     0.007 C 
ATOM     27  C   UNL     1      -3.165   4.764   7.581  1.00  0.00     0.007 C 
ENDBRANCH  24  25
ENDBRANCH  18  24
ENDBRANCH  15  18
ENDBRANCH  13  14
BRANCH  13  28
ATOM     28  C   UNL     1      -3.364   0.453  12.740  1.00  0.00     0.327 C 
ATOM     29  O   UNL     1      -3.746  -0.073  13.773  1.00  0.00    -0.250 OA
BRANCH  28  30
ATOM     30  O   UNL     1      -4.243   1.058  11.915  1.00  0.00    -0.480 OA
ATOM     31  H   UNL     1      -3.682   1.576  11.302  1.00  0.00     0.296 HD
ENDBRANCH  28  30
ENDBRANCH  13  28
ENDBRANCH  11  13
ENDBRANCH   8  11
ENDBRANCH   6   7
BRANCH   6  32
ATOM     32  C   UNL     1      -2.931  -3.292   7.931  1.00  0.00     0.037 C 
BRANCH  32  33
ATOM     33  C   UNL     1      -3.082  -4.491   8.878  1.00  0.00     0.026 C 
BRANCH  33  34
ATOM     34  C   UNL     1      -3.780  -5.678   8.213  1.00  0.00     0.146 C 
BRANCH  34  35
ATOM     35  N   UNL     1      -4.866  -6.127   9.073  1.00  0.00    -0.254 NA
ATOM     36  C   UNL     1      -4.593  -6.907  10.051  1.00  0.00     0.185 C 
ATOM     37  N   UNL     1      -5.585  -7.322  10.854  1.00  0.00    -0.370 N 
ATOM     38  N   UNL     1      -3.402  -7.405  10.427  1.00  0.00    -0.370 N 
ATOM     39  H   UNL     1      -6.514  -6.981  10.641  1.00  0.00     0.159 HD
ATOM     40  H   UNL     1      -5.433  -7.787  11.732  1.00  0.00     0.159 HD
ATOM     41  H   UNL     1      -3.335  -8.122  11.132  1.00  0.00     0.159 HD
ATOM     42  H   UNL     1      -2.567  -7.189   9.904  1.00  0.00     0.159 HD
ENDBRANCH  34  35
ENDBRANCH  33  34
ENDBRANCH  32  33
ENDBRANCH   6  32
ENDBRANCH   4   6
ENDBRANCH   1   2
BRANCH   1  43
ATOM     43  C   UNL     1      -7.717  -3.153   9.384  1.00  0.00     0.102 C 
ATOM     44  C   UNL     1      -9.053  -2.905   8.665  1.00  0.00     0.020 C 
BRANCH  43  45
ATOM     45  C   UNL     1      -7.779  -4.251  10.451  1.00  0.00     0.225 C 
ATOM     46  O   UNL     1      -8.087  -5.412  10.200  1.00  0.00    -0.275 OA
ATOM     47  N   UNL     1      -7.557  -3.834  11.743  1.00  0.00    -0.342 N 
ATOM     48  H   UNL     1      -7.160  -2.921  11.913  1.00  0.00     0.164 HD
BRANCH  47  49
ATOM     49  C   UNL     1      -7.550  -4.781  12.863  1.00  0.00     0.192 C 
BRANCH  49  50
ATOM     50  C   UNL     1      -8.506  -4.293  13.955  1.00  0.00     0.047 C 
BRANCH  50  51
ATOM     51  C   UNL     1      -9.705  -5.233  14.141  1.00  0.00     0.103 C 
BRANCH  51  52
ATOM     52  C   UNL     1      -9.271  -6.649  14.514  1.00  0.00     0.226 C 
ATOM     53  O   UNL     1      -8.939  -6.900  15.674  1.00  0.00    -0.275 OA
BRANCH  52  54
ATOM     54  N   UNL     1      -9.353  -7.618  13.497  1.00  0.00    -0.311 N 
ATOM     55  C   UNL     1     -10.177  -7.392  12.302  1.00  0.00     0.153 C 
BRANCH  54  56
ATOM     56  C   UNL     1      -8.648  -8.830  13.582  1.00  0.00     0.102 C 
ATOM     57  C   UNL     1      -7.320  -8.960  13.428  1.00  0.00     0.043 C 
BRANCH  56  58
ATOM     58  C   UNL     1      -9.362 -10.120  13.911  1.00  0.00     0.268 C 
ATOM     59  O   UNL     1      -8.890 -11.225  13.678  1.00  0.00    -0.268 OA
ATOM     60  N   UNL     1     -10.560  -9.925  14.556  1.00  0.00    -0.339 N 
ATOM     61  H   UNL     1     -10.885  -8.977  14.703  1.00  0.00     0.164 HD
BRANCH  60  62
ATOM     62  C   UNL     1     -11.384 -11.039  15.022  1.00  0.00     0.168 CG0
ATOM     63  C   UNL     1     -11.914 -10.779  16.427  1.00  0.00     0.041 C 
ATOM     64  G   UNL     1     -10.562 -12.343  14.981  1.00  0.00     0.000 G0
ENDBRANCH  60  62
ENDBRANCH  56  58
ENDBRANCH  54  56
ENDBRANCH  52  54
ENDBRANCH  51  52
ENDBRANCH  50  51
ENDBRANCH  49  50
BRANCH  49  65
ATOM     65  C   UNL     1      -6.142  -4.947  13.456  1.00  0.00     0.326 C 
ATOM     66  O   UNL     1      -5.887  -5.156  14.633  1.00  0.00    -0.250 OA
BRANCH  65  67
ATOM     67  O   UNL     1      -5.135  -4.786  12.570  1.00  0.00    -0.480 OA
ATOM     68  H   UNL     1      -4.527  -4.161  13.021  1.00  0.00     0.296 HD
ENDBRANCH  65  67
ENDBRANCH  49  65
ENDBRANCH  47  49
ENDBRANCH  43  45
ENDBRANCH   1  43
BRANCH   1  69
ATOM     69  C   UNL     1      -7.516  -0.514   9.406  1.00  0.00    -0.001 C 
ATOM     70  C   UNL     1      -7.138   0.706   9.827  1.00  0.00     0.001 C 
BRANCH  70  71
ATOM     71  C   UNL     1      -7.559   1.996   9.277  1.00  0.00    -0.055 C 
ATOM     72  C   UNL     1      -7.310   3.102  10.009  1.00  0.00    -0.018 C 
ATOM     73  C   UNL     1      -8.233   1.999   7.930  1.00  0.00     0.044 C 
BRANCH  72  74
ATOM     74  C   UNL     1      -7.627   4.557   9.695  1.00  0.00     0.038 C 
ATOM     75  C   UNL     1      -6.295   5.317   9.675  1.00  0.00     0.015 C 
BRANCH  74  76
ATOM     76  C   UNL     1      -8.662   5.081  10.734  1.00  0.00     0.128 C 
BRANCH  76  77
ATOM     77  O   UNL     1      -8.643   6.518  10.764  1.00  0.00    -0.381 OA
ATOM     78  C   UNL     1      -9.922   7.101  10.973  1.00  0.00     0.195 C 
ENDBRANCH  76  77
BRANCH  76  79
ATOM     79  C   UNL     1     -10.088   4.503  10.548  1.00  0.00     0.068 C 
BRANCH  79  80
ATOM     80  C   UNL     1     -10.556   3.449  11.522  1.00  0.00    -0.045 A 
ATOM     81  C   UNL     1     -10.685   3.735  12.888  1.00  0.00     0.004 A 
ATOM     82  C   UNL     1     -10.843   2.151  11.075  1.00  0.00     0.004 A 
ATOM     83  C   UNL     1     -11.106   2.750  13.785  1.00  0.00     0.000 A 
ATOM     84  C   UNL     1     -11.263   1.167  11.973  1.00  0.00     0.000 A 
ATOM     85  C   UNL     1     -11.395   1.467  13.326  1.00  0.00     0.000 A 
ENDBRANCH  79  80
ENDBRANCH  76  79
ENDBRANCH  74  76
ENDBRANCH  72  74
ENDBRANCH  70  71
ENDBRANCH   1  69
TORSDOF 17
ENDMDL
MODEL 41
REMARK VINA RESULT:    -7.336      2.811      3.612
REMARK INTER + INTRA:         -27.727
REMARK INTER:                 -19.589
REMARK INTRA:                  -8.138
REMARK UNBOUND:                -5.809
REMARK SMILES C=C1C(=O)N[C@H](C)C(=O)N[C@@H](CC(C)C)C(=O)N[C@@H](C(=O)O)[C@H](C)C(=O)N[C@@H](CCCN=C(N)N)C(=O)N[C@@H](/C=C/C(C)=C/[C@H](C)[C@H](Cc2ccccc2)OC)[C@H](C)C(=O)N[C@@H](C(=O)O)CCC(=O)N1C
REMARK SMILES IDX 39 1 38 2 37 3 36 4 28 6 27 7 25 8 26 9 23 11 24 12 19 13
REMARK SMILES IDX 18 14 16 15 17 16 11 18 10 19 8 20 9 21 12 24 13 25 14 26
REMARK SMILES IDX 15 27 20 28 21 29 22 30 29 32 30 33 31 34 32 35 33 36 34 37
REMARK SMILES IDX 35 38 57 43 58 44 59 45 60 46 61 47 62 49 66 50 67 51 68 52
REMARK SMILES IDX 69 53 70 54 71 55 2 56 1 57 3 58 4 59 5 60 6 62 7 63 63 65
REMARK SMILES IDX 64 66 65 67 40 69 41 70 42 71 44 72 43 73 45 74 46 75 47 76
REMARK SMILES IDX 55 77 56 78 48 79 49 80 50 81 54 82 51 83 53 84 52 85
REMARK H PARENT 38 5 27 10 18 17 10 22 22 31 34 39 34 40 35 41 35 42 61 48
REMARK H PARENT 5 61 65 68
REMARK Flexibility Score:  369.900
ROOT
ATOM      1  C   UNL     1      -8.604  -3.012  12.050  1.00  0.00     0.117 C 
ENDROOT
BRANCH   1   2
ATOM      2  N   UNL     1      -7.170  -2.923  11.774  1.00  0.00    -0.347 N 
ATOM      3  O   UNL     1      -6.419  -3.947  13.686  1.00  0.00    -0.273 OA
ATOM      4  C   UNL     1      -6.192  -3.481  12.575  1.00  0.00     0.243 C 
ATOM      5  H   UNL     1      -6.856  -2.473  10.927  1.00  0.00     0.164 HD
BRANCH   4   6
ATOM      6  C   UNL     1      -4.757  -3.318  12.012  1.00  0.00     0.171 C 
BRANCH   6   7
ATOM      7  N   UNL     1      -4.143  -2.081  12.520  1.00  0.00    -0.344 N 
ATOM      8  C   UNL     1      -4.403  -0.869  11.918  1.00  0.00     0.226 C 
ATOM      9  O   UNL     1      -5.126  -0.762  10.935  1.00  0.00    -0.275 OA
ATOM     10  H   UNL     1      -3.487  -2.139  13.289  1.00  0.00     0.164 HD
BRANCH   8  11
ATOM     11  C   UNL     1      -3.739   0.319  12.592  1.00  0.00     0.109 C 
ATOM     12  C   UNL     1      -3.465   0.005  14.062  1.00  0.00     0.021 C 
BRANCH  11  13
ATOM     13  C   UNL     1      -2.502   0.754  11.781  1.00  0.00     0.204 C 
BRANCH  13  14
ATOM     14  N   UNL     1      -2.739   1.993  11.033  1.00  0.00    -0.340 N 
ATOM     15  C   UNL     1      -2.655   2.066   9.660  1.00  0.00     0.243 C 
ATOM     16  O   UNL     1      -2.434   1.080   8.958  1.00  0.00    -0.273 OA
ATOM     17  H   UNL     1      -2.777   2.871  11.558  1.00  0.00     0.164 HD
BRANCH  15  18
ATOM     18  C   UNL     1      -2.739   3.511   9.111  1.00  0.00     0.171 C 
BRANCH  18  19
ATOM     19  N   UNL     1      -1.364   3.971   8.930  1.00  0.00    -0.343 N 
ATOM     20  C   UNL     1      -0.598   4.413   9.992  1.00  0.00     0.242 CG0
ATOM     21  O   UNL     1      -1.078   4.565  11.112  1.00  0.00    -0.273 OA
ATOM     22  H   UNL     1      -0.958   3.973   8.001  1.00  0.00     0.164 HD
ATOM     23  G   UNL     1       0.853   4.782   9.620  1.00  0.00     0.000 G0
ENDBRANCH  18  19
BRANCH  18  24
ATOM     24  C   UNL     1      -3.521   3.545   7.792  1.00  0.00     0.038 C 
BRANCH  24  25
ATOM     25  C   UNL     1      -4.234   4.882   7.499  1.00  0.00    -0.015 C 
ATOM     26  C   UNL     1      -3.545   5.683   6.394  1.00  0.00     0.007 C 
ATOM     27  C   UNL     1      -4.301   5.720   8.778  1.00  0.00     0.007 C 
ENDBRANCH  24  25
ENDBRANCH  18  24
ENDBRANCH  15  18
ENDBRANCH  13  14
BRANCH  13  28
ATOM     28  C   UNL     1      -1.260   0.979  12.649  1.00  0.00     0.327 C 
ATOM     29  O   UNL     1      -0.498   0.116  13.059  1.00  0.00    -0.250 OA
BRANCH  28  30
ATOM     30  O   UNL     1      -1.118   2.260  13.047  1.00  0.00    -0.480 OA
ATOM     31  H   UNL     1      -1.573   2.295  13.913  1.00  0.00     0.296 HD
ENDBRANCH  28  30
ENDBRANCH  13  28
ENDBRANCH  11  13
ENDBRANCH   8  11
ENDBRANCH   6   7
BRANCH   6  32
ATOM     32  C   UNL     1      -3.922  -4.543  12.400  1.00  0.00     0.037 C 
BRANCH  32  33
ATOM     33  C   UNL     1      -3.184  -5.146  11.196  1.00  0.00     0.026 C 
BRANCH  33  34
ATOM     34  C   UNL     1      -3.580  -4.484   9.876  1.00  0.00     0.146 C 
BRANCH  34  35
ATOM     35  N   UNL     1      -2.370  -4.115   9.154  1.00  0.00    -0.254 NA
ATOM     36  C   UNL     1      -2.195  -2.886   8.837  1.00  0.00     0.185 C 
ATOM     37  N   UNL     1      -1.081  -2.534   8.176  1.00  0.00    -0.370 N 
ATOM     38  N   UNL     1      -2.993  -1.830   9.074  1.00  0.00    -0.370 N 
ATOM     39  H   UNL     1      -0.423  -3.274   7.968  1.00  0.00     0.159 HD
ATOM     40  H   UNL     1      -0.789  -1.581   8.046  1.00  0.00     0.159 HD
ATOM     41  H   UNL     1      -2.811  -0.935   8.651  1.00  0.00     0.159 HD
ATOM     42  H   UNL     1      -3.874  -1.950   9.549  1.00  0.00     0.159 HD
ENDBRANCH  34  35
ENDBRANCH  33  34
ENDBRANCH  32  33
ENDBRANCH   6  32
ENDBRANCH   4   6
ENDBRANCH   1   2
BRANCH   1  43
ATOM     43  C   UNL     1      -9.275  -3.844  10.920  1.00  0.00     0.102 C 
ATOM     44  C   UNL     1     -10.528  -3.175  10.329  1.00  0.00     0.020 C 
BRANCH  43  45
ATOM     45  C   UNL     1      -9.494  -5.294  11.360  1.00  0.00     0.225 C 
ATOM     46  O   UNL     1     -10.285  -6.052  10.805  1.00  0.00    -0.275 OA
ATOM     47  N   UNL     1      -8.812  -5.679  12.492  1.00  0.00    -0.342 N 
ATOM     48  H   UNL     1      -8.060  -5.103  12.843  1.00  0.00     0.164 HD
BRANCH  47  49
ATOM     49  C   UNL     1      -8.897  -7.048  13.009  1.00  0.00     0.192 C 
BRANCH  49  50
ATOM     50  C   UNL     1      -9.494  -7.029  14.419  1.00  0.00     0.047 C 
BRANCH  50  51
ATOM     51  C   UNL     1     -10.176  -5.693  14.744  1.00  0.00     0.103 C 
BRANCH  51  52
ATOM     52  C   UNL     1     -11.697  -5.787  14.649  1.00  0.00     0.226 C 
ATOM     53  O   UNL     1     -12.274  -5.359  13.647  1.00  0.00    -0.275 OA
BRANCH  52  54
ATOM     54  N   UNL     1     -12.352  -6.443  15.708  1.00  0.00    -0.311 N 
ATOM     55  C   UNL     1     -12.011  -6.149  17.106  1.00  0.00     0.153 C 
BRANCH  54  56
ATOM     56  C   UNL     1     -13.357  -7.396  15.470  1.00  0.00     0.102 C 
ATOM     57  C   UNL     1     -14.668  -7.200  15.687  1.00  0.00     0.043 C 
BRANCH  56  58
ATOM     58  C   UNL     1     -13.020  -8.748  14.886  1.00  0.00     0.268 C 
ATOM     59  O   UNL     1     -13.438  -9.132  13.802  1.00  0.00    -0.268 OA
ATOM     60  N   UNL     1     -12.148  -9.470  15.665  1.00  0.00    -0.339 N 
ATOM     61  H   UNL     1     -11.856  -9.085  16.555  1.00  0.00     0.164 HD
BRANCH  60  62
ATOM     62  C   UNL     1     -11.642 -10.780  15.257  1.00  0.00     0.168 CG0
ATOM     63  C   UNL     1     -10.297 -10.652  14.552  1.00  0.00     0.041 C 
ATOM     64  G   UNL     1     -12.674 -11.471  14.342  1.00  0.00     0.000 G0
ENDBRANCH  60  62
ENDBRANCH  56  58
ENDBRANCH  54  56
ENDBRANCH  52  54
ENDBRANCH  51  52
ENDBRANCH  50  51
ENDBRANCH  49  50
BRANCH  49  65
ATOM     65  C   UNL     1      -7.519  -7.726  13.049  1.00  0.00     0.326 C 
ATOM     66  O   UNL     1      -6.442  -7.148  13.029  1.00  0.00    -0.250 OA
BRANCH  65  67
ATOM     67  O   UNL     1      -7.554  -9.077  13.052  1.00  0.00    -0.480 OA
ATOM     68  H   UNL     1      -8.389  -9.287  12.581  1.00  0.00     0.296 HD
ENDBRANCH  65  67
ENDBRANCH  49  65
ENDBRANCH  47  49
ENDBRANCH  43  45
ENDBRANCH   1  43
BRANCH   1  69
ATOM     69  C   UNL     1      -9.077  -1.591  12.295  1.00  0.00    -0.001 C 
ATOM     70  C   UNL     1      -8.324  -0.479  12.368  1.00  0.00     0.001 C 
BRANCH  70  71
ATOM     71  C   UNL     1      -8.794   0.890  12.584  1.00  0.00    -0.055 C 
ATOM     72  C   UNL     1     -10.127   1.100  12.602  1.00  0.00    -0.018 C 
ATOM     73  C   UNL     1      -7.758   1.967  12.778  1.00  0.00     0.044 C 
BRANCH  72  74
ATOM     74  C   UNL     1     -10.895   2.398  12.805  1.00  0.00     0.038 C 
ATOM     75  C   UNL     1     -11.680   2.260  14.115  1.00  0.00     0.015 C 
BRANCH  74  76
ATOM     76  C   UNL     1     -11.770   2.666  11.545  1.00  0.00     0.128 C 
BRANCH  76  77
ATOM     77  O   UNL     1     -13.159   2.719  11.914  1.00  0.00    -0.381 OA
ATOM     78  C   UNL     1     -14.046   2.700  10.803  1.00  0.00     0.195 C 
ENDBRANCH  76  77
BRANCH  76  79
ATOM     79  C   UNL     1     -11.322   3.896  10.717  1.00  0.00     0.068 C 
BRANCH  79  80
ATOM     80  C   UNL     1      -9.878   3.969  10.284  1.00  0.00    -0.045 A 
ATOM     81  C   UNL     1      -9.335   3.013   9.415  1.00  0.00     0.004 A 
ATOM     82  C   UNL     1      -9.044   4.987  10.772  1.00  0.00     0.004 A 
ATOM     83  C   UNL     1      -7.994   3.079   9.031  1.00  0.00     0.000 A 
ATOM     84  C   UNL     1      -7.703   5.052  10.387  1.00  0.00     0.000 A 
ATOM     85  C   UNL     1      -7.179   4.100   9.516  1.00  0.00     0.000 A 
ENDBRANCH  79  80
ENDBRANCH  76  79
ENDBRANCH  74  76
ENDBRANCH  72  74
ENDBRANCH  70  71
ENDBRANCH   1  69
TORSDOF 17
ENDMDL
MODEL 42
REMARK VINA RESULT:    -7.335      2.649      3.653
REMARK INTER + INTRA:         -27.722
REMARK INTER:                 -19.860
REMARK INTRA:                  -7.861
REMARK UNBOUND:                -5.809
REMARK SMILES C=C1C(=O)N[C@H](C)C(=O)N[C@@H](CC(C)C)C(=O)N[C@@H](C(=O)O)[C@H](C)C(=O)N[C@@H](CCCN=C(N)N)C(=O)N[C@@H](/C=C/C(C)=C/[C@H](C)[C@H](Cc2ccccc2)OC)[C@H](C)C(=O)N[C@@H](C(=O)O)CCC(=O)N1C
REMARK SMILES IDX 39 1 38 2 37 3 36 4 28 6 27 7 25 8 26 9 23 11 24 12 19 13
REMARK SMILES IDX 18 14 16 15 17 16 11 18 10 19 8 20 9 21 12 24 13 25 14 26
REMARK SMILES IDX 15 27 20 28 21 29 22 30 29 32 30 33 31 34 32 35 33 36 34 37
REMARK SMILES IDX 35 38 57 43 58 44 59 45 60 46 61 47 62 49 66 50 67 51 68 52
REMARK SMILES IDX 69 53 70 54 71 55 2 56 1 57 3 58 4 59 5 60 6 62 7 63 63 65
REMARK SMILES IDX 64 66 65 67 40 69 41 70 42 71 44 72 43 73 45 74 46 75 47 76
REMARK SMILES IDX 55 77 56 78 48 79 49 80 50 81 54 82 51 83 53 84 52 85
REMARK H PARENT 38 5 27 10 18 17 10 22 22 31 34 39 34 40 35 41 35 42 61 48
REMARK H PARENT 5 61 65 68
REMARK Flexibility Score:  369.900
ROOT
ATOM      1  C   UNL     1      -8.948  -3.729  11.234  1.00  0.00     0.117 C 
ENDROOT
BRANCH   1   2
ATOM      2  N   UNL     1      -7.795  -3.485  10.366  1.00  0.00    -0.347 N 
ATOM      3  O   UNL     1      -6.237  -4.656  11.579  1.00  0.00    -0.273 OA
ATOM      4  C   UNL     1      -6.548  -4.046  10.561  1.00  0.00     0.243 C 
ATOM      5  H   UNL     1      -7.909  -2.914   9.542  1.00  0.00     0.164 HD
BRANCH   4   6
ATOM      6  C   UNL     1      -5.526  -3.695   9.450  1.00  0.00     0.171 C 
BRANCH   6   7
ATOM      7  N   UNL     1      -5.636  -2.275   9.080  1.00  0.00    -0.344 N 
ATOM      8  C   UNL     1      -6.180  -1.905   7.869  1.00  0.00     0.226 C 
ATOM      9  O   UNL     1      -6.571  -2.721   7.044  1.00  0.00    -0.275 OA
ATOM     10  H   UNL     1      -5.262  -1.574   9.707  1.00  0.00     0.164 HD
BRANCH   8  11
ATOM     11  C   UNL     1      -6.275  -0.404   7.658  1.00  0.00     0.109 C 
ATOM     12  C   UNL     1      -6.918   0.259   8.876  1.00  0.00     0.021 C 
BRANCH  11  13
ATOM     13  C   UNL     1      -4.892   0.157   7.270  1.00  0.00     0.204 C 
BRANCH  13  14
ATOM     14  N   UNL     1      -4.131   0.608   8.440  1.00  0.00    -0.340 N 
ATOM     15  C   UNL     1      -3.558   1.858   8.523  1.00  0.00     0.243 C 
ATOM     16  O   UNL     1      -3.696   2.708   7.645  1.00  0.00    -0.273 OA
ATOM     17  H   UNL     1      -3.853  -0.094   9.132  1.00  0.00     0.164 HD
BRANCH  15  18
ATOM     18  C   UNL     1      -2.634   2.034   9.753  1.00  0.00     0.171 C 
BRANCH  18  19
ATOM     19  N   UNL     1      -1.727   3.137   9.441  1.00  0.00    -0.343 N 
ATOM     20  C   UNL     1      -0.495   3.262  10.052  1.00  0.00     0.242 CG0
ATOM     21  O   UNL     1      -0.160   2.531  10.981  1.00  0.00    -0.273 OA
ATOM     22  H   UNL     1      -2.009   3.835   8.762  1.00  0.00     0.164 HD
ATOM     23  G   UNL     1       0.354   4.443   9.537  1.00  0.00     0.000 G0
ENDBRANCH  18  19
BRANCH  18  24
ATOM     24  C   UNL     1      -3.459   2.325  11.013  1.00  0.00     0.038 C 
BRANCH  24  25
ATOM     25  C   UNL     1      -3.710   1.099  11.916  1.00  0.00    -0.015 C 
ATOM     26  C   UNL     1      -5.186   0.932  12.279  1.00  0.00     0.007 C 
ATOM     27  C   UNL     1      -2.876   1.221  13.194  1.00  0.00     0.007 C 
ENDBRANCH  24  25
ENDBRANCH  18  24
ENDBRANCH  15  18
ENDBRANCH  13  14
BRANCH  13  28
ATOM     28  C   UNL     1      -4.018  -0.856   6.524  1.00  0.00     0.327 C 
ATOM     29  O   UNL     1      -3.174  -1.587   7.020  1.00  0.00    -0.250 OA
BRANCH  28  30
ATOM     30  O   UNL     1      -4.174  -0.804   5.186  1.00  0.00    -0.480 OA
ATOM     31  H   UNL     1      -4.889  -0.148   5.052  1.00  0.00     0.296 HD
ENDBRANCH  28  30
ENDBRANCH  13  28
ENDBRANCH  11  13
ENDBRANCH   8  11
ENDBRANCH   6   7
BRANCH   6  32
ATOM     32  C   UNL     1      -4.113  -4.023   9.944  1.00  0.00     0.037 C 
BRANCH  32  33
ATOM     33  C   UNL     1      -3.382  -2.782  10.477  1.00  0.00     0.026 C 
BRANCH  33  34
ATOM     34  C   UNL     1      -1.955  -2.668   9.940  1.00  0.00     0.146 C 
BRANCH  34  35
ATOM     35  N   UNL     1      -1.380  -1.410  10.397  1.00  0.00    -0.254 NA
ATOM     36  C   UNL     1      -0.472  -1.443  11.300  1.00  0.00     0.185 C 
ATOM     37  N   UNL     1       0.068  -0.290  11.726  1.00  0.00    -0.370 N 
ATOM     38  N   UNL     1       0.060  -2.508  11.926  1.00  0.00    -0.370 N 
ATOM     39  H   UNL     1      -0.273   0.558  11.293  1.00  0.00     0.159 HD
ATOM     40  H   UNL     1       0.896  -0.241  12.295  1.00  0.00     0.159 HD
ATOM     41  H   UNL     1       0.670  -2.395  12.719  1.00  0.00     0.159 HD
ATOM     42  H   UNL     1      -0.264  -3.439  11.717  1.00  0.00     0.159 HD
ENDBRANCH  34  35
ENDBRANCH  33  34
ENDBRANCH  32  33
ENDBRANCH   6  32
ENDBRANCH   4   6
ENDBRANCH   1   2
BRANCH   1  43
ATOM     43  C   UNL     1      -9.688  -5.001  10.728  1.00  0.00     0.102 C 
ATOM     44  C   UNL     1     -11.159  -4.747  10.358  1.00  0.00     0.020 C 
BRANCH  43  45
ATOM     45  C   UNL     1      -9.483  -6.175  11.690  1.00  0.00     0.225 C 
ATOM     46  O   UNL     1     -10.149  -7.205  11.643  1.00  0.00    -0.275 OA
ATOM     47  N   UNL     1      -8.555  -5.970  12.686  1.00  0.00    -0.342 N 
ATOM     48  H   UNL     1      -7.915  -5.191  12.621  1.00  0.00     0.164 HD
BRANCH  47  49
ATOM     49  C   UNL     1      -8.229  -7.020  13.656  1.00  0.00     0.192 C 
BRANCH  49  50
ATOM     50  C   UNL     1      -7.552  -6.396  14.880  1.00  0.00     0.047 C 
BRANCH  50  51
ATOM     51  C   UNL     1      -8.342  -6.645  16.172  1.00  0.00     0.103 C 
BRANCH  51  52
ATOM     52  C   UNL     1      -9.679  -5.907  16.179  1.00  0.00     0.226 C 
ATOM     53  O   UNL     1      -9.715  -4.708  15.896  1.00  0.00    -0.275 OA
BRANCH  52  54
ATOM     54  N   UNL     1     -10.822  -6.684  16.442  1.00  0.00    -0.311 N 
ATOM     55  C   UNL     1     -11.299  -6.887  17.816  1.00  0.00     0.153 C 
BRANCH  54  56
ATOM     56  C   UNL     1     -11.552  -7.286  15.404  1.00  0.00     0.102 C 
ATOM     57  C   UNL     1     -12.359  -6.633  14.552  1.00  0.00     0.043 C 
BRANCH  56  58
ATOM     58  C   UNL     1     -11.439  -8.769  15.136  1.00  0.00     0.268 C 
ATOM     59  O   UNL     1     -10.463  -9.281  14.605  1.00  0.00    -0.268 OA
ATOM     60  N   UNL     1     -12.512  -9.486  15.608  1.00  0.00    -0.339 N 
ATOM     61  H   UNL     1     -13.287  -8.986  16.027  1.00  0.00     0.164 HD
BRANCH  60  62
ATOM     62  C   UNL     1     -12.578 -10.944  15.511  1.00  0.00     0.168 CG0
ATOM     63  C   UNL     1     -13.913 -11.393  14.927  1.00  0.00     0.041 C 
ATOM     64  G   UNL     1     -12.355 -11.566  16.904  1.00  0.00     0.000 G0
ENDBRANCH  60  62
ENDBRANCH  56  58
ENDBRANCH  54  56
ENDBRANCH  52  54
ENDBRANCH  51  52
ENDBRANCH  50  51
ENDBRANCH  49  50
BRANCH  49  65
ATOM     65  C   UNL     1      -7.302  -8.085  13.049  1.00  0.00     0.326 C 
ATOM     66  O   UNL     1      -7.493  -9.292  13.078  1.00  0.00    -0.250 OA
BRANCH  65  67
ATOM     67  O   UNL     1      -6.169  -7.598  12.498  1.00  0.00    -0.480 OA
ATOM     68  H   UNL     1      -6.103  -8.075  11.644  1.00  0.00     0.296 HD
ENDBRANCH  65  67
ENDBRANCH  49  65
ENDBRANCH  47  49
ENDBRANCH  43  45
ENDBRANCH   1  43
BRANCH   1  69
ATOM     69  C   UNL     1      -9.709  -2.418  11.306  1.00  0.00    -0.001 C 
ATOM     70  C   UNL     1      -9.787  -1.465  10.360  1.00  0.00     0.001 C 
BRANCH  70  71
ATOM     71  C   UNL     1     -10.543  -0.213  10.433  1.00  0.00    -0.055 C 
ATOM     72  C   UNL     1      -9.844   0.940  10.492  1.00  0.00    -0.018 C 
ATOM     73  C   UNL     1     -12.047  -0.299  10.430  1.00  0.00     0.044 C 
BRANCH  72  74
ATOM     74  C   UNL     1     -10.352   2.372  10.570  1.00  0.00     0.038 C 
ATOM     75  C   UNL     1      -9.871   3.093   9.305  1.00  0.00     0.015 C 
BRANCH  74  76
ATOM     76  C   UNL     1      -9.866   3.004  11.907  1.00  0.00     0.128 C 
BRANCH  76  77
ATOM     77  O   UNL     1     -10.463   2.318  13.021  1.00  0.00    -0.381 OA
ATOM     78  C   UNL     1     -11.434   3.091  13.713  1.00  0.00     0.195 C 
ENDBRANCH  76  77
BRANCH  76  79
ATOM     79  C   UNL     1      -8.325   3.114  12.028  1.00  0.00     0.068 C 
BRANCH  79  80
ATOM     80  C   UNL     1      -7.623   4.158  11.194  1.00  0.00    -0.045 A 
ATOM     81  C   UNL     1      -6.615   3.802  10.289  1.00  0.00     0.004 A 
ATOM     82  C   UNL     1      -7.953   5.515  11.335  1.00  0.00     0.004 A 
ATOM     83  C   UNL     1      -5.961   4.776   9.531  1.00  0.00     0.000 A 
ATOM     84  C   UNL     1      -7.298   6.488  10.577  1.00  0.00     0.000 A 
ATOM     85  C   UNL     1      -6.303   6.118   9.675  1.00  0.00     0.000 A 
ENDBRANCH  79  80
ENDBRANCH  76  79
ENDBRANCH  74  76
ENDBRANCH  72  74
ENDBRANCH  70  71
ENDBRANCH   1  69
TORSDOF 17
ENDMDL
MODEL 43
REMARK VINA RESULT:    -7.315      3.717      8.081
REMARK INTER + INTRA:         -27.662
REMARK INTER:                 -19.112
REMARK INTRA:                  -8.550
REMARK UNBOUND:                -5.809
REMARK SMILES C=C1C(=O)N[C@H](C)C(=O)N[C@@H](CC(C)C)C(=O)N[C@@H](C(=O)O)[C@H](C)C(=O)N[C@@H](CCCN=C(N)N)C(=O)N[C@@H](/C=C/C(C)=C/[C@H](C)[C@H](Cc2ccccc2)OC)[C@H](C)C(=O)N[C@@H](C(=O)O)CCC(=O)N1C
REMARK SMILES IDX 39 1 38 2 37 3 36 4 28 6 27 7 25 8 26 9 23 11 24 12 19 13
REMARK SMILES IDX 18 14 16 15 17 16 11 18 10 19 8 20 9 21 12 24 13 25 14 26
REMARK SMILES IDX 15 27 20 28 21 29 22 30 29 32 30 33 31 34 32 35 33 36 34 37
REMARK SMILES IDX 35 38 57 43 58 44 59 45 60 46 61 47 62 49 66 50 67 51 68 52
REMARK SMILES IDX 69 53 70 54 71 55 2 56 1 57 3 58 4 59 5 60 6 62 7 63 63 65
REMARK SMILES IDX 64 66 65 67 40 69 41 70 42 71 44 72 43 73 45 74 46 75 47 76
REMARK SMILES IDX 55 77 56 78 48 79 49 80 50 81 54 82 51 83 53 84 52 85
REMARK H PARENT 38 5 27 10 18 17 10 22 22 31 34 39 34 40 35 41 35 42 61 48
REMARK H PARENT 5 61 65 68
REMARK Flexibility Score:  369.900
ROOT
ATOM      1  C   UNL     1      -7.573   0.604  11.378  1.00  0.00     0.117 C 
ENDROOT
BRANCH   1   2
ATOM      2  N   UNL     1      -6.659  -0.402  11.920  1.00  0.00    -0.347 N 
ATOM      3  O   UNL     1      -5.851  -1.198   9.924  1.00  0.00    -0.273 OA
ATOM      4  C   UNL     1      -5.801  -1.162  11.149  1.00  0.00     0.243 C 
ATOM      5  H   UNL     1      -6.600  -0.529  12.919  1.00  0.00     0.164 HD
BRANCH   4   6
ATOM      6  C   UNL     1      -4.876  -2.091  11.976  1.00  0.00     0.171 C 
BRANCH   6   7
ATOM      7  N   UNL     1      -4.149  -3.014  11.091  1.00  0.00    -0.344 N 
ATOM      8  C   UNL     1      -4.167  -4.372  11.323  1.00  0.00     0.226 C 
ATOM      9  O   UNL     1      -4.759  -4.871  12.273  1.00  0.00    -0.275 OA
ATOM     10  H   UNL     1      -3.593  -2.633  10.335  1.00  0.00     0.164 HD
BRANCH   8  11
ATOM     11  C   UNL     1      -3.415  -5.193  10.291  1.00  0.00     0.109 C 
ATOM     12  C   UNL     1      -2.722  -6.378  10.965  1.00  0.00     0.021 C 
BRANCH  11  13
ATOM     13  C   UNL     1      -4.360  -5.568   9.133  1.00  0.00     0.204 C 
BRANCH  13  14
ATOM     14  N   UNL     1      -5.771  -5.466   9.518  1.00  0.00    -0.340 N 
ATOM     15  C   UNL     1      -6.516  -6.552   9.925  1.00  0.00     0.243 C 
ATOM     16  O   UNL     1      -6.032  -7.675  10.052  1.00  0.00    -0.273 OA
ATOM     17  H   UNL     1      -6.270  -4.602   9.291  1.00  0.00     0.164 HD
BRANCH  15  18
ATOM     18  C   UNL     1      -8.026  -6.244  10.078  1.00  0.00     0.171 C 
BRANCH  18  19
ATOM     19  N   UNL     1      -8.202  -5.661  11.407  1.00  0.00    -0.343 N 
ATOM     20  C   UNL     1      -8.445  -6.444  12.519  1.00  0.00     0.242 CG0
ATOM     21  O   UNL     1      -8.658  -7.650  12.423  1.00  0.00    -0.273 OA
ATOM     22  H   UNL     1      -8.150  -4.655  11.519  1.00  0.00     0.164 HD
ATOM     23  G   UNL     1      -8.523  -5.659  13.845  1.00  0.00     0.000 G0
ENDBRANCH  18  19
BRANCH  18  24
ATOM     24  C   UNL     1      -8.498  -5.286   8.977  1.00  0.00     0.038 C 
BRANCH  24  25
ATOM     25  C   UNL     1      -9.026  -3.928   9.487  1.00  0.00    -0.015 C 
ATOM     26  C   UNL     1     -10.544  -3.923   9.671  1.00  0.00     0.007 C 
ATOM     27  C   UNL     1      -8.621  -2.819   8.513  1.00  0.00     0.007 C 
ENDBRANCH  24  25
ENDBRANCH  18  24
ENDBRANCH  15  18
ENDBRANCH  13  14
BRANCH  13  28
ATOM     28  C   UNL     1      -4.165  -4.697   7.888  1.00  0.00     0.327 C 
ATOM     29  O   UNL     1      -4.995  -4.485   7.017  1.00  0.00    -0.250 OA
BRANCH  28  30
ATOM     30  O   UNL     1      -2.903  -4.242   7.754  1.00  0.00    -0.480 OA
ATOM     31  H   UNL     1      -2.693  -3.852   8.628  1.00  0.00     0.296 HD
ENDBRANCH  28  30
ENDBRANCH  13  28
ENDBRANCH  11  13
ENDBRANCH   8  11
ENDBRANCH   6   7
BRANCH   6  32
ATOM     32  C   UNL     1      -3.903  -1.234  12.793  1.00  0.00     0.037 C 
BRANCH  32  33
ATOM     33  C   UNL     1      -2.913  -2.089  13.597  1.00  0.00     0.026 C 
BRANCH  33  34
ATOM     34  C   UNL     1      -1.496  -2.036  13.024  1.00  0.00     0.146 C 
BRANCH  34  35
ATOM     35  N   UNL     1      -1.578  -1.921  11.575  1.00  0.00    -0.254 NA
ATOM     36  C   UNL     1      -0.703  -2.523  10.860  1.00  0.00     0.185 C 
ATOM     37  N   UNL     1      -0.773  -2.428   9.523  1.00  0.00    -0.370 N 
ATOM     38  N   UNL     1       0.335  -3.281  11.256  1.00  0.00    -0.370 N 
ATOM     39  H   UNL     1      -1.536  -1.881   9.146  1.00  0.00     0.159 HD
ATOM     40  H   UNL     1      -0.238  -3.004   8.896  1.00  0.00     0.159 HD
ATOM     41  H   UNL     1       1.036  -3.587  10.601  1.00  0.00     0.159 HD
ATOM     42  H   UNL     1       0.519  -3.427  12.236  1.00  0.00     0.159 HD
ENDBRANCH  34  35
ENDBRANCH  33  34
ENDBRANCH  32  33
ENDBRANCH   6  32
ENDBRANCH   4   6
ENDBRANCH   1   2
BRANCH   1  43
ATOM     43  C   UNL     1      -8.764  -0.127  10.693  1.00  0.00     0.102 C 
ATOM     44  C   UNL     1      -9.518   0.749   9.679  1.00  0.00     0.020 C 
BRANCH  43  45
ATOM     45  C   UNL     1      -9.670  -0.795  11.732  1.00  0.00     0.225 C 
ATOM     46  O   UNL     1      -9.292  -1.702  12.467  1.00  0.00    -0.275 OA
ATOM     47  N   UNL     1     -10.981  -0.377  11.730  1.00  0.00    -0.342 N 
ATOM     48  H   UNL     1     -11.237   0.464  11.233  1.00  0.00     0.164 HD
BRANCH  47  49
ATOM     49  C   UNL     1     -11.954  -0.903  12.692  1.00  0.00     0.192 C 
BRANCH  49  50
ATOM     50  C   UNL     1     -12.828  -1.961  12.014  1.00  0.00     0.047 C 
BRANCH  50  51
ATOM     51  C   UNL     1     -12.680  -3.343  12.666  1.00  0.00     0.103 C 
BRANCH  51  52
ATOM     52  C   UNL     1     -13.296  -3.386  14.063  1.00  0.00     0.226 C 
ATOM     53  O   UNL     1     -14.510  -3.223  14.200  1.00  0.00    -0.275 OA
BRANCH  52  54
ATOM     54  N   UNL     1     -12.423  -3.693  15.124  1.00  0.00    -0.311 N 
ATOM     55  C   UNL     1     -11.950  -2.647  16.040  1.00  0.00     0.153 C 
BRANCH  54  56
ATOM     56  C   UNL     1     -11.978  -5.006  15.350  1.00  0.00     0.102 C 
ATOM     57  C   UNL     1     -12.780  -6.066  15.544  1.00  0.00     0.043 C 
BRANCH  56  58
ATOM     58  C   UNL     1     -10.504  -5.337  15.345  1.00  0.00     0.268 C 
ATOM     59  O   UNL     1      -9.885  -5.650  16.352  1.00  0.00    -0.268 OA
ATOM     60  N   UNL     1      -9.949  -5.313  14.087  1.00  0.00    -0.339 N 
ATOM     61  H   UNL     1     -10.528  -5.032  13.305  1.00  0.00     0.164 HD
BRANCH  60  62
ATOM     62  C   UNL     1      -8.550  -5.662  13.847  1.00  0.00     0.168 CG0
ATOM     63  C   UNL     1      -7.671  -4.418  13.829  1.00  0.00     0.041 C 
ATOM     64  G   UNL     1      -8.431  -6.433  12.516  1.00  0.00     0.000 G0
ENDBRANCH  60  62
ENDBRANCH  56  58
ENDBRANCH  54  56
ENDBRANCH  52  54
ENDBRANCH  51  52
ENDBRANCH  50  51
ENDBRANCH  49  50
BRANCH  49  65
ATOM     65  C   UNL     1     -12.850   0.210  13.258  1.00  0.00     0.326 C 
ATOM     66  O   UNL     1     -12.568   1.399  13.296  1.00  0.00    -0.250 OA
BRANCH  65  67
ATOM     67  O   UNL     1     -14.012  -0.220  13.797  1.00  0.00    -0.480 OA
ATOM     68  H   UNL     1     -14.298  -0.935  13.189  1.00  0.00     0.296 HD
ENDBRANCH  65  67
ENDBRANCH  49  65
ENDBRANCH  47  49
ENDBRANCH  43  45
ENDBRANCH   1  43
BRANCH   1  69
ATOM     69  C   UNL     1      -6.721   1.551  10.553  1.00  0.00    -0.001 C 
ATOM     70  C   UNL     1      -6.697   2.894  10.616  1.00  0.00     0.001 C 
BRANCH  70  71
ATOM     71  C   UNL     1      -5.855   3.797   9.829  1.00  0.00    -0.055 C 
ATOM     72  C   UNL     1      -4.731   3.288   9.280  1.00  0.00    -0.018 C 
ATOM     73  C   UNL     1      -6.305   5.227   9.680  1.00  0.00     0.044 C 
BRANCH  72  74
ATOM     74  C   UNL     1      -3.680   3.978   8.423  1.00  0.00     0.038 C 
ATOM     75  C   UNL     1      -4.230   4.036   6.992  1.00  0.00     0.015 C 
BRANCH  74  76
ATOM     76  C   UNL     1      -2.331   3.216   8.574  1.00  0.00     0.128 C 
BRANCH  76  77
ATOM     77  O   UNL     1      -1.344   4.078   9.165  1.00  0.00    -0.381 OA
ATOM     78  C   UNL     1      -1.857   5.341   9.568  1.00  0.00     0.195 C 
ENDBRANCH  76  77
BRANCH  76  79
ATOM     79  C   UNL     1      -2.455   1.856   9.306  1.00  0.00     0.068 C 
BRANCH  79  80
ATOM     80  C   UNL     1      -1.605   1.634  10.533  1.00  0.00    -0.045 A 
ATOM     81  C   UNL     1      -0.298   1.141  10.427  1.00  0.00     0.004 A 
ATOM     82  C   UNL     1      -2.126   1.893  11.810  1.00  0.00     0.004 A 
ATOM     83  C   UNL     1       0.477   0.925  11.569  1.00  0.00     0.000 A 
ATOM     84  C   UNL     1      -1.350   1.676  12.951  1.00  0.00     0.000 A 
ATOM     85  C   UNL     1      -0.049   1.194  12.830  1.00  0.00     0.000 A 
ENDBRANCH  79  80
ENDBRANCH  76  79
ENDBRANCH  74  76
ENDBRANCH  72  74
ENDBRANCH  70  71
ENDBRANCH   1  69
TORSDOF 17
ENDMDL
MODEL 44
REMARK VINA RESULT:    -7.308      4.176     13.902
REMARK INTER + INTRA:         -27.641
REMARK INTER:                 -21.965
REMARK INTRA:                  -5.676
REMARK UNBOUND:                -5.809
REMARK SMILES C=C1C(=O)N[C@H](C)C(=O)N[C@@H](CC(C)C)C(=O)N[C@@H](C(=O)O)[C@H](C)C(=O)N[C@@H](CCCN=C(N)N)C(=O)N[C@@H](/C=C/C(C)=C/[C@H](C)[C@H](Cc2ccccc2)OC)[C@H](C)C(=O)N[C@@H](C(=O)O)CCC(=O)N1C
REMARK SMILES IDX 39 1 38 2 37 3 36 4 28 6 27 7 25 8 26 9 23 11 24 12 19 13
REMARK SMILES IDX 18 14 16 15 17 16 11 18 10 19 8 20 9 21 12 24 13 25 14 26
REMARK SMILES IDX 15 27 20 28 21 29 22 30 29 32 30 33 31 34 32 35 33 36 34 37
REMARK SMILES IDX 35 38 57 43 58 44 59 45 60 46 61 47 62 49 66 50 67 51 68 52
REMARK SMILES IDX 69 53 70 54 71 55 2 56 1 57 3 58 4 59 5 60 6 62 7 63 63 65
REMARK SMILES IDX 64 66 65 67 40 69 41 70 42 71 44 72 43 73 45 74 46 75 47 76
REMARK SMILES IDX 55 77 56 78 48 79 49 80 50 81 54 82 51 83 53 84 52 85
REMARK H PARENT 38 5 27 10 18 17 10 22 22 31 34 39 34 40 35 41 35 42 61 48
REMARK H PARENT 5 61 65 68
REMARK Flexibility Score:  369.900
ROOT
ATOM      1  C   UNL     1      -6.532   1.850  10.018  1.00  0.00     0.117 C 
ENDROOT
BRANCH   1   2
ATOM      2  N   UNL     1      -7.034   1.640  11.376  1.00  0.00    -0.347 N 
ATOM      3  O   UNL     1      -5.008   1.603  12.456  1.00  0.00    -0.273 OA
ATOM      4  C   UNL     1      -6.234   1.624  12.503  1.00  0.00     0.243 C 
ATOM      5  H   UNL     1      -8.027   1.547  11.528  1.00  0.00     0.164 HD
BRANCH   4   6
ATOM      6  C   UNL     1      -7.025   1.470  13.827  1.00  0.00     0.171 C 
BRANCH   6   7
ATOM      7  N   UNL     1      -8.401   1.025  13.555  1.00  0.00    -0.344 N 
ATOM      8  C   UNL     1      -9.477   1.714  14.071  1.00  0.00     0.226 C 
ATOM      9  O   UNL     1      -9.347   2.700  14.788  1.00  0.00    -0.275 OA
ATOM     10  H   UNL     1      -8.546   0.177  13.023  1.00  0.00     0.164 HD
BRANCH   8  11
ATOM     11  C   UNL     1     -10.830   1.164  13.657  1.00  0.00     0.109 C 
ATOM     12  C   UNL     1     -11.765   2.307  13.262  1.00  0.00     0.021 C 
BRANCH  11  13
ATOM     13  C   UNL     1     -10.642   0.078  12.578  1.00  0.00     0.204 C 
BRANCH  13  14
ATOM     14  N   UNL     1     -11.533  -1.068  12.788  1.00  0.00    -0.340 N 
ATOM     15  C   UNL     1     -11.155  -2.191  13.491  1.00  0.00     0.243 C 
ATOM     16  O   UNL     1     -10.061  -2.286  14.045  1.00  0.00    -0.273 OA
ATOM     17  H   UNL     1     -12.391  -1.117  12.232  1.00  0.00     0.164 HD
BRANCH  15  18
ATOM     18  C   UNL     1     -12.179  -3.349  13.405  1.00  0.00     0.171 C 
BRANCH  18  19
ATOM     19  N   UNL     1     -13.486  -2.777  13.725  1.00  0.00    -0.343 N 
ATOM     20  C   UNL     1     -14.031  -2.871  14.991  1.00  0.00     0.242 CG0
ATOM     21  O   UNL     1     -13.507  -3.551  15.869  1.00  0.00    -0.273 OA
ATOM     22  H   UNL     1     -14.013  -2.304  13.000  1.00  0.00     0.164 HD
ATOM     23  G   UNL     1     -15.379  -2.140  15.159  1.00  0.00     0.000 G0
ENDBRANCH  18  19
BRANCH  18  24
ATOM     24  C   UNL     1     -12.169  -3.978  12.006  1.00  0.00     0.038 C 
BRANCH  24  25
ATOM     25  C   UNL     1     -10.763  -4.186  11.404  1.00  0.00    -0.015 C 
ATOM     26  C   UNL     1     -10.802  -4.417   9.893  1.00  0.00     0.007 C 
ATOM     27  C   UNL     1     -10.080  -5.373  12.089  1.00  0.00     0.007 C 
ENDBRANCH  24  25
ENDBRANCH  18  24
ENDBRANCH  15  18
ENDBRANCH  13  14
BRANCH  13  28
ATOM     28  C   UNL     1     -10.889   0.590  11.156  1.00  0.00     0.327 C 
ATOM     29  O   UNL     1     -10.179   1.364  10.533  1.00  0.00    -0.250 OA
BRANCH  28  30
ATOM     30  O   UNL     1     -12.074   0.192  10.649  1.00  0.00    -0.480 OA
ATOM     31  H   UNL     1     -12.368  -0.520  11.254  1.00  0.00     0.296 HD
ENDBRANCH  28  30
ENDBRANCH  13  28
ENDBRANCH  11  13
ENDBRANCH   8  11
ENDBRANCH   6   7
BRANCH   6  32
ATOM     32  C   UNL     1      -6.296   0.473  14.735  1.00  0.00     0.037 C 
BRANCH  32  33
ATOM     33  C   UNL     1      -6.918   0.405  16.137  1.00  0.00     0.026 C 
BRANCH  33  34
ATOM     34  C   UNL     1      -6.664  -0.936  16.825  1.00  0.00     0.146 C 
BRANCH  34  35
ATOM     35  N   UNL     1      -7.649  -1.900  16.354  1.00  0.00    -0.254 NA
ATOM     36  C   UNL     1      -7.872  -2.946  17.061  1.00  0.00     0.185 C 
ATOM     37  N   UNL     1      -8.781  -3.838  16.639  1.00  0.00    -0.370 N 
ATOM     38  N   UNL     1      -7.309  -3.314  18.225  1.00  0.00    -0.370 N 
ATOM     39  H   UNL     1      -9.257  -3.626  15.771  1.00  0.00     0.159 HD
ATOM     40  H   UNL     1      -9.135  -4.584  17.212  1.00  0.00     0.159 HD
ATOM     41  H   UNL     1      -7.468  -4.229  18.614  1.00  0.00     0.159 HD
ATOM     42  H   UNL     1      -6.596  -2.745  18.653  1.00  0.00     0.159 HD
ENDBRANCH  34  35
ENDBRANCH  33  34
ENDBRANCH  32  33
ENDBRANCH   6  32
ENDBRANCH   4   6
ENDBRANCH   1   2
BRANCH   1  43
ATOM     43  C   UNL     1      -7.252   3.088   9.410  1.00  0.00     0.102 C 
ATOM     44  C   UNL     1      -8.141   2.747   8.202  1.00  0.00     0.020 C 
BRANCH  43  45
ATOM     45  C   UNL     1      -6.263   4.228   9.151  1.00  0.00     0.225 C 
ATOM     46  O   UNL     1      -6.538   5.410   9.335  1.00  0.00    -0.275 OA
ATOM     47  N   UNL     1      -5.057   3.853   8.603  1.00  0.00    -0.342 N 
ATOM     48  H   UNL     1      -4.790   2.879   8.601  1.00  0.00     0.164 HD
BRANCH  47  49
ATOM     49  C   UNL     1      -4.000   4.833   8.335  1.00  0.00     0.192 C 
BRANCH  49  50
ATOM     50  C   UNL     1      -3.914   5.097   6.829  1.00  0.00     0.047 C 
BRANCH  50  51
ATOM     51  C   UNL     1      -2.719   5.988   6.462  1.00  0.00     0.103 C 
BRANCH  51  52
ATOM     52  C   UNL     1      -2.904   6.666   5.106  1.00  0.00     0.226 C 
ATOM     53  O   UNL     1      -3.916   6.434   4.442  1.00  0.00    -0.275 OA
BRANCH  52  54
ATOM     54  N   UNL     1      -1.916   7.593   4.729  1.00  0.00    -0.311 N 
ATOM     55  C   UNL     1      -0.593   7.590   5.368  1.00  0.00     0.153 C 
BRANCH  54  56
ATOM     56  C   UNL     1      -2.153   8.550   3.728  1.00  0.00     0.102 C 
ATOM     57  C   UNL     1      -3.070   9.528   3.801  1.00  0.00     0.043 C 
BRANCH  56  58
ATOM     58  C   UNL     1      -1.325   8.570   2.464  1.00  0.00     0.268 C 
ATOM     59  O   UNL     1      -0.920   7.556   1.913  1.00  0.00    -0.268 OA
ATOM     60  N   UNL     1      -1.133   9.837   1.965  1.00  0.00    -0.339 N 
ATOM     61  H   UNL     1      -1.493  10.626   2.488  1.00  0.00     0.164 HD
BRANCH  60  62
ATOM     62  C   UNL     1      -0.413  10.081   0.716  1.00  0.00     0.168 CG0
ATOM     63  C   UNL     1      -0.920  11.343   0.030  1.00  0.00     0.041 C 
ATOM     64  G   UNL     1      -0.560   8.858  -0.213  1.00  0.00     0.000 G0
ENDBRANCH  60  62
ENDBRANCH  56  58
ENDBRANCH  54  56
ENDBRANCH  52  54
ENDBRANCH  51  52
ENDBRANCH  50  51
ENDBRANCH  49  50
BRANCH  49  65
ATOM     65  C   UNL     1      -2.634   4.347   8.845  1.00  0.00     0.326 C 
ATOM     66  O   UNL     1      -2.105   3.284   8.556  1.00  0.00    -0.250 OA
BRANCH  65  67
ATOM     67  O   UNL     1      -2.035   5.175   9.729  1.00  0.00    -0.480 OA
ATOM     68  H   UNL     1      -1.416   4.588  10.214  1.00  0.00     0.296 HD
ENDBRANCH  65  67
ENDBRANCH  49  65
ENDBRANCH  47  49
ENDBRANCH  43  45
ENDBRANCH   1  43
BRANCH   1  69
ATOM     69  C   UNL     1      -6.650   0.512   9.311  1.00  0.00    -0.001 C 
ATOM     70  C   UNL     1      -7.375  -0.553   9.694  1.00  0.00     0.001 C 
BRANCH  70  71
ATOM     71  C   UNL     1      -7.497  -1.832   8.991  1.00  0.00    -0.055 C 
ATOM     72  C   UNL     1      -6.491  -2.721   9.125  1.00  0.00    -0.018 C 
ATOM     73  C   UNL     1      -8.742  -2.069   8.176  1.00  0.00     0.044 C 
BRANCH  72  74
ATOM     74  C   UNL     1      -6.347  -4.111   8.523  1.00  0.00     0.038 C 
ATOM     75  C   UNL     1      -7.187  -5.065   9.381  1.00  0.00     0.015 C 
BRANCH  74  76
ATOM     76  C   UNL     1      -4.833  -4.468   8.441  1.00  0.00     0.128 C 
BRANCH  76  77
ATOM     77  O   UNL     1      -4.659  -5.893   8.526  1.00  0.00    -0.381 OA
ATOM     78  C   UNL     1      -3.431  -6.283   9.125  1.00  0.00     0.195 C 
ENDBRANCH  76  77
BRANCH  76  79
ATOM     79  C   UNL     1      -4.105  -3.846   7.223  1.00  0.00     0.068 C 
BRANCH  79  80
ATOM     80  C   UNL     1      -4.313  -4.488   5.872  1.00  0.00    -0.045 A 
ATOM     81  C   UNL     1      -3.489  -5.534   5.436  1.00  0.00     0.004 A 
ATOM     82  C   UNL     1      -5.323  -4.024   5.016  1.00  0.00     0.004 A 
ATOM     83  C   UNL     1      -3.679  -6.113   4.179  1.00  0.00     0.000 A 
ATOM     84  C   UNL     1      -5.511  -4.603   3.759  1.00  0.00     0.000 A 
ATOM     85  C   UNL     1      -4.690  -5.648   3.342  1.00  0.00     0.000 A 
ENDBRANCH  79  80
ENDBRANCH  76  79
ENDBRANCH  74  76
ENDBRANCH  72  74
ENDBRANCH  70  71
ENDBRANCH   1  69
TORSDOF 17
ENDMDL
MODEL 45
REMARK VINA RESULT:    -7.286      2.368      3.042
REMARK INTER + INTRA:         -27.576
REMARK INTER:                 -23.352
REMARK INTRA:                  -4.224
REMARK UNBOUND:                -5.809
REMARK SMILES C=C1C(=O)N[C@H](C)C(=O)N[C@@H](CC(C)C)C(=O)N[C@@H](C(=O)O)[C@H](C)C(=O)N[C@@H](CCCN=C(N)N)C(=O)N[C@@H](/C=C/C(C)=C/[C@H](C)[C@H](Cc2ccccc2)OC)[C@H](C)C(=O)N[C@@H](C(=O)O)CCC(=O)N1C
REMARK SMILES IDX 39 1 38 2 37 3 36 4 28 6 27 7 25 8 26 9 23 11 24 12 19 13
REMARK SMILES IDX 18 14 16 15 17 16 11 18 10 19 8 20 9 21 12 24 13 25 14 26
REMARK SMILES IDX 15 27 20 28 21 29 22 30 29 32 30 33 31 34 32 35 33 36 34 37
REMARK SMILES IDX 35 38 57 43 58 44 59 45 60 46 61 47 62 49 66 50 67 51 68 52
REMARK SMILES IDX 69 53 70 54 71 55 2 56 1 57 3 58 4 59 5 60 6 62 7 63 63 65
REMARK SMILES IDX 64 66 65 67 40 69 41 70 42 71 44 72 43 73 45 74 46 75 47 76
REMARK SMILES IDX 55 77 56 78 48 79 49 80 50 81 54 82 51 83 53 84 52 85
REMARK H PARENT 38 5 27 10 18 17 10 22 22 31 34 39 34 40 35 41 35 42 61 48
REMARK H PARENT 5 61 65 68
REMARK Flexibility Score:  369.900
ROOT
ATOM      1  C   UNL     1      -8.575  -3.334  10.460  1.00  0.00     0.117 C 
ENDROOT
BRANCH   1   2
ATOM      2  N   UNL     1      -7.757  -2.684   9.435  1.00  0.00    -0.347 N 
ATOM      3  O   UNL     1      -6.547  -4.525   8.788  1.00  0.00    -0.273 OA
ATOM      4  C   UNL     1      -6.869  -3.354   8.615  1.00  0.00     0.243 C 
ATOM      5  H   UNL     1      -7.867  -1.696   9.268  1.00  0.00     0.164 HD
BRANCH   4   6
ATOM      6  C   UNL     1      -6.192  -2.446   7.557  1.00  0.00     0.171 C 
BRANCH   6   7
ATOM      7  N   UNL     1      -5.721  -1.197   8.177  1.00  0.00    -0.344 N 
ATOM      8  C   UNL     1      -6.546  -0.096   8.253  1.00  0.00     0.226 C 
ATOM      9  O   UNL     1      -7.684  -0.091   7.799  1.00  0.00    -0.275 OA
ATOM     10  H   UNL     1      -4.764  -1.142   8.503  1.00  0.00     0.164 HD
BRANCH   8  11
ATOM     11  C   UNL     1      -5.933   1.096   8.968  1.00  0.00     0.109 C 
ATOM     12  C   UNL     1      -5.530   0.705  10.390  1.00  0.00     0.021 C 
BRANCH  11  13
ATOM     13  C   UNL     1      -4.798   1.690   8.112  1.00  0.00     0.204 C 
BRANCH  13  14
ATOM     14  N   UNL     1      -3.816   2.416   8.924  1.00  0.00    -0.340 N 
ATOM     15  C   UNL     1      -3.203   3.574   8.500  1.00  0.00     0.243 C 
ATOM     16  O   UNL     1      -3.482   4.116   7.431  1.00  0.00    -0.273 OA
ATOM     17  H   UNL     1      -3.431   1.944   9.747  1.00  0.00     0.164 HD
BRANCH  15  18
ATOM     18  C   UNL     1      -2.057   4.044   9.429  1.00  0.00     0.171 C 
BRANCH  18  19
ATOM     19  N   UNL     1      -1.224   2.872   9.692  1.00  0.00    -0.343 N 
ATOM     20  C   UNL     1      -0.958   2.441  10.978  1.00  0.00     0.242 CG0
ATOM     21  O   UNL     1      -1.297   3.097  11.959  1.00  0.00    -0.273 OA
ATOM     22  H   UNL     1      -0.824   2.361   8.914  1.00  0.00     0.164 HD
ATOM     23  G   UNL     1      -0.128   1.143  11.055  1.00  0.00     0.000 G0
ENDBRANCH  18  19
BRANCH  18  24
ATOM     24  C   UNL     1      -1.250   5.169   8.768  1.00  0.00     0.038 C 
BRANCH  24  25
ATOM     25  C   UNL     1       0.180   5.347   9.321  1.00  0.00    -0.015 C 
ATOM     26  C   UNL     1       0.203   6.094  10.654  1.00  0.00     0.007 C 
ATOM     27  C   UNL     1       1.038   6.094   8.296  1.00  0.00     0.007 C 
ENDBRANCH  24  25
ENDBRANCH  18  24
ENDBRANCH  15  18
ENDBRANCH  13  14
BRANCH  13  28
ATOM     28  C   UNL     1      -4.031   0.635   7.308  1.00  0.00     0.327 C 
ATOM     29  O   UNL     1      -3.172  -0.118   7.740  1.00  0.00    -0.250 OA
BRANCH  28  30
ATOM     30  O   UNL     1      -4.306   0.673   5.989  1.00  0.00    -0.480 OA
ATOM     31  H   UNL     1      -3.538   0.233   5.570  1.00  0.00     0.296 HD
ENDBRANCH  28  30
ENDBRANCH  13  28
ENDBRANCH  11  13
ENDBRANCH   8  11
ENDBRANCH   6   7
BRANCH   6  32
ATOM     32  C   UNL     1      -5.030  -3.209   6.910  1.00  0.00     0.037 C 
BRANCH  32  33
ATOM     33  C   UNL     1      -4.980  -3.005   5.389  1.00  0.00     0.026 C 
BRANCH  33  34
ATOM     34  C   UNL     1      -5.280  -4.290   4.617  1.00  0.00     0.146 C 
BRANCH  34  35
ATOM     35  N   UNL     1      -4.100  -5.144   4.648  1.00  0.00    -0.254 NA
ATOM     36  C   UNL     1      -3.883  -5.929   3.660  1.00  0.00     0.185 C 
ATOM     37  N   UNL     1      -2.796  -6.716   3.677  1.00  0.00    -0.370 N 
ATOM     38  N   UNL     1      -4.611  -6.103   2.543  1.00  0.00    -0.370 N 
ATOM     39  H   UNL     1      -2.190  -6.636   4.483  1.00  0.00     0.159 HD
ATOM     40  H   UNL     1      -2.466  -7.225   2.875  1.00  0.00     0.159 HD
ATOM     41  H   UNL     1      -4.412  -6.853   1.902  1.00  0.00     0.159 HD
ATOM     42  H   UNL     1      -5.466  -5.587   2.403  1.00  0.00     0.159 HD
ENDBRANCH  34  35
ENDBRANCH  33  34
ENDBRANCH  32  33
ENDBRANCH   6  32
ENDBRANCH   4   6
ENDBRANCH   1   2
BRANCH   1  43
ATOM     43  C   UNL     1      -9.211  -4.615   9.847  1.00  0.00     0.102 C 
ATOM     44  C   UNL     1     -10.150  -4.326   8.663  1.00  0.00     0.020 C 
BRANCH  43  45
ATOM     45  C   UNL     1      -9.835  -5.494  10.935  1.00  0.00     0.225 C 
ATOM     46  O   UNL     1     -11.047  -5.586  11.109  1.00  0.00    -0.275 OA
ATOM     47  N   UNL     1      -8.943  -6.113  11.780  1.00  0.00    -0.342 N 
ATOM     48  H   UNL     1      -7.964  -6.151  11.534  1.00  0.00     0.164 HD
BRANCH  47  49
ATOM     49  C   UNL     1      -9.396  -7.012  12.846  1.00  0.00     0.192 C 
BRANCH  49  50
ATOM     50  C   UNL     1     -10.016  -6.194  13.981  1.00  0.00     0.047 C 
BRANCH  50  51
ATOM     51  C   UNL     1     -11.387  -6.737  14.408  1.00  0.00     0.103 C 
BRANCH  51  52
ATOM     52  C   UNL     1     -11.343  -7.379  15.793  1.00  0.00     0.226 C 
ATOM     53  O   UNL     1     -10.478  -7.032  16.599  1.00  0.00    -0.275 OA
BRANCH  52  54
ATOM     54  N   UNL     1     -12.368  -8.296  16.092  1.00  0.00    -0.311 N 
ATOM     55  C   UNL     1     -13.770  -7.865  16.169  1.00  0.00     0.153 C 
BRANCH  54  56
ATOM     56  C   UNL     1     -12.092  -9.654  16.320  1.00  0.00     0.102 C 
ATOM     57  C   UNL     1     -11.466 -10.468  15.454  1.00  0.00     0.043 C 
BRANCH  56  58
ATOM     58  C   UNL     1     -12.457 -10.309  17.632  1.00  0.00     0.268 C 
ATOM     59  O   UNL     1     -11.856 -10.097  18.676  1.00  0.00    -0.268 OA
ATOM     60  N   UNL     1     -13.568 -11.113  17.543  1.00  0.00    -0.339 N 
ATOM     61  H   UNL     1     -14.003 -11.246  16.638  1.00  0.00     0.164 HD
BRANCH  60  62
ATOM     62  C   UNL     1     -14.131 -11.794  18.708  1.00  0.00     0.168 CG0
ATOM     63  C   UNL     1     -14.797 -13.105  18.307  1.00  0.00     0.041 C 
ATOM     64  G   UNL     1     -15.140 -10.864  19.414  1.00  0.00     0.000 G0
ENDBRANCH  60  62
ENDBRANCH  56  58
ENDBRANCH  54  56
ENDBRANCH  52  54
ENDBRANCH  51  52
ENDBRANCH  50  51
ENDBRANCH  49  50
BRANCH  49  65
ATOM     65  C   UNL     1      -8.240  -7.859  13.402  1.00  0.00     0.326 C 
ATOM     66  O   UNL     1      -8.092  -9.060  13.230  1.00  0.00    -0.250 OA
BRANCH  65  67
ATOM     67  O   UNL     1      -7.371  -7.182  14.184  1.00  0.00    -0.480 OA
ATOM     68  H   UNL     1      -7.923  -6.477  14.587  1.00  0.00     0.296 HD
ENDBRANCH  65  67
ENDBRANCH  49  65
ENDBRANCH  47  49
ENDBRANCH  43  45
ENDBRANCH   1  43
BRANCH   1  69
ATOM     69  C   UNL     1      -9.488  -2.257  11.018  1.00  0.00    -0.001 C 
ATOM     70  C   UNL     1      -9.777  -1.065  10.468  1.00  0.00     0.001 C 
BRANCH  70  71
ATOM     71  C   UNL     1     -10.677  -0.042  11.006  1.00  0.00    -0.055 C 
ATOM     72  C   UNL     1     -10.130   1.120  11.421  1.00  0.00    -0.018 C 
ATOM     73  C   UNL     1     -12.149  -0.356  11.052  1.00  0.00     0.044 C 
BRANCH  72  74
ATOM     74  C   UNL     1     -10.808   2.347  12.013  1.00  0.00     0.038 C 
ATOM     75  C   UNL     1     -11.342   3.179  10.841  1.00  0.00     0.015 C 
BRANCH  74  76
ATOM     76  C   UNL     1      -9.792   3.087  12.931  1.00  0.00     0.128 C 
BRANCH  76  77
ATOM     77  O   UNL     1      -9.922   2.621  14.285  1.00  0.00    -0.381 OA
ATOM     78  C   UNL     1      -8.728   2.061  14.814  1.00  0.00     0.195 C 
ENDBRANCH  76  77
BRANCH  76  79
ATOM     79  C   UNL     1      -8.330   3.039  12.419  1.00  0.00     0.068 C 
BRANCH  79  80
ATOM     80  C   UNL     1      -7.828   4.205  11.602  1.00  0.00    -0.045 A 
ATOM     81  C   UNL     1      -8.136   5.524  11.962  1.00  0.00     0.004 A 
ATOM     82  C   UNL     1      -7.064   3.983  10.446  1.00  0.00     0.004 A 
ATOM     83  C   UNL     1      -7.680   6.597  11.193  1.00  0.00     0.000 A 
ATOM     84  C   UNL     1      -6.609   5.056   9.678  1.00  0.00     0.000 A 
ATOM     85  C   UNL     1      -6.916   6.363  10.052  1.00  0.00     0.000 A 
ENDBRANCH  79  80
ENDBRANCH  76  79
ENDBRANCH  74  76
ENDBRANCH  72  74
ENDBRANCH  70  71
ENDBRANCH   1  69
TORSDOF 17
ENDMDL
MODEL 46
REMARK VINA RESULT:    -7.279      3.552      8.312
REMARK INTER + INTRA:         -27.557
REMARK INTER:                 -19.720
REMARK INTRA:                  -7.837
REMARK UNBOUND:                -5.809
REMARK SMILES C=C1C(=O)N[C@H](C)C(=O)N[C@@H](CC(C)C)C(=O)N[C@@H](C(=O)O)[C@H](C)C(=O)N[C@@H](CCCN=C(N)N)C(=O)N[C@@H](/C=C/C(C)=C/[C@H](C)[C@H](Cc2ccccc2)OC)[C@H](C)C(=O)N[C@@H](C(=O)O)CCC(=O)N1C
REMARK SMILES IDX 39 1 38 2 37 3 36 4 28 6 27 7 25 8 26 9 23 11 24 12 19 13
REMARK SMILES IDX 18 14 16 15 17 16 11 18 10 19 8 20 9 21 12 24 13 25 14 26
REMARK SMILES IDX 15 27 20 28 21 29 22 30 29 32 30 33 31 34 32 35 33 36 34 37
REMARK SMILES IDX 35 38 57 43 58 44 59 45 60 46 61 47 62 49 66 50 67 51 68 52
REMARK SMILES IDX 69 53 70 54 71 55 2 56 1 57 3 58 4 59 5 60 6 62 7 63 63 65
REMARK SMILES IDX 64 66 65 67 40 69 41 70 42 71 44 72 43 73 45 74 46 75 47 76
REMARK SMILES IDX 55 77 56 78 48 79 49 80 50 81 54 82 51 83 53 84 52 85
REMARK H PARENT 38 5 27 10 18 17 10 22 22 31 34 39 34 40 35 41 35 42 61 48
REMARK H PARENT 5 61 65 68
REMARK Flexibility Score:  369.900
ROOT
ATOM      1  C   UNL     1      -7.407   2.174  11.313  1.00  0.00     0.117 C 
ENDROOT
BRANCH   1   2
ATOM      2  N   UNL     1      -6.526   1.291  12.078  1.00  0.00    -0.347 N 
ATOM      3  O   UNL     1      -5.472   0.286  10.303  1.00  0.00    -0.273 OA
ATOM      4  C   UNL     1      -5.561   0.481  11.510  1.00  0.00     0.243 C 
ATOM      5  H   UNL     1      -6.575   1.295  13.085  1.00  0.00     0.164 HD
BRANCH   4   6
ATOM      6  C   UNL     1      -4.705  -0.289  12.548  1.00  0.00     0.171 C 
BRANCH   6   7
ATOM      7  N   UNL     1      -3.528  -0.890  11.899  1.00  0.00    -0.344 N 
ATOM      8  C   UNL     1      -3.518  -2.226  11.563  1.00  0.00     0.226 C 
ATOM      9  O   UNL     1      -4.458  -2.975  11.801  1.00  0.00    -0.275 OA
ATOM     10  H   UNL     1      -2.706  -0.319  11.747  1.00  0.00     0.164 HD
BRANCH   8  11
ATOM     11  C   UNL     1      -2.256  -2.682  10.852  1.00  0.00     0.109 C 
ATOM     12  C   UNL     1      -1.584  -3.806  11.641  1.00  0.00     0.021 C 
BRANCH  11  13
ATOM     13  C   UNL     1      -2.579  -3.025   9.384  1.00  0.00     0.204 C 
BRANCH  13  14
ATOM     14  N   UNL     1      -4.016  -3.217   9.165  1.00  0.00    -0.340 N 
ATOM     15  C   UNL     1      -4.536  -4.326   8.534  1.00  0.00     0.243 C 
ATOM     16  O   UNL     1      -3.833  -5.264   8.162  1.00  0.00    -0.273 OA
ATOM     17  H   UNL     1      -4.635  -2.415   9.311  1.00  0.00     0.164 HD
BRANCH  15  18
ATOM     18  C   UNL     1      -6.050  -4.213   8.232  1.00  0.00     0.171 C 
BRANCH  18  19
ATOM     19  N   UNL     1      -6.682  -3.700   9.446  1.00  0.00    -0.343 N 
ATOM     20  C   UNL     1      -7.446  -4.508  10.266  1.00  0.00     0.242 CG0
ATOM     21  O   UNL     1      -7.740  -5.657   9.945  1.00  0.00    -0.273 OA
ATOM     22  H   UNL     1      -6.564  -2.725   9.694  1.00  0.00     0.164 HD
ATOM     23  G   UNL     1      -7.965  -3.811  11.541  1.00  0.00     0.000 G0
ENDBRANCH  18  19
BRANCH  18  24
ATOM     24  C   UNL     1      -6.296  -3.285   7.036  1.00  0.00     0.038 C 
BRANCH  24  25
ATOM     25  C   UNL     1      -5.219  -3.357   5.932  1.00  0.00    -0.015 C 
ATOM     26  C   UNL     1      -4.672  -1.980   5.558  1.00  0.00     0.007 C 
ATOM     27  C   UNL     1      -5.801  -4.036   4.689  1.00  0.00     0.007 C 
ENDBRANCH  24  25
ENDBRANCH  18  24
ENDBRANCH  15  18
ENDBRANCH  13  14
BRANCH  13  28
ATOM     28  C   UNL     1      -2.109  -1.953   8.396  1.00  0.00     0.327 C 
ATOM     29  O   UNL     1      -2.732  -0.957   8.059  1.00  0.00    -0.250 OA
BRANCH  28  30
ATOM     30  O   UNL     1      -0.938  -2.257   7.802  1.00  0.00    -0.480 OA
ATOM     31  H   UNL     1      -0.373  -2.582   8.534  1.00  0.00     0.296 HD
ENDBRANCH  28  30
ENDBRANCH  13  28
ENDBRANCH  11  13
ENDBRANCH   8  11
ENDBRANCH   6   7
BRANCH   6  32
ATOM     32  C   UNL     1      -4.282   0.672  13.664  1.00  0.00     0.037 C 
BRANCH  32  33
ATOM     33  C   UNL     1      -4.669   0.150  15.055  1.00  0.00     0.026 C 
BRANCH  33  34
ATOM     34  C   UNL     1      -5.601   1.106  15.801  1.00  0.00     0.146 C 
BRANCH  34  35
ATOM     35  N   UNL     1      -6.914   0.488  15.917  1.00  0.00    -0.254 NA
ATOM     36  C   UNL     1      -7.938   1.138  15.507  1.00  0.00     0.185 C 
ATOM     37  N   UNL     1      -9.153   0.576  15.605  1.00  0.00    -0.370 N 
ATOM     38  N   UNL     1      -7.996   2.366  14.962  1.00  0.00    -0.370 N 
ATOM     39  H   UNL     1      -9.191  -0.357  15.997  1.00  0.00     0.159 HD
ATOM     40  H   UNL     1      -9.973   0.941  15.153  1.00  0.00     0.159 HD
ATOM     41  H   UNL     1      -8.878   2.827  14.808  1.00  0.00     0.159 HD
ATOM     42  H   UNL     1      -7.159   2.914  14.842  1.00  0.00     0.159 HD
ENDBRANCH  34  35
ENDBRANCH  33  34
ENDBRANCH  32  33
ENDBRANCH   6  32
ENDBRANCH   4   6
ENDBRANCH   1   2
BRANCH   1  43
ATOM     43  C   UNL     1      -8.492   1.305  10.613  1.00  0.00     0.102 C 
ATOM     44  C   UNL     1      -8.845   1.791   9.197  1.00  0.00     0.020 C 
BRANCH  43  45
ATOM     45  C   UNL     1      -9.708   1.105  11.523  1.00  0.00     0.225 C 
ATOM     46  O   UNL     1      -9.738   1.475  12.693  1.00  0.00    -0.275 OA
ATOM     47  N   UNL     1     -10.749   0.393  10.972  1.00  0.00    -0.342 N 
ATOM     48  H   UNL     1     -10.773   0.232   9.975  1.00  0.00     0.164 HD
BRANCH  47  49
ATOM     49  C   UNL     1     -11.992   0.156  11.713  1.00  0.00     0.192 C 
BRANCH  49  50
ATOM     50  C   UNL     1     -12.618  -1.165  11.257  1.00  0.00     0.047 C 
BRANCH  50  51
ATOM     51  C   UNL     1     -12.880  -2.120  12.430  1.00  0.00     0.103 C 
BRANCH  51  52
ATOM     52  C   UNL     1     -12.452  -3.551  12.110  1.00  0.00     0.226 C 
ATOM     53  O   UNL     1     -12.240  -3.878  10.941  1.00  0.00    -0.275 OA
BRANCH  52  54
ATOM     54  N   UNL     1     -12.249  -4.404  13.211  1.00  0.00    -0.311 N 
ATOM     55  C   UNL     1     -13.330  -4.672  14.169  1.00  0.00     0.153 C 
BRANCH  54  56
ATOM     56  C   UNL     1     -11.013  -5.035  13.431  1.00  0.00     0.102 C 
ATOM     57  C   UNL     1     -10.859  -6.318  13.796  1.00  0.00     0.043 C 
BRANCH  56  58
ATOM     58  C   UNL     1      -9.715  -4.292  13.218  1.00  0.00     0.268 C 
ATOM     59  O   UNL     1      -9.122  -3.710  14.117  1.00  0.00    -0.268 OA
ATOM     60  N   UNL     1      -9.239  -4.393  11.933  1.00  0.00    -0.339 N 
ATOM     61  H   UNL     1      -9.796  -4.884  11.244  1.00  0.00     0.164 HD
BRANCH  60  62
ATOM     62  C   UNL     1      -7.966  -3.800  11.525  1.00  0.00     0.168 CG0
ATOM     63  C   UNL     1      -8.117  -2.308  11.259  1.00  0.00     0.041 C 
ATOM     64  G   UNL     1      -7.435  -4.527  10.273  1.00  0.00     0.000 G0
ENDBRANCH  60  62
ENDBRANCH  56  58
ENDBRANCH  54  56
ENDBRANCH  52  54
ENDBRANCH  51  52
ENDBRANCH  50  51
ENDBRANCH  49  50
BRANCH  49  65
ATOM     65  C   UNL     1     -13.001   1.296  11.508  1.00  0.00     0.326 C 
ATOM     66  O   UNL     1     -13.901   1.307  10.681  1.00  0.00    -0.250 OA
BRANCH  65  67
ATOM     67  O   UNL     1     -12.799   2.376  12.294  1.00  0.00    -0.480 OA
ATOM     68  H   UNL     1     -12.828   3.129  11.665  1.00  0.00     0.296 HD
ENDBRANCH  65  67
ENDBRANCH  49  65
ENDBRANCH  47  49
ENDBRANCH  43  45
ENDBRANCH   1  43
BRANCH   1  69
ATOM     69  C   UNL     1      -6.501   3.043  10.460  1.00  0.00    -0.001 C 
ATOM     70  C   UNL     1      -6.528   4.382  10.343  1.00  0.00     0.001 C 
BRANCH  70  71
ATOM     71  C   UNL     1      -5.634   5.212   9.533  1.00  0.00    -0.055 C 
ATOM     72  C   UNL     1      -4.628   4.596   8.877  1.00  0.00    -0.018 C 
ATOM     73  C   UNL     1      -5.904   6.693   9.482  1.00  0.00     0.044 C 
BRANCH  72  74
ATOM     74  C   UNL     1      -3.561   5.193   7.971  1.00  0.00     0.038 C 
ATOM     75  C   UNL     1      -3.806   4.644   6.560  1.00  0.00     0.015 C 
BRANCH  74  76
ATOM     76  C   UNL     1      -2.159   4.864   8.564  1.00  0.00     0.128 C 
BRANCH  76  77
ATOM     77  O   UNL     1      -1.219   5.888   8.198  1.00  0.00    -0.381 OA
ATOM     78  C   UNL     1       0.066   5.719   8.782  1.00  0.00     0.195 C 
ENDBRANCH  76  77
BRANCH  76  79
ATOM     79  C   UNL     1      -2.172   4.579  10.087  1.00  0.00     0.068 C 
BRANCH  79  80
ATOM     80  C   UNL     1      -1.590   3.271  10.567  1.00  0.00    -0.045 A 
ATOM     81  C   UNL     1      -1.401   2.199   9.685  1.00  0.00     0.004 A 
ATOM     82  C   UNL     1      -1.256   3.099  11.918  1.00  0.00     0.004 A 
ATOM     83  C   UNL     1      -0.876   0.987  10.139  1.00  0.00     0.000 A 
ATOM     84  C   UNL     1      -0.731   1.887  12.372  1.00  0.00     0.000 A 
ATOM     85  C   UNL     1      -0.540   0.832  11.482  1.00  0.00     0.000 A 
ENDBRANCH  79  80
ENDBRANCH  76  79
ENDBRANCH  74  76
ENDBRANCH  72  74
ENDBRANCH  70  71
ENDBRANCH   1  69
TORSDOF 17
ENDMDL
MODEL 47
REMARK VINA RESULT:    -7.252      3.107     11.724
REMARK INTER + INTRA:         -27.474
REMARK INTER:                 -20.922
REMARK INTRA:                  -6.552
REMARK UNBOUND:                -5.809
REMARK SMILES C=C1C(=O)N[C@H](C)C(=O)N[C@@H](CC(C)C)C(=O)N[C@@H](C(=O)O)[C@H](C)C(=O)N[C@@H](CCCN=C(N)N)C(=O)N[C@@H](/C=C/C(C)=C/[C@H](C)[C@H](Cc2ccccc2)OC)[C@H](C)C(=O)N[C@@H](C(=O)O)CCC(=O)N1C
REMARK SMILES IDX 39 1 38 2 37 3 36 4 28 6 27 7 25 8 26 9 23 11 24 12 19 13
REMARK SMILES IDX 18 14 16 15 17 16 11 18 10 19 8 20 9 21 12 24 13 25 14 26
REMARK SMILES IDX 15 27 20 28 21 29 22 30 29 32 30 33 31 34 32 35 33 36 34 37
REMARK SMILES IDX 35 38 57 43 58 44 59 45 60 46 61 47 62 49 66 50 67 51 68 52
REMARK SMILES IDX 69 53 70 54 71 55 2 56 1 57 3 58 4 59 5 60 6 62 7 63 63 65
REMARK SMILES IDX 64 66 65 67 40 69 41 70 42 71 44 72 43 73 45 74 46 75 47 76
REMARK SMILES IDX 55 77 56 78 48 79 49 80 50 81 54 82 51 83 53 84 52 85
REMARK H PARENT 38 5 27 10 18 17 10 22 22 31 34 39 34 40 35 41 35 42 61 48
REMARK H PARENT 5 61 65 68
REMARK Flexibility Score:  369.900
ROOT
ATOM      1  C   UNL     1     -10.842  -2.013  10.053  1.00  0.00     0.117 C 
ENDROOT
BRANCH   1   2
ATOM      2  N   UNL     1     -10.753  -2.530  11.419  1.00  0.00    -0.347 N 
ATOM      3  O   UNL     1     -12.549  -3.958  11.329  1.00  0.00    -0.273 OA
ATOM      4  C   UNL     1     -11.561  -3.533  11.920  1.00  0.00     0.243 C 
ATOM      5  H   UNL     1     -10.033  -2.182  12.034  1.00  0.00     0.164 HD
BRANCH   4   6
ATOM      6  C   UNL     1     -11.204  -3.956  13.367  1.00  0.00     0.171 C 
BRANCH   6   7
ATOM      7  N   UNL     1     -10.324  -5.136  13.355  1.00  0.00    -0.344 N 
ATOM      8  C   UNL     1     -10.246  -5.965  14.453  1.00  0.00     0.226 C 
ATOM      9  O   UNL     1     -10.875  -5.757  15.484  1.00  0.00    -0.275 OA
ATOM     10  H   UNL     1      -9.739  -5.304  12.547  1.00  0.00     0.164 HD
BRANCH   8  11
ATOM     11  C   UNL     1      -9.338  -7.168  14.265  1.00  0.00     0.109 C 
ATOM     12  C   UNL     1      -8.134  -7.069  15.202  1.00  0.00     0.021 C 
BRANCH  11  13
ATOM     13  C   UNL     1     -10.158  -8.467  14.398  1.00  0.00     0.204 C 
BRANCH  13  14
ATOM     14  N   UNL     1     -11.552  -8.203  14.767  1.00  0.00    -0.340 N 
ATOM     15  C   UNL     1     -12.289  -9.053  15.564  1.00  0.00     0.243 C 
ATOM     16  O   UNL     1     -11.808 -10.063  16.074  1.00  0.00    -0.273 OA
ATOM     17  H   UNL     1     -12.053  -7.469  14.259  1.00  0.00     0.164 HD
BRANCH  15  18
ATOM     18  C   UNL     1     -13.789  -8.679  15.646  1.00  0.00     0.171 C 
BRANCH  18  19
ATOM     19  N   UNL     1     -14.540  -9.912  15.419  1.00  0.00    -0.343 N 
ATOM     20  C   UNL     1     -14.738 -10.422  14.150  1.00  0.00     0.242 CG0
ATOM     21  O   UNL     1     -14.407  -9.795  13.146  1.00  0.00    -0.273 OA
ATOM     22  H   UNL     1     -14.935 -10.407  16.211  1.00  0.00     0.164 HD
ATOM     23  G   UNL     1     -15.486 -11.770  14.115  1.00  0.00     0.000 G0
ENDBRANCH  18  19
BRANCH  18  24
ATOM     24  C   UNL     1     -14.120  -8.062  17.010  1.00  0.00     0.038 C 
BRANCH  24  25
ATOM     25  C   UNL     1     -14.799  -6.677  16.944  1.00  0.00    -0.015 C 
ATOM     26  C   UNL     1     -14.424  -5.902  15.681  1.00  0.00     0.007 C 
ATOM     27  C   UNL     1     -14.421  -5.860  18.182  1.00  0.00     0.007 C 
ENDBRANCH  24  25
ENDBRANCH  18  24
ENDBRANCH  15  18
ENDBRANCH  13  14
BRANCH  13  28
ATOM     28  C   UNL     1     -10.178  -9.302  13.115  1.00  0.00     0.327 C 
ATOM     29  O   UNL     1     -11.042  -9.281  12.252  1.00  0.00    -0.250 OA
BRANCH  28  30
ATOM     30  O   UNL     1      -9.172 -10.199  13.052  1.00  0.00    -0.480 OA
ATOM     31  H   UNL     1      -9.305 -10.650  12.192  1.00  0.00     0.296 HD
ENDBRANCH  28  30
ENDBRANCH  13  28
ENDBRANCH  11  13
ENDBRANCH   8  11
ENDBRANCH   6   7
BRANCH   6  32
ATOM     32  C   UNL     1     -10.533  -2.780  14.085  1.00  0.00     0.037 C 
BRANCH  32  33
ATOM     33  C   UNL     1     -11.548  -1.895  14.821  1.00  0.00     0.026 C 
BRANCH  33  34
ATOM     34  C   UNL     1     -12.741  -2.691  15.352  1.00  0.00     0.146 C 
BRANCH  34  35
ATOM     35  N   UNL     1     -13.946  -1.885  15.207  1.00  0.00    -0.254 NA
ATOM     36  C   UNL     1     -14.804  -2.217  14.316  1.00  0.00     0.185 C 
ATOM     37  N   UNL     1     -15.919  -1.484  14.177  1.00  0.00    -0.370 N 
ATOM     38  N   UNL     1     -14.765  -3.242  13.446  1.00  0.00    -0.370 N 
ATOM     39  H   UNL     1     -16.027  -0.698  14.805  1.00  0.00     0.159 HD
ATOM     40  H   UNL     1     -16.711  -1.775  13.630  1.00  0.00     0.159 HD
ATOM     41  H   UNL     1     -15.435  -3.316  12.699  1.00  0.00     0.159 HD
ATOM     42  H   UNL     1     -13.975  -3.868  13.426  1.00  0.00     0.159 HD
ENDBRANCH  34  35
ENDBRANCH  33  34
ENDBRANCH  32  33
ENDBRANCH   6  32
ENDBRANCH   4   6
ENDBRANCH   1   2
BRANCH   1  43
ATOM     43  C   UNL     1      -9.480  -2.259   9.341  1.00  0.00     0.102 C 
ATOM     44  C   UNL     1      -9.512  -3.434   8.350  1.00  0.00     0.020 C 
BRANCH  43  45
ATOM     45  C   UNL     1      -8.335  -2.331  10.355  1.00  0.00     0.225 C 
ATOM     46  O   UNL     1      -8.149  -1.480  11.220  1.00  0.00    -0.275 OA
ATOM     47  N   UNL     1      -7.454  -3.374  10.180  1.00  0.00    -0.342 N 
ATOM     48  H   UNL     1      -7.701  -4.141   9.570  1.00  0.00     0.164 HD
BRANCH  47  49
ATOM     49  C   UNL     1      -6.330  -3.590  11.096  1.00  0.00     0.192 C 
BRANCH  49  50
ATOM     50  C   UNL     1      -5.011  -3.475  10.328  1.00  0.00     0.047 C 
BRANCH  50  51
ATOM     51  C   UNL     1      -4.219  -2.219  10.718  1.00  0.00     0.103 C 
BRANCH  51  52
ATOM     52  C   UNL     1      -3.810  -1.397   9.497  1.00  0.00     0.226 C 
ATOM     53  O   UNL     1      -3.133  -1.919   8.609  1.00  0.00    -0.275 OA
BRANCH  52  54
ATOM     54  N   UNL     1      -4.311  -0.084   9.428  1.00  0.00    -0.311 N 
ATOM     55  C   UNL     1      -5.704   0.214   9.789  1.00  0.00     0.153 C 
BRANCH  54  56
ATOM     56  C   UNL     1      -3.501   0.989   9.020  1.00  0.00     0.102 C 
ATOM     57  C   UNL     1      -3.580   1.600   7.826  1.00  0.00     0.043 C 
BRANCH  56  58
ATOM     58  C   UNL     1      -2.472   1.582   9.953  1.00  0.00     0.268 C 
ATOM     59  O   UNL     1      -2.332   1.219  11.113  1.00  0.00    -0.268 OA
ATOM     60  N   UNL     1      -1.671   2.520   9.347  1.00  0.00    -0.339 N 
ATOM     61  H   UNL     1      -1.859   2.773   8.385  1.00  0.00     0.164 HD
BRANCH  60  62
ATOM     62  C   UNL     1      -0.569   3.175  10.051  1.00  0.00     0.168 CG0
ATOM     63  C   UNL     1      -1.043   4.443  10.751  1.00  0.00     0.041 C 
ATOM     64  G   UNL     1       0.565   3.493   9.055  1.00  0.00     0.000 G0
ENDBRANCH  60  62
ENDBRANCH  56  58
ENDBRANCH  54  56
ENDBRANCH  52  54
ENDBRANCH  51  52
ENDBRANCH  50  51
ENDBRANCH  49  50
BRANCH  49  65
ATOM     65  C   UNL     1      -6.407  -4.968  11.772  1.00  0.00     0.326 C 
ATOM     66  O   UNL     1      -7.400  -5.678  11.829  1.00  0.00    -0.250 OA
BRANCH  65  67
ATOM     67  O   UNL     1      -5.269  -5.358  12.388  1.00  0.00    -0.480 OA
ATOM     68  H   UNL     1      -4.561  -5.051  11.782  1.00  0.00     0.296 HD
ENDBRANCH  65  67
ENDBRANCH  49  65
ENDBRANCH  47  49
ENDBRANCH  43  45
ENDBRANCH   1  43
BRANCH   1  69
ATOM     69  C   UNL     1     -11.361  -0.591  10.171  1.00  0.00    -0.001 C 
ATOM     70  C   UNL     1     -11.176   0.264  11.192  1.00  0.00     0.001 C 
BRANCH  70  71
ATOM     71  C   UNL     1     -11.665   1.641  11.285  1.00  0.00    -0.055 C 
ATOM     72  C   UNL     1     -10.769   2.637  11.122  1.00  0.00    -0.018 C 
ATOM     73  C   UNL     1     -13.134   1.849  11.548  1.00  0.00     0.044 C 
BRANCH  72  74
ATOM     74  C   UNL     1     -10.985   4.143  11.163  1.00  0.00     0.038 C 
ATOM     75  C   UNL     1     -11.280   4.597   9.728  1.00  0.00     0.015 C 
BRANCH  74  76
ATOM     76  C   UNL     1      -9.739   4.811  11.816  1.00  0.00     0.128 C 
BRANCH  76  77
ATOM     77  O   UNL     1      -8.829   3.801  12.283  1.00  0.00    -0.381 OA
ATOM     78  C   UNL     1      -8.081   4.191  13.427  1.00  0.00     0.195 C 
ENDBRANCH  76  77
BRANCH  76  79
ATOM     79  C   UNL     1      -9.050   5.871  10.919  1.00  0.00     0.068 C 
BRANCH  79  80
ATOM     80  C   UNL     1      -7.775   5.478  10.213  1.00  0.00    -0.045 A 
ATOM     81  C   UNL     1      -6.726   6.393  10.056  1.00  0.00     0.004 A 
ATOM     82  C   UNL     1      -7.632   4.190   9.676  1.00  0.00     0.004 A 
ATOM     83  C   UNL     1      -5.555   6.027   9.390  1.00  0.00     0.000 A 
ATOM     84  C   UNL     1      -6.460   3.825   9.009  1.00  0.00     0.000 A 
ATOM     85  C   UNL     1      -5.422   4.742   8.867  1.00  0.00     0.000 A 
ENDBRANCH  79  80
ENDBRANCH  76  79
ENDBRANCH  74  76
ENDBRANCH  72  74
ENDBRANCH  70  71
ENDBRANCH   1  69
TORSDOF 17
ENDMDL
MODEL 48
REMARK VINA RESULT:    -7.244      3.018     11.687
REMARK INTER + INTRA:         -27.451
REMARK INTER:                 -21.081
REMARK INTRA:                  -6.370
REMARK UNBOUND:                -5.809
REMARK SMILES C=C1C(=O)N[C@H](C)C(=O)N[C@@H](CC(C)C)C(=O)N[C@@H](C(=O)O)[C@H](C)C(=O)N[C@@H](CCCN=C(N)N)C(=O)N[C@@H](/C=C/C(C)=C/[C@H](C)[C@H](Cc2ccccc2)OC)[C@H](C)C(=O)N[C@@H](C(=O)O)CCC(=O)N1C
REMARK SMILES IDX 39 1 38 2 37 3 36 4 28 6 27 7 25 8 26 9 23 11 24 12 19 13
REMARK SMILES IDX 18 14 16 15 17 16 11 18 10 19 8 20 9 21 12 24 13 25 14 26
REMARK SMILES IDX 15 27 20 28 21 29 22 30 29 32 30 33 31 34 32 35 33 36 34 37
REMARK SMILES IDX 35 38 57 43 58 44 59 45 60 46 61 47 62 49 66 50 67 51 68 52
REMARK SMILES IDX 69 53 70 54 71 55 2 56 1 57 3 58 4 59 5 60 6 62 7 63 63 65
REMARK SMILES IDX 64 66 65 67 40 69 41 70 42 71 44 72 43 73 45 74 46 75 47 76
REMARK SMILES IDX 55 77 56 78 48 79 49 80 50 81 54 82 51 83 53 84 52 85
REMARK H PARENT 38 5 27 10 18 17 10 22 22 31 34 39 34 40 35 41 35 42 61 48
REMARK H PARENT 5 61 65 68
REMARK Flexibility Score:  369.900
ROOT
ATOM      1  C   UNL     1      -7.824  -1.746  10.094  1.00  0.00     0.117 C 
ENDROOT
BRANCH   1   2
ATOM      2  N   UNL     1      -8.965  -2.496  10.619  1.00  0.00    -0.347 N 
ATOM      3  O   UNL     1      -9.515  -3.617   8.692  1.00  0.00    -0.273 OA
ATOM      4  C   UNL     1      -9.665  -3.444   9.897  1.00  0.00     0.243 C 
ATOM      5  H   UNL     1      -9.243  -2.365  11.579  1.00  0.00     0.164 HD
BRANCH   4   6
ATOM      6  C   UNL     1     -10.773  -4.155  10.714  1.00  0.00     0.171 C 
BRANCH   6   7
ATOM      7  N   UNL     1     -10.251  -4.593  12.019  1.00  0.00    -0.344 N 
ATOM      8  C   UNL     1     -10.042  -5.930  12.279  1.00  0.00     0.226 C 
ATOM      9  O   UNL     1     -10.297  -6.809  11.465  1.00  0.00    -0.275 OA
ATOM     10  H   UNL     1     -10.092  -3.901  12.741  1.00  0.00     0.164 HD
BRANCH   8  11
ATOM     11  C   UNL     1      -9.449  -6.215  13.648  1.00  0.00     0.109 C 
ATOM     12  C   UNL     1      -9.699  -5.035  14.586  1.00  0.00     0.021 C 
BRANCH  11  13
ATOM     13  C   UNL     1      -9.960  -7.575  14.165  1.00  0.00     0.204 C 
BRANCH  13  14
ATOM     14  N   UNL     1     -11.415  -7.704  14.032  1.00  0.00    -0.340 N 
ATOM     15  C   UNL     1     -12.214  -8.224  15.026  1.00  0.00     0.243 C 
ATOM     16  O   UNL     1     -11.770  -8.562  16.122  1.00  0.00    -0.273 OA
ATOM     17  H   UNL     1     -11.824  -7.585  13.101  1.00  0.00     0.164 HD
BRANCH  15  18
ATOM     18  C   UNL     1     -13.680  -8.455  14.584  1.00  0.00     0.171 C 
BRANCH  18  19
ATOM     19  N   UNL     1     -13.968  -9.870  14.811  1.00  0.00    -0.343 N 
ATOM     20  C   UNL     1     -14.456 -10.685  13.808  1.00  0.00     0.242 CG0
ATOM     21  O   UNL     1     -14.797 -10.230  12.719  1.00  0.00    -0.273 OA
ATOM     22  H   UNL     1     -13.812 -10.268  15.730  1.00  0.00     0.164 HD
ATOM     23  G   UNL     1     -14.623 -12.164  14.214  1.00  0.00     0.000 G0
ENDBRANCH  18  19
BRANCH  18  24
ATOM     24  C   UNL     1     -14.633  -7.553  15.377  1.00  0.00     0.038 C 
BRANCH  24  25
ATOM     25  C   UNL     1     -14.863  -7.987  16.840  1.00  0.00    -0.015 C 
ATOM     26  C   UNL     1     -16.271  -8.534  17.075  1.00  0.00     0.007 C 
ATOM     27  C   UNL     1     -14.609  -6.802  17.775  1.00  0.00     0.007 C 
ENDBRANCH  24  25
ENDBRANCH  18  24
ENDBRANCH  15  18
ENDBRANCH  13  14
BRANCH  13  28
ATOM     28  C   UNL     1      -9.331  -8.770  13.444  1.00  0.00     0.327 C 
ATOM     29  O   UNL     1      -8.144  -9.061  13.427  1.00  0.00    -0.250 OA
BRANCH  28  30
ATOM     30  O   UNL     1     -10.213  -9.459  12.693  1.00  0.00    -0.480 OA
ATOM     31  H   UNL     1     -10.520  -8.810  12.026  1.00  0.00     0.296 HD
ENDBRANCH  28  30
ENDBRANCH  13  28
ENDBRANCH  11  13
ENDBRANCH   8  11
ENDBRANCH   6   7
BRANCH   6  32
ATOM     32  C   UNL     1     -11.959  -3.200  10.892  1.00  0.00     0.037 C 
BRANCH  32  33
ATOM     33  C   UNL     1     -12.906  -3.655  12.012  1.00  0.00     0.026 C 
BRANCH  33  34
ATOM     34  C   UNL     1     -13.086  -2.590  13.095  1.00  0.00     0.146 C 
BRANCH  34  35
ATOM     35  N   UNL     1     -13.286  -1.298  12.454  1.00  0.00    -0.254 NA
ATOM     36  C   UNL     1     -12.815  -0.251  13.022  1.00  0.00     0.185 C 
ATOM     37  N   UNL     1     -12.990   0.945  12.438  1.00  0.00    -0.370 N 
ATOM     38  N   UNL     1     -12.133  -0.150  14.177  1.00  0.00    -0.370 N 
ATOM     39  H   UNL     1     -13.487   0.951  11.556  1.00  0.00     0.159 HD
ATOM     40  H   UNL     1     -12.508   1.780  12.725  1.00  0.00     0.159 HD
ATOM     41  H   UNL     1     -11.937   0.747  14.590  1.00  0.00     0.159 HD
ATOM     42  H   UNL     1     -11.943  -0.970  14.733  1.00  0.00     0.159 HD
ENDBRANCH  34  35
ENDBRANCH  33  34
ENDBRANCH  32  33
ENDBRANCH   6  32
ENDBRANCH   4   6
ENDBRANCH   1   2
BRANCH   1  43
ATOM     43  C   UNL     1      -6.518  -2.507  10.464  1.00  0.00     0.102 C 
ATOM     44  C   UNL     1      -5.589  -1.710  11.395  1.00  0.00     0.020 C 
BRANCH  43  45
ATOM     45  C   UNL     1      -5.824  -3.050   9.211  1.00  0.00     0.225 C 
ATOM     46  O   UNL     1      -6.215  -4.044   8.606  1.00  0.00    -0.275 OA
ATOM     47  N   UNL     1      -4.664  -2.405   8.849  1.00  0.00    -0.342 N 
ATOM     48  H   UNL     1      -4.441  -1.509   9.259  1.00  0.00     0.164 HD
BRANCH  47  49
ATOM     49  C   UNL     1      -3.913  -2.794   7.652  1.00  0.00     0.192 C 
BRANCH  49  50
ATOM     50  C   UNL     1      -2.449  -2.369   7.802  1.00  0.00     0.047 C 
BRANCH  50  51
ATOM     51  C   UNL     1      -1.894  -2.680   9.199  1.00  0.00     0.103 C 
BRANCH  51  52
ATOM     52  C   UNL     1      -1.767  -1.424  10.058  1.00  0.00     0.226 C 
ATOM     53  O   UNL     1      -2.279  -0.369   9.677  1.00  0.00    -0.275 OA
BRANCH  52  54
ATOM     54  N   UNL     1      -1.121  -1.576  11.299  1.00  0.00    -0.311 N 
ATOM     55  C   UNL     1      -0.074  -2.589  11.487  1.00  0.00     0.153 C 
BRANCH  54  56
ATOM     56  C   UNL     1      -1.446  -0.764  12.398  1.00  0.00     0.102 C 
ATOM     57  C   UNL     1      -2.223  -1.140  13.427  1.00  0.00     0.043 C 
BRANCH  56  58
ATOM     58  C   UNL     1      -0.882   0.632  12.525  1.00  0.00     0.268 C 
ATOM     59  O   UNL     1       0.203   0.872  13.036  1.00  0.00    -0.268 OA
ATOM     60  N   UNL     1      -1.682   1.591  11.951  1.00  0.00    -0.339 N 
ATOM     61  H   UNL     1      -2.572   1.311  11.557  1.00  0.00     0.164 HD
BRANCH  60  62
ATOM     62  C   UNL     1      -1.296   3.001  11.905  1.00  0.00     0.168 CG0
ATOM     63  C   UNL     1      -2.046   3.737  10.802  1.00  0.00     0.041 C 
ATOM     64  G   UNL     1       0.228   3.114  11.698  1.00  0.00     0.000 G0
ENDBRANCH  60  62
ENDBRANCH  56  58
ENDBRANCH  54  56
ENDBRANCH  52  54
ENDBRANCH  51  52
ENDBRANCH  50  51
ENDBRANCH  49  50
BRANCH  49  65
ATOM     65  C   UNL     1      -4.500  -2.156   6.383  1.00  0.00     0.326 C 
ATOM     66  O   UNL     1      -4.241  -1.037   5.965  1.00  0.00    -0.250 OA
BRANCH  65  67
ATOM     67  O   UNL     1      -5.415  -2.916   5.742  1.00  0.00    -0.480 OA
ATOM     68  H   UNL     1      -5.326  -2.642   4.803  1.00  0.00     0.296 HD
ENDBRANCH  65  67
ENDBRANCH  49  65
ENDBRANCH  47  49
ENDBRANCH  43  45
ENDBRANCH   1  43
BRANCH   1  69
ATOM     69  C   UNL     1      -8.000  -0.316  10.572  1.00  0.00    -0.001 C 
ATOM     70  C   UNL     1      -9.142   0.282  10.955  1.00  0.00     0.001 C 
BRANCH  70  71
ATOM     71  C   UNL     1      -9.297   1.657  11.436  1.00  0.00    -0.055 C 
ATOM     72  C   UNL     1      -9.276   2.648  10.520  1.00  0.00    -0.018 C 
ATOM     73  C   UNL     1      -9.476   1.867  12.916  1.00  0.00     0.044 C 
BRANCH  72  74
ATOM     74  C   UNL     1      -9.414   4.150  10.723  1.00  0.00     0.038 C 
ATOM     75  C   UNL     1     -10.665   4.597   9.957  1.00  0.00     0.015 C 
BRANCH  74  76
ATOM     76  C   UNL     1      -8.092   4.840  10.274  1.00  0.00     0.128 C 
BRANCH  76  77
ATOM     77  O   UNL     1      -7.883   6.042  11.033  1.00  0.00    -0.381 OA
ATOM     78  C   UNL     1      -8.048   5.869  12.434  1.00  0.00     0.195 C 
ENDBRANCH  76  77
BRANCH  76  79
ATOM     79  C   UNL     1      -6.858   3.903  10.285  1.00  0.00     0.068 C 
BRANCH  79  80
ATOM     80  C   UNL     1      -5.870   4.021   9.149  1.00  0.00    -0.045 A 
ATOM     81  C   UNL     1      -5.592   2.929   8.317  1.00  0.00     0.004 A 
ATOM     82  C   UNL     1      -5.190   5.228   8.927  1.00  0.00     0.004 A 
ATOM     83  C   UNL     1      -4.666   3.043   7.278  1.00  0.00     0.000 A 
ATOM     84  C   UNL     1      -4.264   5.341   7.888  1.00  0.00     0.000 A 
ATOM     85  C   UNL     1      -4.003   4.250   7.063  1.00  0.00     0.000 A 
ENDBRANCH  79  80
ENDBRANCH  76  79
ENDBRANCH  74  76
ENDBRANCH  72  74
ENDBRANCH  70  71
ENDBRANCH   1  69
TORSDOF 17
ENDMDL
MODEL 49
REMARK VINA RESULT:    -7.237      2.801      4.602
REMARK INTER + INTRA:         -27.430
REMARK INTER:                 -20.113
REMARK INTRA:                  -7.317
REMARK UNBOUND:                -5.809
REMARK SMILES C=C1C(=O)N[C@H](C)C(=O)N[C@@H](CC(C)C)C(=O)N[C@@H](C(=O)O)[C@H](C)C(=O)N[C@@H](CCCN=C(N)N)C(=O)N[C@@H](/C=C/C(C)=C/[C@H](C)[C@H](Cc2ccccc2)OC)[C@H](C)C(=O)N[C@@H](C(=O)O)CCC(=O)N1C
REMARK SMILES IDX 39 1 38 2 37 3 36 4 28 6 27 7 25 8 26 9 23 11 24 12 19 13
REMARK SMILES IDX 18 14 16 15 17 16 11 18 10 19 8 20 9 21 12 24 13 25 14 26
REMARK SMILES IDX 15 27 20 28 21 29 22 30 29 32 30 33 31 34 32 35 33 36 34 37
REMARK SMILES IDX 35 38 57 43 58 44 59 45 60 46 61 47 62 49 66 50 67 51 68 52
REMARK SMILES IDX 69 53 70 54 71 55 2 56 1 57 3 58 4 59 5 60 6 62 7 63 63 65
REMARK SMILES IDX 64 66 65 67 40 69 41 70 42 71 44 72 43 73 45 74 46 75 47 76
REMARK SMILES IDX 55 77 56 78 48 79 49 80 50 81 54 82 51 83 53 84 52 85
REMARK H PARENT 38 5 27 10 18 17 10 22 22 31 34 39 34 40 35 41 35 42 61 48
REMARK H PARENT 5 61 65 68
REMARK Flexibility Score:  369.900
ROOT
ATOM      1  C   UNL     1      -7.224  -2.480   9.501  1.00  0.00     0.117 C 
ENDROOT
BRANCH   1   2
ATOM      2  N   UNL     1      -5.796  -2.706   9.273  1.00  0.00    -0.347 N 
ATOM      3  O   UNL     1      -5.804  -2.487   6.988  1.00  0.00    -0.273 OA
ATOM      4  C   UNL     1      -5.183  -2.600   8.040  1.00  0.00     0.243 C 
ATOM      5  H   UNL     1      -5.195  -2.904  10.059  1.00  0.00     0.164 HD
BRANCH   4   6
ATOM      6  C   UNL     1      -3.647  -2.804   8.087  1.00  0.00     0.171 C 
BRANCH   6   7
ATOM      7  N   UNL     1      -3.165  -2.759   9.477  1.00  0.00    -0.344 N 
ATOM      8  C   UNL     1      -2.009  -2.082   9.798  1.00  0.00     0.226 C 
ATOM      9  O   UNL     1      -1.322  -1.513   8.958  1.00  0.00    -0.275 OA
ATOM     10  H   UNL     1      -3.669  -3.273  10.188  1.00  0.00     0.164 HD
BRANCH   8  11
ATOM     11  C   UNL     1      -1.675  -2.082  11.280  1.00  0.00     0.109 C 
ATOM     12  C   UNL     1      -0.182  -2.345  11.482  1.00  0.00     0.021 C 
BRANCH  11  13
ATOM     13  C   UNL     1      -2.199  -0.787  11.932  1.00  0.00     0.204 C 
BRANCH  13  14
ATOM     14  N   UNL     1      -2.182   0.346  11.002  1.00  0.00    -0.340 N 
ATOM     15  C   UNL     1      -2.075   1.655  11.418  1.00  0.00     0.243 C 
ATOM     16  O   UNL     1      -1.924   1.961  12.600  1.00  0.00    -0.273 OA
ATOM     17  H   UNL     1      -2.454   0.173  10.030  1.00  0.00     0.164 HD
BRANCH  15  18
ATOM     18  C   UNL     1      -2.289   2.685  10.283  1.00  0.00     0.171 C 
BRANCH  18  19
ATOM     19  N   UNL     1      -1.167   3.620  10.349  1.00  0.00    -0.343 N 
ATOM     20  C   UNL     1      -1.324   4.967  10.081  1.00  0.00     0.242 CG0
ATOM     21  O   UNL     1      -2.381   5.417   9.646  1.00  0.00    -0.273 OA
ATOM     22  H   UNL     1      -0.246   3.275  10.593  1.00  0.00     0.164 HD
ATOM     23  G   UNL     1      -0.047   5.808  10.280  1.00  0.00     0.000 G0
ENDBRANCH  18  19
BRANCH  18  24
ATOM     24  C   UNL     1      -2.355   1.983   8.920  1.00  0.00     0.038 C 
BRANCH  24  25
ATOM     25  C   UNL     1      -3.744   2.012   8.248  1.00  0.00    -0.015 C 
ATOM     26  C   UNL     1      -4.003   0.775   7.388  1.00  0.00     0.007 C 
ATOM     27  C   UNL     1      -3.874   3.273   7.389  1.00  0.00     0.007 C 
ENDBRANCH  24  25
ENDBRANCH  18  24
ENDBRANCH  15  18
ENDBRANCH  13  14
BRANCH  13  28
ATOM     28  C   UNL     1      -3.630  -0.916  12.464  1.00  0.00     0.327 C 
ATOM     29  O   UNL     1      -4.586  -1.379  11.861  1.00  0.00    -0.250 OA
BRANCH  28  30
ATOM     30  O   UNL     1      -3.797  -0.348  13.676  1.00  0.00    -0.480 OA
ATOM     31  H   UNL     1      -3.004   0.217  13.788  1.00  0.00     0.296 HD
ENDBRANCH  28  30
ENDBRANCH  13  28
ENDBRANCH  11  13
ENDBRANCH   8  11
ENDBRANCH   6   7
BRANCH   6  32
ATOM     32  C   UNL     1      -3.296  -4.143   7.429  1.00  0.00     0.037 C 
BRANCH  32  33
ATOM     33  C   UNL     1      -2.987  -5.233   8.465  1.00  0.00     0.026 C 
BRANCH  33  34
ATOM     34  C   UNL     1      -4.227  -6.038   8.855  1.00  0.00     0.146 C 
BRANCH  34  35
ATOM     35  N   UNL     1      -4.709  -5.561  10.144  1.00  0.00    -0.254 NA
ATOM     36  C   UNL     1      -5.393  -6.359  10.877  1.00  0.00     0.185 C 
ATOM     37  N   UNL     1      -5.838  -5.932  12.069  1.00  0.00    -0.370 N 
ATOM     38  N   UNL     1      -5.756  -7.630  10.632  1.00  0.00    -0.370 N 
ATOM     39  H   UNL     1      -5.596  -4.985  12.332  1.00  0.00     0.159 HD
ATOM     40  H   UNL     1      -6.225  -6.541  12.769  1.00  0.00     0.159 HD
ATOM     41  H   UNL     1      -6.414  -8.108  11.226  1.00  0.00     0.159 HD
ATOM     42  H   UNL     1      -5.504  -8.077   9.764  1.00  0.00     0.159 HD
ENDBRANCH  34  35
ENDBRANCH  33  34
ENDBRANCH  32  33
ENDBRANCH   6  32
ENDBRANCH   4   6
ENDBRANCH   1   2
BRANCH   1  43
ATOM     43  C   UNL     1      -8.019  -3.657   8.865  1.00  0.00     0.102 C 
ATOM     44  C   UNL     1      -9.164  -3.197   7.948  1.00  0.00     0.020 C 
BRANCH  43  45
ATOM     45  C   UNL     1      -8.445  -4.672   9.931  1.00  0.00     0.225 C 
ATOM     46  O   UNL     1      -8.316  -5.885   9.792  1.00  0.00    -0.275 OA
ATOM     47  N   UNL     1      -9.077  -4.143  11.033  1.00  0.00    -0.342 N 
ATOM     48  H   UNL     1      -9.039  -3.148  11.202  1.00  0.00     0.164 HD
BRANCH  47  49
ATOM     49  C   UNL     1      -9.508  -4.990  12.149  1.00  0.00     0.192 C 
BRANCH  49  50
ATOM     50  C   UNL     1      -9.852  -6.389  11.630  1.00  0.00     0.047 C 
BRANCH  50  51
ATOM     51  C   UNL     1      -9.417  -7.494  12.602  1.00  0.00     0.103 C 
BRANCH  51  52
ATOM     52  C   UNL     1     -10.593  -8.362  13.047  1.00  0.00     0.226 C 
ATOM     53  O   UNL     1     -11.032  -9.228  12.288  1.00  0.00    -0.275 OA
BRANCH  52  54
ATOM     54  N   UNL     1     -11.061  -8.159  14.358  1.00  0.00    -0.311 N 
ATOM     55  C   UNL     1     -10.303  -7.339  15.313  1.00  0.00     0.153 C 
BRANCH  54  56
ATOM     56  C   UNL     1     -12.267  -8.726  14.801  1.00  0.00     0.102 C 
ATOM     57  C   UNL     1     -13.442  -8.079  14.868  1.00  0.00     0.043 C 
BRANCH  56  58
ATOM     58  C   UNL     1     -12.337 -10.180  15.208  1.00  0.00     0.268 C 
ATOM     59  O   UNL     1     -11.424 -10.760  15.779  1.00  0.00    -0.268 OA
ATOM     60  N   UNL     1     -13.552 -10.760  14.929  1.00  0.00    -0.339 N 
ATOM     61  H   UNL     1     -14.253 -10.214  14.444  1.00  0.00     0.164 HD
BRANCH  60  62
ATOM     62  C   UNL     1     -13.856 -12.143  15.296  1.00  0.00     0.168 CG0
ATOM     63  C   UNL     1     -15.099 -12.641  14.568  1.00  0.00     0.041 C 
ATOM     64  G   UNL     1     -14.042 -12.243  16.824  1.00  0.00     0.000 G0
ENDBRANCH  60  62
ENDBRANCH  56  58
ENDBRANCH  54  56
ENDBRANCH  52  54
ENDBRANCH  51  52
ENDBRANCH  50  51
ENDBRANCH  49  50
BRANCH  49  65
ATOM     65  C   UNL     1     -10.730  -4.400  12.869  1.00  0.00     0.326 C 
ATOM     66  O   UNL     1     -11.794  -4.974  13.051  1.00  0.00    -0.250 OA
BRANCH  65  67
ATOM     67  O   UNL     1     -10.585  -3.117  13.267  1.00  0.00    -0.480 OA
ATOM     68  H   UNL     1      -9.629  -3.047  13.480  1.00  0.00     0.296 HD
ENDBRANCH  65  67
ENDBRANCH  49  65
ENDBRANCH  47  49
ENDBRANCH  43  45
ENDBRANCH   1  43
BRANCH   1  69
ATOM     69  C   UNL     1      -7.509  -1.065   9.032  1.00  0.00    -0.001 C 
ATOM     70  C   UNL     1      -7.005   0.078   9.530  1.00  0.00     0.001 C 
BRANCH  70  71
ATOM     71  C   UNL     1      -7.271   1.437   9.055  1.00  0.00    -0.055 C 
ATOM     72  C   UNL     1      -7.170   2.445   9.948  1.00  0.00    -0.018 C 
ATOM     73  C   UNL     1      -7.631   1.616   7.603  1.00  0.00     0.044 C 
BRANCH  72  74
ATOM     74  C   UNL     1      -7.383   3.938   9.743  1.00  0.00     0.038 C 
ATOM     75  C   UNL     1      -5.995   4.586   9.658  1.00  0.00     0.015 C 
BRANCH  74  76
ATOM     76  C   UNL     1      -8.286   4.477  10.891  1.00  0.00     0.128 C 
BRANCH  76  77
ATOM     77  O   UNL     1      -9.487   5.047  10.344  1.00  0.00    -0.381 OA
ATOM     78  C   UNL     1      -9.780   6.346  10.839  1.00  0.00     0.195 C 
ENDBRANCH  76  77
BRANCH  76  79
ATOM     79  C   UNL     1      -8.569   3.442  12.008  1.00  0.00     0.068 C 
BRANCH  79  80
ATOM     80  C   UNL     1      -9.943   2.820  12.066  1.00  0.00    -0.045 A 
ATOM     81  C   UNL     1     -10.311   1.798  11.181  1.00  0.00     0.004 A 
ATOM     82  C   UNL     1     -10.889   3.280  12.995  1.00  0.00     0.004 A 
ATOM     83  C   UNL     1     -11.589   1.239  11.231  1.00  0.00     0.000 A 
ATOM     84  C   UNL     1     -12.167   2.720  13.044  1.00  0.00     0.000 A 
ATOM     85  C   UNL     1     -12.516   1.699  12.163  1.00  0.00     0.000 A 
ENDBRANCH  79  80
ENDBRANCH  76  79
ENDBRANCH  74  76
ENDBRANCH  72  74
ENDBRANCH  70  71
ENDBRANCH   1  69
TORSDOF 17
ENDMDL
MODEL 50
REMARK VINA RESULT:    -7.157      2.725      4.577
REMARK INTER + INTRA:         -27.193
REMARK INTER:                 -19.619
REMARK INTRA:                  -7.574
REMARK UNBOUND:                -5.809
REMARK SMILES C=C1C(=O)N[C@H](C)C(=O)N[C@@H](CC(C)C)C(=O)N[C@@H](C(=O)O)[C@H](C)C(=O)N[C@@H](CCCN=C(N)N)C(=O)N[C@@H](/C=C/C(C)=C/[C@H](C)[C@H](Cc2ccccc2)OC)[C@H](C)C(=O)N[C@@H](C(=O)O)CCC(=O)N1C
REMARK SMILES IDX 39 1 38 2 37 3 36 4 28 6 27 7 25 8 26 9 23 11 24 12 19 13
REMARK SMILES IDX 18 14 16 15 17 16 11 18 10 19 8 20 9 21 12 24 13 25 14 26
REMARK SMILES IDX 15 27 20 28 21 29 22 30 29 32 30 33 31 34 32 35 33 36 34 37
REMARK SMILES IDX 35 38 57 43 58 44 59 45 60 46 61 47 62 49 66 50 67 51 68 52
REMARK SMILES IDX 69 53 70 54 71 55 2 56 1 57 3 58 4 59 5 60 6 62 7 63 63 65
REMARK SMILES IDX 64 66 65 67 40 69 41 70 42 71 44 72 43 73 45 74 46 75 47 76
REMARK SMILES IDX 55 77 56 78 48 79 49 80 50 81 54 82 51 83 53 84 52 85
REMARK H PARENT 38 5 27 10 18 17 10 22 22 31 34 39 34 40 35 41 35 42 61 48
REMARK H PARENT 5 61 65 68
REMARK Flexibility Score:  369.900
ROOT
ATOM      1  C   UNL     1      -8.499  -3.900  11.385  1.00  0.00     0.117 C 
ENDROOT
BRANCH   1   2
ATOM      2  N   UNL     1      -7.254  -3.709  10.639  1.00  0.00    -0.347 N 
ATOM      3  O   UNL     1      -6.078  -5.463  11.537  1.00  0.00    -0.273 OA
ATOM      4  C   UNL     1      -6.172  -4.564  10.708  1.00  0.00     0.243 C 
ATOM      5  H   UNL     1      -7.180  -2.938   9.992  1.00  0.00     0.164 HD
BRANCH   4   6
ATOM      6  C   UNL     1      -5.013  -4.181   9.753  1.00  0.00     0.171 C 
BRANCH   6   7
ATOM      7  N   UNL     1      -4.751  -2.734   9.816  1.00  0.00    -0.344 N 
ATOM      8  C   UNL     1      -5.316  -1.877   8.897  1.00  0.00     0.226 C 
ATOM      9  O   UNL     1      -6.032  -2.267   7.984  1.00  0.00    -0.275 OA
ATOM     10  H   UNL     1      -4.110  -2.382  10.516  1.00  0.00     0.164 HD
BRANCH   8  11
ATOM     11  C   UNL     1      -4.994  -0.411   9.129  1.00  0.00     0.109 C 
ATOM     12  C   UNL     1      -4.826  -0.139  10.624  1.00  0.00     0.021 C 
BRANCH  11  13
ATOM     13  C   UNL     1      -3.792   0.004   8.256  1.00  0.00     0.204 C 
BRANCH  13  14
ATOM     14  N   UNL     1      -3.445   1.417   8.432  1.00  0.00    -0.340 N 
ATOM     15  C   UNL     1      -3.913   2.412   7.602  1.00  0.00     0.243 C 
ATOM     16  O   UNL     1      -4.707   2.191   6.689  1.00  0.00    -0.273 OA
ATOM     17  H   UNL     1      -2.677   1.648   9.069  1.00  0.00     0.164 HD
BRANCH  15  18
ATOM     18  C   UNL     1      -3.250   3.789   7.851  1.00  0.00     0.171 C 
BRANCH  18  19
ATOM     19  N   UNL     1      -4.216   4.801   7.428  1.00  0.00    -0.343 N 
ATOM     20  C   UNL     1      -3.922   5.722   6.441  1.00  0.00     0.242 CG0
ATOM     21  O   UNL     1      -2.792   5.819   5.967  1.00  0.00    -0.273 OA
ATOM     22  H   UNL     1      -5.127   4.836   7.872  1.00  0.00     0.164 HD
ATOM     23  G   UNL     1      -5.092   6.659   6.075  1.00  0.00     0.000 G0
ENDBRANCH  18  19
BRANCH  18  24
ATOM     24  C   UNL     1      -2.878   3.951   9.330  1.00  0.00     0.038 C 
BRANCH  24  25
ATOM     25  C   UNL     1      -1.372   4.162   9.595  1.00  0.00    -0.015 C 
ATOM     26  C   UNL     1      -1.041   4.202  11.087  1.00  0.00     0.007 C 
ATOM     27  C   UNL     1      -0.909   5.461   8.930  1.00  0.00     0.007 C 
ENDBRANCH  24  25
ENDBRANCH  18  24
ENDBRANCH  15  18
ENDBRANCH  13  14
BRANCH  13  28
ATOM     28  C   UNL     1      -2.529  -0.813   8.541  1.00  0.00     0.327 C 
ATOM     29  O   UNL     1      -1.646  -0.526   9.335  1.00  0.00    -0.250 OA
BRANCH  28  30
ATOM     30  O   UNL     1      -2.393  -1.879   7.727  1.00  0.00    -0.480 OA
ATOM     31  H   UNL     1      -1.743  -1.588   7.054  1.00  0.00     0.296 HD
ENDBRANCH  28  30
ENDBRANCH  13  28
ENDBRANCH  11  13
ENDBRANCH   8  11
ENDBRANCH   6   7
BRANCH   6  32
ATOM     32  C   UNL     1      -3.762  -4.981  10.133  1.00  0.00     0.037 C 
BRANCH  32  33
ATOM     33  C   UNL     1      -2.527  -4.084  10.291  1.00  0.00     0.026 C 
BRANCH  33  34
ATOM     34  C   UNL     1      -2.038  -4.010  11.738  1.00  0.00     0.146 C 
BRANCH  34  35
ATOM     35  N   UNL     1      -1.732  -2.623  12.060  1.00  0.00    -0.254 NA
ATOM     36  C   UNL     1      -0.522  -2.218  11.943  1.00  0.00     0.185 C 
ATOM     37  N   UNL     1      -0.230  -0.940  12.232  1.00  0.00    -0.370 N 
ATOM     38  N   UNL     1       0.565  -2.906  11.552  1.00  0.00    -0.370 N 
ATOM     39  H   UNL     1      -1.001  -0.353  12.525  1.00  0.00     0.159 HD
ATOM     40  H   UNL     1       0.646  -0.505  12.002  1.00  0.00     0.159 HD
ATOM     41  H   UNL     1       1.488  -2.512  11.634  1.00  0.00     0.159 HD
ATOM     42  H   UNL     1       0.496  -3.884  11.318  1.00  0.00     0.159 HD
ENDBRANCH  34  35
ENDBRANCH  33  34
ENDBRANCH  32  33
ENDBRANCH   6  32
ENDBRANCH   4   6
ENDBRANCH   1   2
BRANCH   1  43
ATOM     43  C   UNL     1      -9.339  -4.998  10.672  1.00  0.00     0.102 C 
ATOM     44  C   UNL     1     -10.645  -4.466  10.056  1.00  0.00     0.020 C 
BRANCH  43  45
ATOM     45  C   UNL     1      -9.531  -6.219  11.577  1.00  0.00     0.225 C 
ATOM     46  O   UNL     1     -10.297  -7.140  11.308  1.00  0.00    -0.275 OA
ATOM     47  N   UNL     1      -8.856  -6.180  12.776  1.00  0.00    -0.342 N 
ATOM     48  H   UNL     1      -8.122  -5.499  12.914  1.00  0.00     0.164 HD
BRANCH  47  49
ATOM     49  C   UNL     1      -8.917  -7.294  13.726  1.00  0.00     0.192 C 
BRANCH  49  50
ATOM     50  C   UNL     1      -8.723  -6.766  15.150  1.00  0.00     0.047 C 
BRANCH  50  51
ATOM     51  C   UNL     1      -9.317  -5.364  15.337  1.00  0.00     0.103 C 
BRANCH  51  52
ATOM     52  C   UNL     1     -10.824  -5.341  15.088  1.00  0.00     0.226 C 
ATOM     53  O   UNL     1     -11.271  -4.752  14.102  1.00  0.00    -0.275 OA
BRANCH  52  54
ATOM     54  N   UNL     1     -11.618  -6.078  15.986  1.00  0.00    -0.311 N 
ATOM     55  C   UNL     1     -11.267  -6.166  17.410  1.00  0.00     0.153 C 
BRANCH  54  56
ATOM     56  C   UNL     1     -12.776  -6.749  15.559  1.00  0.00     0.102 C 
ATOM     57  C   UNL     1     -14.024  -6.261  15.648  1.00  0.00     0.043 C 
BRANCH  56  58
ATOM     58  C   UNL     1     -12.687  -8.105  14.900  1.00  0.00     0.268 C 
ATOM     59  O   UNL     1     -12.173  -8.285  13.805  1.00  0.00    -0.268 OA
ATOM     60  N   UNL     1     -13.182  -9.120  15.684  1.00  0.00    -0.339 N 
ATOM     61  H   UNL     1     -13.602  -8.886  16.576  1.00  0.00     0.164 HD
BRANCH  60  62
ATOM     62  C   UNL     1     -13.137 -10.520  15.266  1.00  0.00     0.168 CG0
ATOM     63  C   UNL     1     -11.799 -11.155  15.624  1.00  0.00     0.041 C 
ATOM     64  G   UNL     1     -13.398 -10.615  13.748  1.00  0.00     0.000 G0
ENDBRANCH  60  62
ENDBRANCH  56  58
ENDBRANCH  54  56
ENDBRANCH  52  54
ENDBRANCH  51  52
ENDBRANCH  50  51
ENDBRANCH  49  50
BRANCH  49  65
ATOM     65  C   UNL     1      -7.846  -8.354  13.426  1.00  0.00     0.326 C 
ATOM     66  O   UNL     1      -8.024  -9.564  13.427  1.00  0.00    -0.250 OA
BRANCH  65  67
ATOM     67  O   UNL     1      -6.609  -7.859  13.204  1.00  0.00    -0.480 OA
ATOM     68  H   UNL     1      -6.777  -6.936  12.917  1.00  0.00     0.296 HD
ENDBRANCH  65  67
ENDBRANCH  49  65
ENDBRANCH  47  49
ENDBRANCH  43  45
ENDBRANCH   1  43
BRANCH   1  69
ATOM     69  C   UNL     1      -9.101  -2.519  11.568  1.00  0.00    -0.001 C 
ATOM     70  C   UNL     1      -8.741  -1.382  10.946  1.00  0.00     0.001 C 
BRANCH  70  71
ATOM     71  C   UNL     1      -9.344  -0.059  11.116  1.00  0.00    -0.055 C 
ATOM     72  C   UNL     1     -10.021   0.181  12.258  1.00  0.00    -0.018 C 
ATOM     73  C   UNL     1      -9.159   0.944  10.007  1.00  0.00     0.044 C 
BRANCH  72  74
ATOM     74  C   UNL     1     -10.739   1.447  12.704  1.00  0.00     0.038 C 
ATOM     75  C   UNL     1      -9.755   2.246  13.567  1.00  0.00     0.015 C 
BRANCH  74  76
ATOM     76  C   UNL     1     -12.061   1.045  13.423  1.00  0.00     0.128 C 
BRANCH  76  77
ATOM     77  O   UNL     1     -13.147   1.854  12.941  1.00  0.00    -0.381 OA
ATOM     78  C   UNL     1     -14.416   1.220  13.031  1.00  0.00     0.195 C 
ENDBRANCH  76  77
BRANCH  76  79
ATOM     79  C   UNL     1     -12.372  -0.471  13.368  1.00  0.00     0.068 C 
BRANCH  79  80
ATOM     80  C   UNL     1     -12.428  -1.230  14.672  1.00  0.00    -0.045 A 
ATOM     81  C   UNL     1     -11.293  -1.351  15.485  1.00  0.00     0.004 A 
ATOM     82  C   UNL     1     -13.618  -1.853  15.077  1.00  0.00     0.004 A 
ATOM     83  C   UNL     1     -11.349  -2.067  16.683  1.00  0.00     0.000 A 
ATOM     84  C   UNL     1     -13.672  -2.569  16.275  1.00  0.00     0.000 A 
ATOM     85  C   UNL     1     -12.539  -2.674  17.078  1.00  0.00     0.000 A 
ENDBRANCH  79  80
ENDBRANCH  76  79
ENDBRANCH  74  76
ENDBRANCH  72  74
ENDBRANCH  70  71
ENDBRANCH   1  69
TORSDOF 17
ENDMDL
