MODEL 1
REMARK VINA RESULT:     7.184      0.000      0.000
REMARK INTER + INTRA:          15.288
REMARK INTER:                  12.224
REMARK INTRA:                   3.065
REMARK UNBOUND:                 3.065
REMARK SMILES CC[C@H](C)[C@@H]1NC(=O)[C@H]2CSC(=N2)[C@@H]([C@@H](C)CC)NC(=O)c2csc(n2)CNC(=O)[C@H]2N=C1O[C@@H]2C
REMARK SMILES IDX 27 1 25 2 22 3 26 4 23 5 24 6 20 7 19 8 21 9 14 11 12 12
REMARK SMILES IDX 11 13 10 14 13 15 9 16 15 18 16 19 17 20 18 21 28 22 29 23
REMARK SMILES IDX 30 24 31 26 32 27 35 28 33 29 34 30 36 31 5 32 6 33 7 34
REMARK SMILES IDX 8 35 3 38 4 39 2 40 1 41
REMARK H PARENT 19 10 28 25 6 36
REMARK Flexibility Score:   91.900
ROOT
ATOM      1  C   UNL     1       7.567  -8.066 -11.285  1.00  0.00     0.183 C 
ENDROOT
BRANCH   1   2
ATOM      2  C   UNL     1       8.953  -7.488 -11.281  1.00  0.00     0.113 A 
ATOM      3  C   UNL     1      10.797  -6.498 -10.516  1.00  0.00     0.139 A 
ATOM      4  N   UNL     1       9.578  -7.094 -10.187  1.00  0.00    -0.234 NA
ATOM      5  C   UNL     1      11.094  -6.509 -11.865  1.00  0.00     0.101 A 
ATOM      6  S   UNL     1       9.820  -7.251 -12.744  1.00  0.00    -0.125 S 
BRANCH   3   7
ATOM      7  C   UNL     1      11.624  -5.894  -9.469  1.00  0.00     0.271 C 
ATOM      8  N   UNL     1      11.648  -6.668  -8.334  1.00  0.00    -0.341 N 
ATOM      9  O   UNL     1      12.191  -4.815  -9.587  1.00  0.00    -0.267 OA
ATOM     10  H   UNL     1      11.146  -7.553  -8.393  1.00  0.00     0.164 HD
BRANCH   8  11
ATOM     11  C   UNL     1      12.227  -6.245  -7.069  1.00  0.00     0.140 C 
BRANCH  11  12
ATOM     12  C   UNL     1      11.271  -5.233  -6.431  1.00  0.00     0.091 C 
ATOM     13  S   UNL     1      10.905  -5.313  -4.723  1.00  0.00    -0.106 SA
ATOM     14  C   UNL     1      10.117  -3.691  -4.803  1.00  0.00     0.113 C 
ATOM     15  N   UNL     1      10.648  -4.339  -7.132  1.00  0.00    -0.267 NA
ATOM     16  C   UNL     1       9.706  -3.567  -6.262  1.00  0.00     0.205 CG0
ATOM     17  G   UNL     1       8.258  -4.044  -6.462  1.00  0.00     0.000 G0
ENDBRANCH  11  12
BRANCH  11  18
ATOM     18  C   UNL     1      12.694  -7.416  -6.167  1.00  0.00     0.015 C 
ATOM     19  C   UNL     1      12.333  -7.139  -4.702  1.00  0.00     0.010 C 
BRANCH  18  20
ATOM     20  C   UNL     1      12.206  -8.808  -6.615  1.00  0.00     0.002 C 
ATOM     21  C   UNL     1      10.690  -8.956  -6.554  1.00  0.00     0.004 C 
ENDBRANCH  18  20
ENDBRANCH  11  18
ENDBRANCH   8  11
ENDBRANCH   3   7
ENDBRANCH   1   2
BRANCH   1  22
ATOM     22  N   UNL     1       6.673  -7.051 -10.776  1.00  0.00    -0.348 N 
ATOM     23  C   UNL     1       6.287  -6.936  -9.468  1.00  0.00     0.249 C 
ATOM     24  O   UNL     1       6.735  -7.642  -8.571  1.00  0.00    -0.272 OA
ATOM     25  H   UNL     1       6.224  -6.422 -11.442  1.00  0.00     0.163 HD
BRANCH  23  26
ATOM     26  C   UNL     1       5.286  -5.794  -9.240  1.00  0.00     0.238 C 
ATOM     27  N   UNL     1       5.117  -5.573  -7.777  1.00  0.00    -0.236 NA
ATOM     28  C   UNL     1       5.794  -4.474  -9.794  1.00  0.00     0.206 C 
ATOM     29  C   UNL     1       5.677  -4.417  -7.583  1.00  0.00     0.208 C 
ATOM     30  O   UNL     1       6.207  -3.748  -8.637  1.00  0.00    -0.474 OA
ATOM     31  C   UNL     1       4.705  -3.679 -10.503  1.00  0.00     0.056 C 
BRANCH  29  32
ATOM     32  C   UNL     1       5.864  -3.716  -6.241  1.00  0.00     0.171 C 
BRANCH  32  33
ATOM     33  N   UNL     1       7.256  -3.350  -6.035  1.00  0.00    -0.342 N 
ATOM     34  C   UNL     1       8.300  -4.104  -6.517  1.00  0.00     0.246 CG0
ATOM     35  O   UNL     1       8.139  -5.154  -7.134  1.00  0.00    -0.273 OA
ATOM     36  H   UNL     1       7.508  -2.533  -5.488  1.00  0.00     0.164 HD
ATOM     37  G   UNL     1       9.692  -3.513  -6.242  1.00  0.00     0.000 G0
ENDBRANCH  32  33
BRANCH  32  38
ATOM     38  C   UNL     1       4.906  -2.500  -6.126  1.00  0.00     0.017 C 
ATOM     39  C   UNL     1       3.606  -2.918  -5.429  1.00  0.00     0.010 C 
BRANCH  38  40
ATOM     40  C   UNL     1       5.559  -1.282  -5.432  1.00  0.00     0.002 C 
ATOM     41  C   UNL     1       4.842  -0.850  -4.159  1.00  0.00     0.004 C 
ENDBRANCH  38  40
ENDBRANCH  32  38
ENDBRANCH  29  32
ENDBRANCH  23  26
ENDBRANCH   1  22
TORSDOF 4
ENDMDL
