MODEL 1
REMARK VINA RESULT:    -7.012      0.000      0.000
REMARK INTER + INTRA:         -25.273
REMARK INTER:                 -17.466
REMARK INTRA:                  -7.807
REMARK UNBOUND:                -7.807
REMARK SMILES CCCCCCC[C@H](N)[C@H](O)C(=O)N[C@H](C)C(=O)N(C)[C@H](CC(C)C)C(=O)N[C@@H](Cc1ccc(O)cc1)C(=O)N[C@@H](Cc1ccc(O)cc1)C(=O)O
REMARK SMILES IDX 18 1 17 2 15 3 16 4 14 5 12 6 13 7 10 9 11 10 8 12 9 13 7 16
REMARK SMILES IDX 6 17 5 18 4 19 3 20 2 21 1 22 19 23 20 24 21 25 22 26 23 27
REMARK SMILES IDX 24 28 25 29 26 30 27 31 28 32 29 34 30 35 31 36 32 37 37 38
REMARK SMILES IDX 33 39 36 40 34 41 35 42 38 44 39 45 40 46 41 48 42 49 43 50
REMARK SMILES IDX 44 51 49 52 45 53 48 54 46 55 47 56 50 58 51 59 52 60
REMARK H PARENT 14 8 11 11 9 14 9 15 28 33 35 43 40 47 47 57 52 61
ROOT
ATOM      1  O   UNL     1     -10.074  -5.578   9.924  1.00  0.00    -0.272 OA
ATOM      2  C   UNL     1      -9.358  -5.276  10.890  1.00  0.00     0.245 C 
ENDROOT
BRANCH   2   3
ATOM      3  C   UNL     1      -8.555  -6.397  11.596  1.00  0.00     0.168 C 
ATOM      4  C   UNL     1      -9.469  -7.552  11.991  1.00  0.00     0.041 C 
BRANCH   3   5
ATOM      5  N   UNL     1      -7.381  -6.857  10.871  1.00  0.00    -0.342 N 
ATOM      6  C   UNL     1      -6.137  -6.916  11.461  1.00  0.00     0.251 C 
ATOM      7  O   UNL     1      -5.916  -6.551  12.611  1.00  0.00    -0.272 OA
ATOM      8  H   UNL     1      -7.434  -7.154   9.899  1.00  0.00     0.164 HD
BRANCH   6   9
ATOM      9  C   UNL     1      -5.079  -7.565  10.555  1.00  0.00     0.219 C 
BRANCH   9  10
ATOM     10  O   UNL     1      -5.598  -8.668   9.801  1.00  0.00    -0.382 OA
ATOM     11  H   UNL     1      -5.351  -8.451   8.875  1.00  0.00     0.211 HD
ENDBRANCH   9  10
BRANCH   9  12
ATOM     12  C   UNL     1      -4.367  -6.549   9.624  1.00  0.00     0.089 C 
BRANCH  12  13
ATOM     13  N   UNL     1      -5.395  -5.682   9.005  1.00  0.00    -0.325 NA
ATOM     14  H   UNL     1      -5.075  -4.712   9.028  1.00  0.00     0.119 HD
ATOM     15  H   UNL     1      -6.237  -5.700   9.586  1.00  0.00     0.119 HD
ENDBRANCH  12  13
BRANCH  12  16
ATOM     16  C   UNL     1      -3.267  -5.682  10.283  1.00  0.00     0.022 C 
BRANCH  16  17
ATOM     17  C   UNL     1      -2.162  -5.082   9.403  1.00  0.00     0.002 C 
BRANCH  17  18
ATOM     18  C   UNL     1      -2.155  -3.557   9.326  1.00  0.00     0.000 C 
BRANCH  18  19
ATOM     19  C   UNL     1      -3.135  -2.979   8.296  1.00  0.00    -0.000 C 
BRANCH  19  20
ATOM     20  C   UNL     1      -2.613  -1.776   7.505  1.00  0.00    -0.000 C 
BRANCH  20  21
ATOM     21  C   UNL     1      -3.148  -0.439   8.025  1.00  0.00    -0.003 C 
ATOM     22  C   UNL     1      -2.134   0.252   8.924  1.00  0.00     0.004 C 
ENDBRANCH  20  21
ENDBRANCH  19  20
ENDBRANCH  18  19
ENDBRANCH  17  18
ENDBRANCH  16  17
ENDBRANCH  12  16
ENDBRANCH   9  12
ENDBRANCH   6   9
ENDBRANCH   3   5
ENDBRANCH   2   3
BRANCH   2  23
ATOM     23  N   UNL     1      -9.193  -3.941  11.243  1.00  0.00    -0.332 N 
ATOM     24  C   UNL     1      -9.942  -3.265  12.292  1.00  0.00     0.147 C 
BRANCH  23  25
ATOM     25  C   UNL     1      -8.107  -3.130  10.626  1.00  0.00     0.174 C 
BRANCH  25  26
ATOM     26  C   UNL     1      -7.821  -1.820  11.398  1.00  0.00     0.038 C 
BRANCH  26  27
ATOM     27  C   UNL     1      -6.408  -1.213  11.245  1.00  0.00    -0.015 C 
ATOM     28  C   UNL     1      -5.317  -2.281  11.172  1.00  0.00     0.007 C 
ATOM     29  C   UNL     1      -6.289  -0.241  10.074  1.00  0.00     0.007 C 
ENDBRANCH  26  27
ENDBRANCH  25  26
BRANCH  25  30
ATOM     30  C   UNL     1      -8.393  -2.915   9.122  1.00  0.00     0.243 C 
ATOM     31  O   UNL     1      -9.487  -2.522   8.718  1.00  0.00    -0.273 OA
ATOM     32  N   UNL     1      -7.353  -3.196   8.274  1.00  0.00    -0.342 N 
ATOM     33  H   UNL     1      -6.438  -3.380   8.692  1.00  0.00     0.164 HD
BRANCH  32  34
ATOM     34  C   UNL     1      -7.452  -3.076   6.817  1.00  0.00     0.175 C 
BRANCH  34  35
ATOM     35  C   UNL     1      -6.095  -2.713   6.193  1.00  0.00     0.070 C 
BRANCH  35  36
ATOM     36  C   UNL     1      -6.224  -1.751   5.033  1.00  0.00    -0.045 A 
ATOM     37  C   UNL     1      -6.318  -2.242   3.722  1.00  0.00     0.007 A 
ATOM     38  C   UNL     1      -6.227  -0.366   5.244  1.00  0.00     0.007 A 
ATOM     39  C   UNL     1      -6.423  -1.362   2.644  1.00  0.00     0.046 A 
ATOM     40  C   UNL     1      -6.331   0.515   4.166  1.00  0.00     0.046 A 
ATOM     41  C   UNL     1      -6.430   0.008   2.874  1.00  0.00     0.115 A 
BRANCH  41  42
ATOM     42  O   UNL     1      -6.531   0.833   1.793  1.00  0.00    -0.508 OA
ATOM     43  H   UNL     1      -7.206   1.505   1.985  1.00  0.00     0.293 HD
ENDBRANCH  41  42
ENDBRANCH  35  36
ENDBRANCH  34  35
BRANCH  34  44
ATOM     44  C   UNL     1      -8.003  -4.409   6.263  1.00  0.00     0.243 C 
ATOM     45  O   UNL     1      -9.182  -4.610   5.984  1.00  0.00    -0.273 OA
ATOM     46  N   UNL     1      -7.065  -5.419   6.228  1.00  0.00    -0.341 N 
ATOM     47  H   UNL     1      -6.128  -5.236   6.580  1.00  0.00     0.164 HD
BRANCH  46  48
ATOM     48  C   UNL     1      -7.369  -6.788   5.806  1.00  0.00     0.196 C 
BRANCH  48  49
ATOM     49  C   UNL     1      -6.231  -7.379   4.957  1.00  0.00     0.072 C 
BRANCH  49  50
ATOM     50  C   UNL     1      -4.919  -6.655   5.159  1.00  0.00    -0.045 A 
ATOM     51  C   UNL     1      -3.945  -7.197   6.011  1.00  0.00     0.007 A 
ATOM     52  C   UNL     1      -4.664  -5.433   4.524  1.00  0.00     0.007 A 
ATOM     53  C   UNL     1      -2.736  -6.532   6.215  1.00  0.00     0.046 A 
ATOM     54  C   UNL     1      -3.455  -4.766   4.729  1.00  0.00     0.046 A 
ATOM     55  C   UNL     1      -2.500  -5.322   5.573  1.00  0.00     0.115 A 
BRANCH  55  56
ATOM     56  O   UNL     1      -1.307  -4.703   5.801  1.00  0.00    -0.508 OA
ATOM     57  H   UNL     1      -0.832  -5.197   6.489  1.00  0.00     0.293 HD
ENDBRANCH  55  56
ENDBRANCH  49  50
ENDBRANCH  48  49
BRANCH  48  58
ATOM     58  C   UNL     1      -7.588  -7.658   7.051  1.00  0.00     0.326 C 
ATOM     59  O   UNL     1      -6.955  -8.647   7.382  1.00  0.00    -0.250 OA
BRANCH  58  60
ATOM     60  O   UNL     1      -8.602  -7.225   7.842  1.00  0.00    -0.480 OA
ATOM     61  H   UNL     1      -8.329  -6.313   8.081  1.00  0.00     0.296 HD
ENDBRANCH  58  60
ENDBRANCH  48  58
ENDBRANCH  46  48
ENDBRANCH  34  44
ENDBRANCH  32  34
ENDBRANCH  25  30
ENDBRANCH  23  25
ENDBRANCH   2  23
TORSDOF 28
ENDMDL
MODEL 2
REMARK VINA RESULT:    -6.866      2.867      4.727
REMARK INTER + INTRA:         -24.909
REMARK INTER:                 -20.692
REMARK INTRA:                  -4.217
REMARK UNBOUND:                -7.807
REMARK SMILES CCCCCCC[C@H](N)[C@H](O)C(=O)N[C@H](C)C(=O)N(C)[C@H](CC(C)C)C(=O)N[C@@H](Cc1ccc(O)cc1)C(=O)N[C@@H](Cc1ccc(O)cc1)C(=O)O
REMARK SMILES IDX 18 1 17 2 15 3 16 4 14 5 12 6 13 7 10 9 11 10 8 12 9 13 7 16
REMARK SMILES IDX 6 17 5 18 4 19 3 20 2 21 1 22 19 23 20 24 21 25 22 26 23 27
REMARK SMILES IDX 24 28 25 29 26 30 27 31 28 32 29 34 30 35 31 36 32 37 37 38
REMARK SMILES IDX 33 39 36 40 34 41 35 42 38 44 39 45 40 46 41 48 42 49 43 50
REMARK SMILES IDX 44 51 49 52 45 53 48 54 46 55 47 56 50 58 51 59 52 60
REMARK H PARENT 14 8 11 11 9 14 9 15 28 33 35 43 40 47 47 57 52 61
ROOT
ATOM      1  O   UNL     1      -4.278   0.460  10.548  1.00  0.00    -0.272 OA
ATOM      2  C   UNL     1      -4.402  -0.352   9.619  1.00  0.00     0.245 C 
ENDROOT
BRANCH   2   3
ATOM      3  C   UNL     1      -3.206  -0.566   8.658  1.00  0.00     0.168 C 
ATOM      4  C   UNL     1      -2.083   0.419   8.962  1.00  0.00     0.041 C 
BRANCH   3   5
ATOM      5  N   UNL     1      -2.720  -1.935   8.582  1.00  0.00    -0.342 N 
ATOM      6  C   UNL     1      -2.815  -2.679   7.425  1.00  0.00     0.251 C 
ATOM      7  O   UNL     1      -3.345  -2.267   6.398  1.00  0.00    -0.272 OA
ATOM      8  H   UNL     1      -2.292  -2.397   9.381  1.00  0.00     0.164 HD
BRANCH   6   9
ATOM      9  C   UNL     1      -2.111  -4.041   7.534  1.00  0.00     0.219 C 
BRANCH   9  10
ATOM     10  O   UNL     1      -1.287  -4.329   6.398  1.00  0.00    -0.382 OA
ATOM     11  H   UNL     1      -0.837  -5.167   6.646  1.00  0.00     0.211 HD
ENDBRANCH   9  10
BRANCH   9  12
ATOM     12  C   UNL     1      -1.312  -4.209   8.852  1.00  0.00     0.089 C 
BRANCH  12  13
ATOM     13  N   UNL     1      -2.194  -4.849   9.855  1.00  0.00    -0.325 NA
ATOM     14  H   UNL     1      -2.889  -5.423   9.374  1.00  0.00     0.119 HD
ATOM     15  H   UNL     1      -2.732  -4.123  10.333  1.00  0.00     0.119 HD
ENDBRANCH  12  13
BRANCH  12  16
ATOM     16  C   UNL     1       0.020  -4.989   8.742  1.00  0.00     0.022 C 
BRANCH  16  17
ATOM     17  C   UNL     1       0.828  -5.271  10.016  1.00  0.00     0.002 C 
BRANCH  17  18
ATOM     18  C   UNL     1       1.266  -4.029  10.790  1.00  0.00     0.000 C 
BRANCH  18  19
ATOM     19  C   UNL     1       2.777  -3.951  11.044  1.00  0.00    -0.000 C 
BRANCH  19  20
ATOM     20  C   UNL     1       3.497  -2.799  10.337  1.00  0.00    -0.000 C 
BRANCH  20  21
ATOM     21  C   UNL     1       4.954  -2.641  10.779  1.00  0.00    -0.003 C 
ATOM     22  C   UNL     1       5.342  -1.175  10.894  1.00  0.00     0.004 C 
ENDBRANCH  20  21
ENDBRANCH  19  20
ENDBRANCH  18  19
ENDBRANCH  17  18
ENDBRANCH  16  17
ENDBRANCH  12  16
ENDBRANCH   9  12
ENDBRANCH   6   9
ENDBRANCH   3   5
ENDBRANCH   2   3
BRANCH   2  23
ATOM     23  N   UNL     1      -5.547  -1.135   9.528  1.00  0.00    -0.332 N 
ATOM     24  C   UNL     1      -5.715  -2.431  10.171  1.00  0.00     0.147 C 
BRANCH  23  25
ATOM     25  C   UNL     1      -6.762  -0.613   8.844  1.00  0.00     0.174 C 
BRANCH  25  26
ATOM     26  C   UNL     1      -8.040  -0.743   9.705  1.00  0.00     0.038 C 
BRANCH  26  27
ATOM     27  C   UNL     1      -8.523   0.528  10.438  1.00  0.00    -0.015 C 
ATOM     28  C   UNL     1      -8.931   1.640   9.472  1.00  0.00     0.007 C 
ATOM     29  C   UNL     1      -9.635   0.261  11.449  1.00  0.00     0.007 C 
ENDBRANCH  26  27
ENDBRANCH  25  26
BRANCH  25  30
ATOM     30  C   UNL     1      -6.892  -1.242   7.438  1.00  0.00     0.243 C 
ATOM     31  O   UNL     1      -6.708  -0.587   6.413  1.00  0.00    -0.273 OA
ATOM     32  N   UNL     1      -7.232  -2.571   7.412  1.00  0.00    -0.342 N 
ATOM     33  H   UNL     1      -7.228  -3.078   8.300  1.00  0.00     0.164 HD
BRANCH  32  34
ATOM     34  C   UNL     1      -7.425  -3.324   6.170  1.00  0.00     0.175 C 
BRANCH  34  35
ATOM     35  C   UNL     1      -6.084  -3.786   5.581  1.00  0.00     0.070 C 
BRANCH  35  36
ATOM     36  C   UNL     1      -5.958  -3.487   4.105  1.00  0.00    -0.045 A 
ATOM     37  C   UNL     1      -5.698  -4.525   3.197  1.00  0.00     0.007 A 
ATOM     38  C   UNL     1      -6.075  -2.176   3.625  1.00  0.00     0.007 A 
ATOM     39  C   UNL     1      -5.567  -4.256   1.835  1.00  0.00     0.046 A 
ATOM     40  C   UNL     1      -5.943  -1.906   2.260  1.00  0.00     0.046 A 
ATOM     41  C   UNL     1      -5.691  -2.950   1.377  1.00  0.00     0.115 A 
BRANCH  41  42
ATOM     42  O   UNL     1      -5.553  -2.730   0.039  1.00  0.00    -0.508 OA
ATOM     43  H   UNL     1      -4.637  -2.936  -0.211  1.00  0.00     0.293 HD
ENDBRANCH  41  42
ENDBRANCH  35  36
ENDBRANCH  34  35
BRANCH  34  44
ATOM     44  C   UNL     1      -8.364  -4.514   6.473  1.00  0.00     0.243 C 
ATOM     45  O   UNL     1      -9.505  -4.627   6.035  1.00  0.00    -0.273 OA
ATOM     46  N   UNL     1      -7.849  -5.396   7.400  1.00  0.00    -0.341 N 
ATOM     47  H   UNL     1      -6.946  -5.197   7.823  1.00  0.00     0.164 HD
BRANCH  46  48
ATOM     48  C   UNL     1      -8.583  -6.562   7.896  1.00  0.00     0.196 C 
BRANCH  48  49
ATOM     49  C   UNL     1      -7.737  -7.843   7.789  1.00  0.00     0.072 C 
BRANCH  49  50
ATOM     50  C   UNL     1      -6.376  -7.592   7.181  1.00  0.00    -0.045 A 
ATOM     51  C   UNL     1      -5.268  -7.373   8.013  1.00  0.00     0.007 A 
ATOM     52  C   UNL     1      -6.203  -7.553   5.791  1.00  0.00     0.007 A 
ATOM     53  C   UNL     1      -4.010  -7.127   7.463  1.00  0.00     0.046 A 
ATOM     54  C   UNL     1      -4.944  -7.305   5.241  1.00  0.00     0.046 A 
ATOM     55  C   UNL     1      -3.857  -7.096   6.083  1.00  0.00     0.115 A 
BRANCH  55  56
ATOM     56  O   UNL     1      -2.611  -6.851   5.586  1.00  0.00    -0.508 OA
ATOM     57  H   UNL     1      -2.174  -6.202   6.160  1.00  0.00     0.293 HD
ENDBRANCH  55  56
ENDBRANCH  49  50
ENDBRANCH  48  49
BRANCH  48  58
ATOM     58  C   UNL     1      -8.970  -6.322   9.362  1.00  0.00     0.326 C 
ATOM     59  O   UNL     1     -10.002  -5.825   9.782  1.00  0.00    -0.250 OA
BRANCH  58  60
ATOM     60  O   UNL     1      -8.030  -6.741  10.246  1.00  0.00    -0.480 OA
ATOM     61  H   UNL     1      -7.372  -6.012  10.238  1.00  0.00     0.296 HD
ENDBRANCH  58  60
ENDBRANCH  48  58
ENDBRANCH  46  48
ENDBRANCH  34  44
ENDBRANCH  32  34
ENDBRANCH  25  30
ENDBRANCH  23  25
ENDBRANCH   2  23
TORSDOF 28
ENDMDL
MODEL 3
REMARK VINA RESULT:    -6.812      1.120      2.012
REMARK INTER + INTRA:         -24.772
REMARK INTER:                 -17.939
REMARK INTRA:                  -6.834
REMARK UNBOUND:                -7.807
REMARK SMILES CCCCCCC[C@H](N)[C@H](O)C(=O)N[C@H](C)C(=O)N(C)[C@H](CC(C)C)C(=O)N[C@@H](Cc1ccc(O)cc1)C(=O)N[C@@H](Cc1ccc(O)cc1)C(=O)O
REMARK SMILES IDX 18 1 17 2 15 3 16 4 14 5 12 6 13 7 10 9 11 10 8 12 9 13 7 16
REMARK SMILES IDX 6 17 5 18 4 19 3 20 2 21 1 22 19 23 20 24 21 25 22 26 23 27
REMARK SMILES IDX 24 28 25 29 26 30 27 31 28 32 29 34 30 35 31 36 32 37 37 38
REMARK SMILES IDX 33 39 36 40 34 41 35 42 38 44 39 45 40 46 41 48 42 49 43 50
REMARK SMILES IDX 44 51 49 52 45 53 48 54 46 55 47 56 50 58 51 59 52 60
REMARK H PARENT 14 8 11 11 9 14 9 15 28 33 35 43 40 47 47 57 52 61
ROOT
ATOM      1  O   UNL     1     -10.376  -5.235  10.204  1.00  0.00    -0.272 OA
ATOM      2  C   UNL     1      -9.612  -4.845  11.099  1.00  0.00     0.245 C 
ENDROOT
BRANCH   2   3
ATOM      3  C   UNL     1      -8.837  -5.902  11.925  1.00  0.00     0.168 C 
ATOM      4  C   UNL     1      -9.799  -6.813  12.678  1.00  0.00     0.041 C 
BRANCH   3   5
ATOM      5  N   UNL     1      -7.849  -6.660  11.173  1.00  0.00    -0.342 N 
ATOM      6  C   UNL     1      -6.500  -6.573  11.448  1.00  0.00     0.251 C 
ATOM      7  O   UNL     1      -6.032  -5.831  12.305  1.00  0.00    -0.272 OA
ATOM      8  H   UNL     1      -8.115  -7.284  10.414  1.00  0.00     0.164 HD
BRANCH   6   9
ATOM      9  C   UNL     1      -5.661  -7.565  10.628  1.00  0.00     0.219 C 
BRANCH   9  10
ATOM     10  O   UNL     1      -6.430  -8.674  10.147  1.00  0.00    -0.382 OA
ATOM     11  H   UNL     1      -6.021  -8.879   9.277  1.00  0.00     0.211 HD
ENDBRANCH   9  10
BRANCH   9  12
ATOM     12  C   UNL     1      -4.881  -6.891   9.469  1.00  0.00     0.089 C 
BRANCH  12  13
ATOM     13  N   UNL     1      -5.540  -5.604   9.149  1.00  0.00    -0.325 NA
ATOM     14  H   UNL     1      -5.004  -4.840   9.567  1.00  0.00     0.119 HD
ATOM     15  H   UNL     1      -6.451  -5.575   9.612  1.00  0.00     0.119 HD
ENDBRANCH  12  13
BRANCH  12  16
ATOM     16  C   UNL     1      -3.368  -6.670   9.707  1.00  0.00     0.022 C 
BRANCH  16  17
ATOM     17  C   UNL     1      -2.792  -5.253   9.584  1.00  0.00     0.002 C 
BRANCH  17  18
ATOM     18  C   UNL     1      -1.857  -4.836  10.717  1.00  0.00     0.000 C 
BRANCH  18  19
ATOM     19  C   UNL     1      -1.270  -6.013  11.507  1.00  0.00    -0.000 C 
BRANCH  19  20
ATOM     20  C   UNL     1       0.135  -6.447  11.080  1.00  0.00    -0.000 C 
BRANCH  20  21
ATOM     21  C   UNL     1       1.240  -5.845  11.951  1.00  0.00    -0.003 C 
ATOM     22  C   UNL     1       1.806  -4.577  11.330  1.00  0.00     0.004 C 
ENDBRANCH  20  21
ENDBRANCH  19  20
ENDBRANCH  18  19
ENDBRANCH  17  18
ENDBRANCH  16  17
ENDBRANCH  12  16
ENDBRANCH   9  12
ENDBRANCH   6   9
ENDBRANCH   3   5
ENDBRANCH   2   3
BRANCH   2  23
ATOM     23  N   UNL     1      -9.371  -3.485  11.265  1.00  0.00    -0.332 N 
ATOM     24  C   UNL     1     -10.129  -2.614  12.151  1.00  0.00     0.147 C 
BRANCH  23  25
ATOM     25  C   UNL     1      -8.196  -2.845  10.612  1.00  0.00     0.174 C 
BRANCH  25  26
ATOM     26  C   UNL     1      -7.751  -1.543  11.318  1.00  0.00     0.038 C 
BRANCH  26  27
ATOM     27  C   UNL     1      -6.251  -1.179  11.235  1.00  0.00    -0.015 C 
ATOM     28  C   UNL     1      -5.352  -2.414  11.196  1.00  0.00     0.007 C 
ATOM     29  C   UNL     1      -5.918  -0.235  10.082  1.00  0.00     0.007 C 
ENDBRANCH  26  27
ENDBRANCH  25  26
BRANCH  25  30
ATOM     30  C   UNL     1      -8.456  -2.674   9.098  1.00  0.00     0.243 C 
ATOM     31  O   UNL     1      -9.546  -2.306   8.663  1.00  0.00    -0.273 OA
ATOM     32  N   UNL     1      -7.397  -2.966   8.278  1.00  0.00    -0.342 N 
ATOM     33  H   UNL     1      -6.487  -3.128   8.718  1.00  0.00     0.164 HD
BRANCH  32  34
ATOM     34  C   UNL     1      -7.469  -2.887   6.816  1.00  0.00     0.175 C 
BRANCH  34  35
ATOM     35  C   UNL     1      -6.088  -2.608   6.203  1.00  0.00     0.070 C 
BRANCH  35  36
ATOM     36  C   UNL     1      -6.152  -1.664   5.023  1.00  0.00    -0.045 A 
ATOM     37  C   UNL     1      -6.166  -2.174   3.716  1.00  0.00     0.007 A 
ATOM     38  C   UNL     1      -6.175  -0.276   5.214  1.00  0.00     0.007 A 
ATOM     39  C   UNL     1      -6.211  -1.310   2.621  1.00  0.00     0.046 A 
ATOM     40  C   UNL     1      -6.218   0.589   4.118  1.00  0.00     0.046 A 
ATOM     41  C   UNL     1      -6.237   0.063   2.830  1.00  0.00     0.115 A 
BRANCH  41  42
ATOM     42  O   UNL     1      -6.278   0.873   1.734  1.00  0.00    -0.508 OA
ATOM     43  H   UNL     1      -6.011   0.350   0.959  1.00  0.00     0.293 HD
ENDBRANCH  41  42
ENDBRANCH  35  36
ENDBRANCH  34  35
BRANCH  34  44
ATOM     44  C   UNL     1      -8.076  -4.209   6.294  1.00  0.00     0.243 C 
ATOM     45  O   UNL     1      -9.254  -4.354   5.980  1.00  0.00    -0.273 OA
ATOM     46  N   UNL     1      -7.196  -5.270   6.333  1.00  0.00    -0.341 N 
ATOM     47  H   UNL     1      -6.264  -5.125   6.713  1.00  0.00     0.164 HD
BRANCH  46  48
ATOM     48  C   UNL     1      -7.564  -6.635   5.953  1.00  0.00     0.196 C 
BRANCH  48  49
ATOM     49  C   UNL     1      -6.507  -7.263   5.030  1.00  0.00     0.072 C 
BRANCH  49  50
ATOM     50  C   UNL     1      -5.143  -6.632   5.193  1.00  0.00    -0.045 A 
ATOM     51  C   UNL     1      -4.840  -5.438   4.523  1.00  0.00     0.007 A 
ATOM     52  C   UNL     1      -4.161  -7.234   5.991  1.00  0.00     0.007 A 
ATOM     53  C   UNL     1      -3.581  -4.853   4.656  1.00  0.00     0.046 A 
ATOM     54  C   UNL     1      -2.899  -6.650   6.122  1.00  0.00     0.046 A 
ATOM     55  C   UNL     1      -2.620  -5.463   5.454  1.00  0.00     0.115 A 
BRANCH  55  56
ATOM     56  O   UNL     1      -1.401  -4.860   5.556  1.00  0.00    -0.508 OA
ATOM     57  H   UNL     1      -1.084  -4.964   6.467  1.00  0.00     0.293 HD
ENDBRANCH  55  56
ENDBRANCH  49  50
ENDBRANCH  48  49
BRANCH  48  58
ATOM     58  C   UNL     1      -7.708  -7.485   7.224  1.00  0.00     0.326 C 
ATOM     59  O   UNL     1      -7.404  -8.659   7.366  1.00  0.00    -0.250 OA
BRANCH  58  60
ATOM     60  O   UNL     1      -8.223  -6.802   8.276  1.00  0.00    -0.480 OA
ATOM     61  H   UNL     1      -7.450  -6.682   8.869  1.00  0.00     0.296 HD
ENDBRANCH  58  60
ENDBRANCH  48  58
ENDBRANCH  46  48
ENDBRANCH  34  44
ENDBRANCH  32  34
ENDBRANCH  25  30
ENDBRANCH  23  25
ENDBRANCH   2  23
TORSDOF 28
ENDMDL
MODEL 4
REMARK VINA RESULT:    -6.673      2.362      5.161
REMARK INTER + INTRA:         -24.427
REMARK INTER:                 -19.412
REMARK INTRA:                  -5.015
REMARK UNBOUND:                -7.807
REMARK SMILES CCCCCCC[C@H](N)[C@H](O)C(=O)N[C@H](C)C(=O)N(C)[C@H](CC(C)C)C(=O)N[C@@H](Cc1ccc(O)cc1)C(=O)N[C@@H](Cc1ccc(O)cc1)C(=O)O
REMARK SMILES IDX 18 1 17 2 15 3 16 4 14 5 12 6 13 7 10 9 11 10 8 12 9 13 7 16
REMARK SMILES IDX 6 17 5 18 4 19 3 20 2 21 1 22 19 23 20 24 21 25 22 26 23 27
REMARK SMILES IDX 24 28 25 29 26 30 27 31 28 32 29 34 30 35 31 36 32 37 37 38
REMARK SMILES IDX 33 39 36 40 34 41 35 42 38 44 39 45 40 46 41 48 42 49 43 50
REMARK SMILES IDX 44 51 49 52 45 53 48 54 46 55 47 56 50 58 51 59 52 60
REMARK H PARENT 14 8 11 11 9 14 9 15 28 33 35 43 40 47 47 57 52 61
ROOT
ATOM      1  O   UNL     1      -9.471  -6.930   8.222  1.00  0.00    -0.272 OA
ATOM      2  C   UNL     1      -8.360  -6.900   8.771  1.00  0.00     0.245 C 
ENDROOT
BRANCH   2   3
ATOM      3  C   UNL     1      -7.557  -8.219   8.893  1.00  0.00     0.168 C 
ATOM      4  C   UNL     1      -7.085  -8.694   7.524  1.00  0.00     0.041 C 
BRANCH   3   5
ATOM      5  N   UNL     1      -6.471  -8.186   9.860  1.00  0.00    -0.342 N 
ATOM      6  C   UNL     1      -6.699  -8.296  11.216  1.00  0.00     0.251 C 
ATOM      7  O   UNL     1      -7.819  -8.386  11.708  1.00  0.00    -0.272 OA
ATOM      8  H   UNL     1      -5.501  -8.080   9.573  1.00  0.00     0.164 HD
BRANCH   6   9
ATOM      9  C   UNL     1      -5.400  -8.380  12.032  1.00  0.00     0.219 C 
BRANCH   9  10
ATOM     10  O   UNL     1      -4.366  -9.102  11.353  1.00  0.00    -0.382 OA
ATOM     11  H   UNL     1      -4.517 -10.034  11.627  1.00  0.00     0.211 HD
ENDBRANCH   9  10
BRANCH   9  12
ATOM     12  C   UNL     1      -4.886  -6.994  12.503  1.00  0.00     0.089 C 
BRANCH  12  13
ATOM     13  N   UNL     1      -5.965  -6.331  13.270  1.00  0.00    -0.325 NA
ATOM     14  H   UNL     1      -5.611  -6.069  14.191  1.00  0.00     0.119 HD
ATOM     15  H   UNL     1      -6.707  -7.011  13.453  1.00  0.00     0.119 HD
ENDBRANCH  12  13
BRANCH  12  16
ATOM     16  C   UNL     1      -3.576  -7.001  13.327  1.00  0.00     0.022 C 
BRANCH  16  17
ATOM     17  C   UNL     1      -2.386  -6.160  12.846  1.00  0.00     0.002 C 
BRANCH  17  18
ATOM     18  C   UNL     1      -1.021  -6.826  12.999  1.00  0.00     0.000 C 
BRANCH  18  19
ATOM     19  C   UNL     1      -0.386  -7.262  11.672  1.00  0.00    -0.000 C 
BRANCH  19  20
ATOM     20  C   UNL     1       0.415  -6.177  10.947  1.00  0.00    -0.000 C 
BRANCH  20  21
ATOM     21  C   UNL     1       1.529  -5.577  11.809  1.00  0.00    -0.003 C 
ATOM     22  C   UNL     1       2.039  -4.269  11.226  1.00  0.00     0.004 C 
ENDBRANCH  20  21
ENDBRANCH  19  20
ENDBRANCH  18  19
ENDBRANCH  17  18
ENDBRANCH  16  17
ENDBRANCH  12  16
ENDBRANCH   9  12
ENDBRANCH   6   9
ENDBRANCH   3   5
ENDBRANCH   2   3
BRANCH   2  23
ATOM     23  N   UNL     1      -7.806  -5.683   9.153  1.00  0.00    -0.332 N 
ATOM     24  C   UNL     1      -8.196  -4.933  10.339  1.00  0.00     0.147 C 
BRANCH  23  25
ATOM     25  C   UNL     1      -6.648  -5.118   8.408  1.00  0.00     0.174 C 
BRANCH  25  26
ATOM     26  C   UNL     1      -5.383  -4.967   9.285  1.00  0.00     0.038 C 
BRANCH  26  27
ATOM     27  C   UNL     1      -4.029  -5.317   8.628  1.00  0.00    -0.015 C 
ATOM     28  C   UNL     1      -3.074  -4.125   8.587  1.00  0.00     0.007 C 
ATOM     29  C   UNL     1      -3.347  -6.532   9.252  1.00  0.00     0.007 C 
ENDBRANCH  26  27
ENDBRANCH  25  26
BRANCH  25  30
ATOM     30  C   UNL     1      -7.063  -3.814   7.688  1.00  0.00     0.243 C 
ATOM     31  O   UNL     1      -7.954  -3.796   6.840  1.00  0.00    -0.273 OA
ATOM     32  N   UNL     1      -6.371  -2.688   8.053  1.00  0.00    -0.342 N 
ATOM     33  H   UNL     1      -5.747  -2.757   8.861  1.00  0.00     0.164 HD
BRANCH  32  34
ATOM     34  C   UNL     1      -6.610  -1.371   7.456  1.00  0.00     0.175 C 
BRANCH  34  35
ATOM     35  C   UNL     1      -6.297  -0.243   8.450  1.00  0.00     0.070 C 
BRANCH  35  36
ATOM     36  C   UNL     1      -7.376  -0.067   9.495  1.00  0.00    -0.045 A 
ATOM     37  C   UNL     1      -8.255   1.024   9.420  1.00  0.00     0.007 A 
ATOM     38  C   UNL     1      -7.501  -0.971  10.558  1.00  0.00     0.007 A 
ATOM     39  C   UNL     1      -9.245   1.202  10.387  1.00  0.00     0.046 A 
ATOM     40  C   UNL     1      -8.492  -0.793  11.527  1.00  0.00     0.046 A 
ATOM     41  C   UNL     1      -9.356   0.293  11.431  1.00  0.00     0.115 A 
BRANCH  41  42
ATOM     42  O   UNL     1     -10.335   0.504  12.357  1.00  0.00    -0.508 OA
ATOM     43  H   UNL     1     -10.930  -0.263  12.351  1.00  0.00     0.293 HD
ENDBRANCH  41  42
ENDBRANCH  35  36
ENDBRANCH  34  35
BRANCH  34  44
ATOM     44  C   UNL     1      -5.755  -1.264   6.173  1.00  0.00     0.243 C 
ATOM     45  O   UNL     1      -4.658  -0.716   6.114  1.00  0.00    -0.273 OA
ATOM     46  N   UNL     1      -6.397  -1.732   5.046  1.00  0.00    -0.341 N 
ATOM     47  H   UNL     1      -7.353  -2.070   5.126  1.00  0.00     0.164 HD
BRANCH  46  48
ATOM     48  C   UNL     1      -5.814  -1.672   3.704  1.00  0.00     0.196 C 
BRANCH  48  49
ATOM     49  C   UNL     1      -6.007  -2.999   2.950  1.00  0.00     0.072 C 
BRANCH  49  50
ATOM     50  C   UNL     1      -5.507  -4.191   3.734  1.00  0.00    -0.045 A 
ATOM     51  C   UNL     1      -6.372  -5.262   4.004  1.00  0.00     0.007 A 
ATOM     52  C   UNL     1      -4.193  -4.237   4.216  1.00  0.00     0.007 A 
ATOM     53  C   UNL     1      -5.926  -6.361   4.738  1.00  0.00     0.046 A 
ATOM     54  C   UNL     1      -3.747  -5.338   4.952  1.00  0.00     0.046 A 
ATOM     55  C   UNL     1      -4.618  -6.392   5.206  1.00  0.00     0.115 A 
BRANCH  55  56
ATOM     56  O   UNL     1      -4.222  -7.483   5.920  1.00  0.00    -0.508 OA
ATOM     57  H   UNL     1      -4.883  -8.184   5.799  1.00  0.00     0.293 HD
ENDBRANCH  55  56
ENDBRANCH  49  50
ENDBRANCH  48  49
BRANCH  48  58
ATOM     58  C   UNL     1      -6.481  -0.533   2.920  1.00  0.00     0.326 C 
ATOM     59  O   UNL     1      -6.866   0.539   3.358  1.00  0.00    -0.250 OA
BRANCH  58  60
ATOM     60  O   UNL     1      -6.619  -0.796   1.596  1.00  0.00    -0.480 OA
ATOM     61  H   UNL     1      -7.552  -1.091   1.520  1.00  0.00     0.296 HD
ENDBRANCH  58  60
ENDBRANCH  48  58
ENDBRANCH  46  48
ENDBRANCH  34  44
ENDBRANCH  32  34
ENDBRANCH  25  30
ENDBRANCH  23  25
ENDBRANCH   2  23
TORSDOF 28
ENDMDL
MODEL 5
REMARK VINA RESULT:    -6.614      2.262      3.948
REMARK INTER + INTRA:         -24.279
REMARK INTER:                 -18.575
REMARK INTRA:                  -5.704
REMARK UNBOUND:                -7.807
REMARK SMILES CCCCCCC[C@H](N)[C@H](O)C(=O)N[C@H](C)C(=O)N(C)[C@H](CC(C)C)C(=O)N[C@@H](Cc1ccc(O)cc1)C(=O)N[C@@H](Cc1ccc(O)cc1)C(=O)O
REMARK SMILES IDX 18 1 17 2 15 3 16 4 14 5 12 6 13 7 10 9 11 10 8 12 9 13 7 16
REMARK SMILES IDX 6 17 5 18 4 19 3 20 2 21 1 22 19 23 20 24 21 25 22 26 23 27
REMARK SMILES IDX 24 28 25 29 26 30 27 31 28 32 29 34 30 35 31 36 32 37 37 38
REMARK SMILES IDX 33 39 36 40 34 41 35 42 38 44 39 45 40 46 41 48 42 49 43 50
REMARK SMILES IDX 44 51 49 52 45 53 48 54 46 55 47 56 50 58 51 59 52 60
REMARK H PARENT 14 8 11 11 9 14 9 15 28 33 35 43 40 47 47 57 52 61
ROOT
ATOM      1  O   UNL     1      -6.281  -4.661  10.616  1.00  0.00    -0.272 OA
ATOM      2  C   UNL     1      -6.693  -3.492  10.652  1.00  0.00     0.245 C 
ENDROOT
BRANCH   2   3
ATOM      3  C   UNL     1      -5.668  -2.352  10.875  1.00  0.00     0.168 C 
ATOM      4  C   UNL     1      -5.172  -2.344  12.316  1.00  0.00     0.041 C 
BRANCH   3   5
ATOM      5  N   UNL     1      -4.569  -2.324   9.922  1.00  0.00    -0.342 N 
ATOM      6  C   UNL     1      -4.428  -1.306   9.003  1.00  0.00     0.251 C 
ATOM      7  O   UNL     1      -5.227  -0.383   8.888  1.00  0.00    -0.272 OA
ATOM      8  H   UNL     1      -3.861  -3.055   9.898  1.00  0.00     0.164 HD
BRANCH   6   9
ATOM      9  C   UNL     1      -3.122  -1.408   8.199  1.00  0.00     0.219 C 
BRANCH   9  10
ATOM     10  O   UNL     1      -3.075  -0.487   7.103  1.00  0.00    -0.382 OA
ATOM     11  H   UNL     1      -3.090  -1.069   6.311  1.00  0.00     0.211 HD
ENDBRANCH   9  10
BRANCH   9  12
ATOM     12  C   UNL     1      -1.852  -1.280   9.081  1.00  0.00     0.089 C 
BRANCH  12  13
ATOM     13  N   UNL     1      -2.237  -0.648  10.364  1.00  0.00    -0.325 NA
ATOM     14  H   UNL     1      -2.485   0.329  10.197  1.00  0.00     0.119 HD
ATOM     15  H   UNL     1      -1.418  -0.614  10.975  1.00  0.00     0.119 HD
ENDBRANCH  12  13
BRANCH  12  16
ATOM     16  C   UNL     1      -1.076  -2.591   9.346  1.00  0.00     0.022 C 
BRANCH  16  17
ATOM     17  C   UNL     1       0.270  -2.527  10.081  1.00  0.00     0.002 C 
BRANCH  17  18
ATOM     18  C   UNL     1       1.212  -3.697   9.806  1.00  0.00     0.000 C 
BRANCH  18  19
ATOM     19  C   UNL     1       1.995  -4.172  11.037  1.00  0.00    -0.000 C 
BRANCH  19  20
ATOM     20  C   UNL     1       1.412  -5.398  11.745  1.00  0.00    -0.000 C 
BRANCH  20  21
ATOM     21  C   UNL     1       0.563  -6.276  10.822  1.00  0.00    -0.003 C 
ATOM     22  C   UNL     1      -0.384  -7.162  11.617  1.00  0.00     0.004 C 
ENDBRANCH  20  21
ENDBRANCH  19  20
ENDBRANCH  18  19
ENDBRANCH  17  18
ENDBRANCH  16  17
ENDBRANCH  12  16
ENDBRANCH   9  12
ENDBRANCH   6   9
ENDBRANCH   3   5
ENDBRANCH   2   3
BRANCH   2  23
ATOM     23  N   UNL     1      -8.027  -3.216  10.373  1.00  0.00    -0.332 N 
ATOM     24  C   UNL     1      -9.157  -3.875  11.011  1.00  0.00     0.147 C 
BRANCH  23  25
ATOM     25  C   UNL     1      -8.388  -2.097   9.461  1.00  0.00     0.174 C 
BRANCH  25  26
ATOM     26  C   UNL     1      -9.727  -1.421   9.838  1.00  0.00     0.038 C 
BRANCH  26  27
ATOM     27  C   UNL     1      -9.645  -0.057  10.559  1.00  0.00    -0.015 C 
ATOM     28  C   UNL     1      -9.433  -0.205  12.066  1.00  0.00     0.007 C 
ATOM     29  C   UNL     1      -8.603   0.885   9.961  1.00  0.00     0.007 C 
ENDBRANCH  26  27
ENDBRANCH  25  26
BRANCH  25  30
ATOM     30  C   UNL     1      -8.321  -2.566   7.990  1.00  0.00     0.243 C 
ATOM     31  O   UNL     1      -9.331  -2.681   7.297  1.00  0.00    -0.273 OA
ATOM     32  N   UNL     1      -7.067  -2.851   7.515  1.00  0.00    -0.342 N 
ATOM     33  H   UNL     1      -6.269  -2.597   8.102  1.00  0.00     0.164 HD
BRANCH  32  34
ATOM     34  C   UNL     1      -6.815  -3.335   6.154  1.00  0.00     0.175 C 
BRANCH  34  35
ATOM     35  C   UNL     1      -5.499  -2.773   5.596  1.00  0.00     0.070 C 
BRANCH  35  36
ATOM     36  C   UNL     1      -5.717  -1.734   4.519  1.00  0.00    -0.045 A 
ATOM     37  C   UNL     1      -5.764  -2.120   3.171  1.00  0.00     0.007 A 
ATOM     38  C   UNL     1      -5.851  -0.378   4.844  1.00  0.00     0.007 A 
ATOM     39  C   UNL     1      -5.951  -1.167   2.169  1.00  0.00     0.046 A 
ATOM     40  C   UNL     1      -6.036   0.577   3.842  1.00  0.00     0.046 A 
ATOM     41  C   UNL     1      -6.086   0.172   2.512  1.00  0.00     0.115 A 
BRANCH  41  42
ATOM     42  O   UNL     1      -6.263   1.072   1.503  1.00  0.00    -0.508 OA
ATOM     43  H   UNL     1      -7.098   1.544   1.659  1.00  0.00     0.293 HD
ENDBRANCH  41  42
ENDBRANCH  35  36
ENDBRANCH  34  35
BRANCH  34  44
ATOM     44  C   UNL     1      -6.816  -4.880   6.188  1.00  0.00     0.243 C 
ATOM     45  O   UNL     1      -7.244  -5.593   5.285  1.00  0.00    -0.273 OA
ATOM     46  N   UNL     1      -6.405  -5.403   7.395  1.00  0.00    -0.341 N 
ATOM     47  H   UNL     1      -6.170  -4.768   8.154  1.00  0.00     0.164 HD
BRANCH  46  48
ATOM     48  C   UNL     1      -6.386  -6.838   7.688  1.00  0.00     0.196 C 
BRANCH  48  49
ATOM     49  C   UNL     1      -5.121  -7.234   8.468  1.00  0.00     0.072 C 
BRANCH  49  50
ATOM     50  C   UNL     1      -3.855  -6.708   7.830  1.00  0.00    -0.045 A 
ATOM     51  C   UNL     1      -3.583  -6.988   6.483  1.00  0.00     0.007 A 
ATOM     52  C   UNL     1      -2.932  -5.959   8.571  1.00  0.00     0.007 A 
ATOM     53  C   UNL     1      -2.412  -6.520   5.888  1.00  0.00     0.046 A 
ATOM     54  C   UNL     1      -1.759  -5.491   7.975  1.00  0.00     0.046 A 
ATOM     55  C   UNL     1      -1.510  -5.775   6.637  1.00  0.00     0.115 A 
BRANCH  55  56
ATOM     56  O   UNL     1      -0.376  -5.338   6.017  1.00  0.00    -0.508 OA
ATOM     57  H   UNL     1       0.107  -6.110   5.683  1.00  0.00     0.293 HD
ENDBRANCH  55  56
ENDBRANCH  49  50
ENDBRANCH  48  49
BRANCH  48  58
ATOM     58  C   UNL     1      -7.632  -7.196   8.509  1.00  0.00     0.326 C 
ATOM     59  O   UNL     1      -8.720  -7.549   8.086  1.00  0.00    -0.250 OA
BRANCH  58  60
ATOM     60  O   UNL     1      -7.440  -7.107   9.850  1.00  0.00    -0.480 OA
ATOM     61  H   UNL     1      -8.282  -6.718  10.173  1.00  0.00     0.296 HD
ENDBRANCH  58  60
ENDBRANCH  48  58
ENDBRANCH  46  48
ENDBRANCH  34  44
ENDBRANCH  32  34
ENDBRANCH  25  30
ENDBRANCH  23  25
ENDBRANCH   2  23
TORSDOF 28
ENDMDL
MODEL 6
REMARK VINA RESULT:    -6.611      1.962      5.616
REMARK INTER + INTRA:         -24.274
REMARK INTER:                 -18.217
REMARK INTRA:                  -6.057
REMARK UNBOUND:                -7.807
REMARK SMILES CCCCCCC[C@H](N)[C@H](O)C(=O)N[C@H](C)C(=O)N(C)[C@H](CC(C)C)C(=O)N[C@@H](Cc1ccc(O)cc1)C(=O)N[C@@H](Cc1ccc(O)cc1)C(=O)O
REMARK SMILES IDX 18 1 17 2 15 3 16 4 14 5 12 6 13 7 10 9 11 10 8 12 9 13 7 16
REMARK SMILES IDX 6 17 5 18 4 19 3 20 2 21 1 22 19 23 20 24 21 25 22 26 23 27
REMARK SMILES IDX 24 28 25 29 26 30 27 31 28 32 29 34 30 35 31 36 32 37 37 38
REMARK SMILES IDX 33 39 36 40 34 41 35 42 38 44 39 45 40 46 41 48 42 49 43 50
REMARK SMILES IDX 44 51 49 52 45 53 48 54 46 55 47 56 50 58 51 59 52 60
REMARK H PARENT 14 8 11 11 9 14 9 15 28 33 35 43 40 47 47 57 52 61
ROOT
ATOM      1  O   UNL     1      -8.996  -7.185   8.228  1.00  0.00    -0.272 OA
ATOM      2  C   UNL     1      -8.633  -6.922   9.384  1.00  0.00     0.245 C 
ENDROOT
BRANCH   2   3
ATOM      3  C   UNL     1      -9.084  -5.581  10.015  1.00  0.00     0.168 C 
ATOM      4  C   UNL     1      -9.221  -5.713  11.528  1.00  0.00     0.041 C 
BRANCH   3   5
ATOM      5  N   UNL     1      -8.278  -4.429   9.643  1.00  0.00    -0.342 N 
ATOM      6  C   UNL     1      -8.819  -3.165   9.538  1.00  0.00     0.251 C 
ATOM      7  O   UNL     1     -10.010  -2.923   9.705  1.00  0.00    -0.272 OA
ATOM      8  H   UNL     1      -7.283  -4.511   9.445  1.00  0.00     0.164 HD
BRANCH   6   9
ATOM      9  C   UNL     1      -7.759  -2.084   9.274  1.00  0.00     0.219 C 
BRANCH   9  10
ATOM     10  O   UNL     1      -6.436  -2.513   9.617  1.00  0.00    -0.382 OA
ATOM     11  H   UNL     1      -6.283  -2.107  10.499  1.00  0.00     0.211 HD
ENDBRANCH   9  10
BRANCH   9  12
ATOM     12  C   UNL     1      -7.800  -1.530   7.826  1.00  0.00     0.089 C 
BRANCH  12  13
ATOM     13  N   UNL     1      -9.210  -1.240   7.476  1.00  0.00    -0.325 NA
ATOM     14  H   UNL     1      -9.242  -0.431   6.854  1.00  0.00     0.119 HD
ATOM     15  H   UNL     1      -9.707  -0.947   8.321  1.00  0.00     0.119 HD
ENDBRANCH  12  13
BRANCH  12  16
ATOM     16  C   UNL     1      -6.918  -0.290   7.548  1.00  0.00     0.022 C 
BRANCH  16  17
ATOM     17  C   UNL     1      -5.678  -0.440   6.656  1.00  0.00     0.002 C 
BRANCH  17  18
ATOM     18  C   UNL     1      -4.357  -0.589   7.408  1.00  0.00     0.000 C 
BRANCH  18  19
ATOM     19  C   UNL     1      -3.639  -1.920   7.151  1.00  0.00    -0.000 C 
BRANCH  19  20
ATOM     20  C   UNL     1      -2.285  -2.074   7.849  1.00  0.00    -0.000 C 
BRANCH  20  21
ATOM     21  C   UNL     1      -2.381  -1.974   9.374  1.00  0.00    -0.003 C 
ATOM     22  C   UNL     1      -1.077  -1.480   9.981  1.00  0.00     0.004 C 
ENDBRANCH  20  21
ENDBRANCH  19  20
ENDBRANCH  18  19
ENDBRANCH  17  18
ENDBRANCH  16  17
ENDBRANCH  12  16
ENDBRANCH   9  12
ENDBRANCH   6   9
ENDBRANCH   3   5
ENDBRANCH   2   3
BRANCH   2  23
ATOM     23  N   UNL     1      -7.942  -7.871  10.129  1.00  0.00    -0.332 N 
ATOM     24  C   UNL     1      -8.543  -9.063  10.709  1.00  0.00     0.147 C 
BRANCH  23  25
ATOM     25  C   UNL     1      -6.463  -7.781  10.274  1.00  0.00     0.174 C 
BRANCH  25  26
ATOM     26  C   UNL     1      -6.028  -7.021  11.549  1.00  0.00     0.038 C 
BRANCH  26  27
ATOM     27  C   UNL     1      -4.858  -7.625  12.358  1.00  0.00    -0.015 C 
ATOM     28  C   UNL     1      -4.069  -8.662  11.560  1.00  0.00     0.007 C 
ATOM     29  C   UNL     1      -3.921  -6.573  12.946  1.00  0.00     0.007 C 
ENDBRANCH  26  27
ENDBRANCH  25  26
BRANCH  25  30
ATOM     30  C   UNL     1      -5.834  -7.226   8.975  1.00  0.00     0.243 C 
ATOM     31  O   UNL     1      -5.939  -7.814   7.899  1.00  0.00    -0.273 OA
ATOM     32  N   UNL     1      -5.150  -6.045   9.105  1.00  0.00    -0.342 N 
ATOM     33  H   UNL     1      -5.227  -5.548   9.996  1.00  0.00     0.164 HD
BRANCH  32  34
ATOM     34  C   UNL     1      -4.467  -5.387   7.987  1.00  0.00     0.175 C 
BRANCH  34  35
ATOM     35  C   UNL     1      -3.358  -6.277   7.408  1.00  0.00     0.070 C 
BRANCH  35  36
ATOM     36  C   UNL     1      -1.971  -5.764   7.725  1.00  0.00    -0.045 A 
ATOM     37  C   UNL     1      -1.585  -5.562   9.058  1.00  0.00     0.007 A 
ATOM     38  C   UNL     1      -1.064  -5.464   6.700  1.00  0.00     0.007 A 
ATOM     39  C   UNL     1      -0.313  -5.075   9.360  1.00  0.00     0.046 A 
ATOM     40  C   UNL     1       0.210  -4.976   7.001  1.00  0.00     0.046 A 
ATOM     41  C   UNL     1       0.574  -4.787   8.330  1.00  0.00     0.115 A 
BRANCH  41  42
ATOM     42  O   UNL     1       1.807  -4.311   8.667  1.00  0.00    -0.508 OA
ATOM     43  H   UNL     1       1.919  -3.438   8.256  1.00  0.00     0.293 HD
ENDBRANCH  41  42
ENDBRANCH  35  36
ENDBRANCH  34  35
BRANCH  34  44
ATOM     44  C   UNL     1      -5.529  -5.023   6.925  1.00  0.00     0.243 C 
ATOM     45  O   UNL     1      -6.537  -4.359   7.151  1.00  0.00    -0.273 OA
ATOM     46  N   UNL     1      -5.313  -5.626   5.704  1.00  0.00    -0.341 N 
ATOM     47  H   UNL     1      -4.526  -6.262   5.600  1.00  0.00     0.164 HD
BRANCH  46  48
ATOM     48  C   UNL     1      -6.222  -5.485   4.564  1.00  0.00     0.196 C 
BRANCH  48  49
ATOM     49  C   UNL     1      -5.465  -5.064   3.293  1.00  0.00     0.072 C 
BRANCH  49  50
ATOM     50  C   UNL     1      -5.780  -3.647   2.871  1.00  0.00    -0.045 A 
ATOM     51  C   UNL     1      -5.613  -3.263   1.532  1.00  0.00     0.007 A 
ATOM     52  C   UNL     1      -6.220  -2.698   3.802  1.00  0.00     0.007 A 
ATOM     53  C   UNL     1      -5.889  -1.955   1.133  1.00  0.00     0.046 A 
ATOM     54  C   UNL     1      -6.495  -1.388   3.403  1.00  0.00     0.046 A 
ATOM     55  C   UNL     1      -6.328  -1.028   2.070  1.00  0.00     0.115 A 
BRANCH  55  56
ATOM     56  O   UNL     1      -6.585   0.240   1.640  1.00  0.00    -0.508 OA
ATOM     57  H   UNL     1      -6.412   0.280   0.686  1.00  0.00     0.293 HD
ENDBRANCH  55  56
ENDBRANCH  49  50
ENDBRANCH  48  49
BRANCH  48  58
ATOM     58  C   UNL     1      -6.929  -6.825   4.321  1.00  0.00     0.326 C 
ATOM     59  O   UNL     1      -6.875  -7.519   3.318  1.00  0.00    -0.250 OA
BRANCH  58  60
ATOM     60  O   UNL     1      -7.673  -7.244   5.376  1.00  0.00    -0.480 OA
ATOM     61  H   UNL     1      -8.577  -6.929   5.154  1.00  0.00     0.296 HD
ENDBRANCH  58  60
ENDBRANCH  48  58
ENDBRANCH  46  48
ENDBRANCH  34  44
ENDBRANCH  32  34
ENDBRANCH  25  30
ENDBRANCH  23  25
ENDBRANCH   2  23
TORSDOF 28
ENDMDL
MODEL 7
REMARK VINA RESULT:    -6.609      2.529      4.670
REMARK INTER + INTRA:         -24.268
REMARK INTER:                 -19.047
REMARK INTRA:                  -5.221
REMARK UNBOUND:                -7.807
REMARK SMILES CCCCCCC[C@H](N)[C@H](O)C(=O)N[C@H](C)C(=O)N(C)[C@H](CC(C)C)C(=O)N[C@@H](Cc1ccc(O)cc1)C(=O)N[C@@H](Cc1ccc(O)cc1)C(=O)O
REMARK SMILES IDX 18 1 17 2 15 3 16 4 14 5 12 6 13 7 10 9 11 10 8 12 9 13 7 16
REMARK SMILES IDX 6 17 5 18 4 19 3 20 2 21 1 22 19 23 20 24 21 25 22 26 23 27
REMARK SMILES IDX 24 28 25 29 26 30 27 31 28 32 29 34 30 35 31 36 32 37 37 38
REMARK SMILES IDX 33 39 36 40 34 41 35 42 38 44 39 45 40 46 41 48 42 49 43 50
REMARK SMILES IDX 44 51 49 52 45 53 48 54 46 55 47 56 50 58 51 59 52 60
REMARK H PARENT 14 8 11 11 9 14 9 15 28 33 35 43 40 47 47 57 52 61
ROOT
ATOM      1  O   UNL     1      -4.029   0.545  10.106  1.00  0.00    -0.272 OA
ATOM      2  C   UNL     1      -4.391  -0.466   9.487  1.00  0.00     0.245 C 
ENDROOT
BRANCH   2   3
ATOM      3  C   UNL     1      -3.403  -1.114   8.485  1.00  0.00     0.168 C 
ATOM      4  C   UNL     1      -2.539  -0.052   7.813  1.00  0.00     0.041 C 
BRANCH   3   5
ATOM      5  N   UNL     1      -2.601  -2.198   9.031  1.00  0.00    -0.342 N 
ATOM      6  C   UNL     1      -2.067  -3.184   8.229  1.00  0.00     0.251 C 
ATOM      7  O   UNL     1      -2.256  -3.248   7.018  1.00  0.00    -0.272 OA
ATOM      8  H   UNL     1      -2.405  -2.271  10.026  1.00  0.00     0.164 HD
BRANCH   6   9
ATOM      9  C   UNL     1      -1.142  -4.140   8.998  1.00  0.00     0.219 C 
BRANCH   9  10
ATOM     10  O   UNL     1      -0.287  -4.898   8.133  1.00  0.00    -0.382 OA
ATOM     11  H   UNL     1      -0.551  -4.605   7.234  1.00  0.00     0.211 HD
ENDBRANCH   9  10
BRANCH   9  12
ATOM     12  C   UNL     1      -0.317  -3.432  10.104  1.00  0.00     0.089 C 
BRANCH  12  13
ATOM     13  N   UNL     1      -1.113  -3.430  11.353  1.00  0.00    -0.325 NA
ATOM     14  H   UNL     1      -0.548  -3.044  12.111  1.00  0.00     0.119 HD
ATOM     15  H   UNL     1      -1.301  -4.398  11.626  1.00  0.00     0.119 HD
ENDBRANCH  12  13
BRANCH  12  16
ATOM     16  C   UNL     1       1.093  -4.009  10.374  1.00  0.00     0.022 C 
BRANCH  16  17
ATOM     17  C   UNL     1       1.268  -5.074  11.465  1.00  0.00     0.002 C 
BRANCH  17  18
ATOM     18  C   UNL     1       0.782  -6.471  11.087  1.00  0.00     0.000 C 
BRANCH  18  19
ATOM     19  C   UNL     1       0.213  -7.274  12.264  1.00  0.00    -0.000 C 
BRANCH  19  20
ATOM     20  C   UNL     1      -0.817  -6.532  13.120  1.00  0.00    -0.000 C 
BRANCH  20  21
ATOM     21  C   UNL     1      -2.262  -6.902  12.775  1.00  0.00    -0.003 C 
ATOM     22  C   UNL     1      -3.239  -5.850  13.275  1.00  0.00     0.004 C 
ENDBRANCH  20  21
ENDBRANCH  19  20
ENDBRANCH  18  19
ENDBRANCH  17  18
ENDBRANCH  16  17
ENDBRANCH  12  16
ENDBRANCH   9  12
ENDBRANCH   6   9
ENDBRANCH   3   5
ENDBRANCH   2   3
BRANCH   2  23
ATOM     23  N   UNL     1      -5.609  -1.066   9.785  1.00  0.00    -0.332 N 
ATOM     24  C   UNL     1      -5.796  -2.102  10.791  1.00  0.00     0.147 C 
BRANCH  23  25
ATOM     25  C   UNL     1      -6.864  -0.573   9.153  1.00  0.00     0.174 C 
BRANCH  25  26
ATOM     26  C   UNL     1      -8.125  -0.888   9.992  1.00  0.00     0.038 C 
BRANCH  26  27
ATOM     27  C   UNL     1      -9.140   0.261  10.188  1.00  0.00    -0.015 C 
ATOM     28  C   UNL     1      -9.646   0.354  11.627  1.00  0.00     0.007 C 
ATOM     29  C   UNL     1      -8.623   1.616   9.712  1.00  0.00     0.007 C 
ENDBRANCH  26  27
ENDBRANCH  25  26
BRANCH  25  30
ATOM     30  C   UNL     1      -6.952  -1.066   7.690  1.00  0.00     0.243 C 
ATOM     31  O   UNL     1      -6.925  -0.286   6.739  1.00  0.00    -0.273 OA
ATOM     32  N   UNL     1      -7.069  -2.422   7.527  1.00  0.00    -0.342 N 
ATOM     33  H   UNL     1      -6.942  -3.011   8.354  1.00  0.00     0.164 HD
BRANCH  32  34
ATOM     34  C   UNL     1      -7.192  -3.064   6.215  1.00  0.00     0.175 C 
BRANCH  34  35
ATOM     35  C   UNL     1      -5.813  -3.401   5.627  1.00  0.00     0.070 C 
BRANCH  35  36
ATOM     36  C   UNL     1      -5.755  -3.214   4.128  1.00  0.00    -0.045 A 
ATOM     37  C   UNL     1      -5.232  -4.230   3.313  1.00  0.00     0.007 A 
ATOM     38  C   UNL     1      -6.198  -2.025   3.534  1.00  0.00     0.007 A 
ATOM     39  C   UNL     1      -5.162  -4.061   1.930  1.00  0.00     0.046 A 
ATOM     40  C   UNL     1      -6.126  -1.854   2.149  1.00  0.00     0.046 A 
ATOM     41  C   UNL     1      -5.609  -2.876   1.360  1.00  0.00     0.115 A 
BRANCH  41  42
ATOM     42  O   UNL     1      -5.520  -2.749   0.005  1.00  0.00    -0.508 OA
ATOM     43  H   UNL     1      -4.635  -2.414  -0.212  1.00  0.00     0.293 HD
ENDBRANCH  41  42
ENDBRANCH  35  36
ENDBRANCH  34  35
BRANCH  34  44
ATOM     44  C   UNL     1      -8.074  -4.322   6.379  1.00  0.00     0.243 C 
ATOM     45  O   UNL     1      -9.257  -4.387   6.057  1.00  0.00    -0.273 OA
ATOM     46  N   UNL     1      -7.445  -5.350   7.049  1.00  0.00    -0.341 N 
ATOM     47  H   UNL     1      -6.501  -5.206   7.400  1.00  0.00     0.164 HD
BRANCH  46  48
ATOM     48  C   UNL     1      -8.102  -6.616   7.382  1.00  0.00     0.196 C 
BRANCH  48  49
ATOM     49  C   UNL     1      -7.161  -7.811   7.154  1.00  0.00     0.072 C 
BRANCH  49  50
ATOM     50  C   UNL     1      -5.725  -7.390   6.940  1.00  0.00    -0.045 A 
ATOM     51  C   UNL     1      -5.237  -7.209   5.638  1.00  0.00     0.007 A 
ATOM     52  C   UNL     1      -4.862  -7.195   8.025  1.00  0.00     0.007 A 
ATOM     53  C   UNL     1      -3.910  -6.833   5.427  1.00  0.00     0.046 A 
ATOM     54  C   UNL     1      -3.533  -6.820   7.814  1.00  0.00     0.046 A 
ATOM     55  C   UNL     1      -3.069  -6.641   6.516  1.00  0.00     0.115 A 
BRANCH  55  56
ATOM     56  O   UNL     1      -1.779  -6.275   6.267  1.00  0.00    -0.508 OA
ATOM     57  H   UNL     1      -1.234  -7.078   6.237  1.00  0.00     0.293 HD
ENDBRANCH  55  56
ENDBRANCH  49  50
ENDBRANCH  48  49
BRANCH  48  58
ATOM     58  C   UNL     1      -8.540  -6.579   8.853  1.00  0.00     0.326 C 
ATOM     59  O   UNL     1      -9.434  -7.227   9.374  1.00  0.00    -0.250 OA
BRANCH  58  60
ATOM     60  O   UNL     1      -7.811  -5.725   9.614  1.00  0.00    -0.480 OA
ATOM     61  H   UNL     1      -7.685  -6.220  10.452  1.00  0.00     0.296 HD
ENDBRANCH  58  60
ENDBRANCH  48  58
ENDBRANCH  46  48
ENDBRANCH  34  44
ENDBRANCH  32  34
ENDBRANCH  25  30
ENDBRANCH  23  25
ENDBRANCH   2  23
TORSDOF 28
ENDMDL
MODEL 8
REMARK VINA RESULT:    -6.492      2.447      3.849
REMARK INTER + INTRA:         -23.976
REMARK INTER:                 -18.354
REMARK INTRA:                  -5.622
REMARK UNBOUND:                -7.807
REMARK SMILES CCCCCCC[C@H](N)[C@H](O)C(=O)N[C@H](C)C(=O)N(C)[C@H](CC(C)C)C(=O)N[C@@H](Cc1ccc(O)cc1)C(=O)N[C@@H](Cc1ccc(O)cc1)C(=O)O
REMARK SMILES IDX 18 1 17 2 15 3 16 4 14 5 12 6 13 7 10 9 11 10 8 12 9 13 7 16
REMARK SMILES IDX 6 17 5 18 4 19 3 20 2 21 1 22 19 23 20 24 21 25 22 26 23 27
REMARK SMILES IDX 24 28 25 29 26 30 27 31 28 32 29 34 30 35 31 36 32 37 37 38
REMARK SMILES IDX 33 39 36 40 34 41 35 42 38 44 39 45 40 46 41 48 42 49 43 50
REMARK SMILES IDX 44 51 49 52 45 53 48 54 46 55 47 56 50 58 51 59 52 60
REMARK H PARENT 14 8 11 11 9 14 9 15 28 33 35 43 40 47 47 57 52 61
ROOT
ATOM      1  O   UNL     1      -6.735  -4.693  10.706  1.00  0.00    -0.272 OA
ATOM      2  C   UNL     1      -6.985  -3.478  10.722  1.00  0.00     0.245 C 
ENDROOT
BRANCH   2   3
ATOM      3  C   UNL     1      -5.891  -2.503  11.223  1.00  0.00     0.168 C 
ATOM      4  C   UNL     1      -6.303  -1.856  12.541  1.00  0.00     0.041 C 
BRANCH   3   5
ATOM      5  N   UNL     1      -4.553  -3.070  11.293  1.00  0.00    -0.342 N 
ATOM      6  C   UNL     1      -3.440  -2.360  10.893  1.00  0.00     0.251 C 
ATOM      7  O   UNL     1      -3.493  -1.231  10.417  1.00  0.00    -0.272 OA
ATOM      8  H   UNL     1      -4.387  -4.012  11.638  1.00  0.00     0.164 HD
BRANCH   6   9
ATOM      9  C   UNL     1      -2.125  -3.100  11.189  1.00  0.00     0.219 C 
BRANCH   9  10
ATOM     10  O   UNL     1      -1.054  -2.688  10.331  1.00  0.00    -0.382 OA
ATOM     11  H   UNL     1      -0.303  -3.255  10.611  1.00  0.00     0.211 HD
ENDBRANCH   9  10
BRANCH   9  12
ATOM     12  C   UNL     1      -1.701  -3.017  12.678  1.00  0.00     0.089 C 
BRANCH  12  13
ATOM     13  N   UNL     1      -2.469  -1.927  13.322  1.00  0.00    -0.325 NA
ATOM     14  H   UNL     1      -1.822  -1.198  13.631  1.00  0.00     0.119 HD
ATOM     15  H   UNL     1      -2.896  -2.284  14.180  1.00  0.00     0.119 HD
ENDBRANCH  12  13
BRANCH  12  16
ATOM     16  C   UNL     1      -1.843  -4.322  13.497  1.00  0.00     0.022 C 
BRANCH  16  17
ATOM     17  C   UNL     1      -2.555  -5.527  12.867  1.00  0.00     0.002 C 
BRANCH  17  18
ATOM     18  C   UNL     1      -1.923  -6.883  13.173  1.00  0.00     0.000 C 
BRANCH  18  19
ATOM     19  C   UNL     1      -1.439  -7.641  11.930  1.00  0.00    -0.000 C 
BRANCH  19  20
ATOM     20  C   UNL     1       0.031  -7.416  11.564  1.00  0.00    -0.000 C 
BRANCH  20  21
ATOM     21  C   UNL     1       0.294  -6.035  10.958  1.00  0.00    -0.003 C 
ATOM     22  C   UNL     1       1.508  -5.374  11.591  1.00  0.00     0.004 C 
ENDBRANCH  20  21
ENDBRANCH  19  20
ENDBRANCH  18  19
ENDBRANCH  17  18
ENDBRANCH  16  17
ENDBRANCH  12  16
ENDBRANCH   9  12
ENDBRANCH   6   9
ENDBRANCH   3   5
ENDBRANCH   2   3
BRANCH   2  23
ATOM     23  N   UNL     1      -8.178  -3.006  10.185  1.00  0.00    -0.332 N 
ATOM     24  C   UNL     1      -9.503  -3.404  10.638  1.00  0.00     0.147 C 
BRANCH  23  25
ATOM     25  C   UNL     1      -8.165  -1.928   9.159  1.00  0.00     0.174 C 
BRANCH  25  26
ATOM     26  C   UNL     1      -9.226  -0.834   9.421  1.00  0.00     0.038 C 
BRANCH  26  27
ATOM     27  C   UNL     1      -8.841   0.294  10.403  1.00  0.00    -0.015 C 
ATOM     28  C   UNL     1      -8.910   1.679   9.759  1.00  0.00     0.007 C 
ATOM     29  C   UNL     1      -9.639   0.266  11.704  1.00  0.00     0.007 C 
ENDBRANCH  26  27
ENDBRANCH  25  26
BRANCH  25  30
ATOM     30  C   UNL     1      -8.242  -2.542   7.742  1.00  0.00     0.243 C 
ATOM     31  O   UNL     1      -9.310  -2.665   7.144  1.00  0.00    -0.273 OA
ATOM     32  N   UNL     1      -7.046  -2.942   7.203  1.00  0.00    -0.342 N 
ATOM     33  H   UNL     1      -6.191  -2.678   7.699  1.00  0.00     0.164 HD
BRANCH  32  34
ATOM     34  C   UNL     1      -6.931  -3.569   5.883  1.00  0.00     0.175 C 
BRANCH  34  35
ATOM     35  C   UNL     1      -5.610  -3.189   5.198  1.00  0.00     0.070 C 
BRANCH  35  36
ATOM     36  C   UNL     1      -5.770  -2.064   4.201  1.00  0.00    -0.045 A 
ATOM     37  C   UNL     1      -5.853  -0.736   4.648  1.00  0.00     0.007 A 
ATOM     38  C   UNL     1      -5.861  -2.327   2.828  1.00  0.00     0.007 A 
ATOM     39  C   UNL     1      -6.015   0.308   3.737  1.00  0.00     0.046 A 
ATOM     40  C   UNL     1      -6.024  -1.282   1.915  1.00  0.00     0.046 A 
ATOM     41  C   UNL     1      -6.099   0.027   2.379  1.00  0.00     0.115 A 
BRANCH  41  42
ATOM     42  O   UNL     1      -6.260   1.075   1.522  1.00  0.00    -0.508 OA
ATOM     43  H   UNL     1      -5.995   1.889   1.983  1.00  0.00     0.293 HD
ENDBRANCH  41  42
ENDBRANCH  35  36
ENDBRANCH  34  35
BRANCH  34  44
ATOM     44  C   UNL     1      -7.069  -5.097   6.065  1.00  0.00     0.243 C 
ATOM     45  O   UNL     1      -7.609  -5.846   5.256  1.00  0.00    -0.273 OA
ATOM     46  N   UNL     1      -6.642  -5.544   7.298  1.00  0.00    -0.341 N 
ATOM     47  H   UNL     1      -6.310  -4.867   7.981  1.00  0.00     0.164 HD
BRANCH  46  48
ATOM     48  C   UNL     1      -6.736  -6.941   7.726  1.00  0.00     0.196 C 
BRANCH  48  49
ATOM     49  C   UNL     1      -5.519  -7.351   8.572  1.00  0.00     0.072 C 
BRANCH  49  50
ATOM     50  C   UNL     1      -4.214  -6.857   7.992  1.00  0.00    -0.045 A 
ATOM     51  C   UNL     1      -3.393  -6.003   8.744  1.00  0.00     0.007 A 
ATOM     52  C   UNL     1      -3.815  -7.222   6.700  1.00  0.00     0.007 A 
ATOM     53  C   UNL     1      -2.193  -5.530   8.213  1.00  0.00     0.046 A 
ATOM     54  C   UNL     1      -2.614  -6.748   6.168  1.00  0.00     0.046 A 
ATOM     55  C   UNL     1      -1.812  -5.906   6.931  1.00  0.00     0.115 A 
BRANCH  55  56
ATOM     56  O   UNL     1      -0.632  -5.421   6.449  1.00  0.00    -0.508 OA
ATOM     57  H   UNL     1      -0.809  -4.962   5.613  1.00  0.00     0.293 HD
ENDBRANCH  55  56
ENDBRANCH  49  50
ENDBRANCH  48  49
BRANCH  48  58
ATOM     58  C   UNL     1      -8.020  -7.126   8.546  1.00  0.00     0.326 C 
ATOM     59  O   UNL     1      -9.166  -7.155   8.129  1.00  0.00    -0.250 OA
BRANCH  58  60
ATOM     60  O   UNL     1      -7.795  -7.283   9.875  1.00  0.00    -0.480 OA
ATOM     61  H   UNL     1      -8.330  -6.566  10.281  1.00  0.00     0.296 HD
ENDBRANCH  58  60
ENDBRANCH  48  58
ENDBRANCH  46  48
ENDBRANCH  34  44
ENDBRANCH  32  34
ENDBRANCH  25  30
ENDBRANCH  23  25
ENDBRANCH   2  23
TORSDOF 28
ENDMDL
MODEL 9
REMARK VINA RESULT:    -6.478      2.777      5.646
REMARK INTER + INTRA:         -23.941
REMARK INTER:                 -19.478
REMARK INTRA:                  -4.463
REMARK UNBOUND:                -7.807
REMARK SMILES CCCCCCC[C@H](N)[C@H](O)C(=O)N[C@H](C)C(=O)N(C)[C@H](CC(C)C)C(=O)N[C@@H](Cc1ccc(O)cc1)C(=O)N[C@@H](Cc1ccc(O)cc1)C(=O)O
REMARK SMILES IDX 18 1 17 2 15 3 16 4 14 5 12 6 13 7 10 9 11 10 8 12 9 13 7 16
REMARK SMILES IDX 6 17 5 18 4 19 3 20 2 21 1 22 19 23 20 24 21 25 22 26 23 27
REMARK SMILES IDX 24 28 25 29 26 30 27 31 28 32 29 34 30 35 31 36 32 37 37 38
REMARK SMILES IDX 33 39 36 40 34 41 35 42 38 44 39 45 40 46 41 48 42 49 43 50
REMARK SMILES IDX 44 51 49 52 45 53 48 54 46 55 47 56 50 58 51 59 52 60
REMARK H PARENT 14 8 11 11 9 14 9 15 28 33 35 43 40 47 47 57 52 61
ROOT
ATOM      1  O   UNL     1      -2.029  -4.957   5.103  1.00  0.00    -0.272 OA
ATOM      2  C   UNL     1      -2.188  -4.968   6.333  1.00  0.00     0.245 C 
ENDROOT
BRANCH   2   3
ATOM      3  C   UNL     1      -3.136  -6.028   6.947  1.00  0.00     0.168 C 
ATOM      4  C   UNL     1      -3.138  -7.303   6.111  1.00  0.00     0.041 C 
BRANCH   3   5
ATOM      5  N   UNL     1      -2.910  -6.306   8.357  1.00  0.00    -0.342 N 
ATOM      6  C   UNL     1      -3.922  -6.745   9.184  1.00  0.00     0.251 C 
ATOM      7  O   UNL     1      -5.081  -6.894   8.813  1.00  0.00    -0.272 OA
ATOM      8  H   UNL     1      -1.996  -6.185   8.788  1.00  0.00     0.164 HD
BRANCH   6   9
ATOM      9  C   UNL     1      -3.424  -7.109  10.592  1.00  0.00     0.219 C 
BRANCH   9  10
ATOM     10  O   UNL     1      -3.315  -8.523  10.791  1.00  0.00    -0.382 OA
ATOM     11  H   UNL     1      -4.201  -8.862  10.536  1.00  0.00     0.211 HD
ENDBRANCH   9  10
BRANCH   9  12
ATOM     12  C   UNL     1      -2.100  -6.395  10.973  1.00  0.00     0.089 C 
BRANCH  12  13
ATOM     13  N   UNL     1      -2.402  -4.975  11.263  1.00  0.00    -0.325 NA
ATOM     14  H   UNL     1      -3.415  -4.848  11.302  1.00  0.00     0.119 HD
ATOM     15  H   UNL     1      -2.091  -4.403  10.474  1.00  0.00     0.119 HD
ENDBRANCH  12  13
BRANCH  12  16
ATOM     16  C   UNL     1      -1.306  -7.020  12.145  1.00  0.00     0.022 C 
BRANCH  16  17
ATOM     17  C   UNL     1       0.194  -7.293  11.970  1.00  0.00     0.002 C 
BRANCH  17  18
ATOM     18  C   UNL     1       1.108  -6.126  12.338  1.00  0.00     0.000 C 
BRANCH  18  19
ATOM     19  C   UNL     1       1.398  -5.168  11.176  1.00  0.00    -0.000 C 
BRANCH  19  20
ATOM     20  C   UNL     1       0.916  -3.729  11.385  1.00  0.00    -0.000 C 
BRANCH  20  21
ATOM     21  C   UNL     1       1.955  -2.683  10.974  1.00  0.00    -0.003 C 
ATOM     22  C   UNL     1       2.722  -3.120   9.736  1.00  0.00     0.004 C 
ENDBRANCH  20  21
ENDBRANCH  19  20
ENDBRANCH  18  19
ENDBRANCH  17  18
ENDBRANCH  16  17
ENDBRANCH  12  16
ENDBRANCH   9  12
ENDBRANCH   6   9
ENDBRANCH   3   5
ENDBRANCH   2   3
BRANCH   2  23
ATOM     23  N   UNL     1      -1.432  -4.125   7.140  1.00  0.00    -0.332 N 
ATOM     24  C   UNL     1      -0.093  -4.426   7.623  1.00  0.00     0.147 C 
BRANCH  23  25
ATOM     25  C   UNL     1      -1.922  -2.757   7.463  1.00  0.00     0.174 C 
BRANCH  25  26
ATOM     26  C   UNL     1      -1.298  -2.183   8.756  1.00  0.00     0.038 C 
BRANCH  26  27
ATOM     27  C   UNL     1      -2.123  -1.125   9.523  1.00  0.00    -0.015 C 
ATOM     28  C   UNL     1      -1.844  -1.143  11.025  1.00  0.00     0.007 C 
ATOM     29  C   UNL     1      -1.969   0.287   8.964  1.00  0.00     0.007 C 
ENDBRANCH  26  27
ENDBRANCH  25  26
BRANCH  25  30
ATOM     30  C   UNL     1      -3.468  -2.729   7.454  1.00  0.00     0.243 C 
ATOM     31  O   UNL     1      -4.132  -3.197   8.378  1.00  0.00    -0.273 OA
ATOM     32  N   UNL     1      -4.045  -2.158   6.349  1.00  0.00    -0.342 N 
ATOM     33  H   UNL     1      -3.430  -1.667   5.694  1.00  0.00     0.164 HD
BRANCH  32  34
ATOM     34  C   UNL     1      -5.495  -2.069   6.157  1.00  0.00     0.175 C 
BRANCH  34  35
ATOM     35  C   UNL     1      -5.968  -0.608   6.141  1.00  0.00     0.070 C 
BRANCH  35  36
ATOM     36  C   UNL     1      -6.752  -0.233   7.379  1.00  0.00    -0.045 A 
ATOM     37  C   UNL     1      -6.169  -0.371   8.647  1.00  0.00     0.007 A 
ATOM     38  C   UNL     1      -8.070   0.231   7.282  1.00  0.00     0.007 A 
ATOM     39  C   UNL     1      -6.889  -0.042   9.796  1.00  0.00     0.046 A 
ATOM     40  C   UNL     1      -8.792   0.560   8.432  1.00  0.00     0.046 A 
ATOM     41  C   UNL     1      -8.194   0.422   9.679  1.00  0.00     0.115 A 
BRANCH  41  42
ATOM     42  O   UNL     1      -8.864   0.730  10.826  1.00  0.00    -0.508 OA
ATOM     43  H   UNL     1      -8.223   1.078  11.469  1.00  0.00     0.293 HD
ENDBRANCH  41  42
ENDBRANCH  35  36
ENDBRANCH  34  35
BRANCH  34  44
ATOM     44  C   UNL     1      -5.850  -2.805   4.845  1.00  0.00     0.243 C 
ATOM     45  O   UNL     1      -6.797  -2.514   4.121  1.00  0.00    -0.273 OA
ATOM     46  N   UNL     1      -5.075  -3.922   4.616  1.00  0.00    -0.341 N 
ATOM     47  H   UNL     1      -4.378  -4.190   5.306  1.00  0.00     0.164 HD
BRANCH  46  48
ATOM     48  C   UNL     1      -5.270  -4.817   3.473  1.00  0.00     0.196 C 
BRANCH  48  49
ATOM     49  C   UNL     1      -6.692  -5.404   3.457  1.00  0.00     0.072 C 
BRANCH  49  50
ATOM     50  C   UNL     1      -7.000  -6.214   4.696  1.00  0.00    -0.045 A 
ATOM     51  C   UNL     1      -7.749  -5.643   5.736  1.00  0.00     0.007 A 
ATOM     52  C   UNL     1      -6.532  -7.526   4.835  1.00  0.00     0.007 A 
ATOM     53  C   UNL     1      -8.029  -6.375   6.890  1.00  0.00     0.046 A 
ATOM     54  C   UNL     1      -6.811  -8.260   5.991  1.00  0.00     0.046 A 
ATOM     55  C   UNL     1      -7.558  -7.677   7.008  1.00  0.00     0.115 A 
BRANCH  55  56
ATOM     56  O   UNL     1      -7.852  -8.359   8.153  1.00  0.00    -0.508 OA
ATOM     57  H   UNL     1      -8.817  -8.437   8.223  1.00  0.00     0.293 HD
ENDBRANCH  55  56
ENDBRANCH  49  50
ENDBRANCH  48  49
BRANCH  48  58
ATOM     58  C   UNL     1      -5.023  -4.033   2.177  1.00  0.00     0.326 C 
ATOM     59  O   UNL     1      -5.859  -3.648   1.375  1.00  0.00    -0.250 OA
BRANCH  58  60
ATOM     60  O   UNL     1      -3.714  -3.753   1.955  1.00  0.00    -0.480 OA
ATOM     61  H   UNL     1      -3.479  -4.348   1.211  1.00  0.00     0.296 HD
ENDBRANCH  58  60
ENDBRANCH  48  58
ENDBRANCH  46  48
ENDBRANCH  34  44
ENDBRANCH  32  34
ENDBRANCH  25  30
ENDBRANCH  23  25
ENDBRANCH   2  23
TORSDOF 28
ENDMDL
MODEL 10
REMARK VINA RESULT:    -6.459      2.127      4.027
REMARK INTER + INTRA:         -23.894
REMARK INTER:                 -18.684
REMARK INTRA:                  -5.210
REMARK UNBOUND:                -7.807
REMARK SMILES CCCCCCC[C@H](N)[C@H](O)C(=O)N[C@H](C)C(=O)N(C)[C@H](CC(C)C)C(=O)N[C@@H](Cc1ccc(O)cc1)C(=O)N[C@@H](Cc1ccc(O)cc1)C(=O)O
REMARK SMILES IDX 18 1 17 2 15 3 16 4 14 5 12 6 13 7 10 9 11 10 8 12 9 13 7 16
REMARK SMILES IDX 6 17 5 18 4 19 3 20 2 21 1 22 19 23 20 24 21 25 22 26 23 27
REMARK SMILES IDX 24 28 25 29 26 30 27 31 28 32 29 34 30 35 31 36 32 37 37 38
REMARK SMILES IDX 33 39 36 40 34 41 35 42 38 44 39 45 40 46 41 48 42 49 43 50
REMARK SMILES IDX 44 51 49 52 45 53 48 54 46 55 47 56 50 58 51 59 52 60
REMARK H PARENT 14 8 11 11 9 14 9 15 28 33 35 43 40 47 47 57 52 61
ROOT
ATOM      1  O   UNL     1      -6.277  -4.454  11.263  1.00  0.00    -0.272 OA
ATOM      2  C   UNL     1      -6.888  -3.392  11.074  1.00  0.00     0.245 C 
ENDROOT
BRANCH   2   3
ATOM      3  C   UNL     1      -6.193  -2.060  11.452  1.00  0.00     0.168 C 
ATOM      4  C   UNL     1      -6.199  -1.856  12.963  1.00  0.00     0.041 C 
BRANCH   3   5
ATOM      5  N   UNL     1      -4.865  -1.881  10.886  1.00  0.00    -0.342 N 
ATOM      6  C   UNL     1      -4.660  -1.178   9.718  1.00  0.00     0.251 C 
ATOM      7  O   UNL     1      -5.569  -0.692   9.053  1.00  0.00    -0.272 OA
ATOM      8  H   UNL     1      -4.036  -2.269  11.331  1.00  0.00     0.164 HD
BRANCH   6   9
ATOM      9  C   UNL     1      -3.170  -0.996   9.388  1.00  0.00     0.219 C 
BRANCH   9  10
ATOM     10  O   UNL     1      -2.362  -0.819  10.558  1.00  0.00    -0.382 OA
ATOM     11  H   UNL     1      -1.473  -1.124  10.273  1.00  0.00     0.211 HD
ENDBRANCH   9  10
BRANCH   9  12
ATOM     12  C   UNL     1      -2.602  -2.128   8.493  1.00  0.00     0.089 C 
BRANCH  12  13
ATOM     13  N   UNL     1      -2.363  -1.578   7.139  1.00  0.00    -0.325 NA
ATOM     14  H   UNL     1      -3.052  -0.849   6.946  1.00  0.00     0.119 HD
ATOM     15  H   UNL     1      -2.547  -2.308   6.447  1.00  0.00     0.119 HD
ENDBRANCH  12  13
BRANCH  12  16
ATOM     16  C   UNL     1      -1.325  -2.829   9.015  1.00  0.00     0.022 C 
BRANCH  16  17
ATOM     17  C   UNL     1      -1.444  -4.221   9.651  1.00  0.00     0.002 C 
BRANCH  17  18
ATOM     18  C   UNL     1      -0.795  -5.351   8.855  1.00  0.00     0.000 C 
BRANCH  18  19
ATOM     19  C   UNL     1       0.176  -4.872   7.769  1.00  0.00    -0.000 C 
BRANCH  19  20
ATOM     20  C   UNL     1      -0.190  -5.286   6.341  1.00  0.00    -0.000 C 
BRANCH  20  21
ATOM     21  C   UNL     1      -1.600  -5.873   6.230  1.00  0.00    -0.003 C 
ATOM     22  C   UNL     1      -2.561  -4.890   5.580  1.00  0.00     0.004 C 
ENDBRANCH  20  21
ENDBRANCH  19  20
ENDBRANCH  18  19
ENDBRANCH  17  18
ENDBRANCH  16  17
ENDBRANCH  12  16
ENDBRANCH   9  12
ENDBRANCH   6   9
ENDBRANCH   3   5
ENDBRANCH   2   3
BRANCH   2  23
ATOM     23  N   UNL     1      -8.117  -3.402  10.422  1.00  0.00    -0.332 N 
ATOM     24  C   UNL     1      -9.029  -4.536  10.398  1.00  0.00     0.147 C 
BRANCH  23  25
ATOM     25  C   UNL     1      -8.644  -2.160   9.793  1.00  0.00     0.174 C 
BRANCH  25  26
ATOM     26  C   UNL     1     -10.027  -1.745  10.346  1.00  0.00     0.038 C 
BRANCH  26  27
ATOM     27  C   UNL     1     -10.087  -0.446  11.180  1.00  0.00    -0.015 C 
ATOM     28  C   UNL     1      -9.780  -0.686  12.658  1.00  0.00     0.007 C 
ATOM     29  C   UNL     1      -9.210   0.673  10.624  1.00  0.00     0.007 C 
ENDBRANCH  26  27
ENDBRANCH  25  26
BRANCH  25  30
ATOM     30  C   UNL     1      -8.602  -2.285   8.252  1.00  0.00     0.243 C 
ATOM     31  O   UNL     1      -9.575  -2.009   7.551  1.00  0.00    -0.273 OA
ATOM     32  N   UNL     1      -7.417  -2.729   7.725  1.00  0.00    -0.342 N 
ATOM     33  H   UNL     1      -6.615  -2.802   8.356  1.00  0.00     0.164 HD
BRANCH  32  34
ATOM     34  C   UNL     1      -7.205  -2.934   6.289  1.00  0.00     0.175 C 
BRANCH  34  35
ATOM     35  C   UNL     1      -5.840  -2.388   5.843  1.00  0.00     0.070 C 
BRANCH  35  36
ATOM     36  C   UNL     1      -5.943  -1.450   4.661  1.00  0.00    -0.045 A 
ATOM     37  C   UNL     1      -5.991  -0.063   4.869  1.00  0.00     0.007 A 
ATOM     38  C   UNL     1      -6.015  -1.946   3.353  1.00  0.00     0.007 A 
ATOM     39  C   UNL     1      -6.100   0.810   3.786  1.00  0.00     0.046 A 
ATOM     40  C   UNL     1      -6.125  -1.073   2.268  1.00  0.00     0.046 A 
ATOM     41  C   UNL     1      -6.166   0.299   2.495  1.00  0.00     0.115 A 
BRANCH  41  42
ATOM     42  O   UNL     1      -6.275   1.185   1.465  1.00  0.00    -0.508 OA
ATOM     43  H   UNL     1      -5.382   1.482   1.223  1.00  0.00     0.293 HD
ENDBRANCH  41  42
ENDBRANCH  35  36
ENDBRANCH  34  35
BRANCH  34  44
ATOM     44  C   UNL     1      -7.348  -4.444   5.995  1.00  0.00     0.243 C 
ATOM     45  O   UNL     1      -8.364  -5.099   6.207  1.00  0.00    -0.273 OA
ATOM     46  N   UNL     1      -6.173  -5.036   5.584  1.00  0.00    -0.341 N 
ATOM     47  H   UNL     1      -5.327  -4.474   5.535  1.00  0.00     0.164 HD
BRANCH  46  48
ATOM     48  C   UNL     1      -6.045  -6.470   5.312  1.00  0.00     0.196 C 
BRANCH  48  49
ATOM     49  C   UNL     1      -6.832  -7.306   6.335  1.00  0.00     0.072 C 
BRANCH  49  50
ATOM     50  C   UNL     1      -6.052  -7.554   7.606  1.00  0.00    -0.045 A 
ATOM     51  C   UNL     1      -6.731  -7.856   8.796  1.00  0.00     0.007 A 
ATOM     52  C   UNL     1      -4.654  -7.466   7.623  1.00  0.00     0.007 A 
ATOM     53  C   UNL     1      -6.023  -8.073   9.978  1.00  0.00     0.046 A 
ATOM     54  C   UNL     1      -3.945  -7.682   8.807  1.00  0.00     0.046 A 
ATOM     55  C   UNL     1      -4.637  -7.985   9.975  1.00  0.00     0.115 A 
BRANCH  55  56
ATOM     56  O   UNL     1      -3.982  -8.202  11.151  1.00  0.00    -0.508 OA
ATOM     57  H   UNL     1      -3.028  -8.137  10.987  1.00  0.00     0.293 HD
ENDBRANCH  55  56
ENDBRANCH  49  50
ENDBRANCH  48  49
BRANCH  48  58
ATOM     58  C   UNL     1      -6.571  -6.758   3.898  1.00  0.00     0.326 C 
ATOM     59  O   UNL     1      -6.638  -5.979   2.962  1.00  0.00    -0.250 OA
BRANCH  58  60
ATOM     60  O   UNL     1      -6.980  -8.040   3.724  1.00  0.00    -0.480 OA
ATOM     61  H   UNL     1      -7.316  -8.046   2.802  1.00  0.00     0.296 HD
ENDBRANCH  58  60
ENDBRANCH  48  58
ENDBRANCH  46  48
ENDBRANCH  34  44
ENDBRANCH  32  34
ENDBRANCH  25  30
ENDBRANCH  23  25
ENDBRANCH   2  23
TORSDOF 28
ENDMDL
MODEL 11
REMARK VINA RESULT:    -6.407      2.265      4.795
REMARK INTER + INTRA:         -23.765
REMARK INTER:                 -18.180
REMARK INTRA:                  -5.586
REMARK UNBOUND:                -7.807
REMARK SMILES CCCCCCC[C@H](N)[C@H](O)C(=O)N[C@H](C)C(=O)N(C)[C@H](CC(C)C)C(=O)N[C@@H](Cc1ccc(O)cc1)C(=O)N[C@@H](Cc1ccc(O)cc1)C(=O)O
REMARK SMILES IDX 18 1 17 2 15 3 16 4 14 5 12 6 13 7 10 9 11 10 8 12 9 13 7 16
REMARK SMILES IDX 6 17 5 18 4 19 3 20 2 21 1 22 19 23 20 24 21 25 22 26 23 27
REMARK SMILES IDX 24 28 25 29 26 30 27 31 28 32 29 34 30 35 31 36 32 37 37 38
REMARK SMILES IDX 33 39 36 40 34 41 35 42 38 44 39 45 40 46 41 48 42 49 43 50
REMARK SMILES IDX 44 51 49 52 45 53 48 54 46 55 47 56 50 58 51 59 52 60
REMARK H PARENT 14 8 11 11 9 14 9 15 28 33 35 43 40 47 47 57 52 61
ROOT
ATOM      1  O   UNL     1      -6.386  -8.102   8.100  1.00  0.00    -0.272 OA
ATOM      2  C   UNL     1      -6.037  -7.518   9.137  1.00  0.00     0.245 C 
ENDROOT
BRANCH   2   3
ATOM      3  C   UNL     1      -4.554  -7.098   9.287  1.00  0.00     0.168 C 
ATOM      4  C   UNL     1      -3.870  -7.909  10.383  1.00  0.00     0.041 C 
BRANCH   3   5
ATOM      5  N   UNL     1      -3.788  -7.105   8.051  1.00  0.00    -0.342 N 
ATOM      6  C   UNL     1      -2.882  -6.110   7.750  1.00  0.00     0.251 C 
ATOM      7  O   UNL     1      -2.685  -5.136   8.468  1.00  0.00    -0.272 OA
ATOM      8  H   UNL     1      -3.892  -7.845   7.360  1.00  0.00     0.164 HD
BRANCH   6   9
ATOM      9  C   UNL     1      -2.089  -6.397   6.465  1.00  0.00     0.219 C 
BRANCH   9  10
ATOM     10  O   UNL     1      -2.743  -7.343   5.611  1.00  0.00    -0.382 OA
ATOM     11  H   UNL     1      -2.204  -7.326   4.790  1.00  0.00     0.211 HD
ENDBRANCH   9  10
BRANCH   9  12
ATOM     12  C   UNL     1      -1.716  -5.113   5.679  1.00  0.00     0.089 C 
BRANCH  12  13
ATOM     13  N   UNL     1      -2.770  -4.099   5.914  1.00  0.00    -0.325 NA
ATOM     14  H   UNL     1      -2.739  -3.403   5.166  1.00  0.00     0.119 HD
ATOM     15  H   UNL     1      -2.547  -3.582   6.768  1.00  0.00     0.119 HD
ENDBRANCH  12  13
BRANCH  12  16
ATOM     16  C   UNL     1      -0.323  -4.512   5.984  1.00  0.00     0.022 C 
BRANCH  16  17
ATOM     17  C   UNL     1       0.606  -5.240   6.966  1.00  0.00     0.002 C 
BRANCH  17  18
ATOM     18  C   UNL     1       1.488  -4.328   7.816  1.00  0.00     0.000 C 
BRANCH  18  19
ATOM     19  C   UNL     1       1.242  -4.451   9.325  1.00  0.00    -0.000 C 
BRANCH  19  20
ATOM     20  C   UNL     1       0.364  -5.633   9.747  1.00  0.00    -0.000 C 
BRANCH  20  21
ATOM     21  C   UNL     1       0.583  -6.053  11.203  1.00  0.00    -0.003 C 
ATOM     22  C   UNL     1       1.767  -5.324  11.818  1.00  0.00     0.004 C 
ENDBRANCH  20  21
ENDBRANCH  19  20
ENDBRANCH  18  19
ENDBRANCH  17  18
ENDBRANCH  16  17
ENDBRANCH  12  16
ENDBRANCH   9  12
ENDBRANCH   6   9
ENDBRANCH   3   5
ENDBRANCH   2   3
BRANCH   2  23
ATOM     23  N   UNL     1      -6.990  -7.144  10.079  1.00  0.00    -0.332 N 
ATOM     24  C   UNL     1      -7.785  -8.077  10.864  1.00  0.00     0.147 C 
BRANCH  23  25
ATOM     25  C   UNL     1      -7.166  -5.711  10.441  1.00  0.00     0.174 C 
BRANCH  25  26
ATOM     26  C   UNL     1      -7.597  -5.511  11.913  1.00  0.00     0.038 C 
BRANCH  26  27
ATOM     27  C   UNL     1      -6.921  -4.359  12.690  1.00  0.00    -0.015 C 
ATOM     28  C   UNL     1      -5.537  -4.016  12.139  1.00  0.00     0.007 C 
ATOM     29  C   UNL     1      -7.785  -3.105  12.791  1.00  0.00     0.007 C 
ENDBRANCH  26  27
ENDBRANCH  25  26
BRANCH  25  30
ATOM     30  C   UNL     1      -8.096  -5.015   9.421  1.00  0.00     0.243 C 
ATOM     31  O   UNL     1      -9.299  -5.267   9.360  1.00  0.00    -0.273 OA
ATOM     32  N   UNL     1      -7.491  -4.108   8.589  1.00  0.00    -0.342 N 
ATOM     33  H   UNL     1      -6.523  -3.850   8.794  1.00  0.00     0.164 HD
BRANCH  32  34
ATOM     34  C   UNL     1      -8.211  -3.374   7.544  1.00  0.00     0.175 C 
BRANCH  34  35
ATOM     35  C   UNL     1      -7.586  -1.992   7.302  1.00  0.00     0.070 C 
BRANCH  35  36
ATOM     36  C   UNL     1      -6.469  -1.676   8.271  1.00  0.00    -0.045 A 
ATOM     37  C   UNL     1      -6.758  -1.057   9.497  1.00  0.00     0.007 A 
ATOM     38  C   UNL     1      -5.137  -1.973   7.955  1.00  0.00     0.007 A 
ATOM     39  C   UNL     1      -5.733  -0.749  10.392  1.00  0.00     0.046 A 
ATOM     40  C   UNL     1      -4.110  -1.664   8.850  1.00  0.00     0.046 A 
ATOM     41  C   UNL     1      -4.418  -1.056  10.062  1.00  0.00     0.115 A 
BRANCH  41  42
ATOM     42  O   UNL     1      -3.446  -0.736  10.963  1.00  0.00    -0.508 OA
ATOM     43  H   UNL     1      -3.751  -1.000  11.847  1.00  0.00     0.293 HD
ENDBRANCH  41  42
ENDBRANCH  35  36
ENDBRANCH  34  35
BRANCH  34  44
ATOM     44  C   UNL     1      -8.211  -4.240   6.265  1.00  0.00     0.243 C 
ATOM     45  O   UNL     1      -9.197  -4.819   5.819  1.00  0.00    -0.273 OA
ATOM     46  N   UNL     1      -6.955  -4.419   5.723  1.00  0.00    -0.341 N 
ATOM     47  H   UNL     1      -6.151  -4.015   6.196  1.00  0.00     0.164 HD
BRANCH  46  48
ATOM     48  C   UNL     1      -6.696  -5.256   4.549  1.00  0.00     0.196 C 
BRANCH  48  49
ATOM     49  C   UNL     1      -5.456  -4.771   3.779  1.00  0.00     0.072 C 
BRANCH  49  50
ATOM     50  C   UNL     1      -5.630  -3.379   3.214  1.00  0.00    -0.045 A 
ATOM     51  C   UNL     1      -5.598  -2.268   4.070  1.00  0.00     0.007 A 
ATOM     52  C   UNL     1      -5.846  -3.178   1.845  1.00  0.00     0.007 A 
ATOM     53  C   UNL     1      -5.770  -0.981   3.563  1.00  0.00     0.046 A 
ATOM     54  C   UNL     1      -6.020  -1.889   1.337  1.00  0.00     0.046 A 
ATOM     55  C   UNL     1      -5.979  -0.800   2.201  1.00  0.00     0.115 A 
BRANCH  55  56
ATOM     56  O   UNL     1      -6.145   0.475   1.746  1.00  0.00    -0.508 OA
ATOM     57  H   UNL     1      -5.452   1.031   2.135  1.00  0.00     0.293 HD
ENDBRANCH  55  56
ENDBRANCH  49  50
ENDBRANCH  48  49
BRANCH  48  58
ATOM     58  C   UNL     1      -6.483  -6.706   5.007  1.00  0.00     0.326 C 
ATOM     59  O   UNL     1      -5.418  -7.280   5.171  1.00  0.00    -0.250 OA
BRANCH  58  60
ATOM     60  O   UNL     1      -7.639  -7.371   5.255  1.00  0.00    -0.480 OA
ATOM     61  H   UNL     1      -7.919  -7.676   4.365  1.00  0.00     0.296 HD
ENDBRANCH  58  60
ENDBRANCH  48  58
ENDBRANCH  46  48
ENDBRANCH  34  44
ENDBRANCH  32  34
ENDBRANCH  25  30
ENDBRANCH  23  25
ENDBRANCH   2  23
TORSDOF 28
ENDMDL
MODEL 12
REMARK VINA RESULT:    -6.406      2.543      4.329
REMARK INTER + INTRA:         -23.762
REMARK INTER:                 -19.705
REMARK INTRA:                  -4.057
REMARK UNBOUND:                -7.807
REMARK SMILES CCCCCCC[C@H](N)[C@H](O)C(=O)N[C@H](C)C(=O)N(C)[C@H](CC(C)C)C(=O)N[C@@H](Cc1ccc(O)cc1)C(=O)N[C@@H](Cc1ccc(O)cc1)C(=O)O
REMARK SMILES IDX 18 1 17 2 15 3 16 4 14 5 12 6 13 7 10 9 11 10 8 12 9 13 7 16
REMARK SMILES IDX 6 17 5 18 4 19 3 20 2 21 1 22 19 23 20 24 21 25 22 26 23 27
REMARK SMILES IDX 24 28 25 29 26 30 27 31 28 32 29 34 30 35 31 36 32 37 37 38
REMARK SMILES IDX 33 39 36 40 34 41 35 42 38 44 39 45 40 46 41 48 42 49 43 50
REMARK SMILES IDX 44 51 49 52 45 53 48 54 46 55 47 56 50 58 51 59 52 60
REMARK H PARENT 14 8 11 11 9 14 9 15 28 33 35 43 40 47 47 57 52 61
ROOT
ATOM      1  O   UNL     1      -3.482  -0.419   7.342  1.00  0.00    -0.272 OA
ATOM      2  C   UNL     1      -4.035  -1.187   8.143  1.00  0.00     0.245 C 
ENDROOT
BRANCH   2   3
ATOM      3  C   UNL     1      -3.536  -2.651   8.231  1.00  0.00     0.168 C 
ATOM      4  C   UNL     1      -2.937  -3.100   6.903  1.00  0.00     0.041 C 
BRANCH   3   5
ATOM      5  N   UNL     1      -2.646  -2.928   9.348  1.00  0.00    -0.342 N 
ATOM      6  C   UNL     1      -2.908  -3.933  10.255  1.00  0.00     0.251 C 
ATOM      7  O   UNL     1      -3.914  -4.633  10.218  1.00  0.00    -0.272 OA
ATOM      8  H   UNL     1      -1.797  -2.390   9.503  1.00  0.00     0.164 HD
BRANCH   6   9
ATOM      9  C   UNL     1      -1.764  -4.136  11.262  1.00  0.00     0.219 C 
BRANCH   9  10
ATOM     10  O   UNL     1      -1.658  -3.061  12.203  1.00  0.00    -0.382 OA
ATOM     11  H   UNL     1      -1.877  -2.265  11.670  1.00  0.00     0.211 HD
ENDBRANCH   9  10
BRANCH   9  12
ATOM     12  C   UNL     1      -1.833  -5.503  11.994  1.00  0.00     0.089 C 
BRANCH  12  13
ATOM     13  N   UNL     1      -2.031  -6.565  10.981  1.00  0.00    -0.325 NA
ATOM     14  H   UNL     1      -1.573  -6.289  10.111  1.00  0.00     0.119 HD
ATOM     15  H   UNL     1      -3.026  -6.622  10.752  1.00  0.00     0.119 HD
ENDBRANCH  12  13
BRANCH  12  16
ATOM     16  C   UNL     1      -0.625  -5.849  12.898  1.00  0.00     0.022 C 
BRANCH  16  17
ATOM     17  C   UNL     1       0.740  -6.116  12.250  1.00  0.00     0.002 C 
BRANCH  17  18
ATOM     18  C   UNL     1       1.132  -5.138  11.145  1.00  0.00     0.000 C 
BRANCH  18  19
ATOM     19  C   UNL     1       1.103  -5.744   9.735  1.00  0.00    -0.000 C 
BRANCH  19  20
ATOM     20  C   UNL     1       0.973  -4.731   8.595  1.00  0.00    -0.000 C 
BRANCH  20  21
ATOM     21  C   UNL     1      -0.003  -5.178   7.503  1.00  0.00    -0.003 C 
ATOM     22  C   UNL     1       0.374  -4.596   6.150  1.00  0.00     0.004 C 
ENDBRANCH  20  21
ENDBRANCH  19  20
ENDBRANCH  18  19
ENDBRANCH  17  18
ENDBRANCH  16  17
ENDBRANCH  12  16
ENDBRANCH   9  12
ENDBRANCH   6   9
ENDBRANCH   3   5
ENDBRANCH   2   3
BRANCH   2  23
ATOM     23  N   UNL     1      -4.996  -0.700   9.023  1.00  0.00    -0.332 N 
ATOM     24  C   UNL     1      -4.754  -0.404  10.428  1.00  0.00     0.147 C 
BRANCH  23  25
ATOM     25  C   UNL     1      -6.346  -0.321   8.526  1.00  0.00     0.174 C 
BRANCH  25  26
ATOM     26  C   UNL     1      -7.465  -0.582   9.562  1.00  0.00     0.038 C 
BRANCH  26  27
ATOM     27  C   UNL     1      -8.267   0.645  10.050  1.00  0.00    -0.015 C 
ATOM     28  C   UNL     1      -8.913   1.416   8.900  1.00  0.00     0.007 C 
ATOM     29  C   UNL     1      -9.303   0.307  11.119  1.00  0.00     0.007 C 
ENDBRANCH  26  27
ENDBRANCH  25  26
BRANCH  25  30
ATOM     30  C   UNL     1      -6.609  -0.975   7.150  1.00  0.00     0.243 C 
ATOM     31  O   UNL     1      -6.586  -0.324   6.106  1.00  0.00    -0.273 OA
ATOM     32  N   UNL     1      -6.875  -2.320   7.173  1.00  0.00    -0.342 N 
ATOM     33  H   UNL     1      -6.737  -2.815   8.058  1.00  0.00     0.164 HD
BRANCH  32  34
ATOM     34  C   UNL     1      -7.175  -3.099   5.968  1.00  0.00     0.175 C 
BRANCH  34  35
ATOM     35  C   UNL     1      -5.897  -3.692   5.355  1.00  0.00     0.070 C 
BRANCH  35  36
ATOM     36  C   UNL     1      -5.778  -3.418   3.872  1.00  0.00    -0.045 A 
ATOM     37  C   UNL     1      -6.224  -2.195   3.347  1.00  0.00     0.007 A 
ATOM     38  C   UNL     1      -5.247  -4.380   3.003  1.00  0.00     0.007 A 
ATOM     39  C   UNL     1      -6.131  -1.939   1.979  1.00  0.00     0.046 A 
ATOM     40  C   UNL     1      -5.156  -4.124   1.633  1.00  0.00     0.046 A 
ATOM     41  C   UNL     1      -5.598  -2.904   1.133  1.00  0.00     0.115 A 
BRANCH  41  42
ATOM     42  O   UNL     1      -5.528  -2.615  -0.197  1.00  0.00    -0.508 OA
ATOM     43  H   UNL     1      -5.749  -3.419  -0.696  1.00  0.00     0.293 HD
ENDBRANCH  41  42
ENDBRANCH  35  36
ENDBRANCH  34  35
BRANCH  34  44
ATOM     44  C   UNL     1      -8.195  -4.195   6.348  1.00  0.00     0.243 C 
ATOM     45  O   UNL     1      -9.384  -4.172   6.042  1.00  0.00    -0.273 OA
ATOM     46  N   UNL     1      -7.678  -5.159   7.187  1.00  0.00    -0.341 N 
ATOM     47  H   UNL     1      -6.717  -5.071   7.508  1.00  0.00     0.164 HD
BRANCH  46  48
ATOM     48  C   UNL     1      -8.473  -6.260   7.735  1.00  0.00     0.196 C 
BRANCH  48  49
ATOM     49  C   UNL     1      -7.682  -7.579   7.728  1.00  0.00     0.072 C 
BRANCH  49  50
ATOM     50  C   UNL     1      -6.295  -7.423   7.147  1.00  0.00    -0.045 A 
ATOM     51  C   UNL     1      -5.195  -7.253   8.001  1.00  0.00     0.007 A 
ATOM     52  C   UNL     1      -6.090  -7.423   5.762  1.00  0.00     0.007 A 
ATOM     53  C   UNL     1      -3.912  -7.094   7.476  1.00  0.00     0.046 A 
ATOM     54  C   UNL     1      -4.805  -7.263   5.237  1.00  0.00     0.046 A 
ATOM     55  C   UNL     1      -3.727  -7.101   6.099  1.00  0.00     0.115 A 
BRANCH  55  56
ATOM     56  O   UNL     1      -2.458  -6.941   5.627  1.00  0.00    -0.508 OA
ATOM     57  H   UNL     1      -1.982  -7.780   5.738  1.00  0.00     0.293 HD
ENDBRANCH  55  56
ENDBRANCH  49  50
ENDBRANCH  48  49
BRANCH  48  58
ATOM     58  C   UNL     1      -8.882  -5.913   9.174  1.00  0.00     0.326 C 
ATOM     59  O   UNL     1      -8.262  -5.233   9.975  1.00  0.00    -0.250 OA
BRANCH  58  60
ATOM     60  O   UNL     1     -10.081  -6.435   9.536  1.00  0.00    -0.480 OA
ATOM     61  H   UNL     1      -9.864  -6.968  10.332  1.00  0.00     0.296 HD
ENDBRANCH  58  60
ENDBRANCH  48  58
ENDBRANCH  46  48
ENDBRANCH  34  44
ENDBRANCH  32  34
ENDBRANCH  25  30
ENDBRANCH  23  25
ENDBRANCH   2  23
TORSDOF 28
ENDMDL
MODEL 13
REMARK VINA RESULT:    -6.383      2.514      6.709
REMARK INTER + INTRA:         -23.706
REMARK INTER:                 -17.452
REMARK INTRA:                  -6.254
REMARK UNBOUND:                -7.807
REMARK SMILES CCCCCCC[C@H](N)[C@H](O)C(=O)N[C@H](C)C(=O)N(C)[C@H](CC(C)C)C(=O)N[C@@H](Cc1ccc(O)cc1)C(=O)N[C@@H](Cc1ccc(O)cc1)C(=O)O
REMARK SMILES IDX 18 1 17 2 15 3 16 4 14 5 12 6 13 7 10 9 11 10 8 12 9 13 7 16
REMARK SMILES IDX 6 17 5 18 4 19 3 20 2 21 1 22 19 23 20 24 21 25 22 26 23 27
REMARK SMILES IDX 24 28 25 29 26 30 27 31 28 32 29 34 30 35 31 36 32 37 37 38
REMARK SMILES IDX 33 39 36 40 34 41 35 42 38 44 39 45 40 46 41 48 42 49 43 50
REMARK SMILES IDX 44 51 49 52 45 53 48 54 46 55 47 56 50 58 51 59 52 60
REMARK H PARENT 14 8 11 11 9 14 9 15 28 33 35 43 40 47 47 57 52 61
ROOT
ATOM      1  O   UNL     1      -6.063  -4.561   8.830  1.00  0.00    -0.272 OA
ATOM      2  C   UNL     1      -5.903  -5.450   9.678  1.00  0.00     0.245 C 
ENDROOT
BRANCH   2   3
ATOM      3  C   UNL     1      -6.216  -6.915   9.284  1.00  0.00     0.168 C 
ATOM      4  C   UNL     1      -7.115  -7.576  10.324  1.00  0.00     0.041 C 
BRANCH   3   5
ATOM      5  N   UNL     1      -6.732  -7.088   7.935  1.00  0.00    -0.342 N 
ATOM      6  C   UNL     1      -5.915  -7.451   6.885  1.00  0.00     0.251 C 
ATOM      7  O   UNL     1      -4.705  -7.613   6.994  1.00  0.00    -0.272 OA
ATOM      8  H   UNL     1      -7.715  -6.947   7.714  1.00  0.00     0.164 HD
BRANCH   6   9
ATOM      9  C   UNL     1      -6.697  -7.714   5.588  1.00  0.00     0.219 C 
BRANCH   9  10
ATOM     10  O   UNL     1      -7.636  -8.788   5.716  1.00  0.00    -0.382 OA
ATOM     11  H   UNL     1      -7.876  -8.772   6.669  1.00  0.00     0.211 HD
ENDBRANCH   9  10
BRANCH   9  12
ATOM     12  C   UNL     1      -7.387  -6.444   5.024  1.00  0.00     0.089 C 
BRANCH  12  13
ATOM     13  N   UNL     1      -8.551  -6.125   5.882  1.00  0.00    -0.325 NA
ATOM     14  H   UNL     1      -8.791  -5.138   5.769  1.00  0.00     0.119 HD
ATOM     15  H   UNL     1      -8.277  -6.223   6.862  1.00  0.00     0.119 HD
ENDBRANCH  12  13
BRANCH  12  16
ATOM     16  C   UNL     1      -6.485  -5.196   4.866  1.00  0.00     0.022 C 
BRANCH  16  17
ATOM     17  C   UNL     1      -5.440  -5.167   3.743  1.00  0.00     0.002 C 
BRANCH  17  18
ATOM     18  C   UNL     1      -4.143  -4.439   4.087  1.00  0.00     0.000 C 
BRANCH  18  19
ATOM     19  C   UNL     1      -3.509  -4.885   5.412  1.00  0.00    -0.000 C 
BRANCH  19  20
ATOM     20  C   UNL     1      -1.981  -4.995   5.397  1.00  0.00    -0.000 C 
BRANCH  20  21
ATOM     21  C   UNL     1      -1.438  -5.944   6.469  1.00  0.00    -0.003 C 
ATOM     22  C   UNL     1      -2.188  -5.784   7.782  1.00  0.00     0.004 C 
ENDBRANCH  20  21
ENDBRANCH  19  20
ENDBRANCH  18  19
ENDBRANCH  17  18
ENDBRANCH  16  17
ENDBRANCH  12  16
ENDBRANCH   9  12
ENDBRANCH   6   9
ENDBRANCH   3   5
ENDBRANCH   2   3
BRANCH   2  23
ATOM     23  N   UNL     1      -5.338  -5.142  10.911  1.00  0.00    -0.332 N 
ATOM     24  C   UNL     1      -6.096  -4.794  12.104  1.00  0.00     0.147 C 
BRANCH  23  25
ATOM     25  C   UNL     1      -3.870  -5.279  11.120  1.00  0.00     0.174 C 
BRANCH  25  26
ATOM     26  C   UNL     1      -3.516  -6.094  12.386  1.00  0.00     0.038 C 
BRANCH  26  27
ATOM     27  C   UNL     1      -2.649  -7.357  12.187  1.00  0.00    -0.015 C 
ATOM     28  C   UNL     1      -3.272  -8.342  11.198  1.00  0.00     0.007 C 
ATOM     29  C   UNL     1      -1.205  -7.048  11.800  1.00  0.00     0.007 C 
ENDBRANCH  26  27
ENDBRANCH  25  26
BRANCH  25  30
ATOM     30  C   UNL     1      -3.193  -3.891  11.064  1.00  0.00     0.243 C 
ATOM     31  O   UNL     1      -2.661  -3.387  12.052  1.00  0.00    -0.273 OA
ATOM     32  N   UNL     1      -3.231  -3.261   9.847  1.00  0.00    -0.342 N 
ATOM     33  H   UNL     1      -3.563  -3.802   9.044  1.00  0.00     0.164 HD
BRANCH  32  34
ATOM     34  C   UNL     1      -2.664  -1.930   9.615  1.00  0.00     0.175 C 
BRANCH  34  35
ATOM     35  C   UNL     1      -1.365  -2.010   8.798  1.00  0.00     0.070 C 
BRANCH  35  36
ATOM     36  C   UNL     1      -0.236  -2.668   9.558  1.00  0.00    -0.045 A 
ATOM     37  C   UNL     1       0.382  -3.818   9.043  1.00  0.00     0.007 A 
ATOM     38  C   UNL     1       0.194  -2.159  10.791  1.00  0.00     0.007 A 
ATOM     39  C   UNL     1       1.415  -4.440   9.744  1.00  0.00     0.046 A 
ATOM     40  C   UNL     1       1.228  -2.782  11.494  1.00  0.00     0.046 A 
ATOM     41  C   UNL     1       1.830  -3.917  10.963  1.00  0.00     0.115 A 
BRANCH  41  42
ATOM     42  O   UNL     1       2.841  -4.556  11.617  1.00  0.00    -0.508 OA
ATOM     43  H   UNL     1       3.683  -4.292  11.210  1.00  0.00     0.293 HD
ENDBRANCH  41  42
ENDBRANCH  35  36
ENDBRANCH  34  35
BRANCH  34  44
ATOM     44  C   UNL     1      -3.736  -1.069   8.910  1.00  0.00     0.243 C 
ATOM     45  O   UNL     1      -3.869   0.141   9.070  1.00  0.00    -0.273 OA
ATOM     46  N   UNL     1      -4.634  -1.808   8.170  1.00  0.00    -0.341 N 
ATOM     47  H   UNL     1      -4.552  -2.822   8.162  1.00  0.00     0.164 HD
BRANCH  46  48
ATOM     48  C   UNL     1      -5.777  -1.220   7.468  1.00  0.00     0.196 C 
BRANCH  48  49
ATOM     49  C   UNL     1      -6.135  -2.025   6.207  1.00  0.00     0.072 C 
BRANCH  49  50
ATOM     50  C   UNL     1      -6.153  -1.172   4.959  1.00  0.00    -0.045 A 
ATOM     51  C   UNL     1      -6.545  -1.733   3.735  1.00  0.00     0.007 A 
ATOM     52  C   UNL     1      -5.764   0.173   4.999  1.00  0.00     0.007 A 
ATOM     53  C   UNL     1      -6.553  -0.960   2.574  1.00  0.00     0.046 A 
ATOM     54  C   UNL     1      -5.771   0.947   3.836  1.00  0.00     0.046 A 
ATOM     55  C   UNL     1      -6.167   0.373   2.633  1.00  0.00     0.115 A 
BRANCH  55  56
ATOM     56  O   UNL     1      -6.187   1.094   1.476  1.00  0.00    -0.508 OA
ATOM     57  H   UNL     1      -6.411   2.013   1.692  1.00  0.00     0.293 HD
ENDBRANCH  55  56
ENDBRANCH  49  50
ENDBRANCH  48  49
BRANCH  48  58
ATOM     58  C   UNL     1      -6.983  -1.188   8.418  1.00  0.00     0.326 C 
ATOM     59  O   UNL     1      -7.323  -0.273   9.150  1.00  0.00    -0.250 OA
BRANCH  58  60
ATOM     60  O   UNL     1      -7.725  -2.324   8.389  1.00  0.00    -0.480 OA
ATOM     61  H   UNL     1      -8.108  -2.367   9.292  1.00  0.00     0.296 HD
ENDBRANCH  58  60
ENDBRANCH  48  58
ENDBRANCH  46  48
ENDBRANCH  34  44
ENDBRANCH  32  34
ENDBRANCH  25  30
ENDBRANCH  23  25
ENDBRANCH   2  23
TORSDOF 28
ENDMDL
MODEL 14
REMARK VINA RESULT:    -6.377      2.554      4.740
REMARK INTER + INTRA:         -23.690
REMARK INTER:                 -18.160
REMARK INTRA:                  -5.529
REMARK UNBOUND:                -7.807
REMARK SMILES CCCCCCC[C@H](N)[C@H](O)C(=O)N[C@H](C)C(=O)N(C)[C@H](CC(C)C)C(=O)N[C@@H](Cc1ccc(O)cc1)C(=O)N[C@@H](Cc1ccc(O)cc1)C(=O)O
REMARK SMILES IDX 18 1 17 2 15 3 16 4 14 5 12 6 13 7 10 9 11 10 8 12 9 13 7 16
REMARK SMILES IDX 6 17 5 18 4 19 3 20 2 21 1 22 19 23 20 24 21 25 22 26 23 27
REMARK SMILES IDX 24 28 25 29 26 30 27 31 28 32 29 34 30 35 31 36 32 37 37 38
REMARK SMILES IDX 33 39 36 40 34 41 35 42 38 44 39 45 40 46 41 48 42 49 43 50
REMARK SMILES IDX 44 51 49 52 45 53 48 54 46 55 47 56 50 58 51 59 52 60
REMARK H PARENT 14 8 11 11 9 14 9 15 28 33 35 43 40 47 47 57 52 61
ROOT
ATOM      1  O   UNL     1      -7.017  -3.916  11.263  1.00  0.00    -0.272 OA
ATOM      2  C   UNL     1      -6.006  -3.270  10.948  1.00  0.00     0.245 C 
ENDROOT
BRANCH   2   3
ATOM      3  C   UNL     1      -4.866  -3.999  10.194  1.00  0.00     0.168 C 
ATOM      4  C   UNL     1      -3.590  -4.016  11.028  1.00  0.00     0.041 C 
BRANCH   3   5
ATOM      5  N   UNL     1      -5.209  -5.323   9.700  1.00  0.00    -0.342 N 
ATOM      6  C   UNL     1      -5.651  -5.527   8.410  1.00  0.00     0.251 C 
ATOM      7  O   UNL     1      -5.827  -4.619   7.604  1.00  0.00    -0.272 OA
ATOM      8  H   UNL     1      -5.137  -6.150  10.288  1.00  0.00     0.164 HD
BRANCH   6   9
ATOM      9  C   UNL     1      -5.815  -7.016   8.066  1.00  0.00     0.219 C 
BRANCH   9  10
ATOM     10  O   UNL     1      -4.824  -7.483   7.142  1.00  0.00    -0.382 OA
ATOM     11  H   UNL     1      -4.320  -6.671   6.916  1.00  0.00     0.211 HD
ENDBRANCH   9  10
BRANCH   9  12
ATOM     12  C   UNL     1      -5.872  -7.928   9.320  1.00  0.00     0.089 C 
BRANCH  12  13
ATOM     13  N   UNL     1      -6.761  -9.075   9.023  1.00  0.00    -0.325 NA
ATOM     14  H   UNL     1      -7.570  -9.043   9.647  1.00  0.00     0.119 HD
ATOM     15  H   UNL     1      -6.273  -9.941   9.262  1.00  0.00     0.119 HD
ENDBRANCH  12  13
BRANCH  12  16
ATOM     16  C   UNL     1      -4.511  -8.434   9.852  1.00  0.00     0.022 C 
BRANCH  16  17
ATOM     17  C   UNL     1      -4.341  -8.677  11.358  1.00  0.00     0.002 C 
BRANCH  17  18
ATOM     18  C   UNL     1      -3.330  -7.765  12.049  1.00  0.00     0.000 C 
BRANCH  18  19
ATOM     19  C   UNL     1      -2.163  -7.333  11.151  1.00  0.00    -0.000 C 
BRANCH  19  20
ATOM     20  C   UNL     1      -1.085  -6.495  11.844  1.00  0.00    -0.000 C 
BRANCH  20  21
ATOM     21  C   UNL     1       0.313  -6.714  11.259  1.00  0.00    -0.003 C 
ATOM     22  C   UNL     1       1.367  -5.946  12.040  1.00  0.00     0.004 C 
ENDBRANCH  20  21
ENDBRANCH  19  20
ENDBRANCH  18  19
ENDBRANCH  17  18
ENDBRANCH  16  17
ENDBRANCH  12  16
ENDBRANCH   9  12
ENDBRANCH   6   9
ENDBRANCH   3   5
ENDBRANCH   2   3
BRANCH   2  23
ATOM     23  N   UNL     1      -5.964  -1.897  11.164  1.00  0.00    -0.332 N 
ATOM     24  C   UNL     1      -5.086  -1.237  12.119  1.00  0.00     0.147 C 
BRANCH  23  25
ATOM     25  C   UNL     1      -6.758  -0.977  10.304  1.00  0.00     0.174 C 
BRANCH  25  26
ATOM     26  C   UNL     1      -8.258  -0.946  10.680  1.00  0.00     0.038 C 
BRANCH  26  27
ATOM     27  C   UNL     1      -8.859   0.428  11.053  1.00  0.00    -0.015 C 
ATOM     28  C   UNL     1      -9.251   1.247   9.824  1.00  0.00     0.007 C 
ATOM     29  C   UNL     1     -10.027   0.334  12.032  1.00  0.00     0.007 C 
ENDBRANCH  26  27
ENDBRANCH  25  26
BRANCH  25  30
ATOM     30  C   UNL     1      -6.497  -1.285   8.812  1.00  0.00     0.243 C 
ATOM     31  O   UNL     1      -7.402  -1.625   8.051  1.00  0.00    -0.273 OA
ATOM     32  N   UNL     1      -5.196  -1.161   8.399  1.00  0.00    -0.342 N 
ATOM     33  H   UNL     1      -4.530  -0.739   9.052  1.00  0.00     0.164 HD
BRANCH  32  34
ATOM     34  C   UNL     1      -4.760  -1.439   7.028  1.00  0.00     0.175 C 
BRANCH  34  35
ATOM     35  C   UNL     1      -4.776  -0.166   6.167  1.00  0.00     0.070 C 
BRANCH  35  36
ATOM     36  C   UNL     1      -5.482  -0.363   4.845  1.00  0.00    -0.045 A 
ATOM     37  C   UNL     1      -5.799  -1.658   4.405  1.00  0.00     0.007 A 
ATOM     38  C   UNL     1      -5.808   0.731   4.033  1.00  0.00     0.007 A 
ATOM     39  C   UNL     1      -6.437  -1.851   3.179  1.00  0.00     0.046 A 
ATOM     40  C   UNL     1      -6.446   0.539   2.806  1.00  0.00     0.046 A 
ATOM     41  C   UNL     1      -6.757  -0.752   2.390  1.00  0.00     0.115 A 
BRANCH  41  42
ATOM     42  O   UNL     1      -7.378  -0.984   1.199  1.00  0.00    -0.508 OA
ATOM     43  H   UNL     1      -7.217  -1.909   0.947  1.00  0.00     0.293 HD
ENDBRANCH  41  42
ENDBRANCH  35  36
ENDBRANCH  34  35
BRANCH  34  44
ATOM     44  C   UNL     1      -3.352  -2.074   7.093  1.00  0.00     0.243 C 
ATOM     45  O   UNL     1      -2.320  -1.450   7.321  1.00  0.00    -0.273 OA
ATOM     46  N   UNL     1      -3.335  -3.406   6.738  1.00  0.00    -0.341 N 
ATOM     47  H   UNL     1      -4.201  -3.851   6.444  1.00  0.00     0.164 HD
BRANCH  46  48
ATOM     48  C   UNL     1      -2.108  -4.203   6.660  1.00  0.00     0.196 C 
BRANCH  48  49
ATOM     49  C   UNL     1      -1.727  -4.781   8.033  1.00  0.00     0.072 C 
BRANCH  49  50
ATOM     50  C   UNL     1      -0.369  -4.313   8.504  1.00  0.00    -0.045 A 
ATOM     51  C   UNL     1      -0.272  -3.424   9.585  1.00  0.00     0.007 A 
ATOM     52  C   UNL     1       0.802  -4.738   7.864  1.00  0.00     0.007 A 
ATOM     53  C   UNL     1       0.975  -2.975  10.020  1.00  0.00     0.046 A 
ATOM     54  C   UNL     1       2.051  -4.288   8.299  1.00  0.00     0.046 A 
ATOM     55  C   UNL     1       2.126  -3.410   9.375  1.00  0.00     0.115 A 
BRANCH  55  56
ATOM     56  O   UNL     1       3.325  -2.946   9.830  1.00  0.00    -0.508 OA
ATOM     57  H   UNL     1       3.383  -1.999   9.628  1.00  0.00     0.293 HD
ENDBRANCH  55  56
ENDBRANCH  49  50
ENDBRANCH  48  49
BRANCH  48  58
ATOM     58  C   UNL     1      -2.320  -5.348   5.660  1.00  0.00     0.326 C 
ATOM     59  O   UNL     1      -2.208  -6.545   5.872  1.00  0.00    -0.250 OA
BRANCH  58  60
ATOM     60  O   UNL     1      -2.683  -4.926   4.423  1.00  0.00    -0.480 OA
ATOM     61  H   UNL     1      -2.208  -5.543   3.825  1.00  0.00     0.296 HD
ENDBRANCH  58  60
ENDBRANCH  48  58
ENDBRANCH  46  48
ENDBRANCH  34  44
ENDBRANCH  32  34
ENDBRANCH  25  30
ENDBRANCH  23  25
ENDBRANCH   2  23
TORSDOF 28
ENDMDL
MODEL 15
REMARK VINA RESULT:    -6.353      2.592      4.824
REMARK INTER + INTRA:         -23.631
REMARK INTER:                 -18.278
REMARK INTRA:                  -5.353
REMARK UNBOUND:                -7.807
REMARK SMILES CCCCCCC[C@H](N)[C@H](O)C(=O)N[C@H](C)C(=O)N(C)[C@H](CC(C)C)C(=O)N[C@@H](Cc1ccc(O)cc1)C(=O)N[C@@H](Cc1ccc(O)cc1)C(=O)O
REMARK SMILES IDX 18 1 17 2 15 3 16 4 14 5 12 6 13 7 10 9 11 10 8 12 9 13 7 16
REMARK SMILES IDX 6 17 5 18 4 19 3 20 2 21 1 22 19 23 20 24 21 25 22 26 23 27
REMARK SMILES IDX 24 28 25 29 26 30 27 31 28 32 29 34 30 35 31 36 32 37 37 38
REMARK SMILES IDX 33 39 36 40 34 41 35 42 38 44 39 45 40 46 41 48 42 49 43 50
REMARK SMILES IDX 44 51 49 52 45 53 48 54 46 55 47 56 50 58 51 59 52 60
REMARK H PARENT 14 8 11 11 9 14 9 15 28 33 35 43 40 47 47 57 52 61
ROOT
ATOM      1  O   UNL     1     -10.973  -2.491  10.491  1.00  0.00    -0.272 OA
ATOM      2  C   UNL     1      -9.903  -2.140  11.009  1.00  0.00     0.245 C 
ENDROOT
BRANCH   2   3
ATOM      3  C   UNL     1      -9.380  -2.927  12.237  1.00  0.00     0.168 C 
ATOM      4  C   UNL     1      -9.244  -2.012  13.449  1.00  0.00     0.041 C 
BRANCH   3   5
ATOM      5  N   UNL     1     -10.127  -4.135  12.551  1.00  0.00    -0.342 N 
ATOM      6  C   UNL     1      -9.500  -5.291  12.966  1.00  0.00     0.251 C 
ATOM      7  O   UNL     1      -8.282  -5.403  13.061  1.00  0.00    -0.272 OA
ATOM      8  H   UNL     1     -11.141  -4.174  12.475  1.00  0.00     0.164 HD
BRANCH   6   9
ATOM      9  C   UNL     1     -10.492  -6.391  13.377  1.00  0.00     0.219 C 
BRANCH   9  10
ATOM     10  O   UNL     1     -10.388  -7.563  12.560  1.00  0.00    -0.382 OA
ATOM     11  H   UNL     1     -10.724  -7.267  11.686  1.00  0.00     0.211 HD
ENDBRANCH   9  10
BRANCH   9  12
ATOM     12  C   UNL     1     -10.405  -6.758  14.881  1.00  0.00     0.089 C 
BRANCH  12  13
ATOM     13  N   UNL     1      -9.020  -7.188  15.178  1.00  0.00    -0.325 NA
ATOM     14  H   UNL     1      -8.392  -6.814  14.464  1.00  0.00     0.119 HD
ATOM     15  H   UNL     1      -8.960  -8.205  15.080  1.00  0.00     0.119 HD
ENDBRANCH  12  13
BRANCH  12  16
ATOM     16  C   UNL     1     -10.844  -5.656  15.875  1.00  0.00     0.022 C 
BRANCH  16  17
ATOM     17  C   UNL     1      -9.829  -5.125  16.897  1.00  0.00     0.002 C 
BRANCH  17  18
ATOM     18  C   UNL     1      -9.146  -3.816  16.508  1.00  0.00     0.000 C 
BRANCH  18  19
ATOM     19  C   UNL     1      -7.636  -3.946  16.270  1.00  0.00    -0.000 C 
BRANCH  19  20
ATOM     20  C   UNL     1      -6.813  -2.704  16.624  1.00  0.00    -0.000 C 
BRANCH  20  21
ATOM     21  C   UNL     1      -7.469  -1.837  17.701  1.00  0.00    -0.003 C 
ATOM     22  C   UNL     1      -7.655  -0.405  17.224  1.00  0.00     0.004 C 
ENDBRANCH  20  21
ENDBRANCH  19  20
ENDBRANCH  18  19
ENDBRANCH  17  18
ENDBRANCH  16  17
ENDBRANCH  12  16
ENDBRANCH   9  12
ENDBRANCH   6   9
ENDBRANCH   3   5
ENDBRANCH   2   3
BRANCH   2  23
ATOM     23  N   UNL     1      -9.138  -1.141  10.416  1.00  0.00    -0.332 N 
ATOM     24  C   UNL     1      -9.402   0.285  10.540  1.00  0.00     0.147 C 
BRANCH  23  25
ATOM     25  C   UNL     1      -7.881  -1.485   9.696  1.00  0.00     0.174 C 
BRANCH  25  26
ATOM     26  C   UNL     1      -6.855  -0.328   9.689  1.00  0.00     0.038 C 
BRANCH  26  27
ATOM     27  C   UNL     1      -5.420  -0.662  10.156  1.00  0.00    -0.015 C 
ATOM     28  C   UNL     1      -4.542   0.583  10.282  1.00  0.00     0.007 C 
ATOM     29  C   UNL     1      -5.376  -1.483  11.443  1.00  0.00     0.007 C 
ENDBRANCH  26  27
ENDBRANCH  25  26
BRANCH  25  30
ATOM     30  C   UNL     1      -8.208  -2.034   8.288  1.00  0.00     0.243 C 
ATOM     31  O   UNL     1      -9.246  -1.735   7.699  1.00  0.00    -0.273 OA
ATOM     32  N   UNL     1      -7.271  -2.877   7.747  1.00  0.00    -0.342 N 
ATOM     33  H   UNL     1      -6.375  -2.963   8.234  1.00  0.00     0.164 HD
BRANCH  32  34
ATOM     34  C   UNL     1      -7.425  -3.512   6.436  1.00  0.00     0.175 C 
BRANCH  34  35
ATOM     35  C   UNL     1      -6.061  -3.831   5.805  1.00  0.00     0.070 C 
BRANCH  35  36
ATOM     36  C   UNL     1      -5.971  -3.402   4.358  1.00  0.00    -0.045 A 
ATOM     37  C   UNL     1      -5.596  -4.329   3.374  1.00  0.00     0.007 A 
ATOM     38  C   UNL     1      -6.236  -2.079   3.983  1.00  0.00     0.007 A 
ATOM     39  C   UNL     1      -5.497  -3.939   2.038  1.00  0.00     0.046 A 
ATOM     40  C   UNL     1      -6.136  -1.687   2.645  1.00  0.00     0.046 A 
ATOM     41  C   UNL     1      -5.768  -2.623   1.684  1.00  0.00     0.115 A 
BRANCH  41  42
ATOM     42  O   UNL     1      -5.656  -2.282   0.369  1.00  0.00    -0.508 OA
ATOM     43  H   UNL     1      -6.533  -2.362  -0.042  1.00  0.00     0.293 HD
ENDBRANCH  41  42
ENDBRANCH  35  36
ENDBRANCH  34  35
BRANCH  34  44
ATOM     44  C   UNL     1      -8.289  -4.781   6.617  1.00  0.00     0.243 C 
ATOM     45  O   UNL     1      -9.345  -4.991   6.029  1.00  0.00    -0.273 OA
ATOM     46  N   UNL     1      -7.831  -5.618   7.612  1.00  0.00    -0.341 N 
ATOM     47  H   UNL     1      -7.015  -5.343   8.153  1.00  0.00     0.164 HD
BRANCH  46  48
ATOM     48  C   UNL     1      -8.521  -6.847   8.012  1.00  0.00     0.196 C 
BRANCH  48  49
ATOM     49  C   UNL     1      -7.579  -8.061   7.957  1.00  0.00     0.072 C 
BRANCH  49  50
ATOM     50  C   UNL     1      -6.256  -7.742   7.297  1.00  0.00    -0.045 A 
ATOM     51  C   UNL     1      -5.134  -7.449   8.086  1.00  0.00     0.007 A 
ATOM     52  C   UNL     1      -6.135  -7.714   5.902  1.00  0.00     0.007 A 
ATOM     53  C   UNL     1      -3.912  -7.140   7.488  1.00  0.00     0.046 A 
ATOM     54  C   UNL     1      -4.912  -7.404   5.303  1.00  0.00     0.046 A 
ATOM     55  C   UNL     1      -3.810  -7.120   6.102  1.00  0.00     0.115 A 
BRANCH  55  56
ATOM     56  O   UNL     1      -2.599  -6.812   5.558  1.00  0.00    -0.508 OA
ATOM     57  H   UNL     1      -2.110  -7.637   5.410  1.00  0.00     0.293 HD
ENDBRANCH  55  56
ENDBRANCH  49  50
ENDBRANCH  48  49
BRANCH  48  58
ATOM     58  C   UNL     1      -9.057  -6.676   9.440  1.00  0.00     0.326 C 
ATOM     59  O   UNL     1     -10.045  -6.050   9.789  1.00  0.00    -0.250 OA
BRANCH  58  60
ATOM     60  O   UNL     1      -8.320  -7.325  10.377  1.00  0.00    -0.480 OA
ATOM     61  H   UNL     1      -7.596  -7.731   9.852  1.00  0.00     0.296 HD
ENDBRANCH  58  60
ENDBRANCH  48  58
ENDBRANCH  46  48
ENDBRANCH  34  44
ENDBRANCH  32  34
ENDBRANCH  25  30
ENDBRANCH  23  25
ENDBRANCH   2  23
TORSDOF 28
ENDMDL
MODEL 16
REMARK VINA RESULT:    -6.276      2.164      6.007
REMARK INTER + INTRA:         -23.438
REMARK INTER:                 -17.986
REMARK INTRA:                  -5.451
REMARK UNBOUND:                -7.807
REMARK SMILES CCCCCCC[C@H](N)[C@H](O)C(=O)N[C@H](C)C(=O)N(C)[C@H](CC(C)C)C(=O)N[C@@H](Cc1ccc(O)cc1)C(=O)N[C@@H](Cc1ccc(O)cc1)C(=O)O
REMARK SMILES IDX 18 1 17 2 15 3 16 4 14 5 12 6 13 7 10 9 11 10 8 12 9 13 7 16
REMARK SMILES IDX 6 17 5 18 4 19 3 20 2 21 1 22 19 23 20 24 21 25 22 26 23 27
REMARK SMILES IDX 24 28 25 29 26 30 27 31 28 32 29 34 30 35 31 36 32 37 37 38
REMARK SMILES IDX 33 39 36 40 34 41 35 42 38 44 39 45 40 46 41 48 42 49 43 50
REMARK SMILES IDX 44 51 49 52 45 53 48 54 46 55 47 56 50 58 51 59 52 60
REMARK H PARENT 14 8 11 11 9 14 9 15 28 33 35 43 40 47 47 57 52 61
ROOT
ATOM      1  O   UNL     1      -3.238  -5.005  13.046  1.00  0.00    -0.272 OA
ATOM      2  C   UNL     1      -3.349  -4.331  12.011  1.00  0.00     0.245 C 
ENDROOT
BRANCH   2   3
ATOM      3  C   UNL     1      -3.379  -5.067  10.648  1.00  0.00     0.168 C 
ATOM      4  C   UNL     1      -2.064  -5.797  10.398  1.00  0.00     0.041 C 
BRANCH   3   5
ATOM      5  N   UNL     1      -4.528  -5.935  10.447  1.00  0.00    -0.342 N 
ATOM      6  C   UNL     1      -5.473  -5.679   9.476  1.00  0.00     0.251 C 
ATOM      7  O   UNL     1      -5.443  -4.694   8.746  1.00  0.00    -0.272 OA
ATOM      8  H   UNL     1      -4.679  -6.765  11.016  1.00  0.00     0.164 HD
BRANCH   6   9
ATOM      9  C   UNL     1      -6.516  -6.802   9.351  1.00  0.00     0.219 C 
BRANCH   9  10
ATOM     10  O   UNL     1      -7.818  -6.311   9.010  1.00  0.00    -0.382 OA
ATOM     11  H   UNL     1      -8.373  -6.575   9.776  1.00  0.00     0.211 HD
ENDBRANCH   9  10
BRANCH   9  12
ATOM     12  C   UNL     1      -6.081  -7.931   8.381  1.00  0.00     0.089 C 
BRANCH  12  13
ATOM     13  N   UNL     1      -6.910  -9.127   8.655  1.00  0.00    -0.325 NA
ATOM     14  H   UNL     1      -7.542  -9.286   7.868  1.00  0.00     0.119 HD
ATOM     15  H   UNL     1      -7.520  -8.932   9.452  1.00  0.00     0.119 HD
ENDBRANCH  12  13
BRANCH  12  16
ATOM     16  C   UNL     1      -6.129  -7.586   6.873  1.00  0.00     0.022 C 
BRANCH  16  17
ATOM     17  C   UNL     1      -4.815  -7.499   6.085  1.00  0.00     0.002 C 
BRANCH  17  18
ATOM     18  C   UNL     1      -3.571  -7.242   6.932  1.00  0.00     0.000 C 
BRANCH  18  19
ATOM     19  C   UNL     1      -2.396  -6.641   6.149  1.00  0.00    -0.000 C 
BRANCH  19  20
ATOM     20  C   UNL     1      -1.831  -5.338   6.722  1.00  0.00    -0.000 C 
BRANCH  20  21
ATOM     21  C   UNL     1      -0.383  -5.076   6.300  1.00  0.00    -0.003 C 
ATOM     22  C   UNL     1       0.563  -5.147   7.489  1.00  0.00     0.004 C 
ENDBRANCH  20  21
ENDBRANCH  19  20
ENDBRANCH  18  19
ENDBRANCH  17  18
ENDBRANCH  16  17
ENDBRANCH  12  16
ENDBRANCH   9  12
ENDBRANCH   6   9
ENDBRANCH   3   5
ENDBRANCH   2   3
BRANCH   2  23
ATOM     23  N   UNL     1      -3.565  -2.960  12.093  1.00  0.00    -0.332 N 
ATOM     24  C   UNL     1      -3.161  -2.126  13.215  1.00  0.00     0.147 C 
BRANCH  23  25
ATOM     25  C   UNL     1      -4.134  -2.218  10.934  1.00  0.00     0.174 C 
BRANCH  25  26
ATOM     26  C   UNL     1      -3.504  -0.817  10.748  1.00  0.00     0.038 C 
BRANCH  26  27
ATOM     27  C   UNL     1      -2.203  -0.739   9.920  1.00  0.00    -0.015 C 
ATOM     28  C   UNL     1      -1.922  -2.029   9.150  1.00  0.00     0.007 C 
ATOM     29  C   UNL     1      -2.150   0.466   8.985  1.00  0.00     0.007 C 
ENDBRANCH  26  27
ENDBRANCH  25  26
BRANCH  25  30
ATOM     30  C   UNL     1      -5.677  -2.199  11.020  1.00  0.00     0.243 C 
ATOM     31  O   UNL     1      -6.274  -2.489  12.056  1.00  0.00    -0.273 OA
ATOM     32  N   UNL     1      -6.331  -1.846   9.868  1.00  0.00    -0.342 N 
ATOM     33  H   UNL     1      -5.767  -1.483   9.095  1.00  0.00     0.164 HD
BRANCH  32  34
ATOM     34  C   UNL     1      -7.792  -1.801   9.756  1.00  0.00     0.175 C 
BRANCH  34  35
ATOM     35  C   UNL     1      -8.356  -0.495  10.337  1.00  0.00     0.070 C 
BRANCH  35  36
ATOM     36  C   UNL     1      -9.352  -0.732  11.450  1.00  0.00    -0.045 A 
ATOM     37  C   UNL     1      -9.775   0.338  12.253  1.00  0.00     0.007 A 
ATOM     38  C   UNL     1      -9.847  -2.016  11.710  1.00  0.00     0.007 A 
ATOM     39  C   UNL     1     -10.683   0.127  13.291  1.00  0.00     0.046 A 
ATOM     40  C   UNL     1     -10.755  -2.229  12.750  1.00  0.00     0.046 A 
ATOM     41  C   UNL     1     -11.166  -1.153  13.531  1.00  0.00     0.115 A 
BRANCH  41  42
ATOM     42  O   UNL     1     -12.049  -1.318  14.556  1.00  0.00    -0.508 OA
ATOM     43  H   UNL     1     -12.361  -2.238  14.546  1.00  0.00     0.293 HD
ENDBRANCH  41  42
ENDBRANCH  35  36
ENDBRANCH  34  35
BRANCH  34  44
ATOM     44  C   UNL     1      -8.164  -1.979   8.267  1.00  0.00     0.243 C 
ATOM     45  O   UNL     1      -9.248  -1.669   7.781  1.00  0.00    -0.273 OA
ATOM     46  N   UNL     1      -7.204  -2.648   7.538  1.00  0.00    -0.341 N 
ATOM     47  H   UNL     1      -6.371  -2.989   8.013  1.00  0.00     0.164 HD
BRANCH  46  48
ATOM     48  C   UNL     1      -7.362  -2.994   6.124  1.00  0.00     0.196 C 
BRANCH  48  49
ATOM     49  C   UNL     1      -6.031  -2.866   5.364  1.00  0.00     0.072 C 
BRANCH  49  50
ATOM     50  C   UNL     1      -6.069  -1.790   4.302  1.00  0.00    -0.045 A 
ATOM     51  C   UNL     1      -6.016  -0.439   4.673  1.00  0.00     0.007 A 
ATOM     52  C   UNL     1      -6.178  -2.120   2.945  1.00  0.00     0.007 A 
ATOM     53  C   UNL     1      -6.063   0.562   3.703  1.00  0.00     0.046 A 
ATOM     54  C   UNL     1      -6.226  -1.118   1.974  1.00  0.00     0.046 A 
ATOM     55  C   UNL     1      -6.167   0.216   2.362  1.00  0.00     0.115 A 
BRANCH  55  56
ATOM     56  O   UNL     1      -6.212   1.225   1.445  1.00  0.00    -0.508 OA
ATOM     57  H   UNL     1      -6.948   1.052   0.836  1.00  0.00     0.293 HD
ENDBRANCH  55  56
ENDBRANCH  49  50
ENDBRANCH  48  49
BRANCH  48  58
ATOM     58  C   UNL     1      -7.879  -4.435   6.017  1.00  0.00     0.326 C 
ATOM     59  O   UNL     1      -8.745  -4.962   6.696  1.00  0.00    -0.250 OA
BRANCH  58  60
ATOM     60  O   UNL     1      -7.282  -5.153   5.032  1.00  0.00    -0.480 OA
ATOM     61  H   UNL     1      -7.062  -4.473   4.359  1.00  0.00     0.296 HD
ENDBRANCH  58  60
ENDBRANCH  48  58
ENDBRANCH  46  48
ENDBRANCH  34  44
ENDBRANCH  32  34
ENDBRANCH  25  30
ENDBRANCH  23  25
ENDBRANCH   2  23
TORSDOF 28
ENDMDL
MODEL 17
REMARK VINA RESULT:    -6.259      2.416      6.920
REMARK INTER + INTRA:         -23.397
REMARK INTER:                 -17.581
REMARK INTRA:                  -5.816
REMARK UNBOUND:                -7.807
REMARK SMILES CCCCCCC[C@H](N)[C@H](O)C(=O)N[C@H](C)C(=O)N(C)[C@H](CC(C)C)C(=O)N[C@@H](Cc1ccc(O)cc1)C(=O)N[C@@H](Cc1ccc(O)cc1)C(=O)O
REMARK SMILES IDX 18 1 17 2 15 3 16 4 14 5 12 6 13 7 10 9 11 10 8 12 9 13 7 16
REMARK SMILES IDX 6 17 5 18 4 19 3 20 2 21 1 22 19 23 20 24 21 25 22 26 23 27
REMARK SMILES IDX 24 28 25 29 26 30 27 31 28 32 29 34 30 35 31 36 32 37 37 38
REMARK SMILES IDX 33 39 36 40 34 41 35 42 38 44 39 45 40 46 41 48 42 49 43 50
REMARK SMILES IDX 44 51 49 52 45 53 48 54 46 55 47 56 50 58 51 59 52 60
REMARK H PARENT 14 8 11 11 9 14 9 15 28 33 35 43 40 47 47 57 52 61
ROOT
ATOM      1  O   UNL     1      -3.472  -4.132  10.672  1.00  0.00    -0.272 OA
ATOM      2  C   UNL     1      -2.467  -4.462  10.025  1.00  0.00     0.245 C 
ENDROOT
BRANCH   2   3
ATOM      3  C   UNL     1      -2.105  -5.965   9.934  1.00  0.00     0.168 C 
ATOM      4  C   UNL     1      -0.970  -6.308  10.893  1.00  0.00     0.041 C 
BRANCH   3   5
ATOM      5  N   UNL     1      -3.230  -6.875  10.079  1.00  0.00    -0.342 N 
ATOM      6  C   UNL     1      -4.033  -7.216   9.010  1.00  0.00     0.251 C 
ATOM      7  O   UNL     1      -3.889  -6.755   7.883  1.00  0.00    -0.272 OA
ATOM      8  H   UNL     1      -3.470  -7.294  10.974  1.00  0.00     0.164 HD
BRANCH   6   9
ATOM      9  C   UNL     1      -5.067  -8.297   9.365  1.00  0.00     0.219 C 
BRANCH   9  10
ATOM     10  O   UNL     1      -4.724  -9.021  10.552  1.00  0.00    -0.382 OA
ATOM     11  H   UNL     1      -3.782  -9.262  10.413  1.00  0.00     0.211 HD
ENDBRANCH   9  10
BRANCH   9  12
ATOM     12  C   UNL     1      -6.515  -7.748   9.452  1.00  0.00     0.089 C 
BRANCH  12  13
ATOM     13  N   UNL     1      -6.466  -6.391  10.043  1.00  0.00    -0.325 NA
ATOM     14  H   UNL     1      -6.001  -5.758   9.390  1.00  0.00     0.119 HD
ATOM     15  H   UNL     1      -5.865  -6.411  10.869  1.00  0.00     0.119 HD
ENDBRANCH  12  13
BRANCH  12  16
ATOM     16  C   UNL     1      -7.312  -7.723   8.126  1.00  0.00     0.022 C 
BRANCH  16  17
ATOM     17  C   UNL     1      -8.504  -6.766   7.989  1.00  0.00     0.002 C 
BRANCH  17  18
ATOM     18  C   UNL     1      -8.204  -5.462   7.254  1.00  0.00     0.000 C 
BRANCH  18  19
ATOM     19  C   UNL     1      -6.864  -5.461   6.506  1.00  0.00    -0.000 C 
BRANCH  19  20
ATOM     20  C   UNL     1      -6.967  -5.294   4.987  1.00  0.00    -0.000 C 
BRANCH  20  21
ATOM     21  C   UNL     1      -5.669  -5.647   4.256  1.00  0.00    -0.003 C 
ATOM     22  C   UNL     1      -4.472  -4.948   4.882  1.00  0.00     0.004 C 
ENDBRANCH  20  21
ENDBRANCH  19  20
ENDBRANCH  18  19
ENDBRANCH  17  18
ENDBRANCH  16  17
ENDBRANCH  12  16
ENDBRANCH   9  12
ENDBRANCH   6   9
ENDBRANCH   3   5
ENDBRANCH   2   3
BRANCH   2  23
ATOM     23  N   UNL     1      -1.761  -3.507   9.301  1.00  0.00    -0.332 N 
ATOM     24  C   UNL     1      -0.744  -2.630   9.863  1.00  0.00     0.147 C 
BRANCH  23  25
ATOM     25  C   UNL     1      -1.925  -3.411   7.825  1.00  0.00     0.174 C 
BRANCH  25  26
ATOM     26  C   UNL     1      -0.577  -3.434   7.067  1.00  0.00     0.038 C 
BRANCH  26  27
ATOM     27  C   UNL     1       0.006  -4.822   6.718  1.00  0.00    -0.015 C 
ATOM     28  C   UNL     1       0.968  -5.338   7.788  1.00  0.00     0.007 C 
ATOM     29  C   UNL     1      -1.061  -5.868   6.405  1.00  0.00     0.007 C 
ENDBRANCH  26  27
ENDBRANCH  25  26
BRANCH  25  30
ATOM     30  C   UNL     1      -2.819  -2.202   7.466  1.00  0.00     0.243 C 
ATOM     31  O   UNL     1      -2.343  -1.121   7.122  1.00  0.00    -0.273 OA
ATOM     32  N   UNL     1      -4.170  -2.415   7.561  1.00  0.00    -0.342 N 
ATOM     33  H   UNL     1      -4.489  -3.375   7.714  1.00  0.00     0.164 HD
BRANCH  32  34
ATOM     34  C   UNL     1      -5.167  -1.376   7.286  1.00  0.00     0.175 C 
BRANCH  34  35
ATOM     35  C   UNL     1      -6.230  -1.871   6.294  1.00  0.00     0.070 C 
BRANCH  35  36
ATOM     36  C   UNL     1      -6.200  -1.121   4.982  1.00  0.00    -0.045 A 
ATOM     37  C   UNL     1      -6.179   0.282   4.975  1.00  0.00     0.007 A 
ATOM     38  C   UNL     1      -6.216  -1.808   3.760  1.00  0.00     0.007 A 
ATOM     39  C   UNL     1      -6.165   0.983   3.769  1.00  0.00     0.046 A 
ATOM     40  C   UNL     1      -6.203  -1.106   2.552  1.00  0.00     0.046 A 
ATOM     41  C   UNL     1      -6.176   0.284   2.568  1.00  0.00     0.115 A 
BRANCH  41  42
ATOM     42  O   UNL     1      -6.165   1.007   1.412  1.00  0.00    -0.508 OA
ATOM     43  H   UNL     1      -7.080   1.259   1.201  1.00  0.00     0.293 HD
ENDBRANCH  41  42
ENDBRANCH  35  36
ENDBRANCH  34  35
BRANCH  34  44
ATOM     44  C   UNL     1      -5.790  -0.942   8.632  1.00  0.00     0.243 C 
ATOM     45  O   UNL     1      -5.274  -0.145   9.411  1.00  0.00    -0.273 OA
ATOM     46  N   UNL     1      -6.937  -1.635   8.954  1.00  0.00    -0.341 N 
ATOM     47  H   UNL     1      -7.263  -2.369   8.330  1.00  0.00     0.164 HD
BRANCH  46  48
ATOM     48  C   UNL     1      -7.667  -1.445  10.210  1.00  0.00     0.196 C 
BRANCH  48  49
ATOM     49  C   UNL     1      -9.168  -1.732  10.034  1.00  0.00     0.072 C 
BRANCH  49  50
ATOM     50  C   UNL     1      -9.961  -1.477  11.296  1.00  0.00    -0.045 A 
ATOM     51  C   UNL     1      -9.993  -0.190  11.853  1.00  0.00     0.007 A 
ATOM     52  C   UNL     1     -10.652  -2.514  11.935  1.00  0.00     0.007 A 
ATOM     53  C   UNL     1     -10.710   0.055  13.024  1.00  0.00     0.046 A 
ATOM     54  C   UNL     1     -11.370  -2.269  13.108  1.00  0.00     0.046 A 
ATOM     55  C   UNL     1     -11.393  -0.986  13.642  1.00  0.00     0.115 A 
BRANCH  55  56
ATOM     56  O   UNL     1     -12.081  -0.705  14.786  1.00  0.00    -0.508 OA
ATOM     57  H   UNL     1     -12.265  -1.540  15.244  1.00  0.00     0.293 HD
ENDBRANCH  55  56
ENDBRANCH  49  50
ENDBRANCH  48  49
BRANCH  48  58
ATOM     58  C   UNL     1      -7.085  -2.387  11.273  1.00  0.00     0.326 C 
ATOM     59  O   UNL     1      -6.981  -3.601  11.208  1.00  0.00    -0.250 OA
BRANCH  58  60
ATOM     60  O   UNL     1      -6.639  -1.742  12.381  1.00  0.00    -0.480 OA
ATOM     61  H   UNL     1      -6.673  -0.796  12.121  1.00  0.00     0.296 HD
ENDBRANCH  58  60
ENDBRANCH  48  58
ENDBRANCH  46  48
ENDBRANCH  34  44
ENDBRANCH  32  34
ENDBRANCH  25  30
ENDBRANCH  23  25
ENDBRANCH   2  23
TORSDOF 28
ENDMDL
MODEL 18
REMARK VINA RESULT:    -6.229      2.505      3.570
REMARK INTER + INTRA:         -23.320
REMARK INTER:                 -18.550
REMARK INTRA:                  -4.770
REMARK UNBOUND:                -7.807
REMARK SMILES CCCCCCC[C@H](N)[C@H](O)C(=O)N[C@H](C)C(=O)N(C)[C@H](CC(C)C)C(=O)N[C@@H](Cc1ccc(O)cc1)C(=O)N[C@@H](Cc1ccc(O)cc1)C(=O)O
REMARK SMILES IDX 18 1 17 2 15 3 16 4 14 5 12 6 13 7 10 9 11 10 8 12 9 13 7 16
REMARK SMILES IDX 6 17 5 18 4 19 3 20 2 21 1 22 19 23 20 24 21 25 22 26 23 27
REMARK SMILES IDX 24 28 25 29 26 30 27 31 28 32 29 34 30 35 31 36 32 37 37 38
REMARK SMILES IDX 33 39 36 40 34 41 35 42 38 44 39 45 40 46 41 48 42 49 43 50
REMARK SMILES IDX 44 51 49 52 45 53 48 54 46 55 47 56 50 58 51 59 52 60
REMARK H PARENT 14 8 11 11 9 14 9 15 28 33 35 43 40 47 47 57 52 61
ROOT
ATOM      1  O   UNL     1      -5.237  -2.478  12.912  1.00  0.00    -0.272 OA
ATOM      2  C   UNL     1      -5.322  -3.074  11.828  1.00  0.00     0.245 C 
ENDROOT
BRANCH   2   3
ATOM      3  C   UNL     1      -4.924  -4.570  11.772  1.00  0.00     0.168 C 
ATOM      4  C   UNL     1      -5.912  -5.362  10.923  1.00  0.00     0.041 C 
BRANCH   3   5
ATOM      5  N   UNL     1      -3.547  -4.821  11.376  1.00  0.00    -0.342 N 
ATOM      6  C   UNL     1      -2.795  -5.823  11.951  1.00  0.00     0.251 C 
ATOM      7  O   UNL     1      -3.206  -6.542  12.856  1.00  0.00    -0.272 OA
ATOM      8  H   UNL     1      -3.085  -4.265  10.659  1.00  0.00     0.164 HD
BRANCH   6   9
ATOM      9  C   UNL     1      -1.423  -5.997  11.280  1.00  0.00     0.219 C 
BRANCH   9  10
ATOM     10  O   UNL     1      -1.342  -5.340  10.009  1.00  0.00    -0.382 OA
ATOM     11  H   UNL     1      -1.269  -6.083   9.370  1.00  0.00     0.211 HD
ENDBRANCH   9  10
BRANCH   9  12
ATOM     12  C   UNL     1      -0.241  -5.578  12.193  1.00  0.00     0.089 C 
BRANCH  12  13
ATOM     13  N   UNL     1      -0.290  -6.396  13.426  1.00  0.00    -0.325 NA
ATOM     14  H   UNL     1       0.655  -6.494  13.802  1.00  0.00     0.119 HD
ATOM     15  H   UNL     1      -0.580  -7.346  13.182  1.00  0.00     0.119 HD
ENDBRANCH  12  13
BRANCH  12  16
ATOM     16  C   UNL     1       1.168  -5.658  11.557  1.00  0.00     0.022 C 
BRANCH  16  17
ATOM     17  C   UNL     1       2.003  -4.377  11.426  1.00  0.00     0.002 C 
BRANCH  17  18
ATOM     18  C   UNL     1       1.600  -3.461  10.273  1.00  0.00     0.000 C 
BRANCH  18  19
ATOM     19  C   UNL     1       0.671  -2.311  10.683  1.00  0.00    -0.000 C 
BRANCH  19  20
ATOM     20  C   UNL     1       1.132  -1.505  11.901  1.00  0.00    -0.000 C 
BRANCH  20  21
ATOM     21  C   UNL     1       0.040  -1.346  12.963  1.00  0.00    -0.003 C 
ATOM     22  C   UNL     1      -1.246  -2.042  12.545  1.00  0.00     0.004 C 
ENDBRANCH  20  21
ENDBRANCH  19  20
ENDBRANCH  18  19
ENDBRANCH  17  18
ENDBRANCH  16  17
ENDBRANCH  12  16
ENDBRANCH   9  12
ENDBRANCH   6   9
ENDBRANCH   3   5
ENDBRANCH   2   3
BRANCH   2  23
ATOM     23  N   UNL     1      -5.880  -2.436  10.725  1.00  0.00    -0.332 N 
ATOM     24  C   UNL     1      -7.270  -2.015  10.631  1.00  0.00     0.147 C 
BRANCH  23  25
ATOM     25  C   UNL     1      -5.020  -2.018   9.584  1.00  0.00     0.174 C 
BRANCH  25  26
ATOM     26  C   UNL     1      -4.127  -0.800   9.918  1.00  0.00     0.038 C 
BRANCH  26  27
ATOM     27  C   UNL     1      -2.629  -0.911   9.556  1.00  0.00    -0.015 C 
ATOM     28  C   UNL     1      -2.333  -2.107   8.652  1.00  0.00     0.007 C 
ATOM     29  C   UNL     1      -2.052   0.370   8.959  1.00  0.00     0.007 C 
ENDBRANCH  26  27
ENDBRANCH  25  26
BRANCH  25  30
ATOM     30  C   UNL     1      -5.878  -1.829   8.312  1.00  0.00     0.243 C 
ATOM     31  O   UNL     1      -6.312  -0.728   7.978  1.00  0.00    -0.273 OA
ATOM     32  N   UNL     1      -6.127  -2.968   7.590  1.00  0.00    -0.342 N 
ATOM     33  H   UNL     1      -5.617  -3.816   7.852  1.00  0.00     0.164 HD
BRANCH  32  34
ATOM     34  C   UNL     1      -6.943  -2.983   6.373  1.00  0.00     0.175 C 
BRANCH  34  35
ATOM     35  C   UNL     1      -6.077  -3.198   5.122  1.00  0.00     0.070 C 
BRANCH  35  36
ATOM     36  C   UNL     1      -6.127  -2.026   4.169  1.00  0.00    -0.045 A 
ATOM     37  C   UNL     1      -6.133  -2.248   2.783  1.00  0.00     0.007 A 
ATOM     38  C   UNL     1      -6.144  -0.709   4.648  1.00  0.00     0.007 A 
ATOM     39  C   UNL     1      -6.165  -1.173   1.895  1.00  0.00     0.046 A 
ATOM     40  C   UNL     1      -6.175   0.368   3.759  1.00  0.00     0.046 A 
ATOM     41  C   UNL     1      -6.186   0.126   2.389  1.00  0.00     0.115 A 
BRANCH  41  42
ATOM     42  O   UNL     1      -6.214   1.149   1.488  1.00  0.00    -0.508 OA
ATOM     43  H   UNL     1      -5.306   1.470   1.364  1.00  0.00     0.293 HD
ENDBRANCH  41  42
ENDBRANCH  35  36
ENDBRANCH  34  35
BRANCH  34  44
ATOM     44  C   UNL     1      -8.015  -4.086   6.530  1.00  0.00     0.243 C 
ATOM     45  O   UNL     1      -9.184  -3.973   6.170  1.00  0.00    -0.273 OA
ATOM     46  N   UNL     1      -7.574  -5.183   7.239  1.00  0.00    -0.341 N 
ATOM     47  H   UNL     1      -6.631  -5.180   7.618  1.00  0.00     0.164 HD
BRANCH  46  48
ATOM     48  C   UNL     1      -8.430  -6.324   7.572  1.00  0.00     0.196 C 
BRANCH  48  49
ATOM     49  C   UNL     1      -7.643  -7.645   7.533  1.00  0.00     0.072 C 
BRANCH  49  50
ATOM     50  C   UNL     1      -6.214  -7.457   7.076  1.00  0.00    -0.045 A 
ATOM     51  C   UNL     1      -5.930  -7.325   5.709  1.00  0.00     0.007 A 
ATOM     52  C   UNL     1      -5.160  -7.434   7.997  1.00  0.00     0.007 A 
ATOM     53  C   UNL     1      -4.614  -7.165   5.274  1.00  0.00     0.046 A 
ATOM     54  C   UNL     1      -3.842  -7.275   7.562  1.00  0.00     0.046 A 
ATOM     55  C   UNL     1      -3.581  -7.140   6.203  1.00  0.00     0.115 A 
BRANCH  55  56
ATOM     56  O   UNL     1      -2.309  -6.984   5.736  1.00  0.00    -0.508 OA
ATOM     57  H   UNL     1      -1.820  -7.806   5.900  1.00  0.00     0.293 HD
ENDBRANCH  55  56
ENDBRANCH  49  50
ENDBRANCH  48  49
BRANCH  48  58
ATOM     58  C   UNL     1      -9.017  -6.115   8.975  1.00  0.00     0.326 C 
ATOM     59  O   UNL     1      -9.140  -5.059   9.575  1.00  0.00    -0.250 OA
BRANCH  58  60
ATOM     60  O   UNL     1      -9.441  -7.263   9.561  1.00  0.00    -0.480 OA
ATOM     61  H   UNL     1      -8.616  -7.788   9.653  1.00  0.00     0.296 HD
ENDBRANCH  58  60
ENDBRANCH  48  58
ENDBRANCH  46  48
ENDBRANCH  34  44
ENDBRANCH  32  34
ENDBRANCH  25  30
ENDBRANCH  23  25
ENDBRANCH   2  23
TORSDOF 28
ENDMDL
MODEL 19
REMARK VINA RESULT:    -6.216      1.314      2.038
REMARK INTER + INTRA:         -23.288
REMARK INTER:                 -16.897
REMARK INTRA:                  -6.391
REMARK UNBOUND:                -7.807
REMARK SMILES CCCCCCC[C@H](N)[C@H](O)C(=O)N[C@H](C)C(=O)N(C)[C@H](CC(C)C)C(=O)N[C@@H](Cc1ccc(O)cc1)C(=O)N[C@@H](Cc1ccc(O)cc1)C(=O)O
REMARK SMILES IDX 18 1 17 2 15 3 16 4 14 5 12 6 13 7 10 9 11 10 8 12 9 13 7 16
REMARK SMILES IDX 6 17 5 18 4 19 3 20 2 21 1 22 19 23 20 24 21 25 22 26 23 27
REMARK SMILES IDX 24 28 25 29 26 30 27 31 28 32 29 34 30 35 31 36 32 37 37 38
REMARK SMILES IDX 33 39 36 40 34 41 35 42 38 44 39 45 40 46 41 48 42 49 43 50
REMARK SMILES IDX 44 51 49 52 45 53 48 54 46 55 47 56 50 58 51 59 52 60
REMARK H PARENT 14 8 11 11 9 14 9 15 28 33 35 43 40 47 47 57 52 61
ROOT
ATOM      1  O   UNL     1      -9.193  -6.157   9.005  1.00  0.00    -0.272 OA
ATOM      2  C   UNL     1      -9.095  -6.111  10.240  1.00  0.00     0.245 C 
ENDROOT
BRANCH   2   3
ATOM      3  C   UNL     1      -8.221  -7.173  10.954  1.00  0.00     0.168 C 
ATOM      4  C   UNL     1      -8.896  -8.540  10.923  1.00  0.00     0.041 C 
BRANCH   3   5
ATOM      5  N   UNL     1      -6.842  -7.238  10.493  1.00  0.00    -0.342 N 
ATOM      6  C   UNL     1      -5.865  -6.408  11.000  1.00  0.00     0.251 C 
ATOM      7  O   UNL     1      -6.084  -5.536  11.834  1.00  0.00    -0.272 OA
ATOM      8  H   UNL     1      -6.547  -7.899   9.779  1.00  0.00     0.164 HD
BRANCH   6   9
ATOM      9  C   UNL     1      -4.462  -6.751  10.474  1.00  0.00     0.219 C 
BRANCH   9  10
ATOM     10  O   UNL     1      -4.267  -8.160  10.298  1.00  0.00    -0.382 OA
ATOM     11  H   UNL     1      -4.610  -8.330   9.394  1.00  0.00     0.211 HD
ENDBRANCH   9  10
BRANCH   9  12
ATOM     12  C   UNL     1      -4.091  -5.978   9.181  1.00  0.00     0.089 C 
BRANCH  12  13
ATOM     13  N   UNL     1      -5.323  -5.366   8.633  1.00  0.00    -0.325 NA
ATOM     14  H   UNL     1      -5.887  -6.090   8.185  1.00  0.00     0.119 HD
ATOM     15  H   UNL     1      -5.066  -4.723   7.880  1.00  0.00     0.119 HD
ENDBRANCH  12  13
BRANCH  12  16
ATOM     16  C   UNL     1      -2.984  -4.907   9.326  1.00  0.00     0.022 C 
BRANCH  16  17
ATOM     17  C   UNL     1      -3.124  -3.581   8.565  1.00  0.00     0.002 C 
BRANCH  17  18
ATOM     18  C   UNL     1      -1.871  -2.708   8.557  1.00  0.00     0.000 C 
BRANCH  18  19
ATOM     19  C   UNL     1      -1.097  -2.712   9.882  1.00  0.00    -0.000 C 
BRANCH  19  20
ATOM     20  C   UNL     1       0.363  -3.162   9.781  1.00  0.00    -0.000 C 
BRANCH  20  21
ATOM     21  C   UNL     1       0.530  -4.497   9.050  1.00  0.00    -0.003 C 
ATOM     22  C   UNL     1       1.692  -4.451   8.070  1.00  0.00     0.004 C 
ENDBRANCH  20  21
ENDBRANCH  19  20
ENDBRANCH  18  19
ENDBRANCH  17  18
ENDBRANCH  16  17
ENDBRANCH  12  16
ENDBRANCH   9  12
ENDBRANCH   6   9
ENDBRANCH   3   5
ENDBRANCH   2   3
BRANCH   2  23
ATOM     23  N   UNL     1      -9.661  -5.054  10.945  1.00  0.00    -0.332 N 
ATOM     24  C   UNL     1     -10.818  -5.169  11.820  1.00  0.00     0.147 C 
BRANCH  23  25
ATOM     25  C   UNL     1      -9.010  -3.715  10.940  1.00  0.00     0.174 C 
BRANCH  25  26
ATOM     26  C   UNL     1      -9.585  -2.762  12.014  1.00  0.00     0.038 C 
BRANCH  26  27
ATOM     27  C   UNL     1      -8.728  -1.533  12.390  1.00  0.00    -0.015 C 
ATOM     28  C   UNL     1      -9.421  -0.212  12.055  1.00  0.00     0.007 C 
ATOM     29  C   UNL     1      -8.260  -1.540  13.843  1.00  0.00     0.007 C 
ENDBRANCH  26  27
ENDBRANCH  25  26
BRANCH  25  30
ATOM     30  C   UNL     1      -9.023  -3.122   9.512  1.00  0.00     0.243 C 
ATOM     31  O   UNL     1      -9.926  -2.383   9.124  1.00  0.00    -0.273 OA
ATOM     32  N   UNL     1      -7.969  -3.479   8.711  1.00  0.00    -0.342 N 
ATOM     33  H   UNL     1      -7.190  -3.979   9.149  1.00  0.00     0.164 HD
BRANCH  32  34
ATOM     34  C   UNL     1      -7.831  -3.035   7.322  1.00  0.00     0.175 C 
BRANCH  34  35
ATOM     35  C   UNL     1      -6.408  -2.531   7.036  1.00  0.00     0.070 C 
BRANCH  35  36
ATOM     36  C   UNL     1      -6.347  -1.594   5.850  1.00  0.00    -0.045 A 
ATOM     37  C   UNL     1      -6.452  -0.208   6.045  1.00  0.00     0.007 A 
ATOM     38  C   UNL     1      -6.209  -2.091   4.548  1.00  0.00     0.007 A 
ATOM     39  C   UNL     1      -6.411   0.663   4.956  1.00  0.00     0.046 A 
ATOM     40  C   UNL     1      -6.169  -1.219   3.457  1.00  0.00     0.046 A 
ATOM     41  C   UNL     1      -6.269   0.152   3.672  1.00  0.00     0.115 A 
BRANCH  41  42
ATOM     42  O   UNL     1      -6.236   1.037   2.635  1.00  0.00    -0.508 OA
ATOM     43  H   UNL     1      -5.737   1.820   2.919  1.00  0.00     0.293 HD
ENDBRANCH  41  42
ENDBRANCH  35  36
ENDBRANCH  34  35
BRANCH  34  44
ATOM     44  C   UNL     1      -8.222  -4.213   6.401  1.00  0.00     0.243 C 
ATOM     45  O   UNL     1      -9.329  -4.357   5.891  1.00  0.00    -0.273 OA
ATOM     46  N   UNL     1      -7.243  -5.179   6.300  1.00  0.00    -0.341 N 
ATOM     47  H   UNL     1      -6.385  -5.071   6.836  1.00  0.00     0.164 HD
BRANCH  46  48
ATOM     48  C   UNL     1      -7.410  -6.419   5.539  1.00  0.00     0.196 C 
BRANCH  48  49
ATOM     49  C   UNL     1      -6.407  -6.502   4.376  1.00  0.00     0.072 C 
BRANCH  49  50
ATOM     50  C   UNL     1      -5.000  -6.141   4.795  1.00  0.00    -0.045 A 
ATOM     51  C   UNL     1      -4.226  -7.065   5.512  1.00  0.00     0.007 A 
ATOM     52  C   UNL     1      -4.458  -4.885   4.495  1.00  0.00     0.007 A 
ATOM     53  C   UNL     1      -2.931  -6.739   5.915  1.00  0.00     0.046 A 
ATOM     54  C   UNL     1      -3.162  -4.558   4.900  1.00  0.00     0.046 A 
ATOM     55  C   UNL     1      -2.409  -5.489   5.606  1.00  0.00     0.115 A 
BRANCH  55  56
ATOM     56  O   UNL     1      -1.140  -5.209   6.020  1.00  0.00    -0.508 OA
ATOM     57  H   UNL     1      -0.602  -5.003   5.239  1.00  0.00     0.293 HD
ENDBRANCH  55  56
ENDBRANCH  49  50
ENDBRANCH  48  49
BRANCH  48  58
ATOM     58  C   UNL     1      -7.207  -7.614   6.481  1.00  0.00     0.326 C 
ATOM     59  O   UNL     1      -6.902  -7.581   7.662  1.00  0.00    -0.250 OA
BRANCH  58  60
ATOM     60  O   UNL     1      -7.414  -8.815   5.884  1.00  0.00    -0.480 OA
ATOM     61  H   UNL     1      -7.016  -9.453   6.515  1.00  0.00     0.296 HD
ENDBRANCH  58  60
ENDBRANCH  48  58
ENDBRANCH  46  48
ENDBRANCH  34  44
ENDBRANCH  32  34
ENDBRANCH  25  30
ENDBRANCH  23  25
ENDBRANCH   2  23
TORSDOF 28
ENDMDL
MODEL 20
REMARK VINA RESULT:    -6.191      2.198      5.813
REMARK INTER + INTRA:         -23.226
REMARK INTER:                 -17.466
REMARK INTRA:                  -5.761
REMARK UNBOUND:                -7.807
REMARK SMILES CCCCCCC[C@H](N)[C@H](O)C(=O)N[C@H](C)C(=O)N(C)[C@H](CC(C)C)C(=O)N[C@@H](Cc1ccc(O)cc1)C(=O)N[C@@H](Cc1ccc(O)cc1)C(=O)O
REMARK SMILES IDX 18 1 17 2 15 3 16 4 14 5 12 6 13 7 10 9 11 10 8 12 9 13 7 16
REMARK SMILES IDX 6 17 5 18 4 19 3 20 2 21 1 22 19 23 20 24 21 25 22 26 23 27
REMARK SMILES IDX 24 28 25 29 26 30 27 31 28 32 29 34 30 35 31 36 32 37 37 38
REMARK SMILES IDX 33 39 36 40 34 41 35 42 38 44 39 45 40 46 41 48 42 49 43 50
REMARK SMILES IDX 44 51 49 52 45 53 48 54 46 55 47 56 50 58 51 59 52 60
REMARK H PARENT 14 8 11 11 9 14 9 15 28 33 35 43 40 47 47 57 52 61
ROOT
ATOM      1  O   UNL     1      -6.478  -8.471   9.789  1.00  0.00    -0.272 OA
ATOM      2  C   UNL     1      -5.830  -7.555  10.317  1.00  0.00     0.245 C 
ENDROOT
BRANCH   2   3
ATOM      3  C   UNL     1      -4.323  -7.426   9.985  1.00  0.00     0.168 C 
ATOM      4  C   UNL     1      -3.485  -8.274  10.935  1.00  0.00     0.041 C 
BRANCH   3   5
ATOM      5  N   UNL     1      -3.980  -7.674   8.593  1.00  0.00    -0.342 N 
ATOM      6  C   UNL     1      -4.043  -6.679   7.640  1.00  0.00     0.251 C 
ATOM      7  O   UNL     1      -4.426  -5.538   7.877  1.00  0.00    -0.272 OA
ATOM      8  H   UNL     1      -3.682  -8.591   8.269  1.00  0.00     0.164 HD
BRANCH   6   9
ATOM      9  C   UNL     1      -3.502  -7.130   6.274  1.00  0.00     0.219 C 
BRANCH   9  10
ATOM     10  O   UNL     1      -4.544  -7.462   5.349  1.00  0.00    -0.382 OA
ATOM     11  H   UNL     1      -4.984  -6.600   5.177  1.00  0.00     0.211 HD
ENDBRANCH   9  10
BRANCH   9  12
ATOM     12  C   UNL     1      -2.511  -6.115   5.646  1.00  0.00     0.089 C 
BRANCH  12  13
ATOM     13  N   UNL     1      -3.277  -4.926   5.205  1.00  0.00    -0.325 NA
ATOM     14  H   UNL     1      -2.994  -4.677   4.256  1.00  0.00     0.119 HD
ATOM     15  H   UNL     1      -3.007  -4.126   5.783  1.00  0.00     0.119 HD
ENDBRANCH  12  13
BRANCH  12  16
ATOM     16  C   UNL     1      -1.326  -5.681   6.542  1.00  0.00     0.022 C 
BRANCH  16  17
ATOM     17  C   UNL     1      -1.236  -4.221   7.007  1.00  0.00     0.002 C 
BRANCH  17  18
ATOM     18  C   UNL     1      -0.469  -4.006   8.310  1.00  0.00     0.000 C 
BRANCH  18  19
ATOM     19  C   UNL     1       0.099  -5.294   8.921  1.00  0.00    -0.000 C 
BRANCH  19  20
ATOM     20  C   UNL     1      -0.591  -5.763  10.205  1.00  0.00    -0.000 C 
BRANCH  20  21
ATOM     21  C   UNL     1      -0.043  -5.082  11.462  1.00  0.00    -0.003 C 
ATOM     22  C   UNL     1       1.455  -5.301  11.604  1.00  0.00     0.004 C 
ENDBRANCH  20  21
ENDBRANCH  19  20
ENDBRANCH  18  19
ENDBRANCH  17  18
ENDBRANCH  16  17
ENDBRANCH  12  16
ENDBRANCH   9  12
ENDBRANCH   6   9
ENDBRANCH   3   5
ENDBRANCH   2   3
BRANCH   2  23
ATOM     23  N   UNL     1      -6.481  -6.599  11.090  1.00  0.00    -0.332 N 
ATOM     24  C   UNL     1      -7.248  -6.891  12.292  1.00  0.00     0.147 C 
BRANCH  23  25
ATOM     25  C   UNL     1      -6.317  -5.150  10.788  1.00  0.00     0.174 C 
BRANCH  25  26
ATOM     26  C   UNL     1      -5.835  -4.332  12.009  1.00  0.00     0.038 C 
BRANCH  26  27
ATOM     27  C   UNL     1      -4.319  -4.047  12.107  1.00  0.00    -0.015 C 
ATOM     28  C   UNL     1      -3.567  -5.141  12.865  1.00  0.00     0.007 C 
ATOM     29  C   UNL     1      -3.663  -3.782  10.754  1.00  0.00     0.007 C 
ENDBRANCH  26  27
ENDBRANCH  25  26
BRANCH  25  30
ATOM     30  C   UNL     1      -7.602  -4.594  10.135  1.00  0.00     0.243 C 
ATOM     31  O   UNL     1      -8.479  -5.334   9.691  1.00  0.00    -0.273 OA
ATOM     32  N   UNL     1      -7.696  -3.227  10.080  1.00  0.00    -0.342 N 
ATOM     33  H   UNL     1      -6.998  -2.683  10.595  1.00  0.00     0.164 HD
BRANCH  32  34
ATOM     34  C   UNL     1      -8.829  -2.524   9.473  1.00  0.00     0.175 C 
BRANCH  34  35
ATOM     35  C   UNL     1      -9.016  -1.129  10.087  1.00  0.00     0.070 C 
BRANCH  35  36
ATOM     36  C   UNL     1      -9.793  -1.160  11.384  1.00  0.00    -0.045 A 
ATOM     37  C   UNL     1     -10.469  -2.328  11.769  1.00  0.00     0.007 A 
ATOM     38  C   UNL     1      -9.870  -0.026  12.203  1.00  0.00     0.007 A 
ATOM     39  C   UNL     1     -11.200  -2.362  12.957  1.00  0.00     0.046 A 
ATOM     40  C   UNL     1     -10.603  -0.059  13.392  1.00  0.00     0.046 A 
ATOM     41  C   UNL     1     -11.261  -1.229  13.759  1.00  0.00     0.115 A 
BRANCH  41  42
ATOM     42  O   UNL     1     -11.988  -1.303  14.910  1.00  0.00    -0.508 OA
ATOM     43  H   UNL     1     -11.565  -1.952  15.496  1.00  0.00     0.293 HD
ENDBRANCH  41  42
ENDBRANCH  35  36
ENDBRANCH  34  35
BRANCH  34  44
ATOM     44  C   UNL     1      -8.589  -2.456   7.948  1.00  0.00     0.243 C 
ATOM     45  O   UNL     1      -9.361  -1.937   7.146  1.00  0.00    -0.273 OA
ATOM     46  N   UNL     1      -7.474  -3.155   7.536  1.00  0.00    -0.341 N 
ATOM     47  H   UNL     1      -6.930  -3.667   8.226  1.00  0.00     0.164 HD
BRANCH  46  48
ATOM     48  C   UNL     1      -7.081  -3.291   6.132  1.00  0.00     0.196 C 
BRANCH  48  49
ATOM     49  C   UNL     1      -5.777  -2.530   5.839  1.00  0.00     0.072 C 
BRANCH  49  50
ATOM     50  C   UNL     1      -5.903  -1.589   4.663  1.00  0.00    -0.045 A 
ATOM     51  C   UNL     1      -6.007  -0.207   4.882  1.00  0.00     0.007 A 
ATOM     52  C   UNL     1      -5.941  -2.076   3.350  1.00  0.00     0.007 A 
ATOM     53  C   UNL     1      -6.138   0.670   3.805  1.00  0.00     0.046 A 
ATOM     54  C   UNL     1      -6.073  -1.197   2.273  1.00  0.00     0.046 A 
ATOM     55  C   UNL     1      -6.169   0.169   2.510  1.00  0.00     0.115 A 
BRANCH  55  56
ATOM     56  O   UNL     1      -6.300   1.060   1.486  1.00  0.00    -0.508 OA
ATOM     57  H   UNL     1      -5.742   1.830   1.677  1.00  0.00     0.293 HD
ENDBRANCH  55  56
ENDBRANCH  49  50
ENDBRANCH  48  49
BRANCH  48  58
ATOM     58  C   UNL     1      -6.893  -4.779   5.808  1.00  0.00     0.326 C 
ATOM     59  O   UNL     1      -6.412  -5.260   4.794  1.00  0.00    -0.250 OA
BRANCH  58  60
ATOM     60  O   UNL     1      -7.312  -5.606   6.799  1.00  0.00    -0.480 OA
ATOM     61  H   UNL     1      -8.162  -5.205   7.083  1.00  0.00     0.296 HD
ENDBRANCH  58  60
ENDBRANCH  48  58
ENDBRANCH  46  48
ENDBRANCH  34  44
ENDBRANCH  32  34
ENDBRANCH  25  30
ENDBRANCH  23  25
ENDBRANCH   2  23
TORSDOF 28
ENDMDL
MODEL 21
REMARK VINA RESULT:    -6.174      2.411      5.641
REMARK INTER + INTRA:         -23.185
REMARK INTER:                 -17.469
REMARK INTRA:                  -5.716
REMARK UNBOUND:                -7.807
REMARK SMILES CCCCCCC[C@H](N)[C@H](O)C(=O)N[C@H](C)C(=O)N(C)[C@H](CC(C)C)C(=O)N[C@@H](Cc1ccc(O)cc1)C(=O)N[C@@H](Cc1ccc(O)cc1)C(=O)O
REMARK SMILES IDX 18 1 17 2 15 3 16 4 14 5 12 6 13 7 10 9 11 10 8 12 9 13 7 16
REMARK SMILES IDX 6 17 5 18 4 19 3 20 2 21 1 22 19 23 20 24 21 25 22 26 23 27
REMARK SMILES IDX 24 28 25 29 26 30 27 31 28 32 29 34 30 35 31 36 32 37 37 38
REMARK SMILES IDX 33 39 36 40 34 41 35 42 38 44 39 45 40 46 41 48 42 49 43 50
REMARK SMILES IDX 44 51 49 52 45 53 48 54 46 55 47 56 50 58 51 59 52 60
REMARK H PARENT 14 8 11 11 9 14 9 15 28 33 35 43 40 47 47 57 52 61
ROOT
ATOM      1  O   UNL     1      -5.106  -5.742  14.134  1.00  0.00    -0.272 OA
ATOM      2  C   UNL     1      -5.223  -5.922  12.912  1.00  0.00     0.245 C 
ENDROOT
BRANCH   2   3
ATOM      3  C   UNL     1      -5.471  -7.361  12.396  1.00  0.00     0.168 C 
ATOM      4  C   UNL     1      -5.942  -8.268  13.526  1.00  0.00     0.041 C 
BRANCH   3   5
ATOM      5  N   UNL     1      -6.338  -7.451  11.231  1.00  0.00    -0.342 N 
ATOM      6  C   UNL     1      -6.045  -8.278  10.167  1.00  0.00     0.251 C 
ATOM      7  O   UNL     1      -5.027  -8.959  10.101  1.00  0.00    -0.272 OA
ATOM      8  H   UNL     1      -7.194  -6.906  11.157  1.00  0.00     0.164 HD
BRANCH   6   9
ATOM      9  C   UNL     1      -7.169  -8.319   9.119  1.00  0.00     0.219 C 
BRANCH   9  10
ATOM     10  O   UNL     1      -8.158  -7.304   9.329  1.00  0.00    -0.382 OA
ATOM     11  H   UNL     1      -7.798  -6.527   8.848  1.00  0.00     0.211 HD
ENDBRANCH   9  10
BRANCH   9  12
ATOM     12  C   UNL     1      -6.642  -8.281   7.661  1.00  0.00     0.089 C 
BRANCH  12  13
ATOM     13  N   UNL     1      -7.805  -8.305   6.743  1.00  0.00    -0.325 NA
ATOM     14  H   UNL     1      -8.510  -7.645   7.077  1.00  0.00     0.119 HD
ATOM     15  H   UNL     1      -8.251  -9.223   6.799  1.00  0.00     0.119 HD
ENDBRANCH  12  13
BRANCH  12  16
ATOM     16  C   UNL     1      -5.710  -7.097   7.307  1.00  0.00     0.022 C 
BRANCH  16  17
ATOM     17  C   UNL     1      -4.253  -7.383   6.920  1.00  0.00     0.002 C 
BRANCH  17  18
ATOM     18  C   UNL     1      -3.783  -6.709   5.633  1.00  0.00     0.000 C 
BRANCH  18  19
ATOM     19  C   UNL     1      -3.301  -5.264   5.825  1.00  0.00    -0.000 C 
BRANCH  19  20
ATOM     20  C   UNL     1      -1.896  -4.971   5.292  1.00  0.00    -0.000 C 
BRANCH  20  21
ATOM     21  C   UNL     1      -0.790  -5.337   6.286  1.00  0.00    -0.003 C 
ATOM     22  C   UNL     1       0.468  -4.516   6.042  1.00  0.00     0.004 C 
ENDBRANCH  20  21
ENDBRANCH  19  20
ENDBRANCH  18  19
ENDBRANCH  17  18
ENDBRANCH  16  17
ENDBRANCH  12  16
ENDBRANCH   9  12
ENDBRANCH   6   9
ENDBRANCH   3   5
ENDBRANCH   2   3
BRANCH   2  23
ATOM     23  N   UNL     1      -5.252  -4.832  12.048  1.00  0.00    -0.332 N 
ATOM     24  C   UNL     1      -6.350  -3.881  11.955  1.00  0.00     0.147 C 
BRANCH  23  25
ATOM     25  C   UNL     1      -4.057  -4.493  11.228  1.00  0.00     0.174 C 
BRANCH  25  26
ATOM     26  C   UNL     1      -2.731  -4.964  11.870  1.00  0.00     0.038 C 
BRANCH  26  27
ATOM     27  C   UNL     1      -1.878  -5.965  11.060  1.00  0.00    -0.015 C 
ATOM     28  C   UNL     1      -1.832  -7.350  11.706  1.00  0.00     0.007 C 
ATOM     29  C   UNL     1      -2.292  -6.070   9.595  1.00  0.00     0.007 C 
ENDBRANCH  26  27
ENDBRANCH  25  26
BRANCH  25  30
ATOM     30  C   UNL     1      -4.071  -2.990  10.863  1.00  0.00     0.243 C 
ATOM     31  O   UNL     1      -4.162  -2.114  11.721  1.00  0.00    -0.273 OA
ATOM     32  N   UNL     1      -3.984  -2.704   9.525  1.00  0.00    -0.342 N 
ATOM     33  H   UNL     1      -3.769  -3.476   8.888  1.00  0.00     0.164 HD
BRANCH  32  34
ATOM     34  C   UNL     1      -4.010  -1.338   8.994  1.00  0.00     0.175 C 
BRANCH  34  35
ATOM     35  C   UNL     1      -2.614  -0.892   8.531  1.00  0.00     0.070 C 
BRANCH  35  36
ATOM     36  C   UNL     1      -1.501  -1.535   9.327  1.00  0.00    -0.045 A 
ATOM     37  C   UNL     1      -1.081  -0.962  10.537  1.00  0.00     0.007 A 
ATOM     38  C   UNL     1      -0.860  -2.691   8.861  1.00  0.00     0.007 A 
ATOM     39  C   UNL     1      -0.045  -1.541  11.271  1.00  0.00     0.046 A 
ATOM     40  C   UNL     1       0.178  -3.270   9.595  1.00  0.00     0.046 A 
ATOM     41  C   UNL     1       0.575  -2.690  10.795  1.00  0.00     0.115 A 
BRANCH  41  42
ATOM     42  O   UNL     1       1.585  -3.222  11.541  1.00  0.00    -0.508 OA
ATOM     43  H   UNL     1       1.948  -2.520  12.107  1.00  0.00     0.293 HD
ENDBRANCH  41  42
ENDBRANCH  35  36
ENDBRANCH  34  35
BRANCH  34  44
ATOM     44  C   UNL     1      -5.041  -1.291   7.844  1.00  0.00     0.243 C 
ATOM     45  O   UNL     1      -5.040  -0.456   6.945  1.00  0.00    -0.273 OA
ATOM     46  N   UNL     1      -6.062  -2.207   7.985  1.00  0.00    -0.341 N 
ATOM     47  H   UNL     1      -6.083  -2.801   8.811  1.00  0.00     0.164 HD
BRANCH  46  48
ATOM     48  C   UNL     1      -7.191  -2.305   7.057  1.00  0.00     0.196 C 
BRANCH  48  49
ATOM     49  C   UNL     1      -7.324  -3.726   6.484  1.00  0.00     0.072 C 
BRANCH  49  50
ATOM     50  C   UNL     1      -6.739  -3.850   5.096  1.00  0.00    -0.045 A 
ATOM     51  C   UNL     1      -6.757  -5.089   4.438  1.00  0.00     0.007 A 
ATOM     52  C   UNL     1      -6.156  -2.748   4.458  1.00  0.00     0.007 A 
ATOM     53  C   UNL     1      -6.209  -5.219   3.162  1.00  0.00     0.046 A 
ATOM     54  C   UNL     1      -5.605  -2.878   3.180  1.00  0.00     0.046 A 
ATOM     55  C   UNL     1      -5.638  -4.114   2.543  1.00  0.00     0.115 A 
BRANCH  55  56
ATOM     56  O   UNL     1      -5.111  -4.283   1.297  1.00  0.00    -0.508 OA
ATOM     57  H   UNL     1      -4.696  -5.159   1.256  1.00  0.00     0.293 HD
ENDBRANCH  55  56
ENDBRANCH  49  50
ENDBRANCH  48  49
BRANCH  48  58
ATOM     58  C   UNL     1      -8.481  -1.926   7.798  1.00  0.00     0.326 C 
ATOM     59  O   UNL     1      -9.336  -2.684   8.227  1.00  0.00    -0.250 OA
BRANCH  58  60
ATOM     60  O   UNL     1      -8.628  -0.590   7.980  1.00  0.00    -0.480 OA
ATOM     61  H   UNL     1      -7.734  -0.235   7.783  1.00  0.00     0.296 HD
ENDBRANCH  58  60
ENDBRANCH  48  58
ENDBRANCH  46  48
ENDBRANCH  34  44
ENDBRANCH  32  34
ENDBRANCH  25  30
ENDBRANCH  23  25
ENDBRANCH   2  23
TORSDOF 28
ENDMDL
MODEL 22
REMARK VINA RESULT:    -6.152      2.594      8.193
REMARK INTER + INTRA:         -23.130
REMARK INTER:                 -16.316
REMARK INTRA:                  -6.814
REMARK UNBOUND:                -7.807
REMARK SMILES CCCCCCC[C@H](N)[C@H](O)C(=O)N[C@H](C)C(=O)N(C)[C@H](CC(C)C)C(=O)N[C@@H](Cc1ccc(O)cc1)C(=O)N[C@@H](Cc1ccc(O)cc1)C(=O)O
REMARK SMILES IDX 18 1 17 2 15 3 16 4 14 5 12 6 13 7 10 9 11 10 8 12 9 13 7 16
REMARK SMILES IDX 6 17 5 18 4 19 3 20 2 21 1 22 19 23 20 24 21 25 22 26 23 27
REMARK SMILES IDX 24 28 25 29 26 30 27 31 28 32 29 34 30 35 31 36 32 37 37 38
REMARK SMILES IDX 33 39 36 40 34 41 35 42 38 44 39 45 40 46 41 48 42 49 43 50
REMARK SMILES IDX 44 51 49 52 45 53 48 54 46 55 47 56 50 58 51 59 52 60
REMARK H PARENT 14 8 11 11 9 14 9 15 28 33 35 43 40 47 47 57 52 61
ROOT
ATOM      1  O   UNL     1      -4.566  -6.085   4.961  1.00  0.00    -0.272 OA
ATOM      2  C   UNL     1      -3.985  -4.998   5.099  1.00  0.00     0.245 C 
ENDROOT
BRANCH   2   3
ATOM      3  C   UNL     1      -4.705  -3.709   4.632  1.00  0.00     0.168 C 
ATOM      4  C   UNL     1      -5.336  -3.908   3.258  1.00  0.00     0.041 C 
BRANCH   3   5
ATOM      5  N   UNL     1      -5.652  -3.157   5.589  1.00  0.00    -0.342 N 
ATOM      6  C   UNL     1      -5.328  -2.093   6.403  1.00  0.00     0.251 C 
ATOM      7  O   UNL     1      -4.221  -1.564   6.416  1.00  0.00    -0.272 OA
ATOM      8  H   UNL     1      -6.590  -3.536   5.694  1.00  0.00     0.164 HD
BRANCH   6   9
ATOM      9  C   UNL     1      -6.523  -1.589   7.228  1.00  0.00     0.219 C 
BRANCH   9  10
ATOM     10  O   UNL     1      -7.777  -1.799   6.568  1.00  0.00    -0.382 OA
ATOM     11  H   UNL     1      -8.181  -2.541   7.069  1.00  0.00     0.211 HD
ENDBRANCH   9  10
BRANCH   9  12
ATOM     12  C   UNL     1      -6.556  -2.165   8.668  1.00  0.00     0.089 C 
BRANCH  12  13
ATOM     13  N   UNL     1      -5.671  -3.352   8.716  1.00  0.00    -0.325 NA
ATOM     14  H   UNL     1      -4.702  -3.045   8.818  1.00  0.00     0.119 HD
ATOM     15  H   UNL     1      -5.707  -3.829   7.813  1.00  0.00     0.119 HD
ENDBRANCH  12  13
BRANCH  12  16
ATOM     16  C   UNL     1      -6.184  -1.179   9.801  1.00  0.00     0.022 C 
BRANCH  16  17
ATOM     17  C   UNL     1      -7.062  -1.122  11.059  1.00  0.00     0.002 C 
BRANCH  17  18
ATOM     18  C   UNL     1      -8.484  -1.647  10.877  1.00  0.00     0.000 C 
BRANCH  18  19
ATOM     19  C   UNL     1      -9.471  -0.603  10.338  1.00  0.00    -0.000 C 
BRANCH  19  20
ATOM     20  C   UNL     1      -9.265   0.820  10.865  1.00  0.00    -0.000 C 
BRANCH  20  21
ATOM     21  C   UNL     1      -8.887   1.817   9.767  1.00  0.00    -0.003 C 
ATOM     22  C   UNL     1      -8.954   1.177   8.389  1.00  0.00     0.004 C 
ENDBRANCH  20  21
ENDBRANCH  19  20
ENDBRANCH  18  19
ENDBRANCH  17  18
ENDBRANCH  16  17
ENDBRANCH  12  16
ENDBRANCH   9  12
ENDBRANCH   6   9
ENDBRANCH   3   5
ENDBRANCH   2   3
BRANCH   2  23
ATOM     23  N   UNL     1      -2.769  -4.940   5.770  1.00  0.00    -0.332 N 
ATOM     24  C   UNL     1      -1.466  -4.960   5.122  1.00  0.00     0.147 C 
BRANCH  23  25
ATOM     25  C   UNL     1      -2.733  -4.719   7.242  1.00  0.00     0.174 C 
BRANCH  25  26
ATOM     26  C   UNL     1      -1.415  -4.067   7.721  1.00  0.00     0.038 C 
BRANCH  26  27
ATOM     27  C   UNL     1      -0.445  -4.959   8.528  1.00  0.00    -0.015 C 
ATOM     28  C   UNL     1       0.915  -5.109   7.847  1.00  0.00     0.007 C 
ATOM     29  C   UNL     1      -0.274  -4.513   9.978  1.00  0.00     0.007 C 
ENDBRANCH  26  27
ENDBRANCH  25  26
BRANCH  25  30
ATOM     30  C   UNL     1      -3.085  -6.027   7.986  1.00  0.00     0.243 C 
ATOM     31  O   UNL     1      -2.843  -7.133   7.506  1.00  0.00    -0.273 OA
ATOM     32  N   UNL     1      -3.689  -5.871   9.207  1.00  0.00    -0.342 N 
ATOM     33  H   UNL     1      -3.728  -4.927   9.599  1.00  0.00     0.164 HD
BRANCH  32  34
ATOM     34  C   UNL     1      -4.117  -6.999  10.040  1.00  0.00     0.175 C 
BRANCH  34  35
ATOM     35  C   UNL     1      -3.972  -6.676  11.535  1.00  0.00     0.070 C 
BRANCH  35  36
ATOM     36  C   UNL     1      -2.539  -6.746  12.011  1.00  0.00    -0.045 A 
ATOM     37  C   UNL     1      -2.082  -5.853  12.993  1.00  0.00     0.007 A 
ATOM     38  C   UNL     1      -1.646  -7.679  11.470  1.00  0.00     0.007 A 
ATOM     39  C   UNL     1      -0.757  -5.901  13.429  1.00  0.00     0.046 A 
ATOM     40  C   UNL     1      -0.319  -7.727  11.905  1.00  0.00     0.046 A 
ATOM     41  C   UNL     1       0.113  -6.837  12.883  1.00  0.00     0.115 A 
BRANCH  41  42
ATOM     42  O   UNL     1       1.399  -6.848  13.334  1.00  0.00    -0.508 OA
ATOM     43  H   UNL     1       1.915  -6.220  12.802  1.00  0.00     0.293 HD
ENDBRANCH  41  42
ENDBRANCH  35  36
ENDBRANCH  34  35
BRANCH  34  44
ATOM     44  C   UNL     1      -5.575  -7.345   9.663  1.00  0.00     0.243 C 
ATOM     45  O   UNL     1      -6.046  -8.479   9.681  1.00  0.00    -0.273 OA
ATOM     46  N   UNL     1      -6.285  -6.271   9.170  1.00  0.00    -0.341 N 
ATOM     47  H   UNL     1      -5.815  -5.375   9.064  1.00  0.00     0.164 HD
BRANCH  46  48
ATOM     48  C   UNL     1      -7.663  -6.370   8.684  1.00  0.00     0.196 C 
BRANCH  48  49
ATOM     49  C   UNL     1      -8.596  -5.413   9.447  1.00  0.00     0.072 C 
BRANCH  49  50
ATOM     50  C   UNL     1      -9.081  -5.995  10.756  1.00  0.00    -0.045 A 
ATOM     51  C   UNL     1      -9.450  -5.142  11.806  1.00  0.00     0.007 A 
ATOM     52  C   UNL     1      -9.150  -7.381  10.947  1.00  0.00     0.007 A 
ATOM     53  C   UNL     1      -9.887  -5.667  13.022  1.00  0.00     0.046 A 
ATOM     54  C   UNL     1      -9.586  -7.907  12.165  1.00  0.00     0.046 A 
ATOM     55  C   UNL     1      -9.952  -7.044  13.193  1.00  0.00     0.115 A 
BRANCH  55  56
ATOM     56  O   UNL     1     -10.383  -7.517  14.397  1.00  0.00    -0.508 OA
ATOM     57  H   UNL     1     -10.258  -8.479  14.410  1.00  0.00     0.293 HD
ENDBRANCH  55  56
ENDBRANCH  49  50
ENDBRANCH  48  49
BRANCH  48  58
ATOM     58  C   UNL     1      -7.691  -6.030   7.188  1.00  0.00     0.326 C 
ATOM     59  O   UNL     1      -7.625  -4.923   6.679  1.00  0.00    -0.250 OA
BRANCH  58  60
ATOM     60  O   UNL     1      -7.789  -7.122   6.387  1.00  0.00    -0.480 OA
ATOM     61  H   UNL     1      -6.854  -7.328   6.172  1.00  0.00     0.296 HD
ENDBRANCH  58  60
ENDBRANCH  48  58
ENDBRANCH  46  48
ENDBRANCH  34  44
ENDBRANCH  32  34
ENDBRANCH  25  30
ENDBRANCH  23  25
ENDBRANCH   2  23
TORSDOF 28
ENDMDL
MODEL 23
REMARK VINA RESULT:    -6.146      2.376      6.963
REMARK INTER + INTRA:         -23.115
REMARK INTER:                 -18.017
REMARK INTRA:                  -5.097
REMARK UNBOUND:                -7.807
REMARK SMILES CCCCCCC[C@H](N)[C@H](O)C(=O)N[C@H](C)C(=O)N(C)[C@H](CC(C)C)C(=O)N[C@@H](Cc1ccc(O)cc1)C(=O)N[C@@H](Cc1ccc(O)cc1)C(=O)O
REMARK SMILES IDX 18 1 17 2 15 3 16 4 14 5 12 6 13 7 10 9 11 10 8 12 9 13 7 16
REMARK SMILES IDX 6 17 5 18 4 19 3 20 2 21 1 22 19 23 20 24 21 25 22 26 23 27
REMARK SMILES IDX 24 28 25 29 26 30 27 31 28 32 29 34 30 35 31 36 32 37 37 38
REMARK SMILES IDX 33 39 36 40 34 41 35 42 38 44 39 45 40 46 41 48 42 49 43 50
REMARK SMILES IDX 44 51 49 52 45 53 48 54 46 55 47 56 50 58 51 59 52 60
REMARK H PARENT 14 8 11 11 9 14 9 15 28 33 35 43 40 47 47 57 52 61
ROOT
ATOM      1  O   UNL     1      -3.148  -6.750   9.467  1.00  0.00    -0.272 OA
ATOM      2  C   UNL     1      -3.382  -5.942   8.556  1.00  0.00     0.245 C 
ENDROOT
BRANCH   2   3
ATOM      3  C   UNL     1      -4.189  -6.425   7.326  1.00  0.00     0.168 C 
ATOM      4  C   UNL     1      -3.294  -7.192   6.358  1.00  0.00     0.041 C 
BRANCH   3   5
ATOM      5  N   UNL     1      -5.403  -7.162   7.642  1.00  0.00    -0.342 N 
ATOM      6  C   UNL     1      -6.618  -6.530   7.801  1.00  0.00     0.251 C 
ATOM      7  O   UNL     1      -6.762  -5.314   7.732  1.00  0.00    -0.272 OA
ATOM      8  H   UNL     1      -5.401  -8.172   7.759  1.00  0.00     0.164 HD
BRANCH   6   9
ATOM      9  C   UNL     1      -7.781  -7.517   7.988  1.00  0.00     0.219 C 
BRANCH   9  10
ATOM     10  O   UNL     1      -7.349  -8.883   8.007  1.00  0.00    -0.382 OA
ATOM     11  H   UNL     1      -7.764  -9.245   8.821  1.00  0.00     0.211 HD
ENDBRANCH   9  10
BRANCH   9  12
ATOM     12  C   UNL     1      -8.656  -7.198   9.229  1.00  0.00     0.089 C 
BRANCH  12  13
ATOM     13  N   UNL     1     -10.025  -6.877   8.765  1.00  0.00    -0.325 NA
ATOM     14  H   UNL     1     -10.485  -6.287   9.461  1.00  0.00     0.119 HD
ATOM     15  H   UNL     1     -10.576  -7.738   8.739  1.00  0.00     0.119 HD
ENDBRANCH  12  13
BRANCH  12  16
ATOM     16  C   UNL     1      -8.708  -8.294  10.321  1.00  0.00     0.022 C 
BRANCH  16  17
ATOM     17  C   UNL     1      -9.063  -7.897  11.760  1.00  0.00     0.002 C 
BRANCH  17  18
ATOM     18  C   UNL     1      -8.356  -6.646  12.277  1.00  0.00     0.000 C 
BRANCH  18  19
ATOM     19  C   UNL     1      -6.854  -6.835  12.524  1.00  0.00    -0.000 C 
BRANCH  19  20
ATOM     20  C   UNL     1      -6.498  -7.797  13.661  1.00  0.00    -0.000 C 
BRANCH  20  21
ATOM     21  C   UNL     1      -5.620  -8.965  13.205  1.00  0.00    -0.003 C 
ATOM     22  C   UNL     1      -4.849  -8.619  11.941  1.00  0.00     0.004 C 
ENDBRANCH  20  21
ENDBRANCH  19  20
ENDBRANCH  18  19
ENDBRANCH  17  18
ENDBRANCH  16  17
ENDBRANCH  12  16
ENDBRANCH   9  12
ENDBRANCH   6   9
ENDBRANCH   3   5
ENDBRANCH   2   3
BRANCH   2  23
ATOM     23  N   UNL     1      -3.029  -4.604   8.706  1.00  0.00    -0.332 N 
ATOM     24  C   UNL     1      -3.102  -3.866   9.957  1.00  0.00     0.147 C 
BRANCH  23  25
ATOM     25  C   UNL     1      -2.413  -3.859   7.574  1.00  0.00     0.174 C 
BRANCH  25  26
ATOM     26  C   UNL     1      -0.975  -3.379   7.880  1.00  0.00     0.038 C 
BRANCH  26  27
ATOM     27  C   UNL     1       0.169  -4.383   7.618  1.00  0.00    -0.015 C 
ATOM     28  C   UNL     1       0.530  -5.196   8.861  1.00  0.00     0.007 C 
ATOM     29  C   UNL     1      -0.093  -5.306   6.431  1.00  0.00     0.007 C 
ENDBRANCH  26  27
ENDBRANCH  25  26
BRANCH  25  30
ATOM     30  C   UNL     1      -3.358  -2.730   7.103  1.00  0.00     0.243 C 
ATOM     31  O   UNL     1      -3.001  -1.553   7.075  1.00  0.00    -0.273 OA
ATOM     32  N   UNL     1      -4.615  -3.127   6.726  1.00  0.00    -0.342 N 
ATOM     33  H   UNL     1      -4.790  -4.132   6.642  1.00  0.00     0.164 HD
BRANCH  32  34
ATOM     34  C   UNL     1      -5.651  -2.192   6.279  1.00  0.00     0.175 C 
BRANCH  34  35
ATOM     35  C   UNL     1      -6.692  -2.893   5.392  1.00  0.00     0.070 C 
BRANCH  35  36
ATOM     36  C   UNL     1      -6.324  -2.867   3.926  1.00  0.00    -0.045 A 
ATOM     37  C   UNL     1      -6.388  -1.664   3.208  1.00  0.00     0.007 A 
ATOM     38  C   UNL     1      -5.938  -4.038   3.261  1.00  0.00     0.007 A 
ATOM     39  C   UNL     1      -6.063  -1.632   1.851  1.00  0.00     0.046 A 
ATOM     40  C   UNL     1      -5.614  -4.008   1.902  1.00  0.00     0.046 A 
ATOM     41  C   UNL     1      -5.679  -2.804   1.210  1.00  0.00     0.115 A 
BRANCH  41  42
ATOM     42  O   UNL     1      -5.373  -2.730  -0.117  1.00  0.00    -0.508 OA
ATOM     43  H   UNL     1      -5.526  -1.818  -0.415  1.00  0.00     0.293 HD
ENDBRANCH  41  42
ENDBRANCH  35  36
ENDBRANCH  34  35
BRANCH  34  44
ATOM     44  C   UNL     1      -6.295  -1.555   7.531  1.00  0.00     0.243 C 
ATOM     45  O   UNL     1      -6.099  -0.401   7.901  1.00  0.00    -0.273 OA
ATOM     46  N   UNL     1      -7.022  -2.449   8.289  1.00  0.00    -0.341 N 
ATOM     47  H   UNL     1      -7.059  -3.424   8.002  1.00  0.00     0.164 HD
BRANCH  46  48
ATOM     48  C   UNL     1      -7.668  -2.094   9.555  1.00  0.00     0.196 C 
BRANCH  48  49
ATOM     49  C   UNL     1      -9.168  -2.431   9.532  1.00  0.00     0.072 C 
BRANCH  49  50
ATOM     50  C   UNL     1      -9.899  -1.915  10.751  1.00  0.00    -0.045 A 
ATOM     51  C   UNL     1      -9.904  -0.541  11.033  1.00  0.00     0.007 A 
ATOM     52  C   UNL     1     -10.558  -2.792  11.622  1.00  0.00     0.007 A 
ATOM     53  C   UNL     1     -10.564  -0.055  12.162  1.00  0.00     0.046 A 
ATOM     54  C   UNL     1     -11.217  -2.305  12.753  1.00  0.00     0.046 A 
ATOM     55  C   UNL     1     -11.215  -0.939  13.013  1.00  0.00     0.115 A 
BRANCH  55  56
ATOM     56  O   UNL     1     -11.846  -0.424  14.106  1.00  0.00    -0.508 OA
ATOM     57  H   UNL     1     -11.865  -1.105  14.797  1.00  0.00     0.293 HD
ENDBRANCH  55  56
ENDBRANCH  49  50
ENDBRANCH  48  49
BRANCH  48  58
ATOM     58  C   UNL     1      -6.985  -2.860  10.696  1.00  0.00     0.326 C 
ATOM     59  O   UNL     1      -6.810  -2.479  11.842  1.00  0.00    -0.250 OA
BRANCH  58  60
ATOM     60  O   UNL     1      -6.560  -4.098  10.338  1.00  0.00    -0.480 OA
ATOM     61  H   UNL     1      -7.382  -4.634  10.357  1.00  0.00     0.296 HD
ENDBRANCH  58  60
ENDBRANCH  48  58
ENDBRANCH  46  48
ENDBRANCH  34  44
ENDBRANCH  32  34
ENDBRANCH  25  30
ENDBRANCH  23  25
ENDBRANCH   2  23
TORSDOF 28
ENDMDL
MODEL 24
REMARK VINA RESULT:    -6.144      2.591      5.280
REMARK INTER + INTRA:         -23.110
REMARK INTER:                 -18.410
REMARK INTRA:                  -4.700
REMARK UNBOUND:                -7.807
REMARK SMILES CCCCCCC[C@H](N)[C@H](O)C(=O)N[C@H](C)C(=O)N(C)[C@H](CC(C)C)C(=O)N[C@@H](Cc1ccc(O)cc1)C(=O)N[C@@H](Cc1ccc(O)cc1)C(=O)O
REMARK SMILES IDX 18 1 17 2 15 3 16 4 14 5 12 6 13 7 10 9 11 10 8 12 9 13 7 16
REMARK SMILES IDX 6 17 5 18 4 19 3 20 2 21 1 22 19 23 20 24 21 25 22 26 23 27
REMARK SMILES IDX 24 28 25 29 26 30 27 31 28 32 29 34 30 35 31 36 32 37 37 38
REMARK SMILES IDX 33 39 36 40 34 41 35 42 38 44 39 45 40 46 41 48 42 49 43 50
REMARK SMILES IDX 44 51 49 52 45 53 48 54 46 55 47 56 50 58 51 59 52 60
REMARK H PARENT 14 8 11 11 9 14 9 15 28 33 35 43 40 47 47 57 52 61
ROOT
ATOM      1  O   UNL     1      -4.653  -7.929   8.440  1.00  0.00    -0.272 OA
ATOM      2  C   UNL     1      -4.619  -7.108   9.369  1.00  0.00     0.245 C 
ENDROOT
BRANCH   2   3
ATOM      3  C   UNL     1      -3.368  -6.207   9.517  1.00  0.00     0.168 C 
ATOM      4  C   UNL     1      -2.562  -6.599  10.751  1.00  0.00     0.041 C 
BRANCH   3   5
ATOM      5  N   UNL     1      -2.533  -6.120   8.329  1.00  0.00    -0.342 N 
ATOM      6  C   UNL     1      -2.904  -5.373   7.231  1.00  0.00     0.251 C 
ATOM      7  O   UNL     1      -3.968  -4.767   7.154  1.00  0.00    -0.272 OA
ATOM      8  H   UNL     1      -1.643  -6.609   8.262  1.00  0.00     0.164 HD
BRANCH   6   9
ATOM      9  C   UNL     1      -1.808  -5.312   6.156  1.00  0.00     0.219 C 
BRANCH   9  10
ATOM     10  O   UNL     1      -2.333  -5.401   4.826  1.00  0.00    -0.382 OA
ATOM     11  H   UNL     1      -3.293  -5.229   4.944  1.00  0.00     0.211 HD
ENDBRANCH   9  10
BRANCH   9  12
ATOM     12  C   UNL     1      -0.882  -4.076   6.300  1.00  0.00     0.089 C 
BRANCH  12  13
ATOM     13  N   UNL     1      -1.465  -3.171   7.316  1.00  0.00    -0.325 NA
ATOM     14  H   UNL     1      -0.883  -2.335   7.396  1.00  0.00     0.119 HD
ATOM     15  H   UNL     1      -1.411  -3.622   8.232  1.00  0.00     0.119 HD
ENDBRANCH  12  13
BRANCH  12  16
ATOM     16  C   UNL     1       0.598  -4.374   6.641  1.00  0.00     0.022 C 
BRANCH  16  17
ATOM     17  C   UNL     1       0.920  -5.307   7.817  1.00  0.00     0.002 C 
BRANCH  17  18
ATOM     18  C   UNL     1       1.059  -4.613   9.171  1.00  0.00     0.000 C 
BRANCH  18  19
ATOM     19  C   UNL     1       2.245  -3.643   9.257  1.00  0.00    -0.000 C 
BRANCH  19  20
ATOM     20  C   UNL     1       2.242  -2.719  10.478  1.00  0.00    -0.000 C 
BRANCH  20  21
ATOM     21  C   UNL     1       3.625  -2.145  10.799  1.00  0.00    -0.003 C 
ATOM     22  C   UNL     1       4.733  -3.081  10.343  1.00  0.00     0.004 C 
ENDBRANCH  20  21
ENDBRANCH  19  20
ENDBRANCH  18  19
ENDBRANCH  17  18
ENDBRANCH  16  17
ENDBRANCH  12  16
ENDBRANCH   9  12
ENDBRANCH   6   9
ENDBRANCH   3   5
ENDBRANCH   2   3
BRANCH   2  23
ATOM     23  N   UNL     1      -5.737  -6.925  10.175  1.00  0.00    -0.332 N 
ATOM     24  C   UNL     1      -6.596  -7.998  10.653  1.00  0.00     0.147 C 
BRANCH  23  25
ATOM     25  C   UNL     1      -6.057  -5.577  10.721  1.00  0.00     0.174 C 
BRANCH  25  26
ATOM     26  C   UNL     1      -6.266  -5.581  12.253  1.00  0.00     0.038 C 
BRANCH  26  27
ATOM     27  C   UNL     1      -5.007  -5.769  13.130  1.00  0.00    -0.015 C 
ATOM     28  C   UNL     1      -4.738  -4.564  14.032  1.00  0.00     0.007 C 
ATOM     29  C   UNL     1      -5.024  -7.058  13.948  1.00  0.00     0.007 C 
ENDBRANCH  26  27
ENDBRANCH  25  26
BRANCH  25  30
ATOM     30  C   UNL     1      -7.233  -4.950   9.936  1.00  0.00     0.243 C 
ATOM     31  O   UNL     1      -8.386  -4.977  10.361  1.00  0.00    -0.273 OA
ATOM     32  N   UNL     1      -6.904  -4.372   8.737  1.00  0.00    -0.342 N 
ATOM     33  H   UNL     1      -5.910  -4.265   8.519  1.00  0.00     0.164 HD
BRANCH  32  34
ATOM     34  C   UNL     1      -7.891  -3.755   7.847  1.00  0.00     0.175 C 
BRANCH  34  35
ATOM     35  C   UNL     1      -7.555  -2.280   7.577  1.00  0.00     0.070 C 
BRANCH  35  36
ATOM     36  C   UNL     1      -8.095  -1.353   8.642  1.00  0.00    -0.045 A 
ATOM     37  C   UNL     1      -9.271  -1.686   9.332  1.00  0.00     0.007 A 
ATOM     38  C   UNL     1      -7.450  -0.145   8.939  1.00  0.00     0.007 A 
ATOM     39  C   UNL     1      -9.785  -0.830  10.307  1.00  0.00     0.046 A 
ATOM     40  C   UNL     1      -7.964   0.713   9.914  1.00  0.00     0.046 A 
ATOM     41  C   UNL     1      -9.128   0.361  10.590  1.00  0.00     0.115 A 
BRANCH  41  42
ATOM     42  O   UNL     1      -9.664   1.170  11.547  1.00  0.00    -0.508 OA
ATOM     43  H   UNL     1      -9.379   2.082  11.370  1.00  0.00     0.293 HD
ENDBRANCH  41  42
ENDBRANCH  35  36
ENDBRANCH  34  35
BRANCH  34  44
ATOM     44  C   UNL     1      -7.944  -4.583   6.543  1.00  0.00     0.243 C 
ATOM     45  O   UNL     1      -8.965  -5.087   6.082  1.00  0.00    -0.273 OA
ATOM     46  N   UNL     1      -6.702  -4.824   5.995  1.00  0.00    -0.341 N 
ATOM     47  H   UNL     1      -5.875  -4.483   6.478  1.00  0.00     0.164 HD
BRANCH  46  48
ATOM     48  C   UNL     1      -6.495  -5.641   4.798  1.00  0.00     0.196 C 
BRANCH  48  49
ATOM     49  C   UNL     1      -5.340  -5.096   3.940  1.00  0.00     0.072 C 
BRANCH  49  50
ATOM     50  C   UNL     1      -5.672  -3.769   3.295  1.00  0.00    -0.045 A 
ATOM     51  C   UNL     1      -6.097  -2.693   4.087  1.00  0.00     0.007 A 
ATOM     52  C   UNL     1      -5.580  -3.600   1.907  1.00  0.00     0.007 A 
ATOM     53  C   UNL     1      -6.418  -1.469   3.502  1.00  0.00     0.046 A 
ATOM     54  C   UNL     1      -5.903  -2.374   1.321  1.00  0.00     0.046 A 
ATOM     55  C   UNL     1      -6.318  -1.318   2.124  1.00  0.00     0.115 A 
BRANCH  55  56
ATOM     56  O   UNL     1      -6.643  -0.105   1.591  1.00  0.00    -0.508 OA
ATOM     57  H   UNL     1      -6.016   0.554   1.927  1.00  0.00     0.293 HD
ENDBRANCH  55  56
ENDBRANCH  49  50
ENDBRANCH  48  49
BRANCH  48  58
ATOM     58  C   UNL     1      -6.182  -7.082   5.225  1.00  0.00     0.326 C 
ATOM     59  O   UNL     1      -6.981  -7.980   5.436  1.00  0.00    -0.250 OA
BRANCH  58  60
ATOM     60  O   UNL     1      -4.855  -7.333   5.354  1.00  0.00    -0.480 OA
ATOM     61  H   UNL     1      -4.709  -7.282   6.324  1.00  0.00     0.296 HD
ENDBRANCH  58  60
ENDBRANCH  48  58
ENDBRANCH  46  48
ENDBRANCH  34  44
ENDBRANCH  32  34
ENDBRANCH  25  30
ENDBRANCH  23  25
ENDBRANCH   2  23
TORSDOF 28
ENDMDL
MODEL 25
REMARK VINA RESULT:    -6.131      2.953      6.747
REMARK INTER + INTRA:         -23.076
REMARK INTER:                 -19.061
REMARK INTRA:                  -4.016
REMARK UNBOUND:                -7.807
REMARK SMILES CCCCCCC[C@H](N)[C@H](O)C(=O)N[C@H](C)C(=O)N(C)[C@H](CC(C)C)C(=O)N[C@@H](Cc1ccc(O)cc1)C(=O)N[C@@H](Cc1ccc(O)cc1)C(=O)O
REMARK SMILES IDX 18 1 17 2 15 3 16 4 14 5 12 6 13 7 10 9 11 10 8 12 9 13 7 16
REMARK SMILES IDX 6 17 5 18 4 19 3 20 2 21 1 22 19 23 20 24 21 25 22 26 23 27
REMARK SMILES IDX 24 28 25 29 26 30 27 31 28 32 29 34 30 35 31 36 32 37 37 38
REMARK SMILES IDX 33 39 36 40 34 41 35 42 38 44 39 45 40 46 41 48 42 49 43 50
REMARK SMILES IDX 44 51 49 52 45 53 48 54 46 55 47 56 50 58 51 59 52 60
REMARK H PARENT 14 8 11 11 9 14 9 15 28 33 35 43 40 47 47 57 52 61
ROOT
ATOM      1  O   UNL     1      -6.559  -8.305   7.784  1.00  0.00    -0.272 OA
ATOM      2  C   UNL     1      -5.532  -7.611   7.817  1.00  0.00     0.245 C 
ENDROOT
BRANCH   2   3
ATOM      3  C   UNL     1      -4.874  -7.198   6.477  1.00  0.00     0.168 C 
ATOM      4  C   UNL     1      -5.898  -7.199   5.347  1.00  0.00     0.041 C 
BRANCH   3   5
ATOM      5  N   UNL     1      -4.121  -5.955   6.523  1.00  0.00    -0.342 N 
ATOM      6  C   UNL     1      -2.776  -5.906   6.220  1.00  0.00     0.251 C 
ATOM      7  O   UNL     1      -2.112  -6.896   5.933  1.00  0.00    -0.272 OA
ATOM      8  H   UNL     1      -4.557  -5.073   6.782  1.00  0.00     0.164 HD
BRANCH   6   9
ATOM      9  C   UNL     1      -2.223  -4.472   6.197  1.00  0.00     0.219 C 
BRANCH   9  10
ATOM     10  O   UNL     1      -3.258  -3.481   6.175  1.00  0.00    -0.382 OA
ATOM     11  H   UNL     1      -4.078  -4.000   6.329  1.00  0.00     0.211 HD
ENDBRANCH   9  10
BRANCH   9  12
ATOM     12  C   UNL     1      -1.214  -4.189   7.340  1.00  0.00     0.089 C 
BRANCH  12  13
ATOM     13  N   UNL     1      -1.605  -4.996   8.519  1.00  0.00    -0.325 NA
ATOM     14  H   UNL     1      -0.983  -4.776   9.298  1.00  0.00     0.119 HD
ATOM     15  H   UNL     1      -1.437  -5.984   8.314  1.00  0.00     0.119 HD
ENDBRANCH  12  13
BRANCH  12  16
ATOM     16  C   UNL     1       0.277  -4.429   7.003  1.00  0.00     0.022 C 
BRANCH  16  17
ATOM     17  C   UNL     1       1.231  -4.881   8.117  1.00  0.00     0.002 C 
BRANCH  17  18
ATOM     18  C   UNL     1       1.561  -3.812   9.156  1.00  0.00     0.000 C 
BRANCH  18  19
ATOM     19  C   UNL     1       3.044  -3.420   9.201  1.00  0.00    -0.000 C 
BRANCH  19  20
ATOM     20  C   UNL     1       3.487  -2.700  10.478  1.00  0.00    -0.000 C 
BRANCH  20  21
ATOM     21  C   UNL     1       5.009  -2.625  10.626  1.00  0.00    -0.003 C 
ATOM     22  C   UNL     1       5.431  -1.382  11.394  1.00  0.00     0.004 C 
ENDBRANCH  20  21
ENDBRANCH  19  20
ENDBRANCH  18  19
ENDBRANCH  17  18
ENDBRANCH  16  17
ENDBRANCH  12  16
ENDBRANCH   9  12
ENDBRANCH   6   9
ENDBRANCH   3   5
ENDBRANCH   2   3
BRANCH   2  23
ATOM     23  N   UNL     1      -5.064  -7.119   9.030  1.00  0.00    -0.332 N 
ATOM     24  C   UNL     1      -3.819  -7.529   9.662  1.00  0.00     0.147 C 
BRANCH  23  25
ATOM     25  C   UNL     1      -5.777  -6.006   9.715  1.00  0.00     0.174 C 
BRANCH  25  26
ATOM     26  C   UNL     1      -7.227  -6.374  10.110  1.00  0.00     0.038 C 
BRANCH  26  27
ATOM     27  C   UNL     1      -7.545  -6.449  11.620  1.00  0.00    -0.015 C 
ATOM     28  C   UNL     1      -8.558  -7.544  11.951  1.00  0.00     0.007 C 
ATOM     29  C   UNL     1      -6.302  -6.584  12.496  1.00  0.00     0.007 C 
ENDBRANCH  26  27
ENDBRANCH  25  26
BRANCH  25  30
ATOM     30  C   UNL     1      -5.670  -4.710   8.880  1.00  0.00     0.243 C 
ATOM     31  O   UNL     1      -4.616  -4.084   8.783  1.00  0.00    -0.273 OA
ATOM     32  N   UNL     1      -6.826  -4.305   8.262  1.00  0.00    -0.342 N 
ATOM     33  H   UNL     1      -7.620  -4.950   8.273  1.00  0.00     0.164 HD
BRANCH  32  34
ATOM     34  C   UNL     1      -6.917  -3.087   7.453  1.00  0.00     0.175 C 
BRANCH  34  35
ATOM     35  C   UNL     1      -6.919  -3.413   5.951  1.00  0.00     0.070 C 
BRANCH  35  36
ATOM     36  C   UNL     1      -6.431  -2.261   5.102  1.00  0.00    -0.045 A 
ATOM     37  C   UNL     1      -6.337  -2.406   3.710  1.00  0.00     0.007 A 
ATOM     38  C   UNL     1      -6.047  -1.048   5.689  1.00  0.00     0.007 A 
ATOM     39  C   UNL     1      -5.874  -1.353   2.919  1.00  0.00     0.046 A 
ATOM     40  C   UNL     1      -5.582   0.006   4.898  1.00  0.00     0.046 A 
ATOM     41  C   UNL     1      -5.502  -0.156   3.519  1.00  0.00     0.115 A 
BRANCH  41  42
ATOM     42  O   UNL     1      -5.052   0.846   2.712  1.00  0.00    -0.508 OA
ATOM     43  H   UNL     1      -4.368   0.482   2.125  1.00  0.00     0.293 HD
ENDBRANCH  41  42
ENDBRANCH  35  36
ENDBRANCH  34  35
BRANCH  34  44
ATOM     44  C   UNL     1      -8.191  -2.323   7.880  1.00  0.00     0.243 C 
ATOM     45  O   UNL     1      -9.329  -2.617   7.522  1.00  0.00    -0.273 OA
ATOM     46  N   UNL     1      -7.929  -1.182   8.608  1.00  0.00    -0.341 N 
ATOM     47  H   UNL     1      -6.962  -0.917   8.779  1.00  0.00     0.164 HD
BRANCH  46  48
ATOM     48  C   UNL     1      -8.971  -0.260   9.065  1.00  0.00     0.196 C 
BRANCH  48  49
ATOM     49  C   UNL     1      -8.729   0.182  10.517  1.00  0.00     0.072 C 
BRANCH  49  50
ATOM     50  C   UNL     1      -9.642  -0.518  11.499  1.00  0.00    -0.045 A 
ATOM     51  C   UNL     1     -10.127   0.173  12.618  1.00  0.00     0.007 A 
ATOM     52  C   UNL     1      -9.998  -1.861  11.320  1.00  0.00     0.007 A 
ATOM     53  C   UNL     1     -10.959  -0.466  13.537  1.00  0.00     0.046 A 
ATOM     54  C   UNL     1     -10.830  -2.502  12.241  1.00  0.00     0.046 A 
ATOM     55  C   UNL     1     -11.305  -1.798  13.342  1.00  0.00     0.115 A 
BRANCH  55  56
ATOM     56  O   UNL     1     -12.118  -2.387  14.264  1.00  0.00    -0.508 OA
ATOM     57  H   UNL     1     -13.037  -2.293  13.966  1.00  0.00     0.293 HD
ENDBRANCH  55  56
ENDBRANCH  49  50
ENDBRANCH  48  49
BRANCH  48  58
ATOM     58  C   UNL     1      -8.987   0.970   8.147  1.00  0.00     0.326 C 
ATOM     59  O   UNL     1      -8.886   0.987   6.931  1.00  0.00    -0.250 OA
BRANCH  58  60
ATOM     60  O   UNL     1      -9.145   2.141   8.815  1.00  0.00    -0.480 OA
ATOM     61  H   UNL     1      -9.879   1.948   9.438  1.00  0.00     0.296 HD
ENDBRANCH  58  60
ENDBRANCH  48  58
ENDBRANCH  46  48
ENDBRANCH  34  44
ENDBRANCH  32  34
ENDBRANCH  25  30
ENDBRANCH  23  25
ENDBRANCH   2  23
TORSDOF 28
ENDMDL
MODEL 26
REMARK VINA RESULT:    -6.129      2.455      6.609
REMARK INTER + INTRA:         -23.072
REMARK INTER:                 -17.364
REMARK INTRA:                  -5.708
REMARK UNBOUND:                -7.807
REMARK SMILES CCCCCCC[C@H](N)[C@H](O)C(=O)N[C@H](C)C(=O)N(C)[C@H](CC(C)C)C(=O)N[C@@H](Cc1ccc(O)cc1)C(=O)N[C@@H](Cc1ccc(O)cc1)C(=O)O
REMARK SMILES IDX 18 1 17 2 15 3 16 4 14 5 12 6 13 7 10 9 11 10 8 12 9 13 7 16
REMARK SMILES IDX 6 17 5 18 4 19 3 20 2 21 1 22 19 23 20 24 21 25 22 26 23 27
REMARK SMILES IDX 24 28 25 29 26 30 27 31 28 32 29 34 30 35 31 36 32 37 37 38
REMARK SMILES IDX 33 39 36 40 34 41 35 42 38 44 39 45 40 46 41 48 42 49 43 50
REMARK SMILES IDX 44 51 49 52 45 53 48 54 46 55 47 56 50 58 51 59 52 60
REMARK H PARENT 14 8 11 11 9 14 9 15 28 33 35 43 40 47 47 57 52 61
ROOT
ATOM      1  O   UNL     1      -4.284  -7.543   5.239  1.00  0.00    -0.272 OA
ATOM      2  C   UNL     1      -4.797  -7.059   6.258  1.00  0.00     0.245 C 
ENDROOT
BRANCH   2   3
ATOM      3  C   UNL     1      -6.337  -6.896   6.307  1.00  0.00     0.168 C 
ATOM      4  C   UNL     1      -7.032  -8.225   6.028  1.00  0.00     0.041 C 
BRANCH   3   5
ATOM      5  N   UNL     1      -6.847  -6.261   7.512  1.00  0.00    -0.342 N 
ATOM      6  C   UNL     1      -8.009  -5.519   7.508  1.00  0.00     0.251 C 
ATOM      7  O   UNL     1      -8.671  -5.304   6.498  1.00  0.00    -0.272 OA
ATOM      8  H   UNL     1      -6.364  -6.339   8.404  1.00  0.00     0.164 HD
BRANCH   6   9
ATOM      9  C   UNL     1      -8.429  -5.064   8.915  1.00  0.00     0.219 C 
BRANCH   9  10
ATOM     10  O   UNL     1      -9.581  -5.764   9.401  1.00  0.00    -0.382 OA
ATOM     11  H   UNL     1     -10.149  -5.854   8.605  1.00  0.00     0.211 HD
ENDBRANCH   9  10
BRANCH   9  12
ATOM     12  C   UNL     1      -7.272  -5.126   9.946  1.00  0.00     0.089 C 
BRANCH  12  13
ATOM     13  N   UNL     1      -6.183  -4.237   9.479  1.00  0.00    -0.325 NA
ATOM     14  H   UNL     1      -5.330  -4.449  10.000  1.00  0.00     0.119 HD
ATOM     15  H   UNL     1      -6.414  -3.272   9.728  1.00  0.00     0.119 HD
ENDBRANCH  12  13
BRANCH  12  16
ATOM     16  C   UNL     1      -7.647  -4.785  11.408  1.00  0.00     0.022 C 
BRANCH  16  17
ATOM     17  C   UNL     1      -6.531  -4.653  12.454  1.00  0.00     0.002 C 
BRANCH  17  18
ATOM     18  C   UNL     1      -5.978  -5.976  12.977  1.00  0.00     0.000 C 
BRANCH  18  19
ATOM     19  C   UNL     1      -4.614  -6.359  12.388  1.00  0.00    -0.000 C 
BRANCH  19  20
ATOM     20  C   UNL     1      -3.501  -6.580  13.416  1.00  0.00    -0.000 C 
BRANCH  20  21
ATOM     21  C   UNL     1      -2.103  -6.608  12.791  1.00  0.00    -0.003 C 
ATOM     22  C   UNL     1      -2.006  -7.662  11.698  1.00  0.00     0.004 C 
ENDBRANCH  20  21
ENDBRANCH  19  20
ENDBRANCH  18  19
ENDBRANCH  17  18
ENDBRANCH  16  17
ENDBRANCH  12  16
ENDBRANCH   9  12
ENDBRANCH   6   9
ENDBRANCH   3   5
ENDBRANCH   2   3
BRANCH   2  23
ATOM     23  N   UNL     1      -4.010  -6.789   7.372  1.00  0.00    -0.332 N 
ATOM     24  C   UNL     1      -4.039  -7.556   8.609  1.00  0.00     0.147 C 
BRANCH  23  25
ATOM     25  C   UNL     1      -2.961  -5.735   7.313  1.00  0.00     0.174 C 
BRANCH  25  26
ATOM     26  C   UNL     1      -2.554  -5.210   8.710  1.00  0.00     0.038 C 
BRANCH  26  27
ATOM     27  C   UNL     1      -1.098  -4.723   8.878  1.00  0.00    -0.015 C 
ATOM     28  C   UNL     1      -0.140  -5.391   7.892  1.00  0.00     0.007 C 
ATOM     29  C   UNL     1      -0.955  -3.204   8.820  1.00  0.00     0.007 C 
ENDBRANCH  26  27
ENDBRANCH  25  26
BRANCH  25  30
ATOM     30  C   UNL     1      -3.383  -4.620   6.329  1.00  0.00     0.243 C 
ATOM     31  O   UNL     1      -2.904  -4.535   5.199  1.00  0.00    -0.273 OA
ATOM     32  N   UNL     1      -4.316  -3.733   6.802  1.00  0.00    -0.342 N 
ATOM     33  H   UNL     1      -4.767  -3.951   7.693  1.00  0.00     0.164 HD
BRANCH  32  34
ATOM     34  C   UNL     1      -4.812  -2.598   6.019  1.00  0.00     0.175 C 
BRANCH  34  35
ATOM     35  C   UNL     1      -6.117  -2.951   5.289  1.00  0.00     0.070 C 
BRANCH  35  36
ATOM     36  C   UNL     1      -5.977  -2.899   3.784  1.00  0.00    -0.045 A 
ATOM     37  C   UNL     1      -5.611  -4.051   3.073  1.00  0.00     0.007 A 
ATOM     38  C   UNL     1      -6.188  -1.704   3.083  1.00  0.00     0.007 A 
ATOM     39  C   UNL     1      -5.466  -4.010   1.686  1.00  0.00     0.046 A 
ATOM     40  C   UNL     1      -6.042  -1.661   1.695  1.00  0.00     0.046 A 
ATOM     41  C   UNL     1      -5.683  -2.816   1.008  1.00  0.00     0.115 A 
BRANCH  41  42
ATOM     42  O   UNL     1      -5.529  -2.817  -0.347  1.00  0.00    -0.508 OA
ATOM     43  H   UNL     1      -4.595  -2.998  -0.547  1.00  0.00     0.293 HD
ENDBRANCH  41  42
ENDBRANCH  35  36
ENDBRANCH  34  35
BRANCH  34  44
ATOM     44  C   UNL     1      -4.992  -1.398   6.976  1.00  0.00     0.243 C 
ATOM     45  O   UNL     1      -5.445  -0.307   6.643  1.00  0.00    -0.273 OA
ATOM     46  N   UNL     1      -4.472  -1.618   8.234  1.00  0.00    -0.341 N 
ATOM     47  H   UNL     1      -4.002  -2.498   8.428  1.00  0.00     0.164 HD
BRANCH  46  48
ATOM     48  C   UNL     1      -4.465  -0.603   9.291  1.00  0.00     0.196 C 
BRANCH  48  49
ATOM     49  C   UNL     1      -5.241  -1.080  10.530  1.00  0.00     0.072 C 
BRANCH  49  50
ATOM     50  C   UNL     1      -6.689  -0.645  10.512  1.00  0.00    -0.045 A 
ATOM     51  C   UNL     1      -7.106   0.359   9.627  1.00  0.00     0.007 A 
ATOM     52  C   UNL     1      -7.624  -1.217  11.385  1.00  0.00     0.007 A 
ATOM     53  C   UNL     1      -8.437   0.778   9.611  1.00  0.00     0.046 A 
ATOM     54  C   UNL     1      -8.956  -0.797  11.369  1.00  0.00     0.046 A 
ATOM     55  C   UNL     1      -9.351   0.197  10.481  1.00  0.00     0.115 A 
BRANCH  55  56
ATOM     56  O   UNL     1     -10.642   0.636  10.435  1.00  0.00    -0.508 OA
ATOM     57  H   UNL     1     -10.652   1.579  10.662  1.00  0.00     0.293 HD
ENDBRANCH  55  56
ENDBRANCH  49  50
ENDBRANCH  48  49
BRANCH  48  58
ATOM     58  C   UNL     1      -3.012  -0.298   9.680  1.00  0.00     0.326 C 
ATOM     59  O   UNL     1      -2.213   0.393   9.069  1.00  0.00    -0.250 OA
BRANCH  58  60
ATOM     60  O   UNL     1      -2.631  -0.875  10.847  1.00  0.00    -0.480 OA
ATOM     61  H   UNL     1      -2.998  -0.271  11.528  1.00  0.00     0.296 HD
ENDBRANCH  58  60
ENDBRANCH  48  58
ENDBRANCH  46  48
ENDBRANCH  34  44
ENDBRANCH  32  34
ENDBRANCH  25  30
ENDBRANCH  23  25
ENDBRANCH   2  23
TORSDOF 28
ENDMDL
MODEL 27
REMARK VINA RESULT:    -6.050      2.121      6.311
REMARK INTER + INTRA:         -22.875
REMARK INTER:                 -17.077
REMARK INTRA:                  -5.798
REMARK UNBOUND:                -7.807
REMARK SMILES CCCCCCC[C@H](N)[C@H](O)C(=O)N[C@H](C)C(=O)N(C)[C@H](CC(C)C)C(=O)N[C@@H](Cc1ccc(O)cc1)C(=O)N[C@@H](Cc1ccc(O)cc1)C(=O)O
REMARK SMILES IDX 18 1 17 2 15 3 16 4 14 5 12 6 13 7 10 9 11 10 8 12 9 13 7 16
REMARK SMILES IDX 6 17 5 18 4 19 3 20 2 21 1 22 19 23 20 24 21 25 22 26 23 27
REMARK SMILES IDX 24 28 25 29 26 30 27 31 28 32 29 34 30 35 31 36 32 37 37 38
REMARK SMILES IDX 33 39 36 40 34 41 35 42 38 44 39 45 40 46 41 48 42 49 43 50
REMARK SMILES IDX 44 51 49 52 45 53 48 54 46 55 47 56 50 58 51 59 52 60
REMARK H PARENT 14 8 11 11 9 14 9 15 28 33 35 43 40 47 47 57 52 61
ROOT
ATOM      1  O   UNL     1      -2.547  -5.600  11.969  1.00  0.00    -0.272 OA
ATOM      2  C   UNL     1      -2.899  -4.821  11.071  1.00  0.00     0.245 C 
ENDROOT
BRANCH   2   3
ATOM      3  C   UNL     1      -3.156  -5.392   9.654  1.00  0.00     0.168 C 
ATOM      4  C   UNL     1      -1.840  -5.668   8.934  1.00  0.00     0.041 C 
BRANCH   3   5
ATOM      5  N   UNL     1      -4.049  -6.539   9.610  1.00  0.00    -0.342 N 
ATOM      6  C   UNL     1      -5.327  -6.448   9.101  1.00  0.00     0.251 C 
ATOM      7  O   UNL     1      -5.818  -5.402   8.690  1.00  0.00    -0.272 OA
ATOM      8  H   UNL     1      -3.765  -7.454   9.955  1.00  0.00     0.164 HD
BRANCH   6   9
ATOM      9  C   UNL     1      -6.035  -7.811   9.023  1.00  0.00     0.219 C 
BRANCH   9  10
ATOM     10  O   UNL     1      -5.574  -8.730  10.021  1.00  0.00    -0.382 OA
ATOM     11  H   UNL     1      -6.311  -8.754  10.671  1.00  0.00     0.211 HD
ENDBRANCH   9  10
BRANCH   9  12
ATOM     12  C   UNL     1      -7.581  -7.696   9.052  1.00  0.00     0.089 C 
BRANCH  12  13
ATOM     13  N   UNL     1      -8.090  -7.902   7.676  1.00  0.00    -0.325 NA
ATOM     14  H   UNL     1      -9.107  -7.995   7.705  1.00  0.00     0.119 HD
ATOM     15  H   UNL     1      -7.750  -8.802   7.329  1.00  0.00     0.119 HD
ENDBRANCH  12  13
BRANCH  12  16
ATOM     16  C   UNL     1      -8.313  -8.640  10.036  1.00  0.00     0.022 C 
BRANCH  16  17
ATOM     17  C   UNL     1      -8.971  -8.046  11.290  1.00  0.00     0.002 C 
BRANCH  17  18
ATOM     18  C   UNL     1      -8.427  -6.686  11.720  1.00  0.00     0.000 C 
BRANCH  18  19
ATOM     19  C   UNL     1      -7.536  -6.736  12.968  1.00  0.00    -0.000 C 
BRANCH  19  20
ATOM     20  C   UNL     1      -6.062  -6.395  12.728  1.00  0.00    -0.000 C 
BRANCH  20  21
ATOM     21  C   UNL     1      -5.104  -7.450  13.289  1.00  0.00    -0.003 C 
ATOM     22  C   UNL     1      -4.769  -7.176  14.746  1.00  0.00     0.004 C 
ENDBRANCH  20  21
ENDBRANCH  19  20
ENDBRANCH  18  19
ENDBRANCH  17  18
ENDBRANCH  16  17
ENDBRANCH  12  16
ENDBRANCH   9  12
ENDBRANCH   6   9
ENDBRANCH   3   5
ENDBRANCH   2   3
BRANCH   2  23
ATOM     23  N   UNL     1      -3.172  -3.491  11.371  1.00  0.00    -0.332 N 
ATOM     24  C   UNL     1      -2.752  -2.817  12.591  1.00  0.00     0.147 C 
BRANCH  23  25
ATOM     25  C   UNL     1      -3.828  -2.613  10.364  1.00  0.00     0.174 C 
BRANCH  25  26
ATOM     26  C   UNL     1      -3.182  -1.210  10.277  1.00  0.00     0.038 C 
BRANCH  26  27
ATOM     27  C   UNL     1      -2.671  -0.759   8.890  1.00  0.00    -0.015 C 
ATOM     28  C   UNL     1      -1.916   0.569   8.949  1.00  0.00     0.007 C 
ATOM     29  C   UNL     1      -1.839  -1.820   8.175  1.00  0.00     0.007 C 
ENDBRANCH  26  27
ENDBRANCH  25  26
BRANCH  25  30
ATOM     30  C   UNL     1      -5.355  -2.581  10.599  1.00  0.00     0.243 C 
ATOM     31  O   UNL     1      -5.852  -2.879  11.684  1.00  0.00    -0.273 OA
ATOM     32  N   UNL     1      -6.114  -2.206   9.520  1.00  0.00    -0.342 N 
ATOM     33  H   UNL     1      -5.623  -1.839   8.701  1.00  0.00     0.164 HD
BRANCH  32  34
ATOM     34  C   UNL     1      -7.578  -2.146   9.552  1.00  0.00     0.175 C 
BRANCH  34  35
ATOM     35  C   UNL     1      -8.070  -0.776  10.042  1.00  0.00     0.070 C 
BRANCH  35  36
ATOM     36  C   UNL     1      -9.075  -0.883  11.167  1.00  0.00    -0.045 A 
ATOM     37  C   UNL     1      -9.446  -2.144  11.658  1.00  0.00     0.007 A 
ATOM     38  C   UNL     1      -9.664   0.262  11.717  1.00  0.00     0.007 A 
ATOM     39  C   UNL     1     -10.383  -2.255  12.686  1.00  0.00     0.046 A 
ATOM     40  C   UNL     1     -10.603   0.153  12.745  1.00  0.00     0.046 A 
ATOM     41  C   UNL     1     -10.953  -1.106  13.221  1.00  0.00     0.115 A 
BRANCH  41  42
ATOM     42  O   UNL     1     -11.867  -1.258  14.222  1.00  0.00    -0.508 OA
ATOM     43  H   UNL     1     -12.109  -0.376  14.550  1.00  0.00     0.293 HD
ENDBRANCH  41  42
ENDBRANCH  35  36
ENDBRANCH  34  35
BRANCH  34  44
ATOM     44  C   UNL     1      -8.101  -2.474   8.135  1.00  0.00     0.243 C 
ATOM     45  O   UNL     1      -9.279  -2.400   7.796  1.00  0.00    -0.273 OA
ATOM     46  N   UNL     1      -7.134  -2.992   7.299  1.00  0.00    -0.341 N 
ATOM     47  H   UNL     1      -6.197  -3.144   7.663  1.00  0.00     0.164 HD
BRANCH  46  48
ATOM     48  C   UNL     1      -7.407  -3.440   5.932  1.00  0.00     0.196 C 
BRANCH  48  49
ATOM     49  C   UNL     1      -6.149  -3.353   5.052  1.00  0.00     0.072 C 
BRANCH  49  50
ATOM     50  C   UNL     1      -6.165  -2.154   4.131  1.00  0.00    -0.045 A 
ATOM     51  C   UNL     1      -6.144  -2.340   2.741  1.00  0.00     0.007 A 
ATOM     52  C   UNL     1      -6.181  -0.851   4.644  1.00  0.00     0.007 A 
ATOM     53  C   UNL     1      -6.145  -1.241   1.882  1.00  0.00     0.046 A 
ATOM     54  C   UNL     1      -6.181   0.249   3.784  1.00  0.00     0.046 A 
ATOM     55  C   UNL     1      -6.165   0.044   2.409  1.00  0.00     0.115 A 
BRANCH  55  56
ATOM     56  O   UNL     1      -6.164   1.091   1.535  1.00  0.00    -0.508 OA
ATOM     57  H   UNL     1      -5.858   0.769   0.672  1.00  0.00     0.293 HD
ENDBRANCH  55  56
ENDBRANCH  49  50
ENDBRANCH  48  49
BRANCH  48  58
ATOM     58  C   UNL     1      -7.907  -4.891   5.973  1.00  0.00     0.326 C 
ATOM     59  O   UNL     1      -9.061  -5.273   6.079  1.00  0.00    -0.250 OA
BRANCH  58  60
ATOM     60  O   UNL     1      -6.914  -5.809   5.860  1.00  0.00    -0.480 OA
ATOM     61  H   UNL     1      -6.104  -5.258   5.790  1.00  0.00     0.296 HD
ENDBRANCH  58  60
ENDBRANCH  48  58
ENDBRANCH  46  48
ENDBRANCH  34  44
ENDBRANCH  32  34
ENDBRANCH  25  30
ENDBRANCH  23  25
ENDBRANCH   2  23
TORSDOF 28
ENDMDL
MODEL 28
REMARK VINA RESULT:    -6.039      2.204      2.921
REMARK INTER + INTRA:         -22.848
REMARK INTER:                 -18.538
REMARK INTRA:                  -4.310
REMARK UNBOUND:                -7.807
REMARK SMILES CCCCCCC[C@H](N)[C@H](O)C(=O)N[C@H](C)C(=O)N(C)[C@H](CC(C)C)C(=O)N[C@@H](Cc1ccc(O)cc1)C(=O)N[C@@H](Cc1ccc(O)cc1)C(=O)O
REMARK SMILES IDX 18 1 17 2 15 3 16 4 14 5 12 6 13 7 10 9 11 10 8 12 9 13 7 16
REMARK SMILES IDX 6 17 5 18 4 19 3 20 2 21 1 22 19 23 20 24 21 25 22 26 23 27
REMARK SMILES IDX 24 28 25 29 26 30 27 31 28 32 29 34 30 35 31 36 32 37 37 38
REMARK SMILES IDX 33 39 36 40 34 41 35 42 38 44 39 45 40 46 41 48 42 49 43 50
REMARK SMILES IDX 44 51 49 52 45 53 48 54 46 55 47 56 50 58 51 59 52 60
REMARK H PARENT 14 8 11 11 9 14 9 15 28 33 35 43 40 47 47 57 52 61
ROOT
ATOM      1  O   UNL     1      -6.195  -4.275   9.547  1.00  0.00    -0.272 OA
ATOM      2  C   UNL     1      -7.150  -4.310  10.337  1.00  0.00     0.245 C 
ENDROOT
BRANCH   2   3
ATOM      3  C   UNL     1      -7.065  -5.256  11.561  1.00  0.00     0.168 C 
ATOM      4  C   UNL     1      -8.217  -6.255  11.553  1.00  0.00     0.041 C 
BRANCH   3   5
ATOM      5  N   UNL     1      -5.779  -5.912  11.738  1.00  0.00    -0.342 N 
ATOM      6  C   UNL     1      -5.224  -6.100  12.986  1.00  0.00     0.251 C 
ATOM      7  O   UNL     1      -5.740  -5.699  14.024  1.00  0.00    -0.272 OA
ATOM      8  H   UNL     1      -5.239  -6.256  10.948  1.00  0.00     0.164 HD
BRANCH   6   9
ATOM      9  C   UNL     1      -3.936  -6.938  12.944  1.00  0.00     0.219 C 
BRANCH   9  10
ATOM     10  O   UNL     1      -4.118  -8.197  12.283  1.00  0.00    -0.382 OA
ATOM     11  H   UNL     1      -4.062  -7.967  11.329  1.00  0.00     0.211 HD
ENDBRANCH   9  10
BRANCH   9  12
ATOM     12  C   UNL     1      -2.729  -6.171  12.344  1.00  0.00     0.089 C 
BRANCH  12  13
ATOM     13  N   UNL     1      -2.942  -4.722  12.561  1.00  0.00    -0.325 NA
ATOM     14  H   UNL     1      -2.438  -4.430  13.401  1.00  0.00     0.119 HD
ATOM     15  H   UNL     1      -3.930  -4.560  12.773  1.00  0.00     0.119 HD
ENDBRANCH  12  13
BRANCH  12  16
ATOM     16  C   UNL     1      -1.333  -6.587  12.867  1.00  0.00     0.022 C 
BRANCH  16  17
ATOM     17  C   UNL     1      -0.353  -7.278  11.909  1.00  0.00     0.002 C 
BRANCH  17  18
ATOM     18  C   UNL     1       0.847  -6.430  11.493  1.00  0.00     0.000 C 
BRANCH  18  19
ATOM     19  C   UNL     1       0.685  -5.745  10.129  1.00  0.00    -0.000 C 
BRANCH  19  20
ATOM     20  C   UNL     1       1.159  -4.291  10.072  1.00  0.00    -0.000 C 
BRANCH  20  21
ATOM     21  C   UNL     1       2.198  -3.956  11.145  1.00  0.00    -0.003 C 
ATOM     22  C   UNL     1       3.414  -3.267  10.545  1.00  0.00     0.004 C 
ENDBRANCH  20  21
ENDBRANCH  19  20
ENDBRANCH  18  19
ENDBRANCH  17  18
ENDBRANCH  16  17
ENDBRANCH  12  16
ENDBRANCH   9  12
ENDBRANCH   6   9
ENDBRANCH   3   5
ENDBRANCH   2   3
BRANCH   2  23
ATOM     23  N   UNL     1      -8.211  -3.424  10.184  1.00  0.00    -0.332 N 
ATOM     24  C   UNL     1      -9.437  -3.461  10.968  1.00  0.00     0.147 C 
BRANCH  23  25
ATOM     25  C   UNL     1      -8.095  -2.264   9.258  1.00  0.00     0.174 C 
BRANCH  25  26
ATOM     26  C   UNL     1      -9.084  -1.124   9.594  1.00  0.00     0.038 C 
BRANCH  26  27
ATOM     27  C   UNL     1      -8.503   0.306   9.674  1.00  0.00    -0.015 C 
ATOM     28  C   UNL     1      -6.978   0.312   9.774  1.00  0.00     0.007 C 
ATOM     29  C   UNL     1      -8.971   1.216   8.542  1.00  0.00     0.007 C 
ENDBRANCH  26  27
ENDBRANCH  25  26
BRANCH  25  30
ATOM     30  C   UNL     1      -8.176  -2.745   7.791  1.00  0.00     0.243 C 
ATOM     31  O   UNL     1      -9.252  -2.921   7.223  1.00  0.00    -0.273 OA
ATOM     32  N   UNL     1      -6.972  -2.966   7.172  1.00  0.00    -0.342 N 
ATOM     33  H   UNL     1      -6.126  -2.662   7.660  1.00  0.00     0.164 HD
BRANCH  32  34
ATOM     34  C   UNL     1      -6.856  -3.448   5.793  1.00  0.00     0.175 C 
BRANCH  34  35
ATOM     35  C   UNL     1      -5.535  -2.997   5.153  1.00  0.00     0.070 C 
BRANCH  35  36
ATOM     36  C   UNL     1      -5.721  -1.876   4.156  1.00  0.00    -0.045 A 
ATOM     37  C   UNL     1      -5.728  -0.542   4.593  1.00  0.00     0.007 A 
ATOM     38  C   UNL     1      -5.911  -2.148   2.795  1.00  0.00     0.007 A 
ATOM     39  C   UNL     1      -5.913   0.498   3.682  1.00  0.00     0.046 A 
ATOM     40  C   UNL     1      -6.098  -1.106   1.882  1.00  0.00     0.046 A 
ATOM     41  C   UNL     1      -6.096   0.209   2.335  1.00  0.00     0.115 A 
BRANCH  41  42
ATOM     42  O   UNL     1      -6.276   1.254   1.479  1.00  0.00    -0.508 OA
ATOM     43  H   UNL     1      -6.309   2.073   2.001  1.00  0.00     0.293 HD
ENDBRANCH  41  42
ENDBRANCH  35  36
ENDBRANCH  34  35
BRANCH  34  44
ATOM     44  C   UNL     1      -6.993  -4.987   5.812  1.00  0.00     0.243 C 
ATOM     45  O   UNL     1      -7.449  -5.655   4.887  1.00  0.00    -0.273 OA
ATOM     46  N   UNL     1      -6.675  -5.552   7.029  1.00  0.00    -0.341 N 
ATOM     47  H   UNL     1      -6.414  -4.945   7.802  1.00  0.00     0.164 HD
BRANCH  46  48
ATOM     48  C   UNL     1      -6.792  -6.985   7.308  1.00  0.00     0.196 C 
BRANCH  48  49
ATOM     49  C   UNL     1      -5.628  -7.483   8.181  1.00  0.00     0.072 C 
BRANCH  49  50
ATOM     50  C   UNL     1      -4.294  -6.921   7.747  1.00  0.00    -0.045 A 
ATOM     51  C   UNL     1      -3.823  -7.162   6.448  1.00  0.00     0.007 A 
ATOM     52  C   UNL     1      -3.503  -6.176   8.631  1.00  0.00     0.007 A 
ATOM     53  C   UNL     1      -2.587  -6.660   6.040  1.00  0.00     0.046 A 
ATOM     54  C   UNL     1      -2.265  -5.674   8.223  1.00  0.00     0.046 A 
ATOM     55  C   UNL     1      -1.818  -5.920   6.929  1.00  0.00     0.115 A 
BRANCH  55  56
ATOM     56  O   UNL     1      -0.615  -5.449   6.492  1.00  0.00    -0.508 OA
ATOM     57  H   UNL     1      -0.637  -4.479   6.525  1.00  0.00     0.293 HD
ENDBRANCH  55  56
ENDBRANCH  49  50
ENDBRANCH  48  49
BRANCH  48  58
ATOM     58  C   UNL     1      -8.123  -7.246   8.027  1.00  0.00     0.326 C 
ATOM     59  O   UNL     1      -9.142  -6.577   7.962  1.00  0.00    -0.250 OA
BRANCH  58  60
ATOM     60  O   UNL     1      -8.113  -8.365   8.795  1.00  0.00    -0.480 OA
ATOM     61  H   UNL     1      -7.781  -8.042   9.660  1.00  0.00     0.296 HD
ENDBRANCH  58  60
ENDBRANCH  48  58
ENDBRANCH  46  48
ENDBRANCH  34  44
ENDBRANCH  32  34
ENDBRANCH  25  30
ENDBRANCH  23  25
ENDBRANCH   2  23
TORSDOF 28
ENDMDL
MODEL 29
REMARK VINA RESULT:    -6.016      3.499      5.398
REMARK INTER + INTRA:         -22.791
REMARK INTER:                 -19.109
REMARK INTRA:                  -3.682
REMARK UNBOUND:                -7.807
REMARK SMILES CCCCCCC[C@H](N)[C@H](O)C(=O)N[C@H](C)C(=O)N(C)[C@H](CC(C)C)C(=O)N[C@@H](Cc1ccc(O)cc1)C(=O)N[C@@H](Cc1ccc(O)cc1)C(=O)O
REMARK SMILES IDX 18 1 17 2 15 3 16 4 14 5 12 6 13 7 10 9 11 10 8 12 9 13 7 16
REMARK SMILES IDX 6 17 5 18 4 19 3 20 2 21 1 22 19 23 20 24 21 25 22 26 23 27
REMARK SMILES IDX 24 28 25 29 26 30 27 31 28 32 29 34 30 35 31 36 32 37 37 38
REMARK SMILES IDX 33 39 36 40 34 41 35 42 38 44 39 45 40 46 41 48 42 49 43 50
REMARK SMILES IDX 44 51 49 52 45 53 48 54 46 55 47 56 50 58 51 59 52 60
REMARK H PARENT 14 8 11 11 9 14 9 15 28 33 35 43 40 47 47 57 52 61
ROOT
ATOM      1  O   UNL     1     -10.638  -2.697  10.157  1.00  0.00    -0.272 OA
ATOM      2  C   UNL     1      -9.635  -2.348  10.797  1.00  0.00     0.245 C 
ENDROOT
BRANCH   2   3
ATOM      3  C   UNL     1      -9.075  -3.307  11.877  1.00  0.00     0.168 C 
ATOM      4  C   UNL     1      -7.610  -3.633  11.605  1.00  0.00     0.041 C 
BRANCH   3   5
ATOM      5  N   UNL     1      -9.288  -2.872  13.249  1.00  0.00    -0.342 N 
ATOM      6  C   UNL     1      -8.428  -1.996  13.877  1.00  0.00     0.251 C 
ATOM      7  O   UNL     1      -7.412  -1.553  13.353  1.00  0.00    -0.272 OA
ATOM      8  H   UNL     1     -10.079  -3.200  13.798  1.00  0.00     0.164 HD
BRANCH   6   9
ATOM      9  C   UNL     1      -8.927  -1.568  15.266  1.00  0.00     0.219 C 
BRANCH   9  10
ATOM     10  O   UNL     1     -10.356  -1.565  15.364  1.00  0.00    -0.382 OA
ATOM     11  H   UNL     1     -10.637  -2.187  14.658  1.00  0.00     0.211 HD
ENDBRANCH   9  10
BRANCH   9  12
ATOM     12  C   UNL     1      -8.297  -2.392  16.420  1.00  0.00     0.089 C 
BRANCH  12  13
ATOM     13  N   UNL     1      -7.356  -3.374  15.833  1.00  0.00    -0.325 NA
ATOM     14  H   UNL     1      -7.741  -3.724  14.954  1.00  0.00     0.119 HD
ATOM     15  H   UNL     1      -7.305  -4.190  16.446  1.00  0.00     0.119 HD
ENDBRANCH  12  13
BRANCH  12  16
ATOM     16  C   UNL     1      -7.592  -1.577  17.530  1.00  0.00     0.022 C 
BRANCH  16  17
ATOM     17  C   UNL     1      -7.055  -0.177  17.202  1.00  0.00     0.002 C 
BRANCH  17  18
ATOM     18  C   UNL     1      -7.830   0.975  17.837  1.00  0.00     0.000 C 
BRANCH  18  19
ATOM     19  C   UNL     1      -7.182   1.535  19.111  1.00  0.00    -0.000 C 
BRANCH  19  20
ATOM     20  C   UNL     1      -6.727   2.995  19.022  1.00  0.00    -0.000 C 
BRANCH  20  21
ATOM     21  C   UNL     1      -6.907   3.594  17.624  1.00  0.00    -0.003 C 
ATOM     22  C   UNL     1      -5.566   3.846  16.953  1.00  0.00     0.004 C 
ENDBRANCH  20  21
ENDBRANCH  19  20
ENDBRANCH  18  19
ENDBRANCH  17  18
ENDBRANCH  16  17
ENDBRANCH  12  16
ENDBRANCH   9  12
ENDBRANCH   6   9
ENDBRANCH   3   5
ENDBRANCH   2   3
BRANCH   2  23
ATOM     23  N   UNL     1      -8.965  -1.178  10.457  1.00  0.00    -0.332 N 
ATOM     24  C   UNL     1      -9.322   0.148  10.941  1.00  0.00     0.147 C 
BRANCH  23  25
ATOM     25  C   UNL     1      -7.718  -1.234   9.646  1.00  0.00     0.174 C 
BRANCH  25  26
ATOM     26  C   UNL     1      -6.922   0.092   9.672  1.00  0.00     0.038 C 
BRANCH  26  27
ATOM     27  C   UNL     1      -5.386  -0.016   9.791  1.00  0.00    -0.015 C 
ATOM     28  C   UNL     1      -4.946  -0.694  11.089  1.00  0.00     0.007 C 
ATOM     29  C   UNL     1      -4.729  -0.685   8.586  1.00  0.00     0.007 C 
ENDBRANCH  26  27
ENDBRANCH  25  26
BRANCH  25  30
ATOM     30  C   UNL     1      -8.034  -1.741   8.220  1.00  0.00     0.243 C 
ATOM     31  O   UNL     1      -8.897  -1.215   7.519  1.00  0.00    -0.273 OA
ATOM     32  N   UNL     1      -7.294  -2.815   7.795  1.00  0.00    -0.342 N 
ATOM     33  H   UNL     1      -6.503  -3.105   8.376  1.00  0.00     0.164 HD
BRANCH  32  34
ATOM     34  C   UNL     1      -7.475  -3.445   6.484  1.00  0.00     0.175 C 
BRANCH  34  35
ATOM     35  C   UNL     1      -6.125  -3.807   5.847  1.00  0.00     0.070 C 
BRANCH  35  36
ATOM     36  C   UNL     1      -6.029  -3.384   4.399  1.00  0.00    -0.045 A 
ATOM     37  C   UNL     1      -5.772  -4.340   3.404  1.00  0.00     0.007 A 
ATOM     38  C   UNL     1      -6.172  -2.040   4.031  1.00  0.00     0.007 A 
ATOM     39  C   UNL     1      -5.669  -3.958   2.066  1.00  0.00     0.046 A 
ATOM     40  C   UNL     1      -6.067  -1.656   2.692  1.00  0.00     0.046 A 
ATOM     41  C   UNL     1      -5.817  -2.620   1.721  1.00  0.00     0.115 A 
BRANCH  41  42
ATOM     42  O   UNL     1      -5.706  -2.287   0.403  1.00  0.00    -0.508 OA
ATOM     43  H   UNL     1      -5.266  -3.020  -0.059  1.00  0.00     0.293 HD
ENDBRANCH  41  42
ENDBRANCH  35  36
ENDBRANCH  34  35
BRANCH  34  44
ATOM     44  C   UNL     1      -8.378  -4.685   6.670  1.00  0.00     0.243 C 
ATOM     45  O   UNL     1      -9.427  -4.877   6.063  1.00  0.00    -0.273 OA
ATOM     46  N   UNL     1      -7.965  -5.517   7.690  1.00  0.00    -0.341 N 
ATOM     47  H   UNL     1      -7.152  -5.254   8.243  1.00  0.00     0.164 HD
BRANCH  46  48
ATOM     48  C   UNL     1      -8.697  -6.718   8.097  1.00  0.00     0.196 C 
BRANCH  48  49
ATOM     49  C   UNL     1      -7.838  -7.982   7.927  1.00  0.00     0.072 C 
BRANCH  49  50
ATOM     50  C   UNL     1      -6.533  -7.707   7.215  1.00  0.00    -0.045 A 
ATOM     51  C   UNL     1      -5.371  -7.454   7.959  1.00  0.00     0.007 A 
ATOM     52  C   UNL     1      -6.466  -7.679   5.817  1.00  0.00     0.007 A 
ATOM     53  C   UNL     1      -4.164  -7.186   7.314  1.00  0.00     0.046 A 
ATOM     54  C   UNL     1      -5.257  -7.410   5.171  1.00  0.00     0.046 A 
ATOM     55  C   UNL     1      -4.116  -7.167   5.926  1.00  0.00     0.115 A 
BRANCH  55  56
ATOM     56  O   UNL     1      -2.917  -6.899   5.334  1.00  0.00    -0.508 OA
ATOM     57  H   UNL     1      -2.760  -7.565   4.646  1.00  0.00     0.293 HD
ENDBRANCH  55  56
ENDBRANCH  49  50
ENDBRANCH  48  49
BRANCH  48  58
ATOM     58  C   UNL     1      -9.115  -6.573   9.567  1.00  0.00     0.326 C 
ATOM     59  O   UNL     1      -8.546  -7.030  10.545  1.00  0.00    -0.250 OA
BRANCH  58  60
ATOM     60  O   UNL     1     -10.241  -5.835   9.740  1.00  0.00    -0.480 OA
ATOM     61  H   UNL     1     -10.909  -6.313   9.202  1.00  0.00     0.296 HD
ENDBRANCH  58  60
ENDBRANCH  48  58
ENDBRANCH  46  48
ENDBRANCH  34  44
ENDBRANCH  32  34
ENDBRANCH  25  30
ENDBRANCH  23  25
ENDBRANCH   2  23
TORSDOF 28
ENDMDL
MODEL 30
REMARK VINA RESULT:    -5.999      2.374      7.279
REMARK INTER + INTRA:         -22.749
REMARK INTER:                 -18.448
REMARK INTRA:                  -4.301
REMARK UNBOUND:                -7.807
REMARK SMILES CCCCCCC[C@H](N)[C@H](O)C(=O)N[C@H](C)C(=O)N(C)[C@H](CC(C)C)C(=O)N[C@@H](Cc1ccc(O)cc1)C(=O)N[C@@H](Cc1ccc(O)cc1)C(=O)O
REMARK SMILES IDX 18 1 17 2 15 3 16 4 14 5 12 6 13 7 10 9 11 10 8 12 9 13 7 16
REMARK SMILES IDX 6 17 5 18 4 19 3 20 2 21 1 22 19 23 20 24 21 25 22 26 23 27
REMARK SMILES IDX 24 28 25 29 26 30 27 31 28 32 29 34 30 35 31 36 32 37 37 38
REMARK SMILES IDX 33 39 36 40 34 41 35 42 38 44 39 45 40 46 41 48 42 49 43 50
REMARK SMILES IDX 44 51 49 52 45 53 48 54 46 55 47 56 50 58 51 59 52 60
REMARK H PARENT 14 8 11 11 9 14 9 15 28 33 35 43 40 47 47 57 52 61
ROOT
ATOM      1  O   UNL     1      -5.397  -1.099   7.228  1.00  0.00    -0.272 OA
ATOM      2  C   UNL     1      -6.115  -2.110   7.226  1.00  0.00     0.245 C 
ENDROOT
BRANCH   2   3
ATOM      3  C   UNL     1      -6.876  -2.480   8.523  1.00  0.00     0.168 C 
ATOM      4  C   UNL     1      -5.994  -3.307   9.452  1.00  0.00     0.041 C 
BRANCH   3   5
ATOM      5  N   UNL     1      -7.488  -1.356   9.215  1.00  0.00    -0.342 N 
ATOM      6  C   UNL     1      -8.701  -0.832   8.822  1.00  0.00     0.251 C 
ATOM      7  O   UNL     1      -9.330  -1.238   7.851  1.00  0.00    -0.272 OA
ATOM      8  H   UNL     1      -7.043  -0.912  10.015  1.00  0.00     0.164 HD
BRANCH   6   9
ATOM      9  C   UNL     1      -9.219   0.252   9.781  1.00  0.00     0.219 C 
BRANCH   9  10
ATOM     10  O   UNL     1      -9.651   1.434   9.096  1.00  0.00    -0.382 OA
ATOM     11  H   UNL     1      -8.874   1.679   8.547  1.00  0.00     0.211 HD
ENDBRANCH   9  10
BRANCH   9  12
ATOM     12  C   UNL     1     -10.322  -0.262  10.742  1.00  0.00     0.089 C 
BRANCH  12  13
ATOM     13  N   UNL     1     -10.653  -1.657  10.372  1.00  0.00    -0.325 NA
ATOM     14  H   UNL     1     -10.004  -1.975   9.649  1.00  0.00     0.119 HD
ATOM     15  H   UNL     1     -11.574  -1.673   9.929  1.00  0.00     0.119 HD
ENDBRANCH  12  13
BRANCH  12  16
ATOM     16  C   UNL     1      -9.999  -0.175  12.253  1.00  0.00     0.022 C 
BRANCH  16  17
ATOM     17  C   UNL     1     -11.152  -0.200  13.266  1.00  0.00     0.002 C 
BRANCH  17  18
ATOM     18  C   UNL     1     -10.785  -0.739  14.647  1.00  0.00     0.000 C 
BRANCH  18  19
ATOM     19  C   UNL     1     -10.619  -2.264  14.699  1.00  0.00    -0.000 C 
BRANCH  19  20
ATOM     20  C   UNL     1     -11.897  -3.065  14.437  1.00  0.00    -0.000 C 
BRANCH  20  21
ATOM     21  C   UNL     1     -11.857  -3.846  13.120  1.00  0.00    -0.003 C 
ATOM     22  C   UNL     1     -10.452  -4.340  12.812  1.00  0.00     0.004 C 
ENDBRANCH  20  21
ENDBRANCH  19  20
ENDBRANCH  18  19
ENDBRANCH  17  18
ENDBRANCH  16  17
ENDBRANCH  12  16
ENDBRANCH   9  12
ENDBRANCH   6   9
ENDBRANCH   3   5
ENDBRANCH   2   3
BRANCH   2  23
ATOM     23  N   UNL     1      -6.319  -2.816   6.045  1.00  0.00    -0.332 N 
ATOM     24  C   UNL     1      -7.363  -3.811   5.848  1.00  0.00     0.147 C 
BRANCH  23  25
ATOM     25  C   UNL     1      -5.528  -2.488   4.828  1.00  0.00     0.174 C 
BRANCH  25  26
ATOM     26  C   UNL     1      -6.388  -1.876   3.697  1.00  0.00     0.038 C 
BRANCH  26  27
ATOM     27  C   UNL     1      -6.027  -0.445   3.240  1.00  0.00    -0.015 C 
ATOM     28  C   UNL     1      -6.690  -0.071   1.914  1.00  0.00     0.007 C 
ATOM     29  C   UNL     1      -6.305   0.619   4.298  1.00  0.00     0.007 C 
ENDBRANCH  26  27
ENDBRANCH  25  26
BRANCH  25  30
ATOM     30  C   UNL     1      -4.701  -3.716   4.384  1.00  0.00     0.243 C 
ATOM     31  O   UNL     1      -4.826  -4.215   3.266  1.00  0.00    -0.273 OA
ATOM     32  N   UNL     1      -3.829  -4.213   5.318  1.00  0.00    -0.342 N 
ATOM     33  H   UNL     1      -3.680  -3.663   6.167  1.00  0.00     0.164 HD
BRANCH  32  34
ATOM     34  C   UNL     1      -2.985  -5.388   5.082  1.00  0.00     0.175 C 
BRANCH  34  35
ATOM     35  C   UNL     1      -1.498  -5.058   5.283  1.00  0.00     0.070 C 
BRANCH  35  36
ATOM     36  C   UNL     1      -1.199  -4.524   6.665  1.00  0.00    -0.045 A 
ATOM     37  C   UNL     1      -0.312  -5.212   7.507  1.00  0.00     0.007 A 
ATOM     38  C   UNL     1      -1.816  -3.356   7.134  1.00  0.00     0.007 A 
ATOM     39  C   UNL     1      -0.040  -4.734   8.789  1.00  0.00     0.046 A 
ATOM     40  C   UNL     1      -1.546  -2.878   8.419  1.00  0.00     0.046 A 
ATOM     41  C   UNL     1      -0.659  -3.572   9.235  1.00  0.00     0.115 A 
BRANCH  41  42
ATOM     42  O   UNL     1      -0.369  -3.141  10.495  1.00  0.00    -0.508 OA
ATOM     43  H   UNL     1       0.325  -2.463  10.434  1.00  0.00     0.293 HD
ENDBRANCH  41  42
ENDBRANCH  35  36
ENDBRANCH  34  35
BRANCH  34  44
ATOM     44  C   UNL     1      -3.459  -6.515   6.027  1.00  0.00     0.243 C 
ATOM     45  O   UNL     1      -2.739  -7.417   6.447  1.00  0.00    -0.273 OA
ATOM     46  N   UNL     1      -4.817  -6.499   6.262  1.00  0.00    -0.341 N 
ATOM     47  H   UNL     1      -5.391  -5.800   5.797  1.00  0.00     0.164 HD
BRANCH  46  48
ATOM     48  C   UNL     1      -5.507  -7.507   7.071  1.00  0.00     0.196 C 
BRANCH  48  49
ATOM     49  C   UNL     1      -5.882  -6.954   8.456  1.00  0.00     0.072 C 
BRANCH  49  50
ATOM     50  C   UNL     1      -4.794  -7.170   9.483  1.00  0.00    -0.045 A 
ATOM     51  C   UNL     1      -3.763  -6.229   9.619  1.00  0.00     0.007 A 
ATOM     52  C   UNL     1      -4.785  -8.313  10.293  1.00  0.00     0.007 A 
ATOM     53  C   UNL     1      -2.747  -6.425  10.554  1.00  0.00     0.046 A 
ATOM     54  C   UNL     1      -3.766  -8.510  11.228  1.00  0.00     0.046 A 
ATOM     55  C   UNL     1      -2.756  -7.562  11.352  1.00  0.00     0.115 A 
BRANCH  55  56
ATOM     56  O   UNL     1      -1.744  -7.717  12.252  1.00  0.00    -0.508 OA
ATOM     57  H   UNL     1      -1.309  -8.568  12.080  1.00  0.00     0.293 HD
ENDBRANCH  55  56
ENDBRANCH  49  50
ENDBRANCH  48  49
BRANCH  48  58
ATOM     58  C   UNL     1      -6.777  -7.955   6.334  1.00  0.00     0.326 C 
ATOM     59  O   UNL     1      -6.953  -8.006   5.127  1.00  0.00    -0.250 OA
BRANCH  58  60
ATOM     60  O   UNL     1      -7.779  -8.338   7.166  1.00  0.00    -0.480 OA
ATOM     61  H   UNL     1      -8.140  -9.139   6.730  1.00  0.00     0.296 HD
ENDBRANCH  58  60
ENDBRANCH  48  58
ENDBRANCH  46  48
ENDBRANCH  34  44
ENDBRANCH  32  34
ENDBRANCH  25  30
ENDBRANCH  23  25
ENDBRANCH   2  23
TORSDOF 28
ENDMDL
MODEL 31
REMARK VINA RESULT:    -5.999      1.761      2.729
REMARK INTER + INTRA:         -22.748
REMARK INTER:                 -17.426
REMARK INTRA:                  -5.323
REMARK UNBOUND:                -7.807
REMARK SMILES CCCCCCC[C@H](N)[C@H](O)C(=O)N[C@H](C)C(=O)N(C)[C@H](CC(C)C)C(=O)N[C@@H](Cc1ccc(O)cc1)C(=O)N[C@@H](Cc1ccc(O)cc1)C(=O)O
REMARK SMILES IDX 18 1 17 2 15 3 16 4 14 5 12 6 13 7 10 9 11 10 8 12 9 13 7 16
REMARK SMILES IDX 6 17 5 18 4 19 3 20 2 21 1 22 19 23 20 24 21 25 22 26 23 27
REMARK SMILES IDX 24 28 25 29 26 30 27 31 28 32 29 34 30 35 31 36 32 37 37 38
REMARK SMILES IDX 33 39 36 40 34 41 35 42 38 44 39 45 40 46 41 48 42 49 43 50
REMARK SMILES IDX 44 51 49 52 45 53 48 54 46 55 47 56 50 58 51 59 52 60
REMARK H PARENT 14 8 11 11 9 14 9 15 28 33 35 43 40 47 47 57 52 61
ROOT
ATOM      1  O   UNL     1      -7.675  -5.608   9.710  1.00  0.00    -0.272 OA
ATOM      2  C   UNL     1      -7.879  -4.960  10.747  1.00  0.00     0.245 C 
ENDROOT
BRANCH   2   3
ATOM      3  C   UNL     1      -6.898  -5.131  11.933  1.00  0.00     0.168 C 
ATOM      4  C   UNL     1      -7.404  -6.190  12.906  1.00  0.00     0.041 C 
BRANCH   3   5
ATOM      5  N   UNL     1      -5.513  -5.364  11.551  1.00  0.00    -0.342 N 
ATOM      6  C   UNL     1      -4.608  -4.331  11.433  1.00  0.00     0.251 C 
ATOM      7  O   UNL     1      -4.902  -3.151  11.595  1.00  0.00    -0.272 OA
ATOM      8  H   UNL     1      -5.160  -6.298  11.357  1.00  0.00     0.164 HD
BRANCH   6   9
ATOM      9  C   UNL     1      -3.177  -4.823  11.162  1.00  0.00     0.219 C 
BRANCH   9  10
ATOM     10  O   UNL     1      -2.879  -6.053  11.833  1.00  0.00    -0.382 OA
ATOM     11  H   UNL     1      -2.568  -5.763  12.719  1.00  0.00     0.211 HD
ENDBRANCH   9  10
BRANCH   9  12
ATOM     12  C   UNL     1      -2.844  -4.925   9.650  1.00  0.00     0.089 C 
BRANCH  12  13
ATOM     13  N   UNL     1      -3.911  -4.235   8.889  1.00  0.00    -0.325 NA
ATOM     14  H   UNL     1      -4.701  -4.871   8.765  1.00  0.00     0.119 HD
ATOM     15  H   UNL     1      -3.572  -4.043   7.944  1.00  0.00     0.119 HD
ENDBRANCH  12  13
BRANCH  12  16
ATOM     16  C   UNL     1      -1.456  -4.392   9.223  1.00  0.00     0.022 C 
BRANCH  16  17
ATOM     17  C   UNL     1      -0.265  -5.359   9.180  1.00  0.00     0.002 C 
BRANCH  17  18
ATOM     18  C   UNL     1       1.102  -4.707   9.373  1.00  0.00     0.000 C 
BRANCH  18  19
ATOM     19  C   UNL     1       1.601  -4.721  10.824  1.00  0.00    -0.000 C 
BRANCH  19  20
ATOM     20  C   UNL     1       0.559  -5.138  11.866  1.00  0.00    -0.000 C 
BRANCH  20  21
ATOM     21  C   UNL     1       0.899  -6.462  12.557  1.00  0.00    -0.003 C 
ATOM     22  C   UNL     1       0.196  -7.633  11.889  1.00  0.00     0.004 C 
ENDBRANCH  20  21
ENDBRANCH  19  20
ENDBRANCH  18  19
ENDBRANCH  17  18
ENDBRANCH  16  17
ENDBRANCH  12  16
ENDBRANCH   9  12
ENDBRANCH   6   9
ENDBRANCH   3   5
ENDBRANCH   2   3
BRANCH   2  23
ATOM     23  N   UNL     1      -8.896  -4.012  10.786  1.00  0.00    -0.332 N 
ATOM     24  C   UNL     1     -10.216  -4.239  11.356  1.00  0.00     0.147 C 
BRANCH  23  25
ATOM     25  C   UNL     1      -8.638  -2.615  10.341  1.00  0.00     0.174 C 
BRANCH  25  26
ATOM     26  C   UNL     1      -9.524  -1.577  11.071  1.00  0.00     0.038 C 
BRANCH  26  27
ATOM     27  C   UNL     1      -8.946  -0.943  12.355  1.00  0.00    -0.015 C 
ATOM     28  C   UNL     1      -9.968  -0.884  13.489  1.00  0.00     0.007 C 
ATOM     29  C   UNL     1      -7.654  -1.603  12.830  1.00  0.00     0.007 C 
ENDBRANCH  26  27
ENDBRANCH  25  26
BRANCH  25  30
ATOM     30  C   UNL     1      -8.715  -2.524   8.800  1.00  0.00     0.243 C 
ATOM     31  O   UNL     1      -9.657  -1.977   8.227  1.00  0.00    -0.273 OA
ATOM     32  N   UNL     1      -7.672  -3.096   8.119  1.00  0.00    -0.342 N 
ATOM     33  H   UNL     1      -6.862  -3.404   8.664  1.00  0.00     0.164 HD
BRANCH  32  34
ATOM     34  C   UNL     1      -7.591  -3.129   6.656  1.00  0.00     0.175 C 
BRANCH  34  35
ATOM     35  C   UNL     1      -6.169  -2.815   6.168  1.00  0.00     0.070 C 
BRANCH  35  36
ATOM     36  C   UNL     1      -6.145  -1.787   5.060  1.00  0.00    -0.045 A 
ATOM     37  C   UNL     1      -6.214  -2.197   3.720  1.00  0.00     0.007 A 
ATOM     38  C   UNL     1      -6.031  -0.420   5.349  1.00  0.00     0.007 A 
ATOM     39  C   UNL     1      -6.178  -1.256   2.690  1.00  0.00     0.046 A 
ATOM     40  C   UNL     1      -5.994   0.522   4.318  1.00  0.00     0.046 A 
ATOM     41  C   UNL     1      -6.069   0.095   2.997  1.00  0.00     0.115 A 
BRANCH  41  42
ATOM     42  O   UNL     1      -6.035   0.981   1.961  1.00  0.00    -0.508 OA
ATOM     43  H   UNL     1      -5.401   1.683   2.183  1.00  0.00     0.293 HD
ENDBRANCH  41  42
ENDBRANCH  35  36
ENDBRANCH  34  35
BRANCH  34  44
ATOM     44  C   UNL     1      -8.071  -4.519   6.181  1.00  0.00     0.243 C 
ATOM     45  O   UNL     1      -9.245  -4.816   5.979  1.00  0.00    -0.273 OA
ATOM     46  N   UNL     1      -7.063  -5.458   6.125  1.00  0.00    -0.341 N 
ATOM     47  H   UNL     1      -6.125  -5.193   6.415  1.00  0.00     0.164 HD
BRANCH  46  48
ATOM     48  C   UNL     1      -7.287  -6.861   5.768  1.00  0.00     0.196 C 
BRANCH  48  49
ATOM     49  C   UNL     1      -6.121  -7.420   4.935  1.00  0.00     0.072 C 
BRANCH  49  50
ATOM     50  C   UNL     1      -4.833  -6.659   5.154  1.00  0.00    -0.045 A 
ATOM     51  C   UNL     1      -3.874  -7.151   6.051  1.00  0.00     0.007 A 
ATOM     52  C   UNL     1      -4.587  -5.451   4.488  1.00  0.00     0.007 A 
ATOM     53  C   UNL     1      -2.687  -6.451   6.270  1.00  0.00     0.046 A 
ATOM     54  C   UNL     1      -3.399  -4.750   4.708  1.00  0.00     0.046 A 
ATOM     55  C   UNL     1      -2.459  -5.257   5.598  1.00  0.00     0.115 A 
BRANCH  55  56
ATOM     56  O   UNL     1      -1.288  -4.603   5.842  1.00  0.00    -0.508 OA
ATOM     57  H   UNL     1      -0.575  -5.259   5.890  1.00  0.00     0.293 HD
ENDBRANCH  55  56
ENDBRANCH  49  50
ENDBRANCH  48  49
BRANCH  48  58
ATOM     58  C   UNL     1      -7.443  -7.685   7.053  1.00  0.00     0.326 C 
ATOM     59  O   UNL     1      -6.640  -8.471   7.529  1.00  0.00    -0.250 OA
BRANCH  58  60
ATOM     60  O   UNL     1      -8.616  -7.465   7.699  1.00  0.00    -0.480 OA
ATOM     61  H   UNL     1      -8.746  -6.496   7.607  1.00  0.00     0.296 HD
ENDBRANCH  58  60
ENDBRANCH  48  58
ENDBRANCH  46  48
ENDBRANCH  34  44
ENDBRANCH  32  34
ENDBRANCH  25  30
ENDBRANCH  23  25
ENDBRANCH   2  23
TORSDOF 28
ENDMDL
MODEL 32
REMARK VINA RESULT:    -5.997      2.213      5.644
REMARK INTER + INTRA:         -22.744
REMARK INTER:                 -18.039
REMARK INTRA:                  -4.706
REMARK UNBOUND:                -7.807
REMARK SMILES CCCCCCC[C@H](N)[C@H](O)C(=O)N[C@H](C)C(=O)N(C)[C@H](CC(C)C)C(=O)N[C@@H](Cc1ccc(O)cc1)C(=O)N[C@@H](Cc1ccc(O)cc1)C(=O)O
REMARK SMILES IDX 18 1 17 2 15 3 16 4 14 5 12 6 13 7 10 9 11 10 8 12 9 13 7 16
REMARK SMILES IDX 6 17 5 18 4 19 3 20 2 21 1 22 19 23 20 24 21 25 22 26 23 27
REMARK SMILES IDX 24 28 25 29 26 30 27 31 28 32 29 34 30 35 31 36 32 37 37 38
REMARK SMILES IDX 33 39 36 40 34 41 35 42 38 44 39 45 40 46 41 48 42 49 43 50
REMARK SMILES IDX 44 51 49 52 45 53 48 54 46 55 47 56 50 58 51 59 52 60
REMARK H PARENT 14 8 11 11 9 14 9 15 28 33 35 43 40 47 47 57 52 61
ROOT
ATOM      1  O   UNL     1      -7.385  -8.939   9.734  1.00  0.00    -0.272 OA
ATOM      2  C   UNL     1      -6.873  -7.967  10.308  1.00  0.00     0.245 C 
ENDROOT
BRANCH   2   3
ATOM      3  C   UNL     1      -7.616  -6.608  10.271  1.00  0.00     0.168 C 
ATOM      4  C   UNL     1      -9.103  -6.812  10.002  1.00  0.00     0.041 C 
BRANCH   3   5
ATOM      5  N   UNL     1      -7.386  -5.754  11.425  1.00  0.00    -0.342 N 
ATOM      6  C   UNL     1      -7.194  -4.394  11.297  1.00  0.00     0.251 C 
ATOM      7  O   UNL     1      -7.160  -3.814  10.217  1.00  0.00    -0.272 OA
ATOM      8  H   UNL     1      -7.357  -6.126  12.371  1.00  0.00     0.164 HD
BRANCH   6   9
ATOM      9  C   UNL     1      -7.113  -3.675  12.653  1.00  0.00     0.219 C 
BRANCH   9  10
ATOM     10  O   UNL     1      -6.667  -4.535  13.709  1.00  0.00    -0.382 OA
ATOM     11  H   UNL     1      -7.350  -5.241  13.736  1.00  0.00     0.211 HD
ENDBRANCH   9  10
BRANCH   9  12
ATOM     12  C   UNL     1      -6.264  -2.378  12.605  1.00  0.00     0.089 C 
BRANCH  12  13
ATOM     13  N   UNL     1      -6.469  -1.638  13.871  1.00  0.00    -0.325 NA
ATOM     14  H   UNL     1      -5.588  -1.205  14.154  1.00  0.00     0.119 HD
ATOM     15  H   UNL     1      -6.688  -2.307  14.614  1.00  0.00     0.119 HD
ENDBRANCH  12  13
BRANCH  12  16
ATOM     16  C   UNL     1      -4.752  -2.566  12.338  1.00  0.00     0.022 C 
BRANCH  16  17
ATOM     17  C   UNL     1      -3.936  -1.384  11.798  1.00  0.00     0.002 C 
BRANCH  17  18
ATOM     18  C   UNL     1      -4.365  -0.880  10.421  1.00  0.00     0.000 C 
BRANCH  18  19
ATOM     19  C   UNL     1      -3.263  -0.133   9.658  1.00  0.00    -0.000 C 
BRANCH  19  20
ATOM     20  C   UNL     1      -1.849  -0.691   9.845  1.00  0.00    -0.000 C 
BRANCH  20  21
ATOM     21  C   UNL     1      -1.570  -1.920   8.976  1.00  0.00    -0.003 C 
ATOM     22  C   UNL     1      -2.286  -1.827   7.637  1.00  0.00     0.004 C 
ENDBRANCH  20  21
ENDBRANCH  19  20
ENDBRANCH  18  19
ENDBRANCH  17  18
ENDBRANCH  16  17
ENDBRANCH  12  16
ENDBRANCH   9  12
ENDBRANCH   6   9
ENDBRANCH   3   5
ENDBRANCH   2   3
BRANCH   2  23
ATOM     23  N   UNL     1      -5.721  -8.136  11.069  1.00  0.00    -0.332 N 
ATOM     24  C   UNL     1      -5.709  -8.486  12.482  1.00  0.00     0.147 C 
BRANCH  23  25
ATOM     25  C   UNL     1      -4.381  -8.090  10.423  1.00  0.00     0.174 C 
BRANCH  25  26
ATOM     26  C   UNL     1      -3.229  -8.413  11.403  1.00  0.00     0.038 C 
BRANCH  26  27
ATOM     27  C   UNL     1      -2.240  -7.269  11.722  1.00  0.00    -0.015 C 
ATOM     28  C   UNL     1      -2.510  -6.625  13.082  1.00  0.00     0.007 C 
ATOM     29  C   UNL     1      -0.775  -7.683  11.606  1.00  0.00     0.007 C 
ENDBRANCH  26  27
ENDBRANCH  25  26
BRANCH  25  30
ATOM     30  C   UNL     1      -4.199  -6.753   9.670  1.00  0.00     0.243 C 
ATOM     31  O   UNL     1      -4.258  -5.668  10.247  1.00  0.00    -0.273 OA
ATOM     32  N   UNL     1      -3.977  -6.857   8.321  1.00  0.00    -0.342 N 
ATOM     33  H   UNL     1      -3.801  -7.791   7.940  1.00  0.00     0.164 HD
BRANCH  32  34
ATOM     34  C   UNL     1      -3.809  -5.695   7.443  1.00  0.00     0.175 C 
BRANCH  34  35
ATOM     35  C   UNL     1      -2.685  -5.924   6.422  1.00  0.00     0.070 C 
BRANCH  35  36
ATOM     36  C   UNL     1      -1.345  -5.412   6.901  1.00  0.00    -0.045 A 
ATOM     37  C   UNL     1      -0.456  -4.815   5.995  1.00  0.00     0.007 A 
ATOM     38  C   UNL     1      -0.963  -5.546   8.243  1.00  0.00     0.007 A 
ATOM     39  C   UNL     1       0.787  -4.352   6.425  1.00  0.00     0.046 A 
ATOM     40  C   UNL     1       0.282  -5.084   8.675  1.00  0.00     0.046 A 
ATOM     41  C   UNL     1       1.146  -4.489   7.761  1.00  0.00     0.115 A 
BRANCH  41  42
ATOM     42  O   UNL     1       2.372  -4.027   8.140  1.00  0.00    -0.508 OA
ATOM     43  H   UNL     1       2.867  -3.784   7.340  1.00  0.00     0.293 HD
ENDBRANCH  41  42
ENDBRANCH  35  36
ENDBRANCH  34  35
BRANCH  34  44
ATOM     44  C   UNL     1      -5.165  -5.415   6.757  1.00  0.00     0.243 C 
ATOM     45  O   UNL     1      -6.246  -5.397   7.338  1.00  0.00    -0.273 OA
ATOM     46  N   UNL     1      -5.074  -5.310   5.385  1.00  0.00    -0.341 N 
ATOM     47  H   UNL     1      -4.171  -5.448   4.938  1.00  0.00     0.164 HD
BRANCH  46  48
ATOM     48  C   UNL     1      -6.234  -5.113   4.513  1.00  0.00     0.196 C 
BRANCH  48  49
ATOM     49  C   UNL     1      -5.824  -4.489   3.168  1.00  0.00     0.072 C 
BRANCH  49  50
ATOM     50  C   UNL     1      -5.888  -2.979   3.183  1.00  0.00    -0.045 A 
ATOM     51  C   UNL     1      -5.964  -2.295   4.405  1.00  0.00     0.007 A 
ATOM     52  C   UNL     1      -5.894  -2.246   1.990  1.00  0.00     0.007 A 
ATOM     53  C   UNL     1      -6.037  -0.902   4.431  1.00  0.00     0.046 A 
ATOM     54  C   UNL     1      -5.968  -0.851   2.016  1.00  0.00     0.046 A 
ATOM     55  C   UNL     1      -6.038  -0.191   3.238  1.00  0.00     0.115 A 
BRANCH  55  56
ATOM     56  O   UNL     1      -6.112   1.169   3.306  1.00  0.00    -0.508 OA
ATOM     57  H   UNL     1      -6.945   1.451   2.895  1.00  0.00     0.293 HD
ENDBRANCH  55  56
ENDBRANCH  49  50
ENDBRANCH  48  49
BRANCH  48  58
ATOM     58  C   UNL     1      -6.910  -6.469   4.267  1.00  0.00     0.326 C 
ATOM     59  O   UNL     1      -6.659  -7.270   3.382  1.00  0.00    -0.250 OA
BRANCH  58  60
ATOM     60  O   UNL     1      -7.877  -6.763   5.172  1.00  0.00    -0.480 OA
ATOM     61  H   UNL     1      -7.584  -7.623   5.545  1.00  0.00     0.296 HD
ENDBRANCH  58  60
ENDBRANCH  48  58
ENDBRANCH  46  48
ENDBRANCH  34  44
ENDBRANCH  32  34
ENDBRANCH  25  30
ENDBRANCH  23  25
ENDBRANCH   2  23
TORSDOF 28
ENDMDL
MODEL 33
REMARK VINA RESULT:    -5.993      3.218      6.229
REMARK INTER + INTRA:         -22.735
REMARK INTER:                 -18.230
REMARK INTRA:                  -4.505
REMARK UNBOUND:                -7.807
REMARK SMILES CCCCCCC[C@H](N)[C@H](O)C(=O)N[C@H](C)C(=O)N(C)[C@H](CC(C)C)C(=O)N[C@@H](Cc1ccc(O)cc1)C(=O)N[C@@H](Cc1ccc(O)cc1)C(=O)O
REMARK SMILES IDX 18 1 17 2 15 3 16 4 14 5 12 6 13 7 10 9 11 10 8 12 9 13 7 16
REMARK SMILES IDX 6 17 5 18 4 19 3 20 2 21 1 22 19 23 20 24 21 25 22 26 23 27
REMARK SMILES IDX 24 28 25 29 26 30 27 31 28 32 29 34 30 35 31 36 32 37 37 38
REMARK SMILES IDX 33 39 36 40 34 41 35 42 38 44 39 45 40 46 41 48 42 49 43 50
REMARK SMILES IDX 44 51 49 52 45 53 48 54 46 55 47 56 50 58 51 59 52 60
REMARK H PARENT 14 8 11 11 9 14 9 15 28 33 35 43 40 47 47 57 52 61
ROOT
ATOM      1  O   UNL     1      -5.246  -5.076   9.014  1.00  0.00    -0.272 OA
ATOM      2  C   UNL     1      -4.645  -6.144   8.827  1.00  0.00     0.245 C 
ENDROOT
BRANCH   2   3
ATOM      3  C   UNL     1      -4.390  -7.072  10.041  1.00  0.00     0.168 C 
ATOM      4  C   UNL     1      -4.878  -8.488   9.753  1.00  0.00     0.041 C 
BRANCH   3   5
ATOM      5  N   UNL     1      -3.024  -7.061  10.542  1.00  0.00    -0.342 N 
ATOM      6  C   UNL     1      -2.708  -6.548  11.782  1.00  0.00     0.251 C 
ATOM      7  O   UNL     1      -3.531  -6.031  12.530  1.00  0.00    -0.272 OA
ATOM      8  H   UNL     1      -2.250  -7.432   9.996  1.00  0.00     0.164 HD
BRANCH   6   9
ATOM      9  C   UNL     1      -1.234  -6.771  12.159  1.00  0.00     0.219 C 
BRANCH   9  10
ATOM     10  O   UNL     1      -0.711  -8.000  11.641  1.00  0.00    -0.382 OA
ATOM     11  H   UNL     1      -0.222  -8.382  12.402  1.00  0.00     0.211 HD
ENDBRANCH   9  10
BRANCH   9  12
ATOM     12  C   UNL     1      -0.320  -5.578  11.776  1.00  0.00     0.089 C 
BRANCH  12  13
ATOM     13  N   UNL     1      -0.915  -4.338  12.326  1.00  0.00    -0.325 NA
ATOM     14  H   UNL     1      -1.922  -4.470  12.438  1.00  0.00     0.119 HD
ATOM     15  H   UNL     1      -0.819  -3.591  11.635  1.00  0.00     0.119 HD
ENDBRANCH  12  13
BRANCH  12  16
ATOM     16  C   UNL     1       1.162  -5.694  12.207  1.00  0.00     0.022 C 
BRANCH  16  17
ATOM     17  C   UNL     1       2.204  -4.777  11.552  1.00  0.00     0.002 C 
BRANCH  17  18
ATOM     18  C   UNL     1       1.723  -4.046  10.300  1.00  0.00     0.000 C 
BRANCH  18  19
ATOM     19  C   UNL     1       2.814  -3.228   9.597  1.00  0.00    -0.000 C 
BRANCH  19  20
ATOM     20  C   UNL     1       3.487  -2.161  10.466  1.00  0.00    -0.000 C 
BRANCH  20  21
ATOM     21  C   UNL     1       4.965  -2.454  10.738  1.00  0.00    -0.003 C 
ATOM     22  C   UNL     1       5.679  -1.234  11.299  1.00  0.00     0.004 C 
ENDBRANCH  20  21
ENDBRANCH  19  20
ENDBRANCH  18  19
ENDBRANCH  17  18
ENDBRANCH  16  17
ENDBRANCH  12  16
ENDBRANCH   9  12
ENDBRANCH   6   9
ENDBRANCH   3   5
ENDBRANCH   2   3
BRANCH   2  23
ATOM     23  N   UNL     1      -4.323  -6.545   7.535  1.00  0.00    -0.332 N 
ATOM     24  C   UNL     1      -5.130  -7.445   6.724  1.00  0.00     0.147 C 
BRANCH  23  25
ATOM     25  C   UNL     1      -3.151  -5.951   6.835  1.00  0.00     0.174 C 
BRANCH  25  26
ATOM     26  C   UNL     1      -1.925  -5.770   7.761  1.00  0.00     0.038 C 
BRANCH  26  27
ATOM     27  C   UNL     1      -0.739  -4.954   7.200  1.00  0.00    -0.015 C 
ATOM     28  C   UNL     1      -0.590  -3.595   7.883  1.00  0.00     0.007 C 
ATOM     29  C   UNL     1       0.585  -5.714   7.221  1.00  0.00     0.007 C 
ENDBRANCH  26  27
ENDBRANCH  25  26
BRANCH  25  30
ATOM     30  C   UNL     1      -3.570  -4.658   6.098  1.00  0.00     0.243 C 
ATOM     31  O   UNL     1      -3.692  -4.618   4.875  1.00  0.00    -0.273 OA
ATOM     32  N   UNL     1      -3.789  -3.565   6.896  1.00  0.00    -0.342 N 
ATOM     33  H   UNL     1      -3.806  -3.713   7.908  1.00  0.00     0.164 HD
BRANCH  32  34
ATOM     34  C   UNL     1      -4.165  -2.251   6.369  1.00  0.00     0.175 C 
BRANCH  34  35
ATOM     35  C   UNL     1      -5.672  -2.177   6.075  1.00  0.00     0.070 C 
BRANCH  35  36
ATOM     36  C   UNL     1      -5.989  -1.339   4.857  1.00  0.00    -0.045 A 
ATOM     37  C   UNL     1      -6.199  -1.957   3.615  1.00  0.00     0.007 A 
ATOM     38  C   UNL     1      -6.056   0.058   4.943  1.00  0.00     0.007 A 
ATOM     39  C   UNL     1      -6.479  -1.191   2.483  1.00  0.00     0.046 A 
ATOM     40  C   UNL     1      -6.334   0.826   3.810  1.00  0.00     0.046 A 
ATOM     41  C   UNL     1      -6.545   0.193   2.589  1.00  0.00     0.115 A 
BRANCH  41  42
ATOM     42  O   UNL     1      -6.818   0.905   1.459  1.00  0.00    -0.508 OA
ATOM     43  H   UNL     1      -7.005   0.277   0.741  1.00  0.00     0.293 HD
ENDBRANCH  41  42
ENDBRANCH  35  36
ENDBRANCH  34  35
BRANCH  34  44
ATOM     44  C   UNL     1      -3.725  -1.180   7.393  1.00  0.00     0.243 C 
ATOM     45  O   UNL     1      -3.185  -0.118   7.098  1.00  0.00    -0.273 OA
ATOM     46  N   UNL     1      -3.873  -1.581   8.704  1.00  0.00    -0.341 N 
ATOM     47  H   UNL     1      -4.216  -2.519   8.898  1.00  0.00     0.164 HD
BRANCH  46  48
ATOM     48  C   UNL     1      -3.461  -0.764   9.848  1.00  0.00     0.196 C 
BRANCH  48  49
ATOM     49  C   UNL     1      -4.670  -0.095  10.523  1.00  0.00     0.072 C 
BRANCH  49  50
ATOM     50  C   UNL     1      -5.988  -0.676  10.063  1.00  0.00    -0.045 A 
ATOM     51  C   UNL     1      -6.738  -0.015   9.078  1.00  0.00     0.007 A 
ATOM     52  C   UNL     1      -6.488  -1.859  10.621  1.00  0.00     0.007 A 
ATOM     53  C   UNL     1      -7.961  -0.535   8.656  1.00  0.00     0.046 A 
ATOM     54  C   UNL     1      -7.714  -2.378  10.199  1.00  0.00     0.046 A 
ATOM     55  C   UNL     1      -8.440  -1.712   9.218  1.00  0.00     0.115 A 
BRANCH  55  56
ATOM     56  O   UNL     1      -9.641  -2.185   8.779  1.00  0.00    -0.508 OA
ATOM     57  H   UNL     1     -10.303  -2.029   9.471  1.00  0.00     0.293 HD
ENDBRANCH  55  56
ENDBRANCH  49  50
ENDBRANCH  48  49
BRANCH  48  58
ATOM     58  C   UNL     1      -2.735  -1.657  10.864  1.00  0.00     0.326 C 
ATOM     59  O   UNL     1      -3.232  -2.290  11.780  1.00  0.00    -0.250 OA
BRANCH  58  60
ATOM     60  O   UNL     1      -1.394  -1.724  10.664  1.00  0.00    -0.480 OA
ATOM     61  H   UNL     1      -1.025  -1.291  11.464  1.00  0.00     0.296 HD
ENDBRANCH  58  60
ENDBRANCH  48  58
ENDBRANCH  46  48
ENDBRANCH  34  44
ENDBRANCH  32  34
ENDBRANCH  25  30
ENDBRANCH  23  25
ENDBRANCH   2  23
TORSDOF 28
ENDMDL
MODEL 34
REMARK VINA RESULT:    -5.941      2.510      6.581
REMARK INTER + INTRA:         -22.605
REMARK INTER:                 -16.825
REMARK INTRA:                  -5.780
REMARK UNBOUND:                -7.807
REMARK SMILES CCCCCCC[C@H](N)[C@H](O)C(=O)N[C@H](C)C(=O)N(C)[C@H](CC(C)C)C(=O)N[C@@H](Cc1ccc(O)cc1)C(=O)N[C@@H](Cc1ccc(O)cc1)C(=O)O
REMARK SMILES IDX 18 1 17 2 15 3 16 4 14 5 12 6 13 7 10 9 11 10 8 12 9 13 7 16
REMARK SMILES IDX 6 17 5 18 4 19 3 20 2 21 1 22 19 23 20 24 21 25 22 26 23 27
REMARK SMILES IDX 24 28 25 29 26 30 27 31 28 32 29 34 30 35 31 36 32 37 37 38
REMARK SMILES IDX 33 39 36 40 34 41 35 42 38 44 39 45 40 46 41 48 42 49 43 50
REMARK SMILES IDX 44 51 49 52 45 53 48 54 46 55 47 56 50 58 51 59 52 60
REMARK H PARENT 14 8 11 11 9 14 9 15 28 33 35 43 40 47 47 57 52 61
ROOT
ATOM      1  O   UNL     1      -4.697  -5.324   7.159  1.00  0.00    -0.272 OA
ATOM      2  C   UNL     1      -5.484  -4.734   6.403  1.00  0.00     0.245 C 
ENDROOT
BRANCH   2   3
ATOM      3  C   UNL     1      -7.005  -4.958   6.596  1.00  0.00     0.168 C 
ATOM      4  C   UNL     1      -7.547  -5.927   5.552  1.00  0.00     0.041 C 
BRANCH   3   5
ATOM      5  N   UNL     1      -7.400  -5.336   7.944  1.00  0.00    -0.342 N 
ATOM      6  C   UNL     1      -8.435  -4.707   8.603  1.00  0.00     0.251 C 
ATOM      7  O   UNL     1      -9.066  -3.767   8.130  1.00  0.00    -0.272 OA
ATOM      8  H   UNL     1      -6.928  -6.080   8.453  1.00  0.00     0.164 HD
BRANCH   6   9
ATOM      9  C   UNL     1      -8.769  -5.365   9.952  1.00  0.00     0.219 C 
BRANCH   9  10
ATOM     10  O   UNL     1      -9.641  -4.563  10.757  1.00  0.00    -0.382 OA
ATOM     11  H   UNL     1      -9.189  -3.691  10.789  1.00  0.00     0.211 HD
ENDBRANCH   9  10
BRANCH   9  12
ATOM     12  C   UNL     1      -9.323  -6.806   9.806  1.00  0.00     0.089 C 
BRANCH  12  13
ATOM     13  N   UNL     1      -9.713  -7.016   8.393  1.00  0.00    -0.325 NA
ATOM     14  H   UNL     1     -10.144  -7.938   8.297  1.00  0.00     0.119 HD
ATOM     15  H   UNL     1      -8.868  -7.055   7.819  1.00  0.00     0.119 HD
ENDBRANCH  12  13
BRANCH  12  16
ATOM     16  C   UNL     1      -8.384  -7.944  10.273  1.00  0.00     0.022 C 
BRANCH  16  17
ATOM     17  C   UNL     1      -7.505  -8.659   9.238  1.00  0.00     0.002 C 
BRANCH  17  18
ATOM     18  C   UNL     1      -6.171  -7.977   8.945  1.00  0.00     0.000 C 
BRANCH  18  19
ATOM     19  C   UNL     1      -5.049  -8.352   9.923  1.00  0.00    -0.000 C 
BRANCH  19  20
ATOM     20  C   UNL     1      -4.959  -7.476  11.176  1.00  0.00    -0.000 C 
BRANCH  20  21
ATOM     21  C   UNL     1      -5.116  -5.983  10.875  1.00  0.00    -0.003 C 
ATOM     22  C   UNL     1      -5.780  -5.251  12.032  1.00  0.00     0.004 C 
ENDBRANCH  20  21
ENDBRANCH  19  20
ENDBRANCH  18  19
ENDBRANCH  17  18
ENDBRANCH  16  17
ENDBRANCH  12  16
ENDBRANCH   9  12
ENDBRANCH   6   9
ENDBRANCH   3   5
ENDBRANCH   2   3
BRANCH   2  23
ATOM     23  N   UNL     1      -5.004  -3.802   5.490  1.00  0.00    -0.332 N 
ATOM     24  C   UNL     1      -4.164  -4.123   4.345  1.00  0.00     0.147 C 
BRANCH  23  25
ATOM     25  C   UNL     1      -5.445  -2.382   5.564  1.00  0.00     0.174 C 
BRANCH  25  26
ATOM     26  C   UNL     1      -5.315  -1.640   4.213  1.00  0.00     0.038 C 
BRANCH  26  27
ATOM     27  C   UNL     1      -6.497  -0.737   3.794  1.00  0.00    -0.015 C 
ATOM     28  C   UNL     1      -6.369   0.685   4.338  1.00  0.00     0.007 C 
ATOM     29  C   UNL     1      -6.740  -0.716   2.287  1.00  0.00     0.007 C 
ENDBRANCH  26  27
ENDBRANCH  25  26
BRANCH  25  30
ATOM     30  C   UNL     1      -4.738  -1.666   6.737  1.00  0.00     0.243 C 
ATOM     31  O   UNL     1      -4.068  -0.648   6.568  1.00  0.00    -0.273 OA
ATOM     32  N   UNL     1      -4.903  -2.242   7.970  1.00  0.00    -0.342 N 
ATOM     33  H   UNL     1      -5.586  -3.000   8.052  1.00  0.00     0.164 HD
BRANCH  32  34
ATOM     34  C   UNL     1      -4.284  -1.717   9.190  1.00  0.00     0.175 C 
BRANCH  34  35
ATOM     35  C   UNL     1      -5.211  -1.883  10.404  1.00  0.00     0.070 C 
BRANCH  35  36
ATOM     36  C   UNL     1      -6.493  -1.092  10.273  1.00  0.00    -0.045 A 
ATOM     37  C   UNL     1      -7.693  -1.610  10.784  1.00  0.00     0.007 A 
ATOM     38  C   UNL     1      -6.508   0.151   9.626  1.00  0.00     0.007 A 
ATOM     39  C   UNL     1      -8.883  -0.893  10.656  1.00  0.00     0.046 A 
ATOM     40  C   UNL     1      -7.700   0.868   9.496  1.00  0.00     0.046 A 
ATOM     41  C   UNL     1      -8.877   0.340  10.014  1.00  0.00     0.115 A 
BRANCH  41  42
ATOM     42  O   UNL     1     -10.062   1.006   9.908  1.00  0.00    -0.508 OA
ATOM     43  H   UNL     1      -9.904   1.832   9.421  1.00  0.00     0.293 HD
ENDBRANCH  41  42
ENDBRANCH  35  36
ENDBRANCH  34  35
BRANCH  34  44
ATOM     44  C   UNL     1      -2.933  -2.440   9.392  1.00  0.00     0.243 C 
ATOM     45  O   UNL     1      -1.982  -1.974  10.012  1.00  0.00    -0.273 OA
ATOM     46  N   UNL     1      -2.836  -3.626   8.694  1.00  0.00    -0.341 N 
ATOM     47  H   UNL     1      -3.610  -3.914   8.100  1.00  0.00     0.164 HD
BRANCH  46  48
ATOM     48  C   UNL     1      -1.628  -4.454   8.676  1.00  0.00     0.196 C 
BRANCH  48  49
ATOM     49  C   UNL     1      -1.878  -5.822   9.332  1.00  0.00     0.072 C 
BRANCH  49  50
ATOM     50  C   UNL     1      -0.935  -6.097  10.481  1.00  0.00    -0.045 A 
ATOM     51  C   UNL     1      -1.318  -6.975  11.506  1.00  0.00     0.007 A 
ATOM     52  C   UNL     1       0.316  -5.469  10.554  1.00  0.00     0.007 A 
ATOM     53  C   UNL     1      -0.462  -7.225  12.578  1.00  0.00     0.046 A 
ATOM     54  C   UNL     1       1.173  -5.720  11.628  1.00  0.00     0.046 A 
ATOM     55  C   UNL     1       0.776  -6.597  12.631  1.00  0.00     0.115 A 
BRANCH  55  56
ATOM     56  O   UNL     1       1.582  -6.868  13.697  1.00  0.00    -0.508 OA
ATOM     57  H   UNL     1       1.547  -6.113  14.307  1.00  0.00     0.293 HD
ENDBRANCH  55  56
ENDBRANCH  49  50
ENDBRANCH  48  49
BRANCH  48  58
ATOM     58  C   UNL     1      -1.182  -4.654   7.221  1.00  0.00     0.326 C 
ATOM     59  O   UNL     1      -1.377  -5.630   6.516  1.00  0.00    -0.250 OA
BRANCH  58  60
ATOM     60  O   UNL     1      -0.513  -3.590   6.709  1.00  0.00    -0.480 OA
ATOM     61  H   UNL     1       0.158  -4.005   6.125  1.00  0.00     0.296 HD
ENDBRANCH  58  60
ENDBRANCH  48  58
ENDBRANCH  46  48
ENDBRANCH  34  44
ENDBRANCH  32  34
ENDBRANCH  25  30
ENDBRANCH  23  25
ENDBRANCH   2  23
TORSDOF 28
ENDMDL
MODEL 35
REMARK VINA RESULT:    -5.929      3.223      4.724
REMARK INTER + INTRA:         -22.573
REMARK INTER:                 -19.106
REMARK INTRA:                  -3.467
REMARK UNBOUND:                -7.807
REMARK SMILES CCCCCCC[C@H](N)[C@H](O)C(=O)N[C@H](C)C(=O)N(C)[C@H](CC(C)C)C(=O)N[C@@H](Cc1ccc(O)cc1)C(=O)N[C@@H](Cc1ccc(O)cc1)C(=O)O
REMARK SMILES IDX 18 1 17 2 15 3 16 4 14 5 12 6 13 7 10 9 11 10 8 12 9 13 7 16
REMARK SMILES IDX 6 17 5 18 4 19 3 20 2 21 1 22 19 23 20 24 21 25 22 26 23 27
REMARK SMILES IDX 24 28 25 29 26 30 27 31 28 32 29 34 30 35 31 36 32 37 37 38
REMARK SMILES IDX 33 39 36 40 34 41 35 42 38 44 39 45 40 46 41 48 42 49 43 50
REMARK SMILES IDX 44 51 49 52 45 53 48 54 46 55 47 56 50 58 51 59 52 60
REMARK H PARENT 14 8 11 11 9 14 9 15 28 33 35 43 40 47 47 57 52 61
ROOT
ATOM      1  O   UNL     1      -5.383  -3.142   9.936  1.00  0.00    -0.272 OA
ATOM      2  C   UNL     1      -4.702  -2.155   9.620  1.00  0.00     0.245 C 
ENDROOT
BRANCH   2   3
ATOM      3  C   UNL     1      -3.341  -2.388   8.917  1.00  0.00     0.168 C 
ATOM      4  C   UNL     1      -2.667  -1.060   8.590  1.00  0.00     0.041 C 
BRANCH   3   5
ATOM      5  N   UNL     1      -2.442  -3.295   9.613  1.00  0.00    -0.342 N 
ATOM      6  C   UNL     1      -1.450  -3.987   8.951  1.00  0.00     0.251 C 
ATOM      7  O   UNL     1      -1.277  -3.925   7.738  1.00  0.00    -0.272 OA
ATOM      8  H   UNL     1      -2.512  -3.455  10.615  1.00  0.00     0.164 HD
BRANCH   6   9
ATOM      9  C   UNL     1      -0.535  -4.772   9.904  1.00  0.00     0.219 C 
BRANCH   9  10
ATOM     10  O   UNL     1      -0.955  -6.131  10.079  1.00  0.00    -0.382 OA
ATOM     11  H   UNL     1      -1.715  -6.219   9.462  1.00  0.00     0.211 HD
ENDBRANCH   9  10
BRANCH   9  12
ATOM     12  C   UNL     1       0.962  -4.705   9.504  1.00  0.00     0.089 C 
BRANCH  12  13
ATOM     13  N   UNL     1       1.092  -5.165   8.103  1.00  0.00    -0.325 NA
ATOM     14  H   UNL     1       0.693  -6.102   8.018  1.00  0.00     0.119 HD
ATOM     15  H   UNL     1       2.085  -5.278   7.882  1.00  0.00     0.119 HD
ENDBRANCH  12  13
BRANCH  12  16
ATOM     16  C   UNL     1       1.650  -3.330   9.678  1.00  0.00     0.022 C 
BRANCH  16  17
ATOM     17  C   UNL     1       3.057  -3.270  10.287  1.00  0.00     0.002 C 
BRANCH  17  18
ATOM     18  C   UNL     1       3.863  -2.024   9.926  1.00  0.00     0.000 C 
BRANCH  18  19
ATOM     19  C   UNL     1       4.473  -1.303  11.136  1.00  0.00    -0.000 C 
BRANCH  19  20
ATOM     20  C   UNL     1       3.581  -0.234  11.774  1.00  0.00    -0.000 C 
BRANCH  20  21
ATOM     21  C   UNL     1       4.310   0.603  12.828  1.00  0.00    -0.003 C 
ATOM     22  C   UNL     1       3.979   2.081  12.688  1.00  0.00     0.004 C 
ENDBRANCH  20  21
ENDBRANCH  19  20
ENDBRANCH  18  19
ENDBRANCH  17  18
ENDBRANCH  16  17
ENDBRANCH  12  16
ENDBRANCH   9  12
ENDBRANCH   6   9
ENDBRANCH   3   5
ENDBRANCH   2   3
BRANCH   2  23
ATOM     23  N   UNL     1      -5.217  -0.873   9.785  1.00  0.00    -0.332 N 
ATOM     24  C   UNL     1      -4.540   0.203  10.493  1.00  0.00     0.147 C 
BRANCH  23  25
ATOM     25  C   UNL     1      -6.484  -0.480   9.111  1.00  0.00     0.174 C 
BRANCH  25  26
ATOM     26  C   UNL     1      -7.742  -0.848   9.931  1.00  0.00     0.038 C 
BRANCH  26  27
ATOM     27  C   UNL     1      -8.893   0.183   9.949  1.00  0.00    -0.015 C 
ATOM     28  C   UNL     1      -9.665   0.173  11.268  1.00  0.00     0.007 C 
ATOM     29  C   UNL     1      -8.445   1.599   9.599  1.00  0.00     0.007 C 
ENDBRANCH  26  27
ENDBRANCH  25  26
BRANCH  25  30
ATOM     30  C   UNL     1      -6.506  -1.020   7.662  1.00  0.00     0.243 C 
ATOM     31  O   UNL     1      -6.084  -0.359   6.715  1.00  0.00    -0.273 OA
ATOM     32  N   UNL     1      -7.031  -2.277   7.506  1.00  0.00    -0.342 N 
ATOM     33  H   UNL     1      -7.229  -2.817   8.353  1.00  0.00     0.164 HD
BRANCH  32  34
ATOM     34  C   UNL     1      -7.157  -2.938   6.204  1.00  0.00     0.175 C 
BRANCH  34  35
ATOM     35  C   UNL     1      -5.785  -3.358   5.656  1.00  0.00     0.070 C 
BRANCH  35  36
ATOM     36  C   UNL     1      -5.682  -3.203   4.155  1.00  0.00    -0.045 A 
ATOM     37  C   UNL     1      -6.074  -2.002   3.545  1.00  0.00     0.007 A 
ATOM     38  C   UNL     1      -5.221  -4.256   3.354  1.00  0.00     0.007 A 
ATOM     39  C   UNL     1      -5.996  -1.855   2.160  1.00  0.00     0.046 A 
ATOM     40  C   UNL     1      -5.144  -4.110   1.967  1.00  0.00     0.046 A 
ATOM     41  C   UNL     1      -5.532  -2.909   1.382  1.00  0.00     0.115 A 
BRANCH  41  42
ATOM     42  O   UNL     1      -5.474  -2.726   0.032  1.00  0.00    -0.508 OA
ATOM     43  H   UNL     1      -5.767  -1.821  -0.165  1.00  0.00     0.293 HD
ENDBRANCH  41  42
ENDBRANCH  35  36
ENDBRANCH  34  35
BRANCH  34  44
ATOM     44  C   UNL     1      -8.107  -4.145   6.370  1.00  0.00     0.243 C 
ATOM     45  O   UNL     1      -9.291  -4.146   6.045  1.00  0.00    -0.273 OA
ATOM     46  N   UNL     1      -7.537  -5.203   7.045  1.00  0.00    -0.341 N 
ATOM     47  H   UNL     1      -6.587  -5.111   7.397  1.00  0.00     0.164 HD
BRANCH  46  48
ATOM     48  C   UNL     1      -8.263  -6.430   7.380  1.00  0.00     0.196 C 
BRANCH  48  49
ATOM     49  C   UNL     1      -7.414  -7.680   7.090  1.00  0.00     0.072 C 
BRANCH  49  50
ATOM     50  C   UNL     1      -5.945  -7.362   6.931  1.00  0.00    -0.045 A 
ATOM     51  C   UNL     1      -5.394  -7.226   5.648  1.00  0.00     0.007 A 
ATOM     52  C   UNL     1      -5.113  -7.220   8.049  1.00  0.00     0.007 A 
ATOM     53  C   UNL     1      -4.037  -6.945   5.489  1.00  0.00     0.046 A 
ATOM     54  C   UNL     1      -3.754  -6.940   7.889  1.00  0.00     0.046 A 
ATOM     55  C   UNL     1      -3.228  -6.804   6.609  1.00  0.00     0.115 A 
BRANCH  55  56
ATOM     56  O   UNL     1      -1.906  -6.532   6.410  1.00  0.00    -0.508 OA
ATOM     57  H   UNL     1      -1.441  -6.644   7.254  1.00  0.00     0.293 HD
ENDBRANCH  55  56
ENDBRANCH  49  50
ENDBRANCH  48  49
BRANCH  48  58
ATOM     58  C   UNL     1      -8.638  -6.397   8.868  1.00  0.00     0.326 C 
ATOM     59  O   UNL     1      -8.575  -5.443   9.625  1.00  0.00    -0.250 OA
BRANCH  58  60
ATOM     60  O   UNL     1      -9.098  -7.585   9.337  1.00  0.00    -0.480 OA
ATOM     61  H   UNL     1      -8.444  -8.232   8.994  1.00  0.00     0.296 HD
ENDBRANCH  58  60
ENDBRANCH  48  58
ENDBRANCH  46  48
ENDBRANCH  34  44
ENDBRANCH  32  34
ENDBRANCH  25  30
ENDBRANCH  23  25
ENDBRANCH   2  23
TORSDOF 28
ENDMDL
MODEL 36
REMARK VINA RESULT:    -5.896      2.615      6.253
REMARK INTER + INTRA:         -22.492
REMARK INTER:                 -17.076
REMARK INTRA:                  -5.415
REMARK UNBOUND:                -7.807
REMARK SMILES CCCCCCC[C@H](N)[C@H](O)C(=O)N[C@H](C)C(=O)N(C)[C@H](CC(C)C)C(=O)N[C@@H](Cc1ccc(O)cc1)C(=O)N[C@@H](Cc1ccc(O)cc1)C(=O)O
REMARK SMILES IDX 18 1 17 2 15 3 16 4 14 5 12 6 13 7 10 9 11 10 8 12 9 13 7 16
REMARK SMILES IDX 6 17 5 18 4 19 3 20 2 21 1 22 19 23 20 24 21 25 22 26 23 27
REMARK SMILES IDX 24 28 25 29 26 30 27 31 28 32 29 34 30 35 31 36 32 37 37 38
REMARK SMILES IDX 33 39 36 40 34 41 35 42 38 44 39 45 40 46 41 48 42 49 43 50
REMARK SMILES IDX 44 51 49 52 45 53 48 54 46 55 47 56 50 58 51 59 52 60
REMARK H PARENT 14 8 11 11 9 14 9 15 28 33 35 43 40 47 47 57 52 61
ROOT
ATOM      1  O   UNL     1      -7.660  -0.912   7.108  1.00  0.00    -0.272 OA
ATOM      2  C   UNL     1      -6.625  -1.085   7.769  1.00  0.00     0.245 C 
ENDROOT
BRANCH   2   3
ATOM      3  C   UNL     1      -6.749  -1.299   9.298  1.00  0.00     0.168 C 
ATOM      4  C   UNL     1      -7.617  -0.215   9.928  1.00  0.00     0.041 C 
BRANCH   3   5
ATOM      5  N   UNL     1      -7.173  -2.632   9.696  1.00  0.00    -0.342 N 
ATOM      6  C   UNL     1      -6.657  -3.258  10.811  1.00  0.00     0.251 C 
ATOM      7  O   UNL     1      -5.785  -2.766  11.520  1.00  0.00    -0.272 OA
ATOM      8  H   UNL     1      -7.867  -3.155   9.166  1.00  0.00     0.164 HD
BRANCH   6   9
ATOM      9  C   UNL     1      -7.352  -4.594  11.119  1.00  0.00     0.219 C 
BRANCH   9  10
ATOM     10  O   UNL     1      -8.524  -4.804  10.321  1.00  0.00    -0.382 OA
ATOM     11  H   UNL     1      -9.044  -5.455  10.841  1.00  0.00     0.211 HD
ENDBRANCH   9  10
BRANCH   9  12
ATOM     12  C   UNL     1      -6.397  -5.812  11.026  1.00  0.00     0.089 C 
BRANCH  12  13
ATOM     13  N   UNL     1      -5.239  -5.436  10.184  1.00  0.00    -0.325 NA
ATOM     14  H   UNL     1      -5.325  -4.454   9.914  1.00  0.00     0.119 HD
ATOM     15  H   UNL     1      -5.284  -5.958   9.306  1.00  0.00     0.119 HD
ENDBRANCH  12  13
BRANCH  12  16
ATOM     16  C   UNL     1      -5.907  -6.394  12.374  1.00  0.00     0.022 C 
BRANCH  16  17
ATOM     17  C   UNL     1      -4.531  -5.977  12.911  1.00  0.00     0.002 C 
BRANCH  17  18
ATOM     18  C   UNL     1      -3.570  -7.132  13.186  1.00  0.00     0.000 C 
BRANCH  18  19
ATOM     19  C   UNL     1      -2.916  -7.714  11.925  1.00  0.00    -0.000 C 
BRANCH  19  20
ATOM     20  C   UNL     1      -1.492  -7.225  11.648  1.00  0.00    -0.000 C 
BRANCH  20  21
ATOM     21  C   UNL     1      -0.792  -6.676  12.894  1.00  0.00    -0.003 C 
ATOM     22  C   UNL     1       0.720  -6.749  12.758  1.00  0.00     0.004 C 
ENDBRANCH  20  21
ENDBRANCH  19  20
ENDBRANCH  18  19
ENDBRANCH  17  18
ENDBRANCH  16  17
ENDBRANCH  12  16
ENDBRANCH   9  12
ENDBRANCH   6   9
ENDBRANCH   3   5
ENDBRANCH   2   3
BRANCH   2  23
ATOM     23  N   UNL     1      -5.400  -1.206   7.122  1.00  0.00    -0.332 N 
ATOM     24  C   UNL     1      -5.157  -0.836   5.736  1.00  0.00     0.147 C 
BRANCH  23  25
ATOM     25  C   UNL     1      -4.188  -1.619   7.882  1.00  0.00     0.174 C 
BRANCH  25  26
ATOM     26  C   UNL     1      -3.030  -0.600   7.769  1.00  0.00     0.038 C 
BRANCH  26  27
ATOM     27  C   UNL     1      -2.510   0.019   9.086  1.00  0.00    -0.015 C 
ATOM     28  C   UNL     1      -3.636   0.313  10.077  1.00  0.00     0.007 C 
ATOM     29  C   UNL     1      -1.410  -0.804   9.751  1.00  0.00     0.007 C 
ENDBRANCH  26  27
ENDBRANCH  25  26
BRANCH  25  30
ATOM     30  C   UNL     1      -3.786  -3.062   7.498  1.00  0.00     0.243 C 
ATOM     31  O   UNL     1      -4.421  -4.039   7.890  1.00  0.00    -0.273 OA
ATOM     32  N   UNL     1      -2.676  -3.176   6.701  1.00  0.00    -0.342 N 
ATOM     33  H   UNL     1      -2.288  -2.317   6.303  1.00  0.00     0.164 HD
BRANCH  32  34
ATOM     34  C   UNL     1      -2.134  -4.465   6.262  1.00  0.00     0.175 C 
BRANCH  34  35
ATOM     35  C   UNL     1      -1.693  -5.323   7.458  1.00  0.00     0.070 C 
BRANCH  35  36
ATOM     36  C   UNL     1      -0.450  -4.790   8.133  1.00  0.00    -0.045 A 
ATOM     37  C   UNL     1       0.753  -4.695   7.416  1.00  0.00     0.007 A 
ATOM     38  C   UNL     1      -0.471  -4.408   9.481  1.00  0.00     0.007 A 
ATOM     39  C   UNL     1       1.908  -4.217   8.034  1.00  0.00     0.046 A 
ATOM     40  C   UNL     1       0.686  -3.931  10.101  1.00  0.00     0.046 A 
ATOM     41  C   UNL     1       1.866  -3.839   9.371  1.00  0.00     0.115 A 
BRANCH  41  42
ATOM     42  O   UNL     1       3.018  -3.381   9.939  1.00  0.00    -0.508 OA
ATOM     43  H   UNL     1       3.286  -2.571   9.473  1.00  0.00     0.293 HD
ENDBRANCH  41  42
ENDBRANCH  35  36
ENDBRANCH  34  35
BRANCH  34  44
ATOM     44  C   UNL     1      -3.211  -5.172   5.410  1.00  0.00     0.243 C 
ATOM     45  O   UNL     1      -3.283  -6.387   5.251  1.00  0.00    -0.273 OA
ATOM     46  N   UNL     1      -4.027  -4.299   4.721  1.00  0.00    -0.341 N 
ATOM     47  H   UNL     1      -3.853  -3.299   4.794  1.00  0.00     0.164 HD
BRANCH  46  48
ATOM     48  C   UNL     1      -5.077  -4.735   3.798  1.00  0.00     0.196 C 
BRANCH  48  49
ATOM     49  C   UNL     1      -6.467  -4.652   4.451  1.00  0.00     0.072 C 
BRANCH  49  50
ATOM     50  C   UNL     1      -6.745  -5.814   5.377  1.00  0.00    -0.045 A 
ATOM     51  C   UNL     1      -6.644  -7.129   4.898  1.00  0.00     0.007 A 
ATOM     52  C   UNL     1      -7.124  -5.600   6.708  1.00  0.00     0.007 A 
ATOM     53  C   UNL     1      -6.911  -8.209   5.740  1.00  0.00     0.046 A 
ATOM     54  C   UNL     1      -7.392  -6.682   7.550  1.00  0.00     0.046 A 
ATOM     55  C   UNL     1      -7.282  -7.978   7.059  1.00  0.00     0.115 A 
BRANCH  55  56
ATOM     56  O   UNL     1      -7.536  -9.060   7.848  1.00  0.00    -0.508 OA
ATOM     57  H   UNL     1      -7.585  -8.762   8.770  1.00  0.00     0.293 HD
ENDBRANCH  55  56
ENDBRANCH  49  50
ENDBRANCH  48  49
BRANCH  48  58
ATOM     58  C   UNL     1      -5.042  -3.846   2.547  1.00  0.00     0.326 C 
ATOM     59  O   UNL     1      -4.854  -4.199   1.394  1.00  0.00    -0.250 OA
BRANCH  58  60
ATOM     60  O   UNL     1      -5.264  -2.533   2.809  1.00  0.00    -0.480 OA
ATOM     61  H   UNL     1      -4.543  -2.303   3.435  1.00  0.00     0.296 HD
ENDBRANCH  58  60
ENDBRANCH  48  58
ENDBRANCH  46  48
ENDBRANCH  34  44
ENDBRANCH  32  34
ENDBRANCH  25  30
ENDBRANCH  23  25
ENDBRANCH   2  23
TORSDOF 28
ENDMDL
MODEL 37
REMARK VINA RESULT:    -5.892      2.198      5.061
REMARK INTER + INTRA:         -22.483
REMARK INTER:                 -18.059
REMARK INTRA:                  -4.424
REMARK UNBOUND:                -7.807
REMARK SMILES CCCCCCC[C@H](N)[C@H](O)C(=O)N[C@H](C)C(=O)N(C)[C@H](CC(C)C)C(=O)N[C@@H](Cc1ccc(O)cc1)C(=O)N[C@@H](Cc1ccc(O)cc1)C(=O)O
REMARK SMILES IDX 18 1 17 2 15 3 16 4 14 5 12 6 13 7 10 9 11 10 8 12 9 13 7 16
REMARK SMILES IDX 6 17 5 18 4 19 3 20 2 21 1 22 19 23 20 24 21 25 22 26 23 27
REMARK SMILES IDX 24 28 25 29 26 30 27 31 28 32 29 34 30 35 31 36 32 37 37 38
REMARK SMILES IDX 33 39 36 40 34 41 35 42 38 44 39 45 40 46 41 48 42 49 43 50
REMARK SMILES IDX 44 51 49 52 45 53 48 54 46 55 47 56 50 58 51 59 52 60
REMARK H PARENT 14 8 11 11 9 14 9 15 28 33 35 43 40 47 47 57 52 61
ROOT
ATOM      1  O   UNL     1      -5.675  -1.186  11.862  1.00  0.00    -0.272 OA
ATOM      2  C   UNL     1      -5.624  -1.753  10.761  1.00  0.00     0.245 C 
ENDROOT
BRANCH   2   3
ATOM      3  C   UNL     1      -5.904  -3.276  10.699  1.00  0.00     0.168 C 
ATOM      4  C   UNL     1      -5.396  -3.972  11.957  1.00  0.00     0.041 C 
BRANCH   3   5
ATOM      5  N   UNL     1      -7.283  -3.632  10.402  1.00  0.00    -0.342 N 
ATOM      6  C   UNL     1      -8.284  -3.513  11.341  1.00  0.00     0.251 C 
ATOM      7  O   UNL     1      -8.089  -3.143  12.495  1.00  0.00    -0.272 OA
ATOM      8  H   UNL     1      -7.560  -3.984   9.488  1.00  0.00     0.164 HD
BRANCH   6   9
ATOM      9  C   UNL     1      -9.678  -3.808  10.765  1.00  0.00     0.219 C 
BRANCH   9  10
ATOM     10  O   UNL     1      -9.644  -4.116   9.366  1.00  0.00    -0.382 OA
ATOM     11  H   UNL     1      -9.118  -4.945   9.325  1.00  0.00     0.211 HD
ENDBRANCH   9  10
BRANCH   9  12
ATOM     12  C   UNL     1     -10.442  -4.905  11.552  1.00  0.00     0.089 C 
BRANCH  12  13
ATOM     13  N   UNL     1     -11.650  -5.278  10.781  1.00  0.00    -0.325 NA
ATOM     14  H   UNL     1     -11.613  -6.274  10.557  1.00  0.00     0.119 HD
ATOM     15  H   UNL     1     -11.626  -4.801   9.876  1.00  0.00     0.119 HD
ENDBRANCH  12  13
BRANCH  12  16
ATOM     16  C   UNL     1      -9.630  -6.172  11.912  1.00  0.00     0.022 C 
BRANCH  16  17
ATOM     17  C   UNL     1      -9.520  -6.597  13.382  1.00  0.00     0.002 C 
BRANCH  17  18
ATOM     18  C   UNL     1     -10.686  -6.161  14.268  1.00  0.00     0.000 C 
BRANCH  18  19
ATOM     19  C   UNL     1     -10.567  -4.725  14.796  1.00  0.00    -0.000 C 
BRANCH  19  20
ATOM     20  C   UNL     1     -11.874  -4.107  15.298  1.00  0.00    -0.000 C 
BRANCH  20  21
ATOM     21  C   UNL     1     -11.892  -2.579  15.198  1.00  0.00    -0.003 C 
ATOM     22  C   UNL     1     -11.074  -2.091  14.012  1.00  0.00     0.004 C 
ENDBRANCH  20  21
ENDBRANCH  19  20
ENDBRANCH  18  19
ENDBRANCH  17  18
ENDBRANCH  16  17
ENDBRANCH  12  16
ENDBRANCH   9  12
ENDBRANCH   6   9
ENDBRANCH   3   5
ENDBRANCH   2   3
BRANCH   2  23
ATOM     23  N   UNL     1      -5.441  -1.008   9.602  1.00  0.00    -0.332 N 
ATOM     24  C   UNL     1      -4.170  -0.856   8.909  1.00  0.00     0.147 C 
BRANCH  23  25
ATOM     25  C   UNL     1      -6.610  -0.401   8.907  1.00  0.00     0.174 C 
BRANCH  25  26
ATOM     26  C   UNL     1      -7.927  -0.547   9.704  1.00  0.00     0.038 C 
BRANCH  26  27
ATOM     27  C   UNL     1      -8.463   0.719  10.409  1.00  0.00    -0.015 C 
ATOM     28  C   UNL     1      -8.892   1.802   9.420  1.00  0.00     0.007 C 
ATOM     29  C   UNL     1      -9.581   0.430  11.408  1.00  0.00     0.007 C 
ENDBRANCH  26  27
ENDBRANCH  25  26
BRANCH  25  30
ATOM     30  C   UNL     1      -6.699  -0.928   7.456  1.00  0.00     0.243 C 
ATOM     31  O   UNL     1      -6.602  -0.179   6.485  1.00  0.00    -0.273 OA
ATOM     32  N   UNL     1      -6.900  -2.278   7.327  1.00  0.00    -0.342 N 
ATOM     33  H   UNL     1      -6.829  -2.851   8.173  1.00  0.00     0.164 HD
BRANCH  32  34
ATOM     34  C   UNL     1      -7.037  -2.948   6.031  1.00  0.00     0.175 C 
BRANCH  34  35
ATOM     35  C   UNL     1      -5.664  -3.271   5.421  1.00  0.00     0.070 C 
BRANCH  35  36
ATOM     36  C   UNL     1      -5.644  -3.126   3.916  1.00  0.00    -0.045 A 
ATOM     37  C   UNL     1      -5.169  -4.177   3.117  1.00  0.00     0.007 A 
ATOM     38  C   UNL     1      -6.074  -1.943   3.302  1.00  0.00     0.007 A 
ATOM     39  C   UNL     1      -5.134  -4.048   1.728  1.00  0.00     0.046 A 
ATOM     40  C   UNL     1      -6.038  -1.813   1.911  1.00  0.00     0.046 A 
ATOM     41  C   UNL     1      -5.569  -2.868   1.137  1.00  0.00     0.115 A 
BRANCH  41  42
ATOM     42  O   UNL     1      -5.516  -2.781  -0.223  1.00  0.00    -0.508 OA
ATOM     43  H   UNL     1      -5.182  -1.900  -0.459  1.00  0.00     0.293 HD
ENDBRANCH  41  42
ENDBRANCH  35  36
ENDBRANCH  34  35
BRANCH  34  44
ATOM     44  C   UNL     1      -7.890  -4.220   6.238  1.00  0.00     0.243 C 
ATOM     45  O   UNL     1      -9.111  -4.222   6.369  1.00  0.00    -0.273 OA
ATOM     46  N   UNL     1      -7.139  -5.366   6.394  1.00  0.00    -0.341 N 
ATOM     47  H   UNL     1      -6.124  -5.295   6.394  1.00  0.00     0.164 HD
BRANCH  46  48
ATOM     48  C   UNL     1      -7.722  -6.680   6.669  1.00  0.00     0.196 C 
BRANCH  48  49
ATOM     49  C   UNL     1      -6.657  -7.789   6.612  1.00  0.00     0.072 C 
BRANCH  49  50
ATOM     50  C   UNL     1      -5.248  -7.246   6.695  1.00  0.00    -0.045 A 
ATOM     51  C   UNL     1      -4.537  -6.968   5.519  1.00  0.00     0.007 A 
ATOM     52  C   UNL     1      -4.629  -7.035   7.933  1.00  0.00     0.007 A 
ATOM     53  C   UNL     1      -3.232  -6.479   5.582  1.00  0.00     0.046 A 
ATOM     54  C   UNL     1      -3.321  -6.547   7.996  1.00  0.00     0.046 A 
ATOM     55  C   UNL     1      -2.634  -6.272   6.819  1.00  0.00     0.115 A 
BRANCH  55  56
ATOM     56  O   UNL     1      -1.357  -5.796   6.838  1.00  0.00    -0.508 OA
ATOM     57  H   UNL     1      -1.034  -5.751   5.924  1.00  0.00     0.293 HD
ENDBRANCH  55  56
ENDBRANCH  49  50
ENDBRANCH  48  49
BRANCH  48  58
ATOM     58  C   UNL     1      -8.369  -6.659   8.061  1.00  0.00     0.326 C 
ATOM     59  O   UNL     1      -7.806  -6.526   9.135  1.00  0.00    -0.250 OA
BRANCH  58  60
ATOM     60  O   UNL     1      -9.719  -6.793   8.032  1.00  0.00    -0.480 OA
ATOM     61  H   UNL     1      -9.896  -7.444   8.745  1.00  0.00     0.296 HD
ENDBRANCH  58  60
ENDBRANCH  48  58
ENDBRANCH  46  48
ENDBRANCH  34  44
ENDBRANCH  32  34
ENDBRANCH  25  30
ENDBRANCH  23  25
ENDBRANCH   2  23
TORSDOF 28
ENDMDL
MODEL 38
REMARK VINA RESULT:    -5.849      2.270      4.232
REMARK INTER + INTRA:         -22.376
REMARK INTER:                 -17.608
REMARK INTRA:                  -4.767
REMARK UNBOUND:                -7.807
REMARK SMILES CCCCCCC[C@H](N)[C@H](O)C(=O)N[C@H](C)C(=O)N(C)[C@H](CC(C)C)C(=O)N[C@@H](Cc1ccc(O)cc1)C(=O)N[C@@H](Cc1ccc(O)cc1)C(=O)O
REMARK SMILES IDX 18 1 17 2 15 3 16 4 14 5 12 6 13 7 10 9 11 10 8 12 9 13 7 16
REMARK SMILES IDX 6 17 5 18 4 19 3 20 2 21 1 22 19 23 20 24 21 25 22 26 23 27
REMARK SMILES IDX 24 28 25 29 26 30 27 31 28 32 29 34 30 35 31 36 32 37 37 38
REMARK SMILES IDX 33 39 36 40 34 41 35 42 38 44 39 45 40 46 41 48 42 49 43 50
REMARK SMILES IDX 44 51 49 52 45 53 48 54 46 55 47 56 50 58 51 59 52 60
REMARK H PARENT 14 8 11 11 9 14 9 15 28 33 35 43 40 47 47 57 52 61
ROOT
ATOM      1  O   UNL     1      -5.025  -1.169  11.731  1.00  0.00    -0.272 OA
ATOM      2  C   UNL     1      -5.030  -1.651  10.589  1.00  0.00     0.245 C 
ENDROOT
BRANCH   2   3
ATOM      3  C   UNL     1      -5.047  -3.192  10.434  1.00  0.00     0.168 C 
ATOM      4  C   UNL     1      -3.629  -3.751  10.426  1.00  0.00     0.041 C 
BRANCH   3   5
ATOM      5  N   UNL     1      -5.900  -3.892  11.383  1.00  0.00    -0.342 N 
ATOM      6  C   UNL     1      -5.439  -4.291  12.619  1.00  0.00     0.251 C 
ATOM      7  O   UNL     1      -4.283  -4.129  12.995  1.00  0.00    -0.272 OA
ATOM      8  H   UNL     1      -6.870  -4.114  11.169  1.00  0.00     0.164 HD
BRANCH   6   9
ATOM      9  C   UNL     1      -6.549  -4.881  13.505  1.00  0.00     0.219 C 
BRANCH   9  10
ATOM     10  O   UNL     1      -7.850  -4.753  12.919  1.00  0.00    -0.382 OA
ATOM     11  H   UNL     1      -8.378  -4.315  13.623  1.00  0.00     0.211 HD
ENDBRANCH   9  10
BRANCH   9  12
ATOM     12  C   UNL     1      -6.276  -6.349  13.925  1.00  0.00     0.089 C 
BRANCH  12  13
ATOM     13  N   UNL     1      -6.996  -6.614  15.191  1.00  0.00    -0.325 NA
ATOM     14  H   UNL     1      -7.298  -5.727  15.598  1.00  0.00     0.119 HD
ATOM     15  H   UNL     1      -6.340  -7.009  15.869  1.00  0.00     0.119 HD
ENDBRANCH  12  13
BRANCH  12  16
ATOM     16  C   UNL     1      -6.629  -7.431  12.876  1.00  0.00     0.022 C 
BRANCH  16  17
ATOM     17  C   UNL     1      -5.708  -7.625  11.664  1.00  0.00     0.002 C 
BRANCH  17  18
ATOM     18  C   UNL     1      -4.612  -8.673  11.847  1.00  0.00     0.000 C 
BRANCH  18  19
ATOM     19  C   UNL     1      -3.266  -8.285  11.221  1.00  0.00    -0.000 C 
BRANCH  19  20
ATOM     20  C   UNL     1      -2.473  -7.224  11.988  1.00  0.00    -0.000 C 
BRANCH  20  21
ATOM     21  C   UNL     1      -1.223  -6.752  11.241  1.00  0.00    -0.003 C 
ATOM     22  C   UNL     1       0.047  -7.188  11.954  1.00  0.00     0.004 C 
ENDBRANCH  20  21
ENDBRANCH  19  20
ENDBRANCH  18  19
ENDBRANCH  17  18
ENDBRANCH  16  17
ENDBRANCH  12  16
ENDBRANCH   9  12
ENDBRANCH   6   9
ENDBRANCH   3   5
ENDBRANCH   2   3
BRANCH   2  23
ATOM     23  N   UNL     1      -5.144  -0.816   9.482  1.00  0.00    -0.332 N 
ATOM     24  C   UNL     1      -4.033  -0.416   8.631  1.00  0.00     0.147 C 
BRANCH  23  25
ATOM     25  C   UNL     1      -6.484  -0.368   9.014  1.00  0.00     0.174 C 
BRANCH  25  26
ATOM     26  C   UNL     1      -7.606  -0.650  10.040  1.00  0.00     0.038 C 
BRANCH  26  27
ATOM     27  C   UNL     1      -8.463   0.554  10.490  1.00  0.00    -0.015 C 
ATOM     28  C   UNL     1      -8.935   1.407   9.313  1.00  0.00     0.007 C 
ATOM     29  C   UNL     1      -9.643   0.163  11.377  1.00  0.00     0.007 C 
ENDBRANCH  26  27
ENDBRANCH  25  26
BRANCH  25  30
ATOM     30  C   UNL     1      -6.773  -0.936   7.605  1.00  0.00     0.243 C 
ATOM     31  O   UNL     1      -6.939  -0.204   6.631  1.00  0.00    -0.273 OA
ATOM     32  N   UNL     1      -6.838  -2.303   7.519  1.00  0.00    -0.342 N 
ATOM     33  H   UNL     1      -6.551  -2.843   8.339  1.00  0.00     0.164 HD
BRANCH  32  34
ATOM     34  C   UNL     1      -7.129  -3.014   6.271  1.00  0.00     0.175 C 
BRANCH  34  35
ATOM     35  C   UNL     1      -5.844  -3.549   5.620  1.00  0.00     0.070 C 
BRANCH  35  36
ATOM     36  C   UNL     1      -5.798  -3.304   4.129  1.00  0.00    -0.045 A 
ATOM     37  C   UNL     1      -5.675  -4.385   3.243  1.00  0.00     0.007 A 
ATOM     38  C   UNL     1      -5.853  -2.002   3.613  1.00  0.00     0.007 A 
ATOM     39  C   UNL     1      -5.617  -4.167   1.866  1.00  0.00     0.046 A 
ATOM     40  C   UNL     1      -5.795  -1.783   2.234  1.00  0.00     0.046 A 
ATOM     41  C   UNL     1      -5.678  -2.869   1.373  1.00  0.00     0.115 A 
BRANCH  41  42
ATOM     42  O   UNL     1      -5.616  -2.700   0.022  1.00  0.00    -0.508 OA
ATOM     43  H   UNL     1      -4.698  -2.844  -0.261  1.00  0.00     0.293 HD
ENDBRANCH  41  42
ENDBRANCH  35  36
ENDBRANCH  34  35
BRANCH  34  44
ATOM     44  C   UNL     1      -8.131  -4.147   6.589  1.00  0.00     0.243 C 
ATOM     45  O   UNL     1      -9.312  -4.144   6.253  1.00  0.00    -0.273 OA
ATOM     46  N   UNL     1      -7.610  -5.126   7.409  1.00  0.00    -0.341 N 
ATOM     47  H   UNL     1      -6.660  -5.024   7.758  1.00  0.00     0.164 HD
BRANCH  46  48
ATOM     48  C   UNL     1      -8.390  -6.264   7.901  1.00  0.00     0.196 C 
BRANCH  48  49
ATOM     49  C   UNL     1      -7.536  -7.541   7.966  1.00  0.00     0.072 C 
BRANCH  49  50
ATOM     50  C   UNL     1      -6.180  -7.368   7.320  1.00  0.00    -0.045 A 
ATOM     51  C   UNL     1      -5.045  -7.171   8.120  1.00  0.00     0.007 A 
ATOM     52  C   UNL     1      -6.039  -7.380   5.926  1.00  0.00     0.007 A 
ATOM     53  C   UNL     1      -3.791  -6.997   7.535  1.00  0.00     0.046 A 
ATOM     54  C   UNL     1      -4.783  -7.204   5.341  1.00  0.00     0.046 A 
ATOM     55  C   UNL     1      -3.669  -7.015   6.151  1.00  0.00     0.115 A 
BRANCH  55  56
ATOM     56  O   UNL     1      -2.426  -6.839   5.619  1.00  0.00    -0.508 OA
ATOM     57  H   UNL     1      -2.083  -5.982   5.919  1.00  0.00     0.293 HD
ENDBRANCH  55  56
ENDBRANCH  49  50
ENDBRANCH  48  49
BRANCH  48  58
ATOM     58  C   UNL     1      -8.929  -5.933   9.299  1.00  0.00     0.326 C 
ATOM     59  O   UNL     1     -10.077  -6.052   9.696  1.00  0.00    -0.250 OA
BRANCH  58  60
ATOM     60  O   UNL     1      -7.978  -5.475  10.151  1.00  0.00    -0.480 OA
ATOM     61  H   UNL     1      -8.451  -5.422  11.010  1.00  0.00     0.296 HD
ENDBRANCH  58  60
ENDBRANCH  48  58
ENDBRANCH  46  48
ENDBRANCH  34  44
ENDBRANCH  32  34
ENDBRANCH  25  30
ENDBRANCH  23  25
ENDBRANCH   2  23
TORSDOF 28
ENDMDL
MODEL 39
REMARK VINA RESULT:    -5.840      2.400      6.962
REMARK INTER + INTRA:         -22.352
REMARK INTER:                 -18.823
REMARK INTRA:                  -3.529
REMARK UNBOUND:                -7.807
REMARK SMILES CCCCCCC[C@H](N)[C@H](O)C(=O)N[C@H](C)C(=O)N(C)[C@H](CC(C)C)C(=O)N[C@@H](Cc1ccc(O)cc1)C(=O)N[C@@H](Cc1ccc(O)cc1)C(=O)O
REMARK SMILES IDX 18 1 17 2 15 3 16 4 14 5 12 6 13 7 10 9 11 10 8 12 9 13 7 16
REMARK SMILES IDX 6 17 5 18 4 19 3 20 2 21 1 22 19 23 20 24 21 25 22 26 23 27
REMARK SMILES IDX 24 28 25 29 26 30 27 31 28 32 29 34 30 35 31 36 32 37 37 38
REMARK SMILES IDX 33 39 36 40 34 41 35 42 38 44 39 45 40 46 41 48 42 49 43 50
REMARK SMILES IDX 44 51 49 52 45 53 48 54 46 55 47 56 50 58 51 59 52 60
REMARK H PARENT 14 8 11 11 9 14 9 15 28 33 35 43 40 47 47 57 52 61
ROOT
ATOM      1  O   UNL     1      -3.747  -3.741  10.080  1.00  0.00    -0.272 OA
ATOM      2  C   UNL     1      -2.698  -4.064   9.503  1.00  0.00     0.245 C 
ENDROOT
BRANCH   2   3
ATOM      3  C   UNL     1      -2.162  -5.505   9.692  1.00  0.00     0.168 C 
ATOM      4  C   UNL     1      -1.023  -5.531  10.705  1.00  0.00     0.041 C 
BRANCH   3   5
ATOM      5  N   UNL     1      -3.179  -6.501   9.994  1.00  0.00    -0.342 N 
ATOM      6  C   UNL     1      -3.826  -7.205   9.001  1.00  0.00     0.251 C 
ATOM      7  O   UNL     1      -3.630  -7.021   7.804  1.00  0.00    -0.272 OA
ATOM      8  H   UNL     1      -3.452  -6.715  10.950  1.00  0.00     0.164 HD
BRANCH   6   9
ATOM      9  C   UNL     1      -4.752  -8.300   9.555  1.00  0.00     0.219 C 
BRANCH   9  10
ATOM     10  O   UNL     1      -4.147  -9.050  10.615  1.00  0.00    -0.382 OA
ATOM     11  H   UNL     1      -3.484  -9.609  10.154  1.00  0.00     0.211 HD
ENDBRANCH   9  10
BRANCH   9  12
ATOM     12  C   UNL     1      -6.142  -7.762   9.984  1.00  0.00     0.089 C 
BRANCH  12  13
ATOM     13  N   UNL     1      -5.964  -6.913  11.185  1.00  0.00    -0.325 NA
ATOM     14  H   UNL     1      -6.501  -6.052  11.069  1.00  0.00     0.119 HD
ATOM     15  H   UNL     1      -4.988  -6.615  11.238  1.00  0.00     0.119 HD
ENDBRANCH  12  13
BRANCH  12  16
ATOM     16  C   UNL     1      -6.935  -6.991   8.901  1.00  0.00     0.022 C 
BRANCH  16  17
ATOM     17  C   UNL     1      -7.868  -7.770   7.964  1.00  0.00     0.002 C 
BRANCH  17  18
ATOM     18  C   UNL     1      -7.166  -8.528   6.839  1.00  0.00     0.000 C 
BRANCH  18  19
ATOM     19  C   UNL     1      -6.406  -7.626   5.857  1.00  0.00    -0.000 C 
BRANCH  19  20
ATOM     20  C   UNL     1      -7.253  -6.546   5.177  1.00  0.00    -0.000 C 
BRANCH  20  21
ATOM     21  C   UNL     1      -6.791  -6.230   3.753  1.00  0.00    -0.003 C 
ATOM     22  C   UNL     1      -5.637  -5.240   3.751  1.00  0.00     0.004 C 
ENDBRANCH  20  21
ENDBRANCH  19  20
ENDBRANCH  18  19
ENDBRANCH  17  18
ENDBRANCH  16  17
ENDBRANCH  12  16
ENDBRANCH   9  12
ENDBRANCH   6   9
ENDBRANCH   3   5
ENDBRANCH   2   3
BRANCH   2  23
ATOM     23  N   UNL     1      -2.095  -3.183   8.611  1.00  0.00    -0.332 N 
ATOM     24  C   UNL     1      -1.410  -3.583   7.391  1.00  0.00     0.147 C 
BRANCH  23  25
ATOM     25  C   UNL     1      -2.233  -1.713   8.800  1.00  0.00     0.174 C 
BRANCH  25  26
ATOM     26  C   UNL     1      -2.370  -1.306  10.286  1.00  0.00     0.038 C 
BRANCH  26  27
ATOM     27  C   UNL     1      -1.080  -1.317  11.137  1.00  0.00    -0.015 C 
ATOM     28  C   UNL     1      -1.280  -1.993  12.493  1.00  0.00     0.007 C 
ATOM     29  C   UNL     1       0.122  -1.914  10.410  1.00  0.00     0.007 C 
ENDBRANCH  26  27
ENDBRANCH  25  26
BRANCH  25  30
ATOM     30  C   UNL     1      -3.362  -1.164   7.898  1.00  0.00     0.243 C 
ATOM     31  O   UNL     1      -3.166  -0.258   7.090  1.00  0.00    -0.273 OA
ATOM     32  N   UNL     1      -4.591  -1.748   8.065  1.00  0.00    -0.342 N 
ATOM     33  H   UNL     1      -4.642  -2.586   8.651  1.00  0.00     0.164 HD
BRANCH  32  34
ATOM     34  C   UNL     1      -5.782  -1.338   7.317  1.00  0.00     0.175 C 
BRANCH  34  35
ATOM     35  C   UNL     1      -5.935  -2.148   6.020  1.00  0.00     0.070 C 
BRANCH  35  36
ATOM     36  C   UNL     1      -6.000  -1.274   4.789  1.00  0.00    -0.045 A 
ATOM     37  C   UNL     1      -5.852   0.117   4.906  1.00  0.00     0.007 A 
ATOM     38  C   UNL     1      -6.232  -1.830   3.524  1.00  0.00     0.007 A 
ATOM     39  C   UNL     1      -5.924   0.933   3.777  1.00  0.00     0.046 A 
ATOM     40  C   UNL     1      -6.306  -1.013   2.393  1.00  0.00     0.046 A 
ATOM     41  C   UNL     1      -6.150   0.362   2.530  1.00  0.00     0.115 A 
BRANCH  41  42
ATOM     42  O   UNL     1      -6.217   1.195   1.453  1.00  0.00    -0.508 OA
ATOM     43  H   UNL     1      -5.410   1.736   1.435  1.00  0.00     0.293 HD
ENDBRANCH  41  42
ENDBRANCH  35  36
ENDBRANCH  34  35
BRANCH  34  44
ATOM     44  C   UNL     1      -7.008  -1.496   8.244  1.00  0.00     0.243 C 
ATOM     45  O   UNL     1      -7.735  -2.485   8.270  1.00  0.00    -0.273 OA
ATOM     46  N   UNL     1      -7.302  -0.358   8.965  1.00  0.00    -0.341 N 
ATOM     47  H   UNL     1      -6.739   0.477   8.822  1.00  0.00     0.164 HD
BRANCH  46  48
ATOM     48  C   UNL     1      -8.457  -0.246   9.859  1.00  0.00     0.196 C 
BRANCH  48  49
ATOM     49  C   UNL     1      -8.052  -0.464  11.326  1.00  0.00     0.072 C 
BRANCH  49  50
ATOM     50  C   UNL     1      -9.181  -1.020  12.164  1.00  0.00    -0.045 A 
ATOM     51  C   UNL     1     -10.036  -0.147  12.853  1.00  0.00     0.007 A 
ATOM     52  C   UNL     1      -9.378  -2.402  12.283  1.00  0.00     0.007 A 
ATOM     53  C   UNL     1     -11.073  -0.648  13.640  1.00  0.00     0.046 A 
ATOM     54  C   UNL     1     -10.415  -2.904  13.072  1.00  0.00     0.046 A 
ATOM     55  C   UNL     1     -11.255  -2.022  13.743  1.00  0.00     0.115 A 
BRANCH  55  56
ATOM     56  O   UNL     1     -12.279  -2.472  14.524  1.00  0.00    -0.508 OA
ATOM     57  H   UNL     1     -12.550  -3.345  14.200  1.00  0.00     0.293 HD
ENDBRANCH  55  56
ENDBRANCH  49  50
ENDBRANCH  48  49
BRANCH  48  58
ATOM     58  C   UNL     1      -9.079   1.148   9.698  1.00  0.00     0.326 C 
ATOM     59  O   UNL     1      -8.492   2.215   9.620  1.00  0.00    -0.250 OA
BRANCH  58  60
ATOM     60  O   UNL     1     -10.434   1.132   9.627  1.00  0.00    -0.480 OA
ATOM     61  H   UNL     1     -10.702   1.833  10.260  1.00  0.00     0.296 HD
ENDBRANCH  58  60
ENDBRANCH  48  58
ENDBRANCH  46  48
ENDBRANCH  34  44
ENDBRANCH  32  34
ENDBRANCH  25  30
ENDBRANCH  23  25
ENDBRANCH   2  23
TORSDOF 28
ENDMDL
MODEL 40
REMARK VINA RESULT:    -5.830      2.280      6.157
REMARK INTER + INTRA:         -22.327
REMARK INTER:                 -17.447
REMARK INTRA:                  -4.880
REMARK UNBOUND:                -7.807
REMARK SMILES CCCCCCC[C@H](N)[C@H](O)C(=O)N[C@H](C)C(=O)N(C)[C@H](CC(C)C)C(=O)N[C@@H](Cc1ccc(O)cc1)C(=O)N[C@@H](Cc1ccc(O)cc1)C(=O)O
REMARK SMILES IDX 18 1 17 2 15 3 16 4 14 5 12 6 13 7 10 9 11 10 8 12 9 13 7 16
REMARK SMILES IDX 6 17 5 18 4 19 3 20 2 21 1 22 19 23 20 24 21 25 22 26 23 27
REMARK SMILES IDX 24 28 25 29 26 30 27 31 28 32 29 34 30 35 31 36 32 37 37 38
REMARK SMILES IDX 33 39 36 40 34 41 35 42 38 44 39 45 40 46 41 48 42 49 43 50
REMARK SMILES IDX 44 51 49 52 45 53 48 54 46 55 47 56 50 58 51 59 52 60
REMARK H PARENT 14 8 11 11 9 14 9 15 28 33 35 43 40 47 47 57 52 61
ROOT
ATOM      1  O   UNL     1      -4.748  -7.483   5.186  1.00  0.00    -0.272 OA
ATOM      2  C   UNL     1      -5.073  -7.060   6.305  1.00  0.00     0.245 C 
ENDROOT
BRANCH   2   3
ATOM      3  C   UNL     1      -6.579  -6.938   6.644  1.00  0.00     0.168 C 
ATOM      4  C   UNL     1      -7.217  -8.317   6.779  1.00  0.00     0.041 C 
BRANCH   3   5
ATOM      5  N   UNL     1      -6.883  -6.086   7.783  1.00  0.00    -0.342 N 
ATOM      6  C   UNL     1      -8.063  -5.378   7.868  1.00  0.00     0.251 C 
ATOM      7  O   UNL     1      -8.916  -5.376   6.987  1.00  0.00    -0.272 OA
ATOM      8  H   UNL     1      -6.236  -5.980   8.560  1.00  0.00     0.164 HD
BRANCH   6   9
ATOM      9  C   UNL     1      -8.231  -4.662   9.218  1.00  0.00     0.219 C 
BRANCH   9  10
ATOM     10  O   UNL     1      -9.605  -4.484   9.582  1.00  0.00    -0.382 OA
ATOM     11  H   UNL     1     -10.037  -5.306   9.260  1.00  0.00     0.211 HD
ENDBRANCH   9  10
BRANCH   9  12
ATOM     12  C   UNL     1      -7.439  -5.338  10.368  1.00  0.00     0.089 C 
BRANCH  12  13
ATOM     13  N   UNL     1      -7.425  -4.419  11.528  1.00  0.00    -0.325 NA
ATOM     14  H   UNL     1      -6.458  -4.257  11.817  1.00  0.00     0.119 HD
ATOM     15  H   UNL     1      -7.866  -4.884  12.325  1.00  0.00     0.119 HD
ENDBRANCH  12  13
BRANCH  12  16
ATOM     16  C   UNL     1      -7.938  -6.736  10.804  1.00  0.00     0.022 C 
BRANCH  16  17
ATOM     17  C   UNL     1      -6.926  -7.881  10.942  1.00  0.00     0.002 C 
BRANCH  17  18
ATOM     18  C   UNL     1      -6.769  -8.435  12.357  1.00  0.00     0.000 C 
BRANCH  18  19
ATOM     19  C   UNL     1      -5.414  -8.119  13.005  1.00  0.00    -0.000 C 
BRANCH  19  20
ATOM     20  C   UNL     1      -4.198  -8.306  12.094  1.00  0.00    -0.000 C 
BRANCH  20  21
ATOM     21  C   UNL     1      -3.077  -7.302  12.375  1.00  0.00    -0.003 C 
ATOM     22  C   UNL     1      -1.789  -7.696  11.670  1.00  0.00     0.004 C 
ENDBRANCH  20  21
ENDBRANCH  19  20
ENDBRANCH  18  19
ENDBRANCH  17  18
ENDBRANCH  16  17
ENDBRANCH  12  16
ENDBRANCH   9  12
ENDBRANCH   6   9
ENDBRANCH   3   5
ENDBRANCH   2   3
BRANCH   2  23
ATOM     23  N   UNL     1      -4.097  -6.820   7.268  1.00  0.00    -0.332 N 
ATOM     24  C   UNL     1      -3.970  -7.558   8.516  1.00  0.00     0.147 C 
BRANCH  23  25
ATOM     25  C   UNL     1      -3.009  -5.839   7.006  1.00  0.00     0.174 C 
BRANCH  25  26
ATOM     26  C   UNL     1      -2.229  -5.451   8.284  1.00  0.00     0.038 C 
BRANCH  26  27
ATOM     27  C   UNL     1      -0.789  -4.923   8.092  1.00  0.00    -0.015 C 
ATOM     28  C   UNL     1       0.115  -5.247   9.281  1.00  0.00     0.007 C 
ATOM     29  C   UNL     1      -0.144  -5.381   6.786  1.00  0.00     0.007 C 
ENDBRANCH  26  27
ENDBRANCH  25  26
BRANCH  25  30
ATOM     30  C   UNL     1      -3.562  -4.627   6.223  1.00  0.00     0.243 C 
ATOM     31  O   UNL     1      -3.150  -4.334   5.102  1.00  0.00    -0.273 OA
ATOM     32  N   UNL     1      -4.534  -3.901   6.862  1.00  0.00    -0.342 N 
ATOM     33  H   UNL     1      -4.922  -4.287   7.726  1.00  0.00     0.164 HD
BRANCH  32  34
ATOM     34  C   UNL     1      -5.153  -2.705   6.284  1.00  0.00     0.175 C 
BRANCH  34  35
ATOM     35  C   UNL     1      -6.404  -3.063   5.467  1.00  0.00     0.070 C 
BRANCH  35  36
ATOM     36  C   UNL     1      -6.176  -2.965   3.975  1.00  0.00    -0.045 A 
ATOM     37  C   UNL     1      -5.883  -4.119   3.232  1.00  0.00     0.007 A 
ATOM     38  C   UNL     1      -6.230  -1.728   3.319  1.00  0.00     0.007 A 
ATOM     39  C   UNL     1      -5.658  -4.036   1.858  1.00  0.00     0.046 A 
ATOM     40  C   UNL     1      -6.003  -1.644   1.943  1.00  0.00     0.046 A 
ATOM     41  C   UNL     1      -5.720  -2.801   1.225  1.00  0.00     0.115 A 
BRANCH  41  42
ATOM     42  O   UNL     1      -5.490  -2.763  -0.119  1.00  0.00    -0.508 OA
ATOM     43  H   UNL     1      -6.266  -3.134  -0.571  1.00  0.00     0.293 HD
ENDBRANCH  41  42
ENDBRANCH  35  36
ENDBRANCH  34  35
BRANCH  34  44
ATOM     44  C   UNL     1      -5.476  -1.728   7.436  1.00  0.00     0.243 C 
ATOM     45  O   UNL     1      -5.590  -0.513   7.304  1.00  0.00    -0.273 OA
ATOM     46  N   UNL     1      -5.501  -2.331   8.676  1.00  0.00    -0.341 N 
ATOM     47  H   UNL     1      -5.285  -3.322   8.748  1.00  0.00     0.164 HD
BRANCH  46  48
ATOM     48  C   UNL     1      -5.719  -1.597   9.925  1.00  0.00     0.196 C 
BRANCH  48  49
ATOM     49  C   UNL     1      -4.698  -0.460  10.092  1.00  0.00     0.072 C 
BRANCH  49  50
ATOM     50  C   UNL     1      -3.319  -0.965  10.451  1.00  0.00    -0.045 A 
ATOM     51  C   UNL     1      -2.282  -0.898   9.508  1.00  0.00     0.007 A 
ATOM     52  C   UNL     1      -3.060  -1.521  11.710  1.00  0.00     0.007 A 
ATOM     53  C   UNL     1      -1.009  -1.373   9.824  1.00  0.00     0.046 A 
ATOM     54  C   UNL     1      -1.785  -1.998  12.026  1.00  0.00     0.046 A 
ATOM     55  C   UNL     1      -0.770  -1.918  11.079  1.00  0.00     0.115 A 
BRANCH  55  56
ATOM     56  O   UNL     1       0.487  -2.373  11.347  1.00  0.00    -0.508 OA
ATOM     57  H   UNL     1       0.435  -2.998  12.087  1.00  0.00     0.293 HD
ENDBRANCH  55  56
ENDBRANCH  49  50
ENDBRANCH  48  49
BRANCH  48  58
ATOM     58  C   UNL     1      -7.140  -1.016   9.920  1.00  0.00     0.326 C 
ATOM     59  O   UNL     1      -8.185  -1.619  10.105  1.00  0.00    -0.250 OA
BRANCH  58  60
ATOM     60  O   UNL     1      -7.178   0.321   9.694  1.00  0.00    -0.480 OA
ATOM     61  H   UNL     1      -7.639   0.391   8.831  1.00  0.00     0.296 HD
ENDBRANCH  58  60
ENDBRANCH  48  58
ENDBRANCH  46  48
ENDBRANCH  34  44
ENDBRANCH  32  34
ENDBRANCH  25  30
ENDBRANCH  23  25
ENDBRANCH   2  23
TORSDOF 28
ENDMDL
MODEL 41
REMARK VINA RESULT:    -5.805      2.648      4.987
REMARK INTER + INTRA:         -22.266
REMARK INTER:                 -16.814
REMARK INTRA:                  -5.452
REMARK UNBOUND:                -7.807
REMARK SMILES CCCCCCC[C@H](N)[C@H](O)C(=O)N[C@H](C)C(=O)N(C)[C@H](CC(C)C)C(=O)N[C@@H](Cc1ccc(O)cc1)C(=O)N[C@@H](Cc1ccc(O)cc1)C(=O)O
REMARK SMILES IDX 18 1 17 2 15 3 16 4 14 5 12 6 13 7 10 9 11 10 8 12 9 13 7 16
REMARK SMILES IDX 6 17 5 18 4 19 3 20 2 21 1 22 19 23 20 24 21 25 22 26 23 27
REMARK SMILES IDX 24 28 25 29 26 30 27 31 28 32 29 34 30 35 31 36 32 37 37 38
REMARK SMILES IDX 33 39 36 40 34 41 35 42 38 44 39 45 40 46 41 48 42 49 43 50
REMARK SMILES IDX 44 51 49 52 45 53 48 54 46 55 47 56 50 58 51 59 52 60
REMARK H PARENT 14 8 11 11 9 14 9 15 28 33 35 43 40 47 47 57 52 61
ROOT
ATOM      1  O   UNL     1      -3.675  -1.648  12.134  1.00  0.00    -0.272 OA
ATOM      2  C   UNL     1      -3.921  -1.573  10.921  1.00  0.00     0.245 C 
ENDROOT
BRANCH   2   3
ATOM      3  C   UNL     1      -2.787  -1.888   9.914  1.00  0.00     0.168 C 
ATOM      4  C   UNL     1      -1.628  -0.911  10.080  1.00  0.00     0.041 C 
BRANCH   3   5
ATOM      5  N   UNL     1      -2.335  -3.271   9.915  1.00  0.00    -0.342 N 
ATOM      6  C   UNL     1      -2.204  -3.995   8.749  1.00  0.00     0.251 C 
ATOM      7  O   UNL     1      -2.494  -3.553   7.642  1.00  0.00    -0.272 OA
ATOM      8  H   UNL     1      -2.098  -3.756  10.777  1.00  0.00     0.164 HD
BRANCH   6   9
ATOM      9  C   UNL     1      -1.578  -5.380   8.977  1.00  0.00     0.219 C 
BRANCH   9  10
ATOM     10  O   UNL     1      -0.541  -5.679   8.034  1.00  0.00    -0.382 OA
ATOM     11  H   UNL     1       0.202  -5.987   8.599  1.00  0.00     0.211 HD
ENDBRANCH   9  10
BRANCH   9  12
ATOM     12  C   UNL     1      -1.079  -5.591  10.430  1.00  0.00     0.089 C 
BRANCH  12  13
ATOM     13  N   UNL     1      -1.997  -6.536  11.107  1.00  0.00    -0.325 NA
ATOM     14  H   UNL     1      -1.846  -7.476  10.735  1.00  0.00     0.119 HD
ATOM     15  H   UNL     1      -2.959  -6.301  10.854  1.00  0.00     0.119 HD
ENDBRANCH  12  13
BRANCH  12  16
ATOM     16  C   UNL     1       0.385  -6.071  10.582  1.00  0.00     0.022 C 
BRANCH  16  17
ATOM     17  C   UNL     1       1.341  -5.279  11.483  1.00  0.00     0.002 C 
BRANCH  17  18
ATOM     18  C   UNL     1       0.937  -3.827  11.733  1.00  0.00     0.000 C 
BRANCH  18  19
ATOM     19  C   UNL     1       1.893  -2.798  11.115  1.00  0.00    -0.000 C 
BRANCH  19  20
ATOM     20  C   UNL     1       2.249  -3.040   9.646  1.00  0.00    -0.000 C 
BRANCH  20  21
ATOM     21  C   UNL     1       3.758  -3.103   9.397  1.00  0.00    -0.003 C 
ATOM     22  C   UNL     1       4.538  -3.057  10.701  1.00  0.00     0.004 C 
ENDBRANCH  20  21
ENDBRANCH  19  20
ENDBRANCH  18  19
ENDBRANCH  17  18
ENDBRANCH  16  17
ENDBRANCH  12  16
ENDBRANCH   9  12
ENDBRANCH   6   9
ENDBRANCH   3   5
ENDBRANCH   2   3
BRANCH   2  23
ATOM     23  N   UNL     1      -5.221  -1.332  10.488  1.00  0.00    -0.332 N 
ATOM     24  C   UNL     1      -5.726  -0.031  10.077  1.00  0.00     0.147 C 
BRANCH  23  25
ATOM     25  C   UNL     1      -6.169  -2.463  10.294  1.00  0.00     0.174 C 
BRANCH  25  26
ATOM     26  C   UNL     1      -5.650  -3.794  10.889  1.00  0.00     0.038 C 
BRANCH  26  27
ATOM     27  C   UNL     1      -6.700  -4.891  11.171  1.00  0.00    -0.015 C 
ATOM     28  C   UNL     1      -6.149  -6.015  12.049  1.00  0.00     0.007 C 
ATOM     29  C   UNL     1      -8.005  -4.349  11.748  1.00  0.00     0.007 C 
ENDBRANCH  26  27
ENDBRANCH  25  26
BRANCH  25  30
ATOM     30  C   UNL     1      -6.579  -2.565   8.807  1.00  0.00     0.243 C 
ATOM     31  O   UNL     1      -7.737  -2.378   8.438  1.00  0.00    -0.273 OA
ATOM     32  N   UNL     1      -5.570  -2.882   7.934  1.00  0.00    -0.342 N 
ATOM     33  H   UNL     1      -4.613  -2.882   8.296  1.00  0.00     0.164 HD
BRANCH  32  34
ATOM     34  C   UNL     1      -5.780  -3.047   6.493  1.00  0.00     0.175 C 
BRANCH  34  35
ATOM     35  C   UNL     1      -4.772  -2.217   5.683  1.00  0.00     0.070 C 
BRANCH  35  36
ATOM     36  C   UNL     1      -5.430  -1.391   4.601  1.00  0.00    -0.045 A 
ATOM     37  C   UNL     1      -5.798  -1.991   3.387  1.00  0.00     0.007 A 
ATOM     38  C   UNL     1      -5.660  -0.021   4.782  1.00  0.00     0.007 A 
ATOM     39  C   UNL     1      -6.393  -1.234   2.377  1.00  0.00     0.046 A 
ATOM     40  C   UNL     1      -6.254   0.737   3.770  1.00  0.00     0.046 A 
ATOM     41  C   UNL     1      -6.617   0.122   2.577  1.00  0.00     0.115 A 
BRANCH  41  42
ATOM     42  O   UNL     1      -7.198   0.826   1.564  1.00  0.00    -0.508 OA
ATOM     43  H   UNL     1      -6.615   0.781   0.788  1.00  0.00     0.293 HD
ENDBRANCH  41  42
ENDBRANCH  35  36
ENDBRANCH  34  35
BRANCH  34  44
ATOM     44  C   UNL     1      -5.682  -4.554   6.165  1.00  0.00     0.243 C 
ATOM     45  O   UNL     1      -6.164  -5.079   5.165  1.00  0.00    -0.273 OA
ATOM     46  N   UNL     1      -5.108  -5.299   7.173  1.00  0.00    -0.341 N 
ATOM     47  H   UNL     1      -4.829  -4.834   8.033  1.00  0.00     0.164 HD
BRANCH  46  48
ATOM     48  C   UNL     1      -4.969  -6.756   7.119  1.00  0.00     0.196 C 
BRANCH  48  49
ATOM     49  C   UNL     1      -6.303  -7.433   6.761  1.00  0.00     0.072 C 
BRANCH  49  50
ATOM     50  C   UNL     1      -7.237  -7.540   7.945  1.00  0.00    -0.045 A 
ATOM     51  C   UNL     1      -8.319  -6.655   8.065  1.00  0.00     0.007 A 
ATOM     52  C   UNL     1      -7.029  -8.500   8.943  1.00  0.00     0.007 A 
ATOM     53  C   UNL     1      -9.180  -6.736   9.159  1.00  0.00     0.046 A 
ATOM     54  C   UNL     1      -7.890  -8.581  10.040  1.00  0.00     0.046 A 
ATOM     55  C   UNL     1      -8.959  -7.698  10.138  1.00  0.00     0.115 A 
BRANCH  55  56
ATOM     56  O   UNL     1      -9.822  -7.742  11.193  1.00  0.00    -0.508 OA
ATOM     57  H   UNL     1     -10.097  -8.664  11.324  1.00  0.00     0.293 HD
ENDBRANCH  55  56
ENDBRANCH  49  50
ENDBRANCH  48  49
BRANCH  48  58
ATOM     58  C   UNL     1      -3.910  -7.118   6.068  1.00  0.00     0.326 C 
ATOM     59  O   UNL     1      -2.698  -7.030   6.180  1.00  0.00    -0.250 OA
BRANCH  58  60
ATOM     60  O   UNL     1      -4.436  -7.597   4.913  1.00  0.00    -0.480 OA
ATOM     61  H   UNL     1      -3.694  -7.513   4.275  1.00  0.00     0.296 HD
ENDBRANCH  58  60
ENDBRANCH  48  58
ENDBRANCH  46  48
ENDBRANCH  34  44
ENDBRANCH  32  34
ENDBRANCH  25  30
ENDBRANCH  23  25
ENDBRANCH   2  23
TORSDOF 28
ENDMDL
MODEL 42
REMARK VINA RESULT:    -5.792      2.915      6.366
REMARK INTER + INTRA:         -22.234
REMARK INTER:                 -16.696
REMARK INTRA:                  -5.538
REMARK UNBOUND:                -7.807
REMARK SMILES CCCCCCC[C@H](N)[C@H](O)C(=O)N[C@H](C)C(=O)N(C)[C@H](CC(C)C)C(=O)N[C@@H](Cc1ccc(O)cc1)C(=O)N[C@@H](Cc1ccc(O)cc1)C(=O)O
REMARK SMILES IDX 18 1 17 2 15 3 16 4 14 5 12 6 13 7 10 9 11 10 8 12 9 13 7 16
REMARK SMILES IDX 6 17 5 18 4 19 3 20 2 21 1 22 19 23 20 24 21 25 22 26 23 27
REMARK SMILES IDX 24 28 25 29 26 30 27 31 28 32 29 34 30 35 31 36 32 37 37 38
REMARK SMILES IDX 33 39 36 40 34 41 35 42 38 44 39 45 40 46 41 48 42 49 43 50
REMARK SMILES IDX 44 51 49 52 45 53 48 54 46 55 47 56 50 58 51 59 52 60
REMARK H PARENT 14 8 11 11 9 14 9 15 28 33 35 43 40 47 47 57 52 61
ROOT
ATOM      1  O   UNL     1      -1.186  -4.986  12.893  1.00  0.00    -0.272 OA
ATOM      2  C   UNL     1      -1.446  -3.897  12.361  1.00  0.00     0.245 C 
ENDROOT
BRANCH   2   3
ATOM      3  C   UNL     1      -2.711  -3.131  12.821  1.00  0.00     0.168 C 
ATOM      4  C   UNL     1      -2.448  -2.381  14.123  1.00  0.00     0.041 C 
BRANCH   3   5
ATOM      5  N   UNL     1      -3.305  -2.269  11.811  1.00  0.00    -0.342 N 
ATOM      6  C   UNL     1      -4.174  -1.251  12.141  1.00  0.00     0.251 C 
ATOM      7  O   UNL     1      -4.541  -1.021  13.289  1.00  0.00    -0.272 OA
ATOM      8  H   UNL     1      -3.103  -2.386  10.820  1.00  0.00     0.164 HD
BRANCH   6   9
ATOM      9  C   UNL     1      -4.562  -0.384  10.933  1.00  0.00     0.219 C 
BRANCH   9  10
ATOM     10  O   UNL     1      -3.429   0.011  10.149  1.00  0.00    -0.382 OA
ATOM     11  H   UNL     1      -3.569  -0.450   9.293  1.00  0.00     0.211 HD
ENDBRANCH   9  10
BRANCH   9  12
ATOM     12  C   UNL     1      -5.649  -1.037  10.039  1.00  0.00     0.089 C 
BRANCH  12  13
ATOM     13  N   UNL     1      -6.575  -1.798  10.910  1.00  0.00    -0.325 NA
ATOM     14  H   UNL     1      -6.169  -2.713  11.114  1.00  0.00     0.119 HD
ATOM     15  H   UNL     1      -7.432  -1.996  10.388  1.00  0.00     0.119 HD
ENDBRANCH  12  13
BRANCH  12  16
ATOM     16  C   UNL     1      -6.447  -0.074   9.128  1.00  0.00     0.022 C 
BRANCH  16  17
ATOM     17  C   UNL     1      -7.848  -0.483   8.655  1.00  0.00     0.002 C 
BRANCH  17  18
ATOM     18  C   UNL     1      -8.905   0.617   8.744  1.00  0.00     0.000 C 
BRANCH  18  19
ATOM     19  C   UNL     1      -9.018   1.263  10.131  1.00  0.00    -0.000 C 
BRANCH  19  20
ATOM     20  C   UNL     1      -9.513   0.333  11.243  1.00  0.00    -0.000 C 
BRANCH  20  21
ATOM     21  C   UNL     1     -10.743  -0.484  10.839  1.00  0.00    -0.003 C 
ATOM     22  C   UNL     1     -10.674  -1.899  11.390  1.00  0.00     0.004 C 
ENDBRANCH  20  21
ENDBRANCH  19  20
ENDBRANCH  18  19
ENDBRANCH  17  18
ENDBRANCH  16  17
ENDBRANCH  12  16
ENDBRANCH   9  12
ENDBRANCH   6   9
ENDBRANCH   3   5
ENDBRANCH   2   3
BRANCH   2  23
ATOM     23  N   UNL     1      -0.548  -3.329  11.463  1.00  0.00    -0.332 N 
ATOM     24  C   UNL     1       0.492  -2.378  11.825  1.00  0.00     0.147 C 
BRANCH  23  25
ATOM     25  C   UNL     1      -0.521  -3.778  10.044  1.00  0.00     0.174 C 
BRANCH  25  26
ATOM     26  C   UNL     1       0.730  -3.284   9.280  1.00  0.00     0.038 C 
BRANCH  26  27
ATOM     27  C   UNL     1       1.602  -4.359   8.594  1.00  0.00    -0.015 C 
ATOM     28  C   UNL     1       0.841  -5.125   7.512  1.00  0.00     0.007 C 
ATOM     29  C   UNL     1       2.916  -3.813   8.042  1.00  0.00     0.007 C 
ENDBRANCH  26  27
ENDBRANCH  25  26
BRANCH  25  30
ATOM     30  C   UNL     1      -1.855  -3.424   9.348  1.00  0.00     0.243 C 
ATOM     31  O   UNL     1      -2.106  -2.281   8.968  1.00  0.00    -0.273 OA
ATOM     32  N   UNL     1      -2.735  -4.463   9.189  1.00  0.00    -0.342 N 
ATOM     33  H   UNL     1      -2.399  -5.406   9.400  1.00  0.00     0.164 HD
BRANCH  32  34
ATOM     34  C   UNL     1      -4.057  -4.307   8.576  1.00  0.00     0.175 C 
BRANCH  34  35
ATOM     35  C   UNL     1      -4.106  -4.951   7.182  1.00  0.00     0.070 C 
BRANCH  35  36
ATOM     36  C   UNL     1      -4.799  -4.080   6.159  1.00  0.00    -0.045 A 
ATOM     37  C   UNL     1      -5.670  -3.063   6.578  1.00  0.00     0.007 A 
ATOM     38  C   UNL     1      -4.602  -4.287   4.787  1.00  0.00     0.007 A 
ATOM     39  C   UNL     1      -6.325  -2.263   5.641  1.00  0.00     0.046 A 
ATOM     40  C   UNL     1      -5.259  -3.487   3.848  1.00  0.00     0.046 A 
ATOM     41  C   UNL     1      -6.114  -2.480   4.285  1.00  0.00     0.115 A 
BRANCH  41  42
ATOM     42  O   UNL     1      -6.775  -1.678   3.402  1.00  0.00    -0.508 OA
ATOM     43  H   UNL     1      -7.604  -1.388   3.817  1.00  0.00     0.293 HD
ENDBRANCH  41  42
ENDBRANCH  35  36
ENDBRANCH  34  35
BRANCH  34  44
ATOM     44  C   UNL     1      -5.104  -4.921   9.532  1.00  0.00     0.243 C 
ATOM     45  O   UNL     1      -5.328  -4.514  10.669  1.00  0.00    -0.273 OA
ATOM     46  N   UNL     1      -5.689  -6.069   9.042  1.00  0.00    -0.341 N 
ATOM     47  H   UNL     1      -5.384  -6.433   8.142  1.00  0.00     0.164 HD
BRANCH  46  48
ATOM     48  C   UNL     1      -6.660  -6.865   9.797  1.00  0.00     0.196 C 
BRANCH  48  49
ATOM     49  C   UNL     1      -7.899  -7.191   8.946  1.00  0.00     0.072 C 
BRANCH  49  50
ATOM     50  C   UNL     1      -7.623  -7.109   7.461  1.00  0.00    -0.045 A 
ATOM     51  C   UNL     1      -8.028  -5.979   6.736  1.00  0.00     0.007 A 
ATOM     52  C   UNL     1      -6.984  -8.158   6.788  1.00  0.00     0.007 A 
ATOM     53  C   UNL     1      -7.791  -5.898   5.364  1.00  0.00     0.046 A 
ATOM     54  C   UNL     1      -6.748  -8.077   5.414  1.00  0.00     0.046 A 
ATOM     55  C   UNL     1      -7.153  -6.946   4.713  1.00  0.00     0.115 A 
BRANCH  55  56
ATOM     56  O   UNL     1      -6.941  -6.829   3.371  1.00  0.00    -0.508 OA
ATOM     57  H   UNL     1      -5.987  -6.744   3.218  1.00  0.00     0.293 HD
ENDBRANCH  55  56
ENDBRANCH  49  50
ENDBRANCH  48  49
BRANCH  48  58
ATOM     58  C   UNL     1      -5.991  -8.169  10.252  1.00  0.00     0.326 C 
ATOM     59  O   UNL     1      -5.069  -8.756   9.709  1.00  0.00    -0.250 OA
BRANCH  58  60
ATOM     60  O   UNL     1      -6.513  -8.673  11.399  1.00  0.00    -0.480 OA
ATOM     61  H   UNL     1      -6.261  -9.621  11.364  1.00  0.00     0.296 HD
ENDBRANCH  58  60
ENDBRANCH  48  58
ENDBRANCH  46  48
ENDBRANCH  34  44
ENDBRANCH  32  34
ENDBRANCH  25  30
ENDBRANCH  23  25
ENDBRANCH   2  23
TORSDOF 28
ENDMDL
MODEL 43
REMARK VINA RESULT:    -5.749      2.267      6.251
REMARK INTER + INTRA:         -22.125
REMARK INTER:                 -17.278
REMARK INTRA:                  -4.848
REMARK UNBOUND:                -7.807
REMARK SMILES CCCCCCC[C@H](N)[C@H](O)C(=O)N[C@H](C)C(=O)N(C)[C@H](CC(C)C)C(=O)N[C@@H](Cc1ccc(O)cc1)C(=O)N[C@@H](Cc1ccc(O)cc1)C(=O)O
REMARK SMILES IDX 18 1 17 2 15 3 16 4 14 5 12 6 13 7 10 9 11 10 8 12 9 13 7 16
REMARK SMILES IDX 6 17 5 18 4 19 3 20 2 21 1 22 19 23 20 24 21 25 22 26 23 27
REMARK SMILES IDX 24 28 25 29 26 30 27 31 28 32 29 34 30 35 31 36 32 37 37 38
REMARK SMILES IDX 33 39 36 40 34 41 35 42 38 44 39 45 40 46 41 48 42 49 43 50
REMARK SMILES IDX 44 51 49 52 45 53 48 54 46 55 47 56 50 58 51 59 52 60
REMARK H PARENT 14 8 11 11 9 14 9 15 28 33 35 43 40 47 47 57 52 61
ROOT
ATOM      1  O   UNL     1      -3.085  -2.060   8.591  1.00  0.00    -0.272 OA
ATOM      2  C   UNL     1      -4.239  -1.648   8.402  1.00  0.00     0.245 C 
ENDROOT
BRANCH   2   3
ATOM      3  C   UNL     1      -4.903  -1.908   7.028  1.00  0.00     0.168 C 
ATOM      4  C   UNL     1      -4.959  -0.628   6.202  1.00  0.00     0.041 C 
BRANCH   3   5
ATOM      5  N   UNL     1      -4.335  -3.015   6.274  1.00  0.00    -0.342 N 
ATOM      6  C   UNL     1      -4.737  -4.318   6.480  1.00  0.00     0.251 C 
ATOM      7  O   UNL     1      -5.560  -4.646   7.328  1.00  0.00    -0.272 OA
ATOM      8  H   UNL     1      -3.618  -2.870   5.567  1.00  0.00     0.164 HD
BRANCH   6   9
ATOM      9  C   UNL     1      -4.109  -5.299   5.477  1.00  0.00     0.219 C 
BRANCH   9  10
ATOM     10  O   UNL     1      -3.024  -6.047   6.040  1.00  0.00    -0.382 OA
ATOM     11  H   UNL     1      -2.897  -5.638   6.925  1.00  0.00     0.211 HD
ENDBRANCH   9  10
BRANCH   9  12
ATOM     12  C   UNL     1      -5.147  -6.245   4.819  1.00  0.00     0.089 C 
BRANCH  12  13
ATOM     13  N   UNL     1      -5.744  -7.092   5.877  1.00  0.00    -0.325 NA
ATOM     14  H   UNL     1      -5.232  -6.949   6.750  1.00  0.00     0.119 HD
ATOM     15  H   UNL     1      -5.596  -8.075   5.638  1.00  0.00     0.119 HD
ENDBRANCH  12  13
BRANCH  12  16
ATOM     16  C   UNL     1      -6.262  -5.559   3.994  1.00  0.00     0.022 C 
BRANCH  16  17
ATOM     17  C   UNL     1      -5.885  -4.442   3.011  1.00  0.00     0.002 C 
BRANCH  17  18
ATOM     18  C   UNL     1      -6.322  -3.040   3.431  1.00  0.00     0.000 C 
BRANCH  18  19
ATOM     19  C   UNL     1      -5.596  -1.911   2.687  1.00  0.00    -0.000 C 
BRANCH  19  20
ATOM     20  C   UNL     1      -6.460  -1.125   1.697  1.00  0.00    -0.000 C 
BRANCH  20  21
ATOM     21  C   UNL     1      -6.659   0.338   2.105  1.00  0.00    -0.003 C 
ATOM     22  C   UNL     1      -5.575   0.798   3.066  1.00  0.00     0.004 C 
ENDBRANCH  20  21
ENDBRANCH  19  20
ENDBRANCH  18  19
ENDBRANCH  17  18
ENDBRANCH  16  17
ENDBRANCH  12  16
ENDBRANCH   9  12
ENDBRANCH   6   9
ENDBRANCH   3   5
ENDBRANCH   2   3
BRANCH   2  23
ATOM     23  N   UNL     1      -4.953  -1.076   9.450  1.00  0.00    -0.332 N 
ATOM     24  C   UNL     1      -4.414  -0.091  10.377  1.00  0.00     0.147 C 
BRANCH  23  25
ATOM     25  C   UNL     1      -6.406  -1.358   9.611  1.00  0.00     0.174 C 
BRANCH  25  26
ATOM     26  C   UNL     1      -7.171  -0.204  10.301  1.00  0.00     0.038 C 
BRANCH  26  27
ATOM     27  C   UNL     1      -8.448   0.308   9.598  1.00  0.00    -0.015 C 
ATOM     28  C   UNL     1      -8.674   1.804   9.814  1.00  0.00     0.007 C 
ATOM     29  C   UNL     1      -8.501  -0.033   8.111  1.00  0.00     0.007 C 
ENDBRANCH  26  27
ENDBRANCH  25  26
BRANCH  25  30
ATOM     30  C   UNL     1      -6.609  -2.732  10.290  1.00  0.00     0.243 C 
ATOM     31  O   UNL     1      -5.697  -3.305  10.884  1.00  0.00    -0.273 OA
ATOM     32  N   UNL     1      -7.866  -3.268  10.179  1.00  0.00    -0.342 N 
ATOM     33  H   UNL     1      -8.604  -2.672   9.795  1.00  0.00     0.164 HD
BRANCH  32  34
ATOM     34  C   UNL     1      -8.233  -4.573  10.736  1.00  0.00     0.175 C 
BRANCH  34  35
ATOM     35  C   UNL     1      -9.735  -4.643  11.053  1.00  0.00     0.070 C 
BRANCH  35  36
ATOM     36  C   UNL     1     -10.269  -3.356  11.641  1.00  0.00    -0.045 A 
ATOM     37  C   UNL     1     -10.759  -2.349  10.796  1.00  0.00     0.007 A 
ATOM     38  C   UNL     1     -10.263  -3.141  13.025  1.00  0.00     0.007 A 
ATOM     39  C   UNL     1     -11.241  -1.153  11.328  1.00  0.00     0.046 A 
ATOM     40  C   UNL     1     -10.745  -1.944  13.559  1.00  0.00     0.046 A 
ATOM     41  C   UNL     1     -11.231  -0.960  12.704  1.00  0.00     0.115 A 
BRANCH  41  42
ATOM     42  O   UNL     1     -11.708   0.224  13.183  1.00  0.00    -0.508 OA
ATOM     43  H   UNL     1     -11.500   0.920  12.538  1.00  0.00     0.293 HD
ENDBRANCH  41  42
ENDBRANCH  35  36
ENDBRANCH  34  35
BRANCH  34  44
ATOM     44  C   UNL     1      -7.805  -5.662   9.727  1.00  0.00     0.243 C 
ATOM     45  O   UNL     1      -8.403  -5.918   8.686  1.00  0.00    -0.273 OA
ATOM     46  N   UNL     1      -6.744  -6.428  10.164  1.00  0.00    -0.341 N 
ATOM     47  H   UNL     1      -6.355  -6.253  11.087  1.00  0.00     0.164 HD
BRANCH  46  48
ATOM     48  C   UNL     1      -6.205  -7.562   9.410  1.00  0.00     0.196 C 
BRANCH  48  49
ATOM     49  C   UNL     1      -5.148  -8.325  10.226  1.00  0.00     0.072 C 
BRANCH  49  50
ATOM     50  C   UNL     1      -3.854  -7.556  10.366  1.00  0.00    -0.045 A 
ATOM     51  C   UNL     1      -3.035  -7.764  11.485  1.00  0.00     0.007 A 
ATOM     52  C   UNL     1      -3.467  -6.616   9.402  1.00  0.00     0.007 A 
ATOM     53  C   UNL     1      -1.845  -7.050  11.632  1.00  0.00     0.046 A 
ATOM     54  C   UNL     1      -2.276  -5.900   9.550  1.00  0.00     0.046 A 
ATOM     55  C   UNL     1      -1.475  -6.125  10.664  1.00  0.00     0.115 A 
BRANCH  55  56
ATOM     56  O   UNL     1      -0.306  -5.446  10.845  1.00  0.00    -0.508 OA
ATOM     57  H   UNL     1       0.371  -5.845  10.275  1.00  0.00     0.293 HD
ENDBRANCH  55  56
ENDBRANCH  49  50
ENDBRANCH  48  49
BRANCH  48  58
ATOM     58  C   UNL     1      -7.356  -8.510   9.044  1.00  0.00     0.326 C 
ATOM     59  O   UNL     1      -8.030  -9.183   9.807  1.00  0.00    -0.250 OA
BRANCH  58  60
ATOM     60  O   UNL     1      -7.617  -8.556   7.713  1.00  0.00    -0.480 OA
ATOM     61  H   UNL     1      -7.220  -9.410   7.434  1.00  0.00     0.296 HD
ENDBRANCH  58  60
ENDBRANCH  48  58
ENDBRANCH  46  48
ENDBRANCH  34  44
ENDBRANCH  32  34
ENDBRANCH  25  30
ENDBRANCH  23  25
ENDBRANCH   2  23
TORSDOF 28
ENDMDL
MODEL 44
REMARK VINA RESULT:    -5.736      2.098      5.913
REMARK INTER + INTRA:         -22.092
REMARK INTER:                 -15.468
REMARK INTRA:                  -6.625
REMARK UNBOUND:                -7.807
REMARK SMILES CCCCCCC[C@H](N)[C@H](O)C(=O)N[C@H](C)C(=O)N(C)[C@H](CC(C)C)C(=O)N[C@@H](Cc1ccc(O)cc1)C(=O)N[C@@H](Cc1ccc(O)cc1)C(=O)O
REMARK SMILES IDX 18 1 17 2 15 3 16 4 14 5 12 6 13 7 10 9 11 10 8 12 9 13 7 16
REMARK SMILES IDX 6 17 5 18 4 19 3 20 2 21 1 22 19 23 20 24 21 25 22 26 23 27
REMARK SMILES IDX 24 28 25 29 26 30 27 31 28 32 29 34 30 35 31 36 32 37 37 38
REMARK SMILES IDX 33 39 36 40 34 41 35 42 38 44 39 45 40 46 41 48 42 49 43 50
REMARK SMILES IDX 44 51 49 52 45 53 48 54 46 55 47 56 50 58 51 59 52 60
REMARK H PARENT 14 8 11 11 9 14 9 15 28 33 35 43 40 47 47 57 52 61
ROOT
ATOM      1  O   UNL     1      -8.891  -5.357   8.576  1.00  0.00    -0.272 OA
ATOM      2  C   UNL     1      -8.596  -5.897   9.652  1.00  0.00     0.245 C 
ENDROOT
BRANCH   2   3
ATOM      3  C   UNL     1      -9.321  -5.428  10.939  1.00  0.00     0.168 C 
ATOM      4  C   UNL     1      -8.752  -6.131  12.167  1.00  0.00     0.041 C 
BRANCH   3   5
ATOM      5  N   UNL     1      -9.377  -3.986  11.118  1.00  0.00    -0.342 N 
ATOM      6  C   UNL     1     -10.537  -3.271  10.907  1.00  0.00     0.251 C 
ATOM      7  O   UNL     1     -11.583  -3.779  10.519  1.00  0.00    -0.272 OA
ATOM      8  H   UNL     1      -8.562  -3.449  11.405  1.00  0.00     0.164 HD
BRANCH   6   9
ATOM      9  C   UNL     1     -10.400  -1.789  11.293  1.00  0.00     0.219 C 
BRANCH   9  10
ATOM     10  O   UNL     1     -11.088  -0.917  10.388  1.00  0.00    -0.382 OA
ATOM     11  H   UNL     1     -10.561  -0.980   9.561  1.00  0.00     0.211 HD
ENDBRANCH   9  10
BRANCH   9  12
ATOM     12  C   UNL     1     -10.816  -1.501  12.759  1.00  0.00     0.089 C 
BRANCH  12  13
ATOM     13  N   UNL     1     -11.612  -2.647  13.253  1.00  0.00    -0.325 NA
ATOM     14  H   UNL     1     -12.336  -2.873  12.568  1.00  0.00     0.119 HD
ATOM     15  H   UNL     1     -12.120  -2.360  14.093  1.00  0.00     0.119 HD
ENDBRANCH  12  13
BRANCH  12  16
ATOM     16  C   UNL     1      -9.662  -1.192  13.743  1.00  0.00     0.022 C 
BRANCH  16  17
ATOM     17  C   UNL     1      -8.228  -1.584  13.360  1.00  0.00     0.002 C 
BRANCH  17  18
ATOM     18  C   UNL     1      -7.662  -2.782  14.119  1.00  0.00     0.000 C 
BRANCH  18  19
ATOM     19  C   UNL     1      -6.432  -3.416  13.457  1.00  0.00    -0.000 C 
BRANCH  19  20
ATOM     20  C   UNL     1      -5.768  -2.566  12.370  1.00  0.00    -0.000 C 
BRANCH  20  21
ATOM     21  C   UNL     1      -4.304  -2.239  12.675  1.00  0.00    -0.003 C 
ATOM     22  C   UNL     1      -3.680  -3.286  13.585  1.00  0.00     0.004 C 
ENDBRANCH  20  21
ENDBRANCH  19  20
ENDBRANCH  18  19
ENDBRANCH  17  18
ENDBRANCH  16  17
ENDBRANCH  12  16
ENDBRANCH   9  12
ENDBRANCH   6   9
ENDBRANCH   3   5
ENDBRANCH   2   3
BRANCH   2  23
ATOM     23  N   UNL     1      -7.725  -6.981   9.671  1.00  0.00    -0.332 N 
ATOM     24  C   UNL     1      -8.141  -8.373   9.764  1.00  0.00     0.147 C 
BRANCH  23  25
ATOM     25  C   UNL     1      -6.266  -6.775   9.463  1.00  0.00     0.174 C 
BRANCH  25  26
ATOM     26  C   UNL     1      -5.673  -5.687  10.388  1.00  0.00     0.038 C 
BRANCH  26  27
ATOM     27  C   UNL     1      -4.556  -6.127  11.361  1.00  0.00    -0.015 C 
ATOM     28  C   UNL     1      -5.105  -6.839  12.597  1.00  0.00     0.007 C 
ATOM     29  C   UNL     1      -3.467  -6.965  10.697  1.00  0.00     0.007 C 
ENDBRANCH  26  27
ENDBRANCH  25  26
BRANCH  25  30
ATOM     30  C   UNL     1      -5.969  -6.545   7.963  1.00  0.00     0.243 C 
ATOM     31  O   UNL     1      -5.945  -7.473   7.156  1.00  0.00    -0.273 OA
ATOM     32  N   UNL     1      -5.732  -5.245   7.598  1.00  0.00    -0.342 N 
ATOM     33  H   UNL     1      -5.909  -4.518   8.295  1.00  0.00     0.164 HD
BRANCH  32  34
ATOM     34  C   UNL     1      -5.408  -4.844   6.226  1.00  0.00     0.175 C 
BRANCH  34  35
ATOM     35  C   UNL     1      -6.561  -4.055   5.588  1.00  0.00     0.070 C 
BRANCH  35  36
ATOM     36  C   UNL     1      -6.253  -3.611   4.175  1.00  0.00    -0.045 A 
ATOM     37  C   UNL     1      -6.362  -2.256   3.827  1.00  0.00     0.007 A 
ATOM     38  C   UNL     1      -5.881  -4.539   3.194  1.00  0.00     0.007 A 
ATOM     39  C   UNL     1      -6.094  -1.838   2.523  1.00  0.00     0.046 A 
ATOM     40  C   UNL     1      -5.613  -4.122   1.888  1.00  0.00     0.046 A 
ATOM     41  C   UNL     1      -5.721  -2.773   1.565  1.00  0.00     0.115 A 
BRANCH  41  42
ATOM     42  O   UNL     1      -5.471  -2.324   0.302  1.00  0.00    -0.508 OA
ATOM     43  H   UNL     1      -4.576  -1.947   0.285  1.00  0.00     0.293 HD
ENDBRANCH  41  42
ENDBRANCH  35  36
ENDBRANCH  34  35
BRANCH  34  44
ATOM     44  C   UNL     1      -4.098  -4.025   6.264  1.00  0.00     0.243 C 
ATOM     45  O   UNL     1      -3.104  -4.273   5.587  1.00  0.00    -0.273 OA
ATOM     46  N   UNL     1      -4.091  -3.046   7.236  1.00  0.00    -0.341 N 
ATOM     47  H   UNL     1      -4.895  -2.955   7.851  1.00  0.00     0.164 HD
BRANCH  46  48
ATOM     48  C   UNL     1      -2.935  -2.188   7.506  1.00  0.00     0.196 C 
BRANCH  48  49
ATOM     49  C   UNL     1      -3.360  -0.723   7.702  1.00  0.00     0.072 C 
BRANCH  49  50
ATOM     50  C   UNL     1      -4.842  -0.577   7.963  1.00  0.00    -0.045 A 
ATOM     51  C   UNL     1      -5.741  -0.540   6.886  1.00  0.00     0.007 A 
ATOM     52  C   UNL     1      -5.336  -0.455   9.268  1.00  0.00     0.007 A 
ATOM     53  C   UNL     1      -7.109  -0.392   7.114  1.00  0.00     0.046 A 
ATOM     54  C   UNL     1      -6.706  -0.306   9.495  1.00  0.00     0.046 A 
ATOM     55  C   UNL     1      -7.582  -0.277   8.415  1.00  0.00     0.115 A 
BRANCH  55  56
ATOM     56  O   UNL     1      -8.926  -0.132   8.594  1.00  0.00    -0.508 OA
ATOM     57  H   UNL     1      -9.382  -0.580   7.864  1.00  0.00     0.293 HD
ENDBRANCH  55  56
ENDBRANCH  49  50
ENDBRANCH  48  49
BRANCH  48  58
ATOM     58  C   UNL     1      -2.224  -2.691   8.770  1.00  0.00     0.326 C 
ATOM     59  O   UNL     1      -1.063  -2.496   9.092  1.00  0.00    -0.250 OA
BRANCH  58  60
ATOM     60  O   UNL     1      -3.026  -3.417   9.589  1.00  0.00    -0.480 OA
ATOM     61  H   UNL     1      -3.260  -4.198   9.043  1.00  0.00     0.296 HD
ENDBRANCH  58  60
ENDBRANCH  48  58
ENDBRANCH  46  48
ENDBRANCH  34  44
ENDBRANCH  32  34
ENDBRANCH  25  30
ENDBRANCH  23  25
ENDBRANCH   2  23
TORSDOF 28
ENDMDL
MODEL 45
REMARK VINA RESULT:    -5.726      2.540      6.610
REMARK INTER + INTRA:         -22.068
REMARK INTER:                 -17.121
REMARK INTRA:                  -4.947
REMARK UNBOUND:                -7.807
REMARK SMILES CCCCCCC[C@H](N)[C@H](O)C(=O)N[C@H](C)C(=O)N(C)[C@H](CC(C)C)C(=O)N[C@@H](Cc1ccc(O)cc1)C(=O)N[C@@H](Cc1ccc(O)cc1)C(=O)O
REMARK SMILES IDX 18 1 17 2 15 3 16 4 14 5 12 6 13 7 10 9 11 10 8 12 9 13 7 16
REMARK SMILES IDX 6 17 5 18 4 19 3 20 2 21 1 22 19 23 20 24 21 25 22 26 23 27
REMARK SMILES IDX 24 28 25 29 26 30 27 31 28 32 29 34 30 35 31 36 32 37 37 38
REMARK SMILES IDX 33 39 36 40 34 41 35 42 38 44 39 45 40 46 41 48 42 49 43 50
REMARK SMILES IDX 44 51 49 52 45 53 48 54 46 55 47 56 50 58 51 59 52 60
REMARK H PARENT 14 8 11 11 9 14 9 15 28 33 35 43 40 47 47 57 52 61
ROOT
ATOM      1  O   UNL     1      -6.690  -8.242  11.619  1.00  0.00    -0.272 OA
ATOM      2  C   UNL     1      -6.152  -7.286  11.042  1.00  0.00     0.245 C 
ENDROOT
BRANCH   2   3
ATOM      3  C   UNL     1      -6.401  -5.857  11.585  1.00  0.00     0.168 C 
ATOM      4  C   UNL     1      -5.158  -5.320  12.286  1.00  0.00     0.041 C 
BRANCH   3   5
ATOM      5  N   UNL     1      -6.922  -4.914  10.607  1.00  0.00    -0.342 N 
ATOM      6  C   UNL     1      -8.031  -4.136  10.865  1.00  0.00     0.251 C 
ATOM      7  O   UNL     1      -8.679  -4.206  11.904  1.00  0.00    -0.272 OA
ATOM      8  H   UNL     1      -6.488  -4.793   9.695  1.00  0.00     0.164 HD
BRANCH   6   9
ATOM      9  C   UNL     1      -8.313  -3.115   9.751  1.00  0.00     0.219 C 
BRANCH   9  10
ATOM     10  O   UNL     1      -9.673  -3.149   9.303  1.00  0.00    -0.382 OA
ATOM     11  H   UNL     1      -9.702  -2.460   8.602  1.00  0.00     0.211 HD
ENDBRANCH   9  10
BRANCH   9  12
ATOM     12  C   UNL     1      -7.892  -1.671  10.128  1.00  0.00     0.089 C 
BRANCH  12  13
ATOM     13  N   UNL     1      -8.598  -1.288  11.372  1.00  0.00    -0.325 NA
ATOM     14  H   UNL     1      -9.125  -0.427  11.208  1.00  0.00     0.119 HD
ATOM     15  H   UNL     1      -7.906  -1.045  12.084  1.00  0.00     0.119 HD
ENDBRANCH  12  13
BRANCH  12  16
ATOM     16  C   UNL     1      -6.372  -1.426  10.283  1.00  0.00     0.022 C 
BRANCH  16  17
ATOM     17  C   UNL     1      -5.749  -1.460  11.685  1.00  0.00     0.002 C 
BRANCH  17  18
ATOM     18  C   UNL     1      -4.233  -1.282  11.721  1.00  0.00     0.000 C 
BRANCH  18  19
ATOM     19  C   UNL     1      -3.661  -0.547  10.502  1.00  0.00    -0.000 C 
BRANCH  19  20
ATOM     20  C   UNL     1      -2.279  -1.024  10.045  1.00  0.00    -0.000 C 
BRANCH  20  21
ATOM     21  C   UNL     1      -1.524  -1.800  11.128  1.00  0.00    -0.003 C 
ATOM     22  C   UNL     1      -0.111  -1.268  11.309  1.00  0.00     0.004 C 
ENDBRANCH  20  21
ENDBRANCH  19  20
ENDBRANCH  18  19
ENDBRANCH  17  18
ENDBRANCH  16  17
ENDBRANCH  12  16
ENDBRANCH   9  12
ENDBRANCH   6   9
ENDBRANCH   3   5
ENDBRANCH   2   3
BRANCH   2  23
ATOM     23  N   UNL     1      -5.249  -7.516  10.009  1.00  0.00    -0.332 N 
ATOM     24  C   UNL     1      -4.130  -8.443  10.081  1.00  0.00     0.147 C 
BRANCH  23  25
ATOM     25  C   UNL     1      -5.462  -6.894   8.673  1.00  0.00     0.174 C 
BRANCH  25  26
ATOM     26  C   UNL     1      -6.078  -7.872   7.645  1.00  0.00     0.038 C 
BRANCH  26  27
ATOM     27  C   UNL     1      -7.280  -7.357   6.822  1.00  0.00    -0.015 C 
ATOM     28  C   UNL     1      -8.157  -6.387   7.613  1.00  0.00     0.007 C 
ATOM     29  C   UNL     1      -6.882  -6.748   5.480  1.00  0.00     0.007 C 
ENDBRANCH  26  27
ENDBRANCH  25  26
BRANCH  25  30
ATOM     30  C   UNL     1      -4.159  -6.219   8.186  1.00  0.00     0.243 C 
ATOM     31  O   UNL     1      -3.585  -6.580   7.160  1.00  0.00    -0.273 OA
ATOM     32  N   UNL     1      -3.687  -5.202   8.976  1.00  0.00    -0.342 N 
ATOM     33  H   UNL     1      -4.292  -4.868   9.730  1.00  0.00     0.164 HD
BRANCH  32  34
ATOM     34  C   UNL     1      -2.453  -4.468   8.684  1.00  0.00     0.175 C 
BRANCH  34  35
ATOM     35  C   UNL     1      -1.255  -5.421   8.550  1.00  0.00     0.070 C 
BRANCH  35  36
ATOM     36  C   UNL     1      -0.024  -4.918   9.269  1.00  0.00    -0.045 A 
ATOM     37  C   UNL     1       0.939  -4.171   8.573  1.00  0.00     0.007 A 
ATOM     38  C   UNL     1       0.185  -5.206  10.624  1.00  0.00     0.007 A 
ATOM     39  C   UNL     1       2.085  -3.714   9.224  1.00  0.00     0.046 A 
ATOM     40  C   UNL     1       1.333  -4.750  11.276  1.00  0.00     0.046 A 
ATOM     41  C   UNL     1       2.273  -4.006  10.570  1.00  0.00     0.115 A 
BRANCH  41  42
ATOM     42  O   UNL     1       3.407  -3.544  11.168  1.00  0.00    -0.508 OA
ATOM     43  H   UNL     1       4.159  -4.066  10.841  1.00  0.00     0.293 HD
ENDBRANCH  41  42
ENDBRANCH  35  36
ENDBRANCH  34  35
BRANCH  34  44
ATOM     44  C   UNL     1      -2.680  -3.641   7.399  1.00  0.00     0.243 C 
ATOM     45  O   UNL     1      -1.781  -3.236   6.667  1.00  0.00    -0.273 OA
ATOM     46  N   UNL     1      -3.996  -3.276   7.207  1.00  0.00    -0.341 N 
ATOM     47  H   UNL     1      -4.688  -3.537   7.905  1.00  0.00     0.164 HD
BRANCH  46  48
ATOM     48  C   UNL     1      -4.444  -2.433   6.096  1.00  0.00     0.196 C 
BRANCH  48  49
ATOM     49  C   UNL     1      -5.717  -2.998   5.443  1.00  0.00     0.072 C 
BRANCH  49  50
ATOM     50  C   UNL     1      -5.666  -2.952   3.933  1.00  0.00    -0.045 A 
ATOM     51  C   UNL     1      -6.068  -1.793   3.255  1.00  0.00     0.007 A 
ATOM     52  C   UNL     1      -5.241  -4.063   3.192  1.00  0.00     0.007 A 
ATOM     53  C   UNL     1      -6.038  -1.743   1.861  1.00  0.00     0.046 A 
ATOM     54  C   UNL     1      -5.212  -4.014   1.797  1.00  0.00     0.046 A 
ATOM     55  C   UNL     1      -5.610  -2.853   1.143  1.00  0.00     0.115 A 
BRANCH  55  56
ATOM     56  O   UNL     1      -5.598  -2.765  -0.218  1.00  0.00    -0.508 OA
ATOM     57  H   UNL     1      -4.678  -2.835  -0.520  1.00  0.00     0.293 HD
ENDBRANCH  55  56
ENDBRANCH  49  50
ENDBRANCH  48  49
BRANCH  48  58
ATOM     58  C   UNL     1      -4.719  -1.018   6.622  1.00  0.00     0.326 C 
ATOM     59  O   UNL     1      -3.900  -0.143   6.851  1.00  0.00    -0.250 OA
BRANCH  58  60
ATOM     60  O   UNL     1      -6.036  -0.762   6.823  1.00  0.00    -0.480 OA
ATOM     61  H   UNL     1      -6.075  -0.509   7.771  1.00  0.00     0.296 HD
ENDBRANCH  58  60
ENDBRANCH  48  58
ENDBRANCH  46  48
ENDBRANCH  34  44
ENDBRANCH  32  34
ENDBRANCH  25  30
ENDBRANCH  23  25
ENDBRANCH   2  23
TORSDOF 28
ENDMDL
MODEL 46
REMARK VINA RESULT:    -5.679      2.508      8.135
REMARK INTER + INTRA:         -21.953
REMARK INTER:                 -15.612
REMARK INTRA:                  -6.341
REMARK UNBOUND:                -7.807
REMARK SMILES CCCCCCC[C@H](N)[C@H](O)C(=O)N[C@H](C)C(=O)N(C)[C@H](CC(C)C)C(=O)N[C@@H](Cc1ccc(O)cc1)C(=O)N[C@@H](Cc1ccc(O)cc1)C(=O)O
REMARK SMILES IDX 18 1 17 2 15 3 16 4 14 5 12 6 13 7 10 9 11 10 8 12 9 13 7 16
REMARK SMILES IDX 6 17 5 18 4 19 3 20 2 21 1 22 19 23 20 24 21 25 22 26 23 27
REMARK SMILES IDX 24 28 25 29 26 30 27 31 28 32 29 34 30 35 31 36 32 37 37 38
REMARK SMILES IDX 33 39 36 40 34 41 35 42 38 44 39 45 40 46 41 48 42 49 43 50
REMARK SMILES IDX 44 51 49 52 45 53 48 54 46 55 47 56 50 58 51 59 52 60
REMARK H PARENT 14 8 11 11 9 14 9 15 28 33 35 43 40 47 47 57 52 61
ROOT
ATOM      1  O   UNL     1      -5.252  -6.027   5.006  1.00  0.00    -0.272 OA
ATOM      2  C   UNL     1      -4.464  -5.072   5.071  1.00  0.00     0.245 C 
ENDROOT
BRANCH   2   3
ATOM      3  C   UNL     1      -4.815  -3.770   4.309  1.00  0.00     0.168 C 
ATOM      4  C   UNL     1      -5.335  -4.084   2.911  1.00  0.00     0.041 C 
BRANCH   3   5
ATOM      5  N   UNL     1      -5.698  -2.862   5.024  1.00  0.00    -0.342 N 
ATOM      6  C   UNL     1      -5.211  -1.889   5.871  1.00  0.00     0.251 C 
ATOM      7  O   UNL     1      -4.019  -1.740   6.116  1.00  0.00    -0.272 OA
ATOM      8  H   UNL     1      -6.710  -2.911   4.928  1.00  0.00     0.164 HD
BRANCH   6   9
ATOM      9  C   UNL     1      -6.313  -0.959   6.404  1.00  0.00     0.219 C 
BRANCH   9  10
ATOM     10  O   UNL     1      -7.082  -0.356   5.356  1.00  0.00    -0.382 OA
ATOM     11  H   UNL     1      -7.676  -1.080   5.060  1.00  0.00     0.211 HD
ENDBRANCH   9  10
BRANCH   9  12
ATOM     12  C   UNL     1      -7.239  -1.644   7.442  1.00  0.00     0.089 C 
BRANCH  12  13
ATOM     13  N   UNL     1      -6.682  -2.980   7.756  1.00  0.00    -0.325 NA
ATOM     14  H   UNL     1      -6.764  -3.580   6.933  1.00  0.00     0.119 HD
ATOM     15  H   UNL     1      -7.266  -3.423   8.468  1.00  0.00     0.119 HD
ENDBRANCH  12  13
BRANCH  12  16
ATOM     16  C   UNL     1      -7.495  -0.855   8.748  1.00  0.00     0.022 C 
BRANCH  16  17
ATOM     17  C   UNL     1      -8.810  -0.079   8.906  1.00  0.00     0.002 C 
BRANCH  17  18
ATOM     18  C   UNL     1      -8.759   1.082   9.898  1.00  0.00     0.000 C 
BRANCH  18  19
ATOM     19  C   UNL     1      -9.412   0.776  11.252  1.00  0.00    -0.000 C 
BRANCH  19  20
ATOM     20  C   UNL     1     -10.242  -0.511  11.297  1.00  0.00    -0.000 C 
BRANCH  20  21
ATOM     21  C   UNL     1     -10.174  -1.220  12.653  1.00  0.00    -0.003 C 
ATOM     22  C   UNL     1     -11.046  -2.466  12.671  1.00  0.00     0.004 C 
ENDBRANCH  20  21
ENDBRANCH  19  20
ENDBRANCH  18  19
ENDBRANCH  17  18
ENDBRANCH  16  17
ENDBRANCH  12  16
ENDBRANCH   9  12
ENDBRANCH   6   9
ENDBRANCH   3   5
ENDBRANCH   2   3
BRANCH   2  23
ATOM     23  N   UNL     1      -3.358  -5.138   5.911  1.00  0.00    -0.332 N 
ATOM     24  C   UNL     1      -1.984  -5.299   5.458  1.00  0.00     0.147 C 
BRANCH  23  25
ATOM     25  C   UNL     1      -3.512  -4.912   7.375  1.00  0.00     0.174 C 
BRANCH  25  26
ATOM     26  C   UNL     1      -2.339  -4.110   7.987  1.00  0.00     0.038 C 
BRANCH  26  27
ATOM     27  C   UNL     1      -1.561  -4.779   9.142  1.00  0.00    -0.015 C 
ATOM     28  C   UNL     1      -0.194  -5.302   8.701  1.00  0.00     0.007 C 
ATOM     29  C   UNL     1      -1.423  -3.891  10.376  1.00  0.00     0.007 C 
ENDBRANCH  26  27
ENDBRANCH  25  26
BRANCH  25  30
ATOM     30  C   UNL     1      -3.791  -6.251   8.094  1.00  0.00     0.243 C 
ATOM     31  O   UNL     1      -3.572  -7.336   7.556  1.00  0.00    -0.273 OA
ATOM     32  N   UNL     1      -4.302  -6.149   9.362  1.00  0.00    -0.342 N 
ATOM     33  H   UNL     1      -4.322  -5.220   9.791  1.00  0.00     0.164 HD
BRANCH  32  34
ATOM     34  C   UNL     1      -4.652  -7.312  10.182  1.00  0.00     0.175 C 
BRANCH  34  35
ATOM     35  C   UNL     1      -4.452  -7.022  11.678  1.00  0.00     0.070 C 
BRANCH  35  36
ATOM     36  C   UNL     1      -2.994  -6.921  12.064  1.00  0.00    -0.045 A 
ATOM     37  C   UNL     1      -2.042  -7.735  11.432  1.00  0.00     0.007 A 
ATOM     38  C   UNL     1      -2.576  -6.036  13.067  1.00  0.00     0.007 A 
ATOM     39  C   UNL     1      -0.696  -7.659  11.791  1.00  0.00     0.046 A 
ATOM     40  C   UNL     1      -1.228  -5.960  13.428  1.00  0.00     0.046 A 
ATOM     41  C   UNL     1      -0.300  -6.772  12.785  1.00  0.00     0.115 A 
BRANCH  41  42
ATOM     42  O   UNL     1       1.024  -6.730  13.109  1.00  0.00    -0.508 OA
ATOM     43  H   UNL     1       1.192  -7.400  13.792  1.00  0.00     0.293 HD
ENDBRANCH  41  42
ENDBRANCH  35  36
ENDBRANCH  34  35
BRANCH  34  44
ATOM     44  C   UNL     1      -6.112  -7.702   9.859  1.00  0.00     0.243 C 
ATOM     45  O   UNL     1      -6.446  -8.753   9.320  1.00  0.00    -0.273 OA
ATOM     46  N   UNL     1      -7.019  -6.696  10.116  1.00  0.00    -0.341 N 
ATOM     47  H   UNL     1      -6.679  -5.799  10.455  1.00  0.00     0.164 HD
BRANCH  46  48
ATOM     48  C   UNL     1      -8.450  -6.808   9.828  1.00  0.00     0.196 C 
BRANCH  48  49
ATOM     49  C   UNL     1      -9.283  -5.924  10.771  1.00  0.00     0.072 C 
BRANCH  49  50
ATOM     50  C   UNL     1      -8.430  -4.978  11.586  1.00  0.00    -0.045 A 
ATOM     51  C   UNL     1      -8.183  -5.249  12.940  1.00  0.00     0.007 A 
ATOM     52  C   UNL     1      -7.894  -3.817  11.014  1.00  0.00     0.007 A 
ATOM     53  C   UNL     1      -7.409  -4.377  13.705  1.00  0.00     0.046 A 
ATOM     54  C   UNL     1      -7.120  -2.943  11.780  1.00  0.00     0.046 A 
ATOM     55  C   UNL     1      -6.883  -3.231  13.120  1.00  0.00     0.115 A 
BRANCH  55  56
ATOM     56  O   UNL     1      -6.133  -2.404  13.902  1.00  0.00    -0.508 OA
ATOM     57  H   UNL     1      -5.857  -1.643  13.366  1.00  0.00     0.293 HD
ENDBRANCH  55  56
ENDBRANCH  49  50
ENDBRANCH  48  49
BRANCH  48  58
ATOM     58  C   UNL     1      -8.701  -6.387   8.373  1.00  0.00     0.326 C 
ATOM     59  O   UNL     1      -8.902  -5.258   7.954  1.00  0.00    -0.250 OA
BRANCH  58  60
ATOM     60  O   UNL     1      -8.672  -7.423   7.497  1.00  0.00    -0.480 OA
ATOM     61  H   UNL     1      -8.303  -7.019   6.682  1.00  0.00     0.296 HD
ENDBRANCH  58  60
ENDBRANCH  48  58
ENDBRANCH  46  48
ENDBRANCH  34  44
ENDBRANCH  32  34
ENDBRANCH  25  30
ENDBRANCH  23  25
ENDBRANCH   2  23
TORSDOF 28
ENDMDL
MODEL 47
REMARK VINA RESULT:    -5.673      2.479      7.935
REMARK INTER + INTRA:         -21.936
REMARK INTER:                 -15.425
REMARK INTRA:                  -6.511
REMARK UNBOUND:                -7.807
REMARK SMILES CCCCCCC[C@H](N)[C@H](O)C(=O)N[C@H](C)C(=O)N(C)[C@H](CC(C)C)C(=O)N[C@@H](Cc1ccc(O)cc1)C(=O)N[C@@H](Cc1ccc(O)cc1)C(=O)O
REMARK SMILES IDX 18 1 17 2 15 3 16 4 14 5 12 6 13 7 10 9 11 10 8 12 9 13 7 16
REMARK SMILES IDX 6 17 5 18 4 19 3 20 2 21 1 22 19 23 20 24 21 25 22 26 23 27
REMARK SMILES IDX 24 28 25 29 26 30 27 31 28 32 29 34 30 35 31 36 32 37 37 38
REMARK SMILES IDX 33 39 36 40 34 41 35 42 38 44 39 45 40 46 41 48 42 49 43 50
REMARK SMILES IDX 44 51 49 52 45 53 48 54 46 55 47 56 50 58 51 59 52 60
REMARK H PARENT 14 8 11 11 9 14 9 15 28 33 35 43 40 47 47 57 52 61
ROOT
ATOM      1  O   UNL     1      -5.244  -5.860   5.095  1.00  0.00    -0.272 OA
ATOM      2  C   UNL     1      -4.507  -4.865   5.142  1.00  0.00     0.245 C 
ENDROOT
BRANCH   2   3
ATOM      3  C   UNL     1      -5.000  -3.546   4.496  1.00  0.00     0.168 C 
ATOM      4  C   UNL     1      -5.593  -3.807   3.116  1.00  0.00     0.041 C 
BRANCH   3   5
ATOM      5  N   UNL     1      -5.892  -2.754   5.328  1.00  0.00    -0.342 N 
ATOM      6  C   UNL     1      -5.421  -1.762   6.162  1.00  0.00     0.251 C 
ATOM      7  O   UNL     1      -4.230  -1.502   6.298  1.00  0.00    -0.272 OA
ATOM      8  H   UNL     1      -6.899  -2.902   5.327  1.00  0.00     0.164 HD
BRANCH   6   9
ATOM      9  C   UNL     1      -6.550  -0.965   6.834  1.00  0.00     0.219 C 
BRANCH   9  10
ATOM     10  O   UNL     1      -7.309  -0.187   5.901  1.00  0.00    -0.382 OA
ATOM     11  H   UNL     1      -7.884  -0.850   5.460  1.00  0.00     0.211 HD
ENDBRANCH   9  10
BRANCH   9  12
ATOM     12  C   UNL     1      -7.485  -1.847   7.703  1.00  0.00     0.089 C 
BRANCH  12  13
ATOM     13  N   UNL     1      -8.399  -2.587   6.803  1.00  0.00    -0.325 NA
ATOM     14  H   UNL     1      -8.165  -2.368   5.833  1.00  0.00     0.119 HD
ATOM     15  H   UNL     1      -9.350  -2.236   6.935  1.00  0.00     0.119 HD
ENDBRANCH  12  13
BRANCH  12  16
ATOM     16  C   UNL     1      -6.783  -2.828   8.673  1.00  0.00     0.022 C 
BRANCH  16  17
ATOM     17  C   UNL     1      -6.160  -2.283   9.965  1.00  0.00     0.002 C 
BRANCH  17  18
ATOM     18  C   UNL     1      -4.685  -2.628  10.165  1.00  0.00     0.000 C 
BRANCH  18  19
ATOM     19  C   UNL     1      -4.007  -1.839  11.292  1.00  0.00    -0.000 C 
BRANCH  19  20
ATOM     20  C   UNL     1      -2.899  -0.883  10.841  1.00  0.00    -0.000 C 
BRANCH  20  21
ATOM     21  C   UNL     1      -3.272  -0.079   9.593  1.00  0.00    -0.003 C 
ATOM     22  C   UNL     1      -2.040   0.284   8.778  1.00  0.00     0.004 C 
ENDBRANCH  20  21
ENDBRANCH  19  20
ENDBRANCH  18  19
ENDBRANCH  17  18
ENDBRANCH  16  17
ENDBRANCH  12  16
ENDBRANCH   9  12
ENDBRANCH   6   9
ENDBRANCH   3   5
ENDBRANCH   2   3
BRANCH   2  23
ATOM     23  N   UNL     1      -3.321  -4.911   5.868  1.00  0.00    -0.332 N 
ATOM     24  C   UNL     1      -1.996  -5.029   5.279  1.00  0.00     0.147 C 
BRANCH  23  25
ATOM     25  C   UNL     1      -3.335  -4.707   7.343  1.00  0.00     0.174 C 
BRANCH  25  26
ATOM     26  C   UNL     1      -2.105  -3.922   7.854  1.00  0.00     0.038 C 
BRANCH  26  27
ATOM     27  C   UNL     1      -1.262  -4.587   8.965  1.00  0.00    -0.015 C 
ATOM     28  C   UNL     1      -0.076  -5.373   8.408  1.00  0.00     0.007 C 
ATOM     29  C   UNL     1      -0.800  -3.610  10.044  1.00  0.00     0.007 C 
ENDBRANCH  26  27
ENDBRANCH  25  26
BRANCH  25  30
ATOM     30  C   UNL     1      -3.556  -6.056   8.064  1.00  0.00     0.243 C 
ATOM     31  O   UNL     1      -3.173  -7.121   7.583  1.00  0.00    -0.273 OA
ATOM     32  N   UNL     1      -4.210  -5.985   9.268  1.00  0.00    -0.342 N 
ATOM     33  H   UNL     1      -4.369  -5.056   9.666  1.00  0.00     0.164 HD
BRANCH  32  34
ATOM     34  C   UNL     1      -4.529  -7.164  10.077  1.00  0.00     0.175 C 
BRANCH  34  35
ATOM     35  C   UNL     1      -4.289  -6.897  11.571  1.00  0.00     0.070 C 
BRANCH  35  36
ATOM     36  C   UNL     1      -2.821  -6.801  11.920  1.00  0.00    -0.045 A 
ATOM     37  C   UNL     1      -2.358  -5.748  12.724  1.00  0.00     0.007 A 
ATOM     38  C   UNL     1      -1.903  -7.740  11.432  1.00  0.00     0.007 A 
ATOM     39  C   UNL     1      -1.004  -5.643  13.039  1.00  0.00     0.046 A 
ATOM     40  C   UNL     1      -0.546  -7.635  11.747  1.00  0.00     0.046 A 
ATOM     41  C   UNL     1      -0.109  -6.587  12.550  1.00  0.00     0.115 A 
BRANCH  41  42
ATOM     42  O   UNL     1       1.207  -6.446  12.879  1.00  0.00    -0.508 OA
ATOM     43  H   UNL     1       1.371  -6.944  13.697  1.00  0.00     0.293 HD
ENDBRANCH  41  42
ENDBRANCH  35  36
ENDBRANCH  34  35
BRANCH  34  44
ATOM     44  C   UNL     1      -5.995  -7.560   9.789  1.00  0.00     0.243 C 
ATOM     45  O   UNL     1      -6.378  -8.711   9.601  1.00  0.00    -0.273 OA
ATOM     46  N   UNL     1      -6.834  -6.477   9.630  1.00  0.00    -0.341 N 
ATOM     47  H   UNL     1      -6.445  -5.539   9.679  1.00  0.00     0.164 HD
BRANCH  46  48
ATOM     48  C   UNL     1      -8.252  -6.602   9.284  1.00  0.00     0.196 C 
BRANCH  48  49
ATOM     49  C   UNL     1      -9.094  -5.515   9.974  1.00  0.00     0.072 C 
BRANCH  49  50
ATOM     50  C   UNL     1      -9.568  -5.931  11.348  1.00  0.00    -0.045 A 
ATOM     51  C   UNL     1      -9.562  -7.286  11.709  1.00  0.00     0.007 A 
ATOM     52  C   UNL     1     -10.038  -4.983  12.266  1.00  0.00     0.007 A 
ATOM     53  C   UNL     1     -10.009  -7.684  12.968  1.00  0.00     0.046 A 
ATOM     54  C   UNL     1     -10.488  -5.381  13.527  1.00  0.00     0.046 A 
ATOM     55  C   UNL     1     -10.468  -6.729  13.868  1.00  0.00     0.115 A 
BRANCH  55  56
ATOM     56  O   UNL     1     -10.899  -7.159  15.088  1.00  0.00    -0.508 OA
ATOM     57  H   UNL     1     -11.011  -8.122  15.051  1.00  0.00     0.293 HD
ENDBRANCH  55  56
ENDBRANCH  49  50
ENDBRANCH  48  49
BRANCH  48  58
ATOM     58  C   UNL     1      -8.407  -6.484   7.761  1.00  0.00     0.326 C 
ATOM     59  O   UNL     1      -8.724  -5.492   7.125  1.00  0.00    -0.250 OA
BRANCH  58  60
ATOM     60  O   UNL     1      -8.136  -7.637   7.099  1.00  0.00    -0.480 OA
ATOM     61  H   UNL     1      -7.195  -7.807   7.318  1.00  0.00     0.296 HD
ENDBRANCH  58  60
ENDBRANCH  48  58
ENDBRANCH  46  48
ENDBRANCH  34  44
ENDBRANCH  32  34
ENDBRANCH  25  30
ENDBRANCH  23  25
ENDBRANCH   2  23
TORSDOF 28
ENDMDL
MODEL 48
REMARK VINA RESULT:    -5.644      2.585      6.562
REMARK INTER + INTRA:         -21.865
REMARK INTER:                 -16.490
REMARK INTRA:                  -5.375
REMARK UNBOUND:                -7.807
REMARK SMILES CCCCCCC[C@H](N)[C@H](O)C(=O)N[C@H](C)C(=O)N(C)[C@H](CC(C)C)C(=O)N[C@@H](Cc1ccc(O)cc1)C(=O)N[C@@H](Cc1ccc(O)cc1)C(=O)O
REMARK SMILES IDX 18 1 17 2 15 3 16 4 14 5 12 6 13 7 10 9 11 10 8 12 9 13 7 16
REMARK SMILES IDX 6 17 5 18 4 19 3 20 2 21 1 22 19 23 20 24 21 25 22 26 23 27
REMARK SMILES IDX 24 28 25 29 26 30 27 31 28 32 29 34 30 35 31 36 32 37 37 38
REMARK SMILES IDX 33 39 36 40 34 41 35 42 38 44 39 45 40 46 41 48 42 49 43 50
REMARK SMILES IDX 44 51 49 52 45 53 48 54 46 55 47 56 50 58 51 59 52 60
REMARK H PARENT 14 8 11 11 9 14 9 15 28 33 35 43 40 47 47 57 52 61
ROOT
ATOM      1  O   UNL     1      -8.298  -5.504   8.082  1.00  0.00    -0.272 OA
ATOM      2  C   UNL     1      -7.892  -6.609   8.471  1.00  0.00     0.245 C 
ENDROOT
BRANCH   2   3
ATOM      3  C   UNL     1      -8.649  -7.313   9.624  1.00  0.00     0.168 C 
ATOM      4  C   UNL     1      -8.121  -8.728   9.835  1.00  0.00     0.041 C 
BRANCH   3   5
ATOM      5  N   UNL     1      -8.700  -6.563  10.869  1.00  0.00    -0.342 N 
ATOM      6  C   UNL     1      -9.799  -5.807  11.219  1.00  0.00     0.251 C 
ATOM      7  O   UNL     1     -10.786  -5.675  10.502  1.00  0.00    -0.272 OA
ATOM      8  H   UNL     1      -7.927  -6.566  11.530  1.00  0.00     0.164 HD
BRANCH   6   9
ATOM      9  C   UNL     1      -9.690  -5.219  12.635  1.00  0.00     0.219 C 
BRANCH   9  10
ATOM     10  O   UNL     1     -10.665  -4.200  12.887  1.00  0.00    -0.382 OA
ATOM     11  H   UNL     1     -10.192  -3.368  12.664  1.00  0.00     0.211 HD
ENDBRANCH   9  10
BRANCH   9  12
ATOM     12  C   UNL     1      -9.724  -6.301  13.747  1.00  0.00     0.089 C 
BRANCH  12  13
ATOM     13  N   UNL     1     -10.368  -7.516  13.198  1.00  0.00    -0.325 NA
ATOM     14  H   UNL     1     -10.365  -8.249  13.910  1.00  0.00     0.119 HD
ATOM     15  H   UNL     1      -9.791  -7.881  12.437  1.00  0.00     0.119 HD
ENDBRANCH  12  13
BRANCH  12  16
ATOM     16  C   UNL     1      -8.361  -6.662  14.383  1.00  0.00     0.022 C 
BRANCH  16  17
ATOM     17  C   UNL     1      -7.971  -6.030  15.726  1.00  0.00     0.002 C 
BRANCH  17  18
ATOM     18  C   UNL     1      -9.115  -5.889  16.728  1.00  0.00     0.000 C 
BRANCH  18  19
ATOM     19  C   UNL     1      -9.315  -4.461  17.252  1.00  0.00    -0.000 C 
BRANCH  19  20
ATOM     20  C   UNL     1      -9.828  -3.455  16.217  1.00  0.00    -0.000 C 
BRANCH  20  21
ATOM     21  C   UNL     1      -8.854  -2.301  15.968  1.00  0.00    -0.003 C 
ATOM     22  C   UNL     1      -9.256  -1.490  14.746  1.00  0.00     0.004 C 
ENDBRANCH  20  21
ENDBRANCH  19  20
ENDBRANCH  18  19
ENDBRANCH  17  18
ENDBRANCH  16  17
ENDBRANCH  12  16
ENDBRANCH   9  12
ENDBRANCH   6   9
ENDBRANCH   3   5
ENDBRANCH   2   3
BRANCH   2  23
ATOM     23  N   UNL     1      -6.855  -7.246   7.797  1.00  0.00    -0.332 N 
ATOM     24  C   UNL     1      -7.039  -8.262   6.770  1.00  0.00     0.147 C 
BRANCH  23  25
ATOM     25  C   UNL     1      -5.446  -6.816   8.007  1.00  0.00     0.174 C 
BRANCH  25  26
ATOM     26  C   UNL     1      -5.178  -6.312   9.445  1.00  0.00     0.038 C 
BRANCH  26  27
ATOM     27  C   UNL     1      -4.993  -7.387  10.540  1.00  0.00    -0.015 C 
ATOM     28  C   UNL     1      -3.646  -8.102  10.435  1.00  0.00     0.007 C 
ATOM     29  C   UNL     1      -5.210  -6.856  11.955  1.00  0.00     0.007 C 
ENDBRANCH  26  27
ENDBRANCH  25  26
BRANCH  25  30
ATOM     30  C   UNL     1      -5.026  -5.812   6.909  1.00  0.00     0.243 C 
ATOM     31  O   UNL     1      -4.390  -6.163   5.917  1.00  0.00    -0.273 OA
ATOM     32  N   UNL     1      -5.404  -4.511   7.119  1.00  0.00    -0.342 N 
ATOM     33  H   UNL     1      -6.049  -4.324   7.891  1.00  0.00     0.164 HD
BRANCH  32  34
ATOM     34  C   UNL     1      -5.070  -3.420   6.199  1.00  0.00     0.175 C 
BRANCH  34  35
ATOM     35  C   UNL     1      -6.318  -2.910   5.462  1.00  0.00     0.070 C 
BRANCH  35  36
ATOM     36  C   UNL     1      -6.128  -2.850   3.963  1.00  0.00    -0.045 A 
ATOM     37  C   UNL     1      -5.762  -4.005   3.255  1.00  0.00     0.007 A 
ATOM     38  C   UNL     1      -6.290  -1.646   3.265  1.00  0.00     0.007 A 
ATOM     39  C   UNL     1      -5.571  -3.957   1.874  1.00  0.00     0.046 A 
ATOM     40  C   UNL     1      -6.098  -1.596   1.882  1.00  0.00     0.046 A 
ATOM     41  C   UNL     1      -5.741  -2.754   1.199  1.00  0.00     0.115 A 
BRANCH  41  42
ATOM     42  O   UNL     1      -5.542  -2.749  -0.150  1.00  0.00    -0.508 OA
ATOM     43  H   UNL     1      -6.256  -2.233  -0.562  1.00  0.00     0.293 HD
ENDBRANCH  41  42
ENDBRANCH  35  36
ENDBRANCH  34  35
BRANCH  34  44
ATOM     44  C   UNL     1      -4.382  -2.301   7.012  1.00  0.00     0.243 C 
ATOM     45  O   UNL     1      -3.279  -1.831   6.749  1.00  0.00    -0.273 OA
ATOM     46  N   UNL     1      -5.066  -1.955   8.158  1.00  0.00    -0.341 N 
ATOM     47  H   UNL     1      -5.919  -2.457   8.394  1.00  0.00     0.164 HD
BRANCH  46  48
ATOM     48  C   UNL     1      -4.576  -0.968   9.122  1.00  0.00     0.196 C 
BRANCH  48  49
ATOM     49  C   UNL     1      -5.699  -0.018   9.571  1.00  0.00     0.072 C 
BRANCH  49  50
ATOM     50  C   UNL     1      -7.033  -0.717   9.706  1.00  0.00    -0.045 A 
ATOM     51  C   UNL     1      -7.425  -1.240  10.947  1.00  0.00     0.007 A 
ATOM     52  C   UNL     1      -7.881  -0.871   8.602  1.00  0.00     0.007 A 
ATOM     53  C   UNL     1      -8.648  -1.898  11.081  1.00  0.00     0.046 A 
ATOM     54  C   UNL     1      -9.104  -1.532   8.736  1.00  0.00     0.046 A 
ATOM     55  C   UNL     1      -9.478  -2.039   9.976  1.00  0.00     0.115 A 
BRANCH  55  56
ATOM     56  O   UNL     1     -10.663  -2.691  10.148  1.00  0.00    -0.508 OA
ATOM     57  H   UNL     1     -11.321  -2.292   9.556  1.00  0.00     0.293 HD
ENDBRANCH  55  56
ENDBRANCH  49  50
ENDBRANCH  48  49
BRANCH  48  58
ATOM     58  C   UNL     1      -4.005  -1.703  10.343  1.00  0.00     0.326 C 
ATOM     59  O   UNL     1      -3.285  -1.241  11.213  1.00  0.00    -0.250 OA
BRANCH  58  60
ATOM     60  O   UNL     1      -4.386  -3.003  10.419  1.00  0.00    -0.480 OA
ATOM     61  H   UNL     1      -4.104  -3.372   9.554  1.00  0.00     0.296 HD
ENDBRANCH  58  60
ENDBRANCH  48  58
ENDBRANCH  46  48
ENDBRANCH  34  44
ENDBRANCH  32  34
ENDBRANCH  25  30
ENDBRANCH  23  25
ENDBRANCH   2  23
TORSDOF 28
ENDMDL
MODEL 49
REMARK VINA RESULT:    -5.641      2.439      4.845
REMARK INTER + INTRA:         -21.857
REMARK INTER:                 -17.630
REMARK INTRA:                  -4.227
REMARK UNBOUND:                -7.807
REMARK SMILES CCCCCCC[C@H](N)[C@H](O)C(=O)N[C@H](C)C(=O)N(C)[C@H](CC(C)C)C(=O)N[C@@H](Cc1ccc(O)cc1)C(=O)N[C@@H](Cc1ccc(O)cc1)C(=O)O
REMARK SMILES IDX 18 1 17 2 15 3 16 4 14 5 12 6 13 7 10 9 11 10 8 12 9 13 7 16
REMARK SMILES IDX 6 17 5 18 4 19 3 20 2 21 1 22 19 23 20 24 21 25 22 26 23 27
REMARK SMILES IDX 24 28 25 29 26 30 27 31 28 32 29 34 30 35 31 36 32 37 37 38
REMARK SMILES IDX 33 39 36 40 34 41 35 42 38 44 39 45 40 46 41 48 42 49 43 50
REMARK SMILES IDX 44 51 49 52 45 53 48 54 46 55 47 56 50 58 51 59 52 60
REMARK H PARENT 14 8 11 11 9 14 9 15 28 33 35 43 40 47 47 57 52 61
ROOT
ATOM      1  O   UNL     1      -8.909  -5.499   8.468  1.00  0.00    -0.272 OA
ATOM      2  C   UNL     1      -8.815  -5.173   9.660  1.00  0.00     0.245 C 
ENDROOT
BRANCH   2   3
ATOM      3  C   UNL     1      -9.742  -5.862  10.692  1.00  0.00     0.168 C 
ATOM      4  C   UNL     1      -9.213  -7.245  11.056  1.00  0.00     0.041 C 
BRANCH   3   5
ATOM      5  N   UNL     1     -10.041  -5.067  11.873  1.00  0.00    -0.342 N 
ATOM      6  C   UNL     1     -11.318  -4.628  12.151  1.00  0.00     0.251 C 
ATOM      7  O   UNL     1     -12.278  -4.832  11.417  1.00  0.00    -0.272 OA
ATOM      8  H   UNL     1      -9.318  -4.805  12.539  1.00  0.00     0.164 HD
BRANCH   6   9
ATOM      9  C   UNL     1     -11.422  -3.932  13.518  1.00  0.00     0.219 C 
BRANCH   9  10
ATOM     10  O   UNL     1     -12.606  -3.135  13.643  1.00  0.00    -0.382 OA
ATOM     11  H   UNL     1     -12.340  -2.265  13.273  1.00  0.00     0.211 HD
ENDBRANCH   9  10
BRANCH   9  12
ATOM     12  C   UNL     1     -11.288  -4.912  14.712  1.00  0.00     0.089 C 
BRANCH  12  13
ATOM     13  N   UNL     1     -11.450  -6.293  14.204  1.00  0.00    -0.325 NA
ATOM     14  H   UNL     1     -10.528  -6.714  14.075  1.00  0.00     0.119 HD
ATOM     15  H   UNL     1     -11.860  -6.255  13.268  1.00  0.00     0.119 HD
ENDBRANCH  12  13
BRANCH  12  16
ATOM     16  C   UNL     1      -9.985  -4.799  15.539  1.00  0.00     0.022 C 
BRANCH  16  17
ATOM     17  C   UNL     1      -8.981  -3.687  15.204  1.00  0.00     0.002 C 
BRANCH  17  18
ATOM     18  C   UNL     1      -9.120  -2.419  16.044  1.00  0.00     0.000 C 
BRANCH  18  19
ATOM     19  C   UNL     1      -7.987  -2.216  17.059  1.00  0.00    -0.000 C 
BRANCH  19  20
ATOM     20  C   UNL     1      -7.594  -0.758  17.312  1.00  0.00    -0.000 C 
BRANCH  20  21
ATOM     21  C   UNL     1      -6.176  -0.428  16.837  1.00  0.00    -0.003 C 
ATOM     22  C   UNL     1      -5.836  -1.166  15.552  1.00  0.00     0.004 C 
ENDBRANCH  20  21
ENDBRANCH  19  20
ENDBRANCH  18  19
ENDBRANCH  17  18
ENDBRANCH  16  17
ENDBRANCH  12  16
ENDBRANCH   9  12
ENDBRANCH   6   9
ENDBRANCH   3   5
ENDBRANCH   2   3
BRANCH   2  23
ATOM     23  N   UNL     1      -7.813  -4.298  10.066  1.00  0.00    -0.332 N 
ATOM     24  C   UNL     1      -6.590  -4.700  10.744  1.00  0.00     0.147 C 
BRANCH  23  25
ATOM     25  C   UNL     1      -7.882  -2.856   9.701  1.00  0.00     0.174 C 
BRANCH  25  26
ATOM     26  C   UNL     1      -9.099  -2.134  10.325  1.00  0.00     0.038 C 
BRANCH  26  27
ATOM     27  C   UNL     1      -8.808  -0.879  11.177  1.00  0.00    -0.015 C 
ATOM     28  C   UNL     1      -9.334   0.402  10.529  1.00  0.00     0.007 C 
ATOM     29  C   UNL     1      -9.301  -0.994  12.617  1.00  0.00     0.007 C 
ENDBRANCH  26  27
ENDBRANCH  25  26
BRANCH  25  30
ATOM     30  C   UNL     1      -7.779  -2.690   8.167  1.00  0.00     0.243 C 
ATOM     31  O   UNL     1      -8.584  -2.010   7.532  1.00  0.00    -0.273 OA
ATOM     32  N   UNL     1      -6.740  -3.353   7.567  1.00  0.00    -0.342 N 
ATOM     33  H   UNL     1      -6.035  -3.778   8.174  1.00  0.00     0.164 HD
BRANCH  32  34
ATOM     34  C   UNL     1      -6.505  -3.331   6.121  1.00  0.00     0.175 C 
BRANCH  34  35
ATOM     35  C   UNL     1      -5.341  -2.395   5.758  1.00  0.00     0.070 C 
BRANCH  35  36
ATOM     36  C   UNL     1      -5.673  -1.468   4.611  1.00  0.00    -0.045 A 
ATOM     37  C   UNL     1      -5.950  -0.115   4.860  1.00  0.00     0.007 A 
ATOM     38  C   UNL     1      -5.732  -1.945   3.295  1.00  0.00     0.007 A 
ATOM     39  C   UNL     1      -6.270   0.746   3.809  1.00  0.00     0.046 A 
ATOM     40  C   UNL     1      -6.055  -1.084   2.243  1.00  0.00     0.046 A 
ATOM     41  C   UNL     1      -6.320   0.255   2.510  1.00  0.00     0.115 A 
BRANCH  41  42
ATOM     42  O   UNL     1      -6.640   1.128   1.513  1.00  0.00    -0.508 OA
ATOM     43  H   UNL     1      -5.953   1.074   0.828  1.00  0.00     0.293 HD
ENDBRANCH  41  42
ENDBRANCH  35  36
ENDBRANCH  34  35
BRANCH  34  44
ATOM     44  C   UNL     1      -6.244  -4.782   5.656  1.00  0.00     0.243 C 
ATOM     45  O   UNL     1      -6.574  -5.230   4.562  1.00  0.00    -0.273 OA
ATOM     46  N   UNL     1      -5.715  -5.587   6.643  1.00  0.00    -0.341 N 
ATOM     47  H   UNL     1      -5.568  -5.199   7.571  1.00  0.00     0.164 HD
BRANCH  46  48
ATOM     48  C   UNL     1      -5.446  -7.015   6.459  1.00  0.00     0.196 C 
BRANCH  48  49
ATOM     49  C   UNL     1      -4.388  -7.519   7.455  1.00  0.00     0.072 C 
BRANCH  49  50
ATOM     50  C   UNL     1      -3.157  -6.641   7.488  1.00  0.00    -0.045 A 
ATOM     51  C   UNL     1      -2.388  -6.471   6.327  1.00  0.00     0.007 A 
ATOM     52  C   UNL     1      -2.755  -6.007   8.670  1.00  0.00     0.007 A 
ATOM     53  C   UNL     1      -1.243  -5.675   6.348  1.00  0.00     0.046 A 
ATOM     54  C   UNL     1      -1.607  -5.211   8.692  1.00  0.00     0.046 A 
ATOM     55  C   UNL     1      -0.862  -5.050   7.530  1.00  0.00     0.115 A 
BRANCH  55  56
ATOM     56  O   UNL     1       0.265  -4.282   7.509  1.00  0.00    -0.508 OA
ATOM     57  H   UNL     1       0.474  -4.071   6.585  1.00  0.00     0.293 HD
ENDBRANCH  55  56
ENDBRANCH  49  50
ENDBRANCH  48  49
BRANCH  48  58
ATOM     58  C   UNL     1      -6.752  -7.798   6.657  1.00  0.00     0.326 C 
ATOM     59  O   UNL     1      -7.240  -8.166   7.713  1.00  0.00    -0.250 OA
BRANCH  58  60
ATOM     60  O   UNL     1      -7.399  -8.073   5.496  1.00  0.00    -0.480 OA
ATOM     61  H   UNL     1      -6.951  -8.886   5.175  1.00  0.00     0.296 HD
ENDBRANCH  58  60
ENDBRANCH  48  58
ENDBRANCH  46  48
ENDBRANCH  34  44
ENDBRANCH  32  34
ENDBRANCH  25  30
ENDBRANCH  23  25
ENDBRANCH   2  23
TORSDOF 28
ENDMDL
MODEL 50
REMARK VINA RESULT:    -5.617      2.088      6.854
REMARK INTER + INTRA:         -21.798
REMARK INTER:                 -16.051
REMARK INTRA:                  -5.747
REMARK UNBOUND:                -7.807
REMARK SMILES CCCCCCC[C@H](N)[C@H](O)C(=O)N[C@H](C)C(=O)N(C)[C@H](CC(C)C)C(=O)N[C@@H](Cc1ccc(O)cc1)C(=O)N[C@@H](Cc1ccc(O)cc1)C(=O)O
REMARK SMILES IDX 18 1 17 2 15 3 16 4 14 5 12 6 13 7 10 9 11 10 8 12 9 13 7 16
REMARK SMILES IDX 6 17 5 18 4 19 3 20 2 21 1 22 19 23 20 24 21 25 22 26 23 27
REMARK SMILES IDX 24 28 25 29 26 30 27 31 28 32 29 34 30 35 31 36 32 37 37 38
REMARK SMILES IDX 33 39 36 40 34 41 35 42 38 44 39 45 40 46 41 48 42 49 43 50
REMARK SMILES IDX 44 51 49 52 45 53 48 54 46 55 47 56 50 58 51 59 52 60
REMARK H PARENT 14 8 11 11 9 14 9 15 28 33 35 43 40 47 47 57 52 61
ROOT
ATOM      1  O   UNL     1      -4.420  -5.034  11.562  1.00  0.00    -0.272 OA
ATOM      2  C   UNL     1      -3.982  -5.167  10.410  1.00  0.00     0.245 C 
ENDROOT
BRANCH   2   3
ATOM      3  C   UNL     1      -4.181  -6.526   9.694  1.00  0.00     0.168 C 
ATOM      4  C   UNL     1      -3.247  -7.585  10.270  1.00  0.00     0.041 C 
BRANCH   3   5
ATOM      5  N   UNL     1      -5.558  -6.991   9.637  1.00  0.00    -0.342 N 
ATOM      6  C   UNL     1      -6.347  -6.796   8.524  1.00  0.00     0.251 C 
ATOM      7  O   UNL     1      -5.971  -6.190   7.526  1.00  0.00    -0.272 OA
ATOM      8  H   UNL     1      -5.992  -7.477  10.419  1.00  0.00     0.164 HD
BRANCH   6   9
ATOM      9  C   UNL     1      -7.713  -7.494   8.633  1.00  0.00     0.219 C 
BRANCH   9  10
ATOM     10  O   UNL     1      -7.623  -8.794   9.229  1.00  0.00    -0.382 OA
ATOM     11  H   UNL     1      -7.024  -9.284   8.624  1.00  0.00     0.211 HD
ENDBRANCH   9  10
BRANCH   9  12
ATOM     12  C   UNL     1      -8.781  -6.630   9.354  1.00  0.00     0.089 C 
BRANCH  12  13
ATOM     13  N   UNL     1     -10.072  -6.799   8.648  1.00  0.00    -0.325 NA
ATOM     14  H   UNL     1      -9.903  -6.816   7.640  1.00  0.00     0.119 HD
ATOM     15  H   UNL     1     -10.647  -5.969   8.808  1.00  0.00     0.119 HD
ENDBRANCH  12  13
BRANCH  12  16
ATOM     16  C   UNL     1      -8.964  -6.901  10.867  1.00  0.00     0.022 C 
BRANCH  16  17
ATOM     17  C   UNL     1      -8.075  -6.155  11.871  1.00  0.00     0.002 C 
BRANCH  17  18
ATOM     18  C   UNL     1      -8.753  -5.801  13.193  1.00  0.00     0.000 C 
BRANCH  18  19
ATOM     19  C   UNL     1      -8.547  -6.843  14.300  1.00  0.00    -0.000 C 
BRANCH  19  20
ATOM     20  C   UNL     1      -7.165  -6.825  14.960  1.00  0.00    -0.000 C 
BRANCH  20  21
ATOM     21  C   UNL     1      -6.350  -8.091  14.679  1.00  0.00    -0.003 C 
ATOM     22  C   UNL     1      -5.286  -7.842  13.621  1.00  0.00     0.004 C 
ENDBRANCH  20  21
ENDBRANCH  19  20
ENDBRANCH  18  19
ENDBRANCH  17  18
ENDBRANCH  16  17
ENDBRANCH  12  16
ENDBRANCH   9  12
ENDBRANCH   6   9
ENDBRANCH   3   5
ENDBRANCH   2   3
BRANCH   2  23
ATOM     23  N   UNL     1      -3.435  -4.076   9.744  1.00  0.00    -0.332 N 
ATOM     24  C   UNL     1      -2.995  -2.849  10.390  1.00  0.00     0.147 C 
BRANCH  23  25
ATOM     25  C   UNL     1      -3.143  -4.155   8.286  1.00  0.00     0.174 C 
BRANCH  25  26
ATOM     26  C   UNL     1      -1.633  -4.048   7.968  1.00  0.00     0.038 C 
BRANCH  26  27
ATOM     27  C   UNL     1      -1.103  -4.898   6.791  1.00  0.00    -0.015 C 
ATOM     28  C   UNL     1       0.358  -5.305   6.977  1.00  0.00     0.007 C 
ATOM     29  C   UNL     1      -1.967  -6.119   6.488  1.00  0.00     0.007 C 
ENDBRANCH  26  27
ENDBRANCH  25  26
BRANCH  25  30
ATOM     30  C   UNL     1      -4.015  -3.140   7.512  1.00  0.00     0.243 C 
ATOM     31  O   UNL     1      -3.520  -2.251   6.822  1.00  0.00    -0.273 OA
ATOM     32  N   UNL     1      -5.371  -3.294   7.653  1.00  0.00    -0.342 N 
ATOM     33  H   UNL     1      -5.705  -4.137   8.126  1.00  0.00     0.164 HD
BRANCH  32  34
ATOM     34  C   UNL     1      -6.348  -2.408   7.015  1.00  0.00     0.175 C 
BRANCH  34  35
ATOM     35  C   UNL     1      -6.629  -2.836   5.567  1.00  0.00     0.070 C 
BRANCH  35  36
ATOM     36  C   UNL     1      -6.447  -1.707   4.577  1.00  0.00    -0.045 A 
ATOM     37  C   UNL     1      -6.382  -1.982   3.203  1.00  0.00     0.007 A 
ATOM     38  C   UNL     1      -6.317  -0.382   5.014  1.00  0.00     0.007 A 
ATOM     39  C   UNL     1      -6.199  -0.949   2.283  1.00  0.00     0.046 A 
ATOM     40  C   UNL     1      -6.133   0.653   4.094  1.00  0.00     0.046 A 
ATOM     41  C   UNL     1      -6.077   0.359   2.735  1.00  0.00     0.115 A 
BRANCH  41  42
ATOM     42  O   UNL     1      -5.897   1.339   1.805  1.00  0.00    -0.508 OA
ATOM     43  H   UNL     1      -5.502   2.109   2.246  1.00  0.00     0.293 HD
ENDBRANCH  41  42
ENDBRANCH  35  36
ENDBRANCH  34  35
BRANCH  34  44
ATOM     44  C   UNL     1      -7.631  -2.411   7.877  1.00  0.00     0.243 C 
ATOM     45  O   UNL     1      -8.594  -3.147   7.685  1.00  0.00    -0.273 OA
ATOM     46  N   UNL     1      -7.659  -1.408   8.823  1.00  0.00    -0.341 N 
ATOM     47  H   UNL     1      -6.886  -0.748   8.866  1.00  0.00     0.164 HD
BRANCH  46  48
ATOM     48  C   UNL     1      -8.799  -1.169   9.711  1.00  0.00     0.196 C 
BRANCH  48  49
ATOM     49  C   UNL     1      -8.571  -1.798  11.096  1.00  0.00     0.072 C 
BRANCH  49  50
ATOM     50  C   UNL     1      -9.780  -2.555  11.597  1.00  0.00    -0.045 A 
ATOM     51  C   UNL     1     -10.229  -2.364  12.912  1.00  0.00     0.007 A 
ATOM     52  C   UNL     1     -10.453  -3.467  10.773  1.00  0.00     0.007 A 
ATOM     53  C   UNL     1     -11.336  -3.067  13.389  1.00  0.00     0.046 A 
ATOM     54  C   UNL     1     -11.560  -4.171  11.251  1.00  0.00     0.046 A 
ATOM     55  C   UNL     1     -11.993  -3.964  12.556  1.00  0.00     0.115 A 
BRANCH  55  56
ATOM     56  O   UNL     1     -13.068  -4.632  13.062  1.00  0.00    -0.508 OA
ATOM     57  H   UNL     1     -13.166  -4.392  13.997  1.00  0.00     0.293 HD
ENDBRANCH  55  56
ENDBRANCH  49  50
ENDBRANCH  48  49
BRANCH  48  58
ATOM     58  C   UNL     1      -9.006   0.344   9.861  1.00  0.00     0.326 C 
ATOM     59  O   UNL     1      -8.171   1.222   9.720  1.00  0.00    -0.250 OA
BRANCH  58  60
ATOM     60  O   UNL     1     -10.282   0.687  10.173  1.00  0.00    -0.480 OA
ATOM     61  H   UNL     1     -10.793  -0.122   9.955  1.00  0.00     0.296 HD
ENDBRANCH  58  60
ENDBRANCH  48  58
ENDBRANCH  46  48
ENDBRANCH  34  44
ENDBRANCH  32  34
ENDBRANCH  25  30
ENDBRANCH  23  25
ENDBRANCH   2  23
TORSDOF 28
ENDMDL
