MODEL 1
REMARK VINA RESULT:    -6.899      0.000      0.000
REMARK INTER + INTRA:         -29.119
REMARK INTER:                 -20.610
REMARK INTRA:                  -8.509
REMARK UNBOUND:                -8.509
REMARK SMILES C=C1C(=O)N[C@H](C)C(=O)N[C@@H](CC(C)C)C(=O)N[C@@H](C(=O)O)[C@H](C)C(=O)N[C@@H](CCCN=C(N)N)C(=O)N[C@@H](/C=C/C(C)=C/[C@H](C)[C@H](Cc2ccccc2)OC)[C@H](C)C(=O)N[C@@H](C(=O)O)CCC(=O)N1C
REMARK SMILES IDX 39 1 38 2 37 3 36 4 28 6 27 7 25 8 26 9 23 11 24 12 19 13
REMARK SMILES IDX 18 14 16 15 17 16 11 18 10 19 8 20 9 21 12 24 13 25 14 26
REMARK SMILES IDX 15 27 20 28 21 29 22 30 29 32 30 33 31 34 32 35 33 36 34 37
REMARK SMILES IDX 35 38 57 43 58 44 59 45 60 46 61 47 62 49 66 50 67 51 68 52
REMARK SMILES IDX 69 53 70 54 71 55 2 56 1 57 3 58 4 59 5 60 6 62 7 63 63 65
REMARK SMILES IDX 64 66 65 67 40 69 41 70 42 71 44 72 43 73 45 74 46 75 47 76
REMARK SMILES IDX 55 77 56 78 48 79 49 80 50 81 54 82 51 83 53 84 52 85
REMARK H PARENT 38 5 27 10 18 17 10 22 22 31 34 39 34 40 35 41 35 42 61 48
REMARK H PARENT 5 61 65 68
REMARK Flexibility Score:  369.900
ROOT
ATOM      1  C   UNL     1      -1.272  -7.052   4.704  1.00  0.00     0.117 C 
ENDROOT
BRANCH   1   2
ATOM      2  N   UNL     1      -2.060  -6.241   5.632  1.00  0.00    -0.347 N 
ATOM      3  O   UNL     1      -4.144  -6.910   4.940  1.00  0.00    -0.273 OA
ATOM      4  C   UNL     1      -3.436  -6.304   5.738  1.00  0.00     0.243 C 
ATOM      5  H   UNL     1      -1.587  -5.627   6.278  1.00  0.00     0.164 HD
BRANCH   4   6
ATOM      6  C   UNL     1      -4.017  -5.405   6.859  1.00  0.00     0.171 C 
BRANCH   6   7
ATOM      7  N   UNL     1      -5.006  -6.150   7.655  1.00  0.00    -0.344 N 
ATOM      8  C   UNL     1      -6.354  -5.902   7.512  1.00  0.00     0.226 C 
ATOM      9  O   UNL     1      -6.791  -5.051   6.747  1.00  0.00    -0.275 OA
ATOM     10  H   UNL     1      -4.680  -6.814   8.346  1.00  0.00     0.164 HD
BRANCH   8  11
ATOM     11  C   UNL     1      -7.247  -6.789   8.362  1.00  0.00     0.109 C 
ATOM     12  C   UNL     1      -6.402  -7.810   9.124  1.00  0.00     0.021 C 
BRANCH  11  13
ATOM     13  C   UNL     1      -8.161  -5.916   9.244  1.00  0.00     0.204 C 
BRANCH  13  14
ATOM     14  N   UNL     1      -9.529  -6.442   9.310  1.00  0.00    -0.340 N 
ATOM     15  C   UNL     1     -10.501  -6.118   8.389  1.00  0.00     0.243 C 
ATOM     16  O   UNL     1     -10.272  -5.411   7.409  1.00  0.00    -0.273 OA
ATOM     17  H   UNL     1      -9.823  -6.907  10.174  1.00  0.00     0.164 HD
BRANCH  15  18
ATOM     18  C   UNL     1     -11.913  -6.620   8.777  1.00  0.00     0.171 C 
BRANCH  18  19
ATOM     19  N   UNL     1     -12.598  -5.496   9.412  1.00  0.00    -0.343 N 
ATOM     20  C   UNL     1     -12.894  -5.490  10.762  1.00  0.00     0.242 CG0
ATOM     21  O   UNL     1     -12.716  -6.483  11.463  1.00  0.00    -0.273 OA
ATOM     22  H   UNL     1     -12.870  -4.698   8.850  1.00  0.00     0.164 HD
ATOM     23  G   UNL     1     -13.546  -4.186  11.265  1.00  0.00     0.000 G0
ENDBRANCH  18  19
BRANCH  18  24
ATOM     24  C   UNL     1     -12.672  -7.114   7.539  1.00  0.00     0.038 C 
BRANCH  24  25
ATOM     25  C   UNL     1     -12.814  -8.647   7.439  1.00  0.00    -0.015 C 
ATOM     26  C   UNL     1     -12.903  -9.317   8.810  1.00  0.00     0.007 C 
ATOM     27  C   UNL     1     -11.630  -9.224   6.660  1.00  0.00     0.007 C 
ENDBRANCH  24  25
ENDBRANCH  18  24
ENDBRANCH  15  18
ENDBRANCH  13  14
BRANCH  13  28
ATOM     28  C   UNL     1      -7.658  -5.778  10.684  1.00  0.00     0.327 C 
ATOM     29  O   UNL     1      -8.212  -6.200  11.687  1.00  0.00    -0.250 OA
BRANCH  28  30
ATOM     30  O   UNL     1      -6.550  -5.015  10.785  1.00  0.00    -0.480 OA
ATOM     31  H   UNL     1      -6.007  -5.275  10.012  1.00  0.00     0.296 HD
ENDBRANCH  28  30
ENDBRANCH  13  28
ENDBRANCH  11  13
ENDBRANCH   8  11
ENDBRANCH   6   7
BRANCH   6  32
ATOM     32  C   UNL     1      -2.872  -4.899   7.743  1.00  0.00     0.037 C 
BRANCH  32  33
ATOM     33  C   UNL     1      -3.363  -4.447   9.125  1.00  0.00     0.026 C 
BRANCH  33  34
ATOM     34  C   UNL     1      -3.711  -2.958   9.164  1.00  0.00     0.146 C 
BRANCH  34  35
ATOM     35  N   UNL     1      -5.072  -2.806   9.660  1.00  0.00    -0.254 NA
ATOM     36  C   UNL     1      -5.990  -2.458   8.838  1.00  0.00     0.185 C 
ATOM     37  N   UNL     1      -7.248  -2.320   9.284  1.00  0.00    -0.370 N 
ATOM     38  N   UNL     1      -5.891  -2.193   7.524  1.00  0.00    -0.370 N 
ATOM     39  H   UNL     1      -7.407  -2.512  10.265  1.00  0.00     0.159 HD
ATOM     40  H   UNL     1      -8.045  -2.222   8.679  1.00  0.00     0.159 HD
ATOM     41  H   UNL     1      -6.661  -1.792   7.014  1.00  0.00     0.159 HD
ATOM     42  H   UNL     1      -4.999  -2.242   7.057  1.00  0.00     0.159 HD
ENDBRANCH  34  35
ENDBRANCH  33  34
ENDBRANCH  32  33
ENDBRANCH   6  32
ENDBRANCH   4   6
ENDBRANCH   1   2
BRANCH   1  43
ATOM     43  C   UNL     1      -0.782  -8.325   5.451  1.00  0.00     0.102 C 
ATOM     44  C   UNL     1       0.748  -8.409   5.580  1.00  0.00     0.020 C 
BRANCH  43  45
ATOM     45  C   UNL     1      -1.427  -9.587   4.869  1.00  0.00     0.225 C 
ATOM     46  O   UNL     1      -1.090 -10.723   5.192  1.00  0.00    -0.275 OA
ATOM     47  N   UNL     1      -2.358  -9.373   3.878  1.00  0.00    -0.342 N 
ATOM     48  H   UNL     1      -2.730  -8.445   3.733  1.00  0.00     0.164 HD
BRANCH  47  49
ATOM     49  C   UNL     1      -3.082 -10.485   3.255  1.00  0.00     0.192 C 
BRANCH  49  50
ATOM     50  C   UNL     1      -2.663 -10.613   1.788  1.00  0.00     0.047 C 
BRANCH  50  51
ATOM     51  C   UNL     1      -1.984  -9.341   1.263  1.00  0.00     0.103 C 
BRANCH  51  52
ATOM     52  C   UNL     1      -0.472  -9.513   1.128  1.00  0.00     0.226 C 
ATOM     53  O   UNL     1       0.232  -9.536   2.139  1.00  0.00    -0.275 OA
BRANCH  52  54
ATOM     54  N   UNL     1       0.022  -9.714  -0.175  1.00  0.00    -0.311 N 
ATOM     55  C   UNL     1       0.014 -11.049  -0.788  1.00  0.00     0.153 C 
BRANCH  54  56
ATOM     56  C   UNL     1       0.534  -8.651  -0.936  1.00  0.00     0.102 C 
ATOM     57  C   UNL     1       1.130  -7.560  -0.429  1.00  0.00     0.043 C 
BRANCH  56  58
ATOM     58  C   UNL     1       0.487  -8.686  -2.446  1.00  0.00     0.268 C 
ATOM     59  O   UNL     1      -0.516  -8.412  -3.091  1.00  0.00    -0.268 OA
ATOM     60  N   UNL     1       1.700  -8.990  -3.017  1.00  0.00    -0.339 N 
ATOM     61  H   UNL     1       2.480  -9.215  -2.412  1.00  0.00     0.164 HD
BRANCH  60  62
ATOM     62  C   UNL     1       1.893  -9.017  -4.466  1.00  0.00     0.168 CG0
ATOM     63  C   UNL     1       2.450  -7.690  -4.968  1.00  0.00     0.041 C 
ATOM     64  G   UNL     1       0.555  -9.345  -5.160  1.00  0.00     0.000 G0
ENDBRANCH  60  62
ENDBRANCH  56  58
ENDBRANCH  54  56
ENDBRANCH  52  54
ENDBRANCH  51  52
ENDBRANCH  50  51
ENDBRANCH  49  50
BRANCH  49  65
ATOM     65  C   UNL     1      -4.603 -10.286   3.334  1.00  0.00     0.326 C 
ATOM     66  O   UNL     1      -5.238 -10.059   4.354  1.00  0.00    -0.250 OA
BRANCH  65  67
ATOM     67  O   UNL     1      -5.254 -10.439   2.160  1.00  0.00    -0.480 OA
ATOM     68  H   UNL     1      -6.116 -10.829   2.422  1.00  0.00     0.296 HD
ENDBRANCH  65  67
ENDBRANCH  49  65
ENDBRANCH  47  49
ENDBRANCH  43  45
ENDBRANCH   1  43
BRANCH   1  69
ATOM     69  C   UNL     1      -0.242  -6.118   4.094  1.00  0.00    -0.001 C 
ATOM     70  C   UNL     1      -0.341  -5.434   2.940  1.00  0.00     0.001 C 
BRANCH  70  71
ATOM     71  C   UNL     1       0.651  -4.519   2.373  1.00  0.00    -0.055 C 
ATOM     72  C   UNL     1       1.911  -4.976   2.217  1.00  0.00    -0.018 C 
ATOM     73  C   UNL     1       0.193  -3.134   1.994  1.00  0.00     0.044 C 
BRANCH  72  74
ATOM     74  C   UNL     1       3.133  -4.262   1.659  1.00  0.00     0.038 C 
ATOM     75  C   UNL     1       3.735  -5.170   0.580  1.00  0.00     0.015 C 
BRANCH  74  76
ATOM     76  C   UNL     1       4.095  -3.920   2.835  1.00  0.00     0.128 C 
BRANCH  76  77
ATOM     77  O   UNL     1       5.302  -3.329   2.326  1.00  0.00    -0.381 OA
ATOM     78  C   UNL     1       6.371  -3.319   3.263  1.00  0.00     0.195 C 
ENDBRANCH  76  77
BRANCH  76  79
ATOM     79  C   UNL     1       3.440  -3.077   3.958  1.00  0.00     0.068 C 
BRANCH  79  80
ATOM     80  C   UNL     1       2.831  -3.809   5.129  1.00  0.00    -0.045 A 
ATOM     81  C   UNL     1       3.376  -5.015   5.589  1.00  0.00     0.004 A 
ATOM     82  C   UNL     1       1.685  -3.303   5.761  1.00  0.00     0.004 A 
ATOM     83  C   UNL     1       2.798  -5.693   6.664  1.00  0.00     0.000 A 
ATOM     84  C   UNL     1       1.108  -3.982   6.836  1.00  0.00     0.000 A 
ATOM     85  C   UNL     1       1.665  -5.176   7.288  1.00  0.00     0.000 A 
ENDBRANCH  79  80
ENDBRANCH  76  79
ENDBRANCH  74  76
ENDBRANCH  72  74
ENDBRANCH  70  71
ENDBRANCH   1  69
TORSDOF 17
ENDMDL
MODEL 2
REMARK VINA RESULT:    -6.772      4.480      8.417
REMARK INTER + INTRA:         -28.741
REMARK INTER:                 -20.465
REMARK INTRA:                  -8.276
REMARK UNBOUND:                -8.509
REMARK SMILES C=C1C(=O)N[C@H](C)C(=O)N[C@@H](CC(C)C)C(=O)N[C@@H](C(=O)O)[C@H](C)C(=O)N[C@@H](CCCN=C(N)N)C(=O)N[C@@H](/C=C/C(C)=C/[C@H](C)[C@H](Cc2ccccc2)OC)[C@H](C)C(=O)N[C@@H](C(=O)O)CCC(=O)N1C
REMARK SMILES IDX 39 1 38 2 37 3 36 4 28 6 27 7 25 8 26 9 23 11 24 12 19 13
REMARK SMILES IDX 18 14 16 15 17 16 11 18 10 19 8 20 9 21 12 24 13 25 14 26
REMARK SMILES IDX 15 27 20 28 21 29 22 30 29 32 30 33 31 34 32 35 33 36 34 37
REMARK SMILES IDX 35 38 57 43 58 44 59 45 60 46 61 47 62 49 66 50 67 51 68 52
REMARK SMILES IDX 69 53 70 54 71 55 2 56 1 57 3 58 4 59 5 60 6 62 7 63 63 65
REMARK SMILES IDX 64 66 65 67 40 69 41 70 42 71 44 72 43 73 45 74 46 75 47 76
REMARK SMILES IDX 55 77 56 78 48 79 49 80 50 81 54 82 51 83 53 84 52 85
REMARK H PARENT 38 5 27 10 18 17 10 22 22 31 34 39 34 40 35 41 35 42 61 48
REMARK H PARENT 5 61 65 68
REMARK Flexibility Score:  369.900
ROOT
ATOM      1  C   UNL     1       1.028  -8.433   0.289  1.00  0.00     0.117 C 
ENDROOT
BRANCH   1   2
ATOM      2  N   UNL     1      -0.160  -9.009   0.920  1.00  0.00    -0.347 N 
ATOM      3  O   UNL     1      -1.178  -9.789  -0.984  1.00  0.00    -0.273 OA
ATOM      4  C   UNL     1      -1.127  -9.725   0.240  1.00  0.00     0.243 C 
ATOM      5  H   UNL     1      -0.275  -8.935   1.919  1.00  0.00     0.164 HD
BRANCH   4   6
ATOM      6  C   UNL     1      -2.236 -10.301   1.156  1.00  0.00     0.171 C 
BRANCH   6   7
ATOM      7  N   UNL     1      -2.191  -9.663   2.481  1.00  0.00    -0.344 N 
ATOM      8  C   UNL     1      -2.019 -10.419   3.620  1.00  0.00     0.226 C 
ATOM      9  O   UNL     1      -1.918 -11.640   3.593  1.00  0.00    -0.275 OA
ATOM     10  H   UNL     1      -2.339  -8.664   2.550  1.00  0.00     0.164 HD
BRANCH   8  11
ATOM     11  C   UNL     1      -1.940  -9.610   4.903  1.00  0.00     0.109 C 
ATOM     12  C   UNL     1      -1.624 -10.526   6.085  1.00  0.00     0.021 C 
BRANCH  11  13
ATOM     13  C   UNL     1      -0.962  -8.432   4.717  1.00  0.00     0.204 C 
BRANCH  13  14
ATOM     14  N   UNL     1      -1.188  -7.367   5.699  1.00  0.00    -0.340 N 
ATOM     15  C   UNL     1      -1.799  -6.173   5.381  1.00  0.00     0.243 C 
ATOM     16  O   UNL     1      -2.253  -5.941   4.262  1.00  0.00    -0.273 OA
ATOM     17  H   UNL     1      -0.705  -7.433   6.598  1.00  0.00     0.164 HD
BRANCH  15  18
ATOM     18  C   UNL     1      -1.740  -5.126   6.520  1.00  0.00     0.171 C 
BRANCH  18  19
ATOM     19  N   UNL     1      -2.865  -5.411   7.409  1.00  0.00    -0.343 N 
ATOM     20  C   UNL     1      -3.847  -4.473   7.665  1.00  0.00     0.242 CG0
ATOM     21  O   UNL     1      -3.751  -3.315   7.265  1.00  0.00    -0.273 OA
ATOM     22  H   UNL     1      -2.927  -6.318   7.857  1.00  0.00     0.164 HD
ATOM     23  G   UNL     1      -4.993  -4.981   8.563  1.00  0.00     0.000 G0
ENDBRANCH  18  19
BRANCH  18  24
ATOM     24  C   UNL     1      -0.401  -5.209   7.263  1.00  0.00     0.038 C 
BRANCH  24  25
ATOM     25  C   UNL     1       0.542  -4.010   7.028  1.00  0.00    -0.015 C 
ATOM     26  C   UNL     1       1.086  -3.428   8.333  1.00  0.00     0.007 C 
ATOM     27  C   UNL     1      -0.196  -2.920   6.246  1.00  0.00     0.007 C 
ENDBRANCH  24  25
ENDBRANCH  18  24
ENDBRANCH  15  18
ENDBRANCH  13  14
BRANCH  13  28
ATOM     28  C   UNL     1       0.509  -8.845   4.825  1.00  0.00     0.327 C 
ATOM     29  O   UNL     1       1.151  -9.459   3.987  1.00  0.00    -0.250 OA
BRANCH  28  30
ATOM     30  O   UNL     1       1.048  -8.566   6.029  1.00  0.00    -0.480 OA
ATOM     31  H   UNL     1       1.251  -7.609   5.986  1.00  0.00     0.296 HD
ENDBRANCH  28  30
ENDBRANCH  13  28
ENDBRANCH  11  13
ENDBRANCH   8  11
ENDBRANCH   6   7
BRANCH   6  32
ATOM     32  C   UNL     1      -3.600 -10.088   0.491  1.00  0.00     0.037 C 
BRANCH  32  33
ATOM     33  C   UNL     1      -4.176 -11.390  -0.082  1.00  0.00     0.026 C 
BRANCH  33  34
ATOM     34  C   UNL     1      -3.790 -12.615   0.749  1.00  0.00     0.146 C 
BRANCH  34  35
ATOM     35  N   UNL     1      -4.873 -12.916   1.674  1.00  0.00    -0.254 NA
ATOM     36  C   UNL     1      -4.617 -13.621   2.713  1.00  0.00     0.185 C 
ATOM     37  N   UNL     1      -5.607 -13.900   3.574  1.00  0.00    -0.370 N 
ATOM     38  N   UNL     1      -3.446 -14.156   3.102  1.00  0.00    -0.370 N 
ATOM     39  H   UNL     1      -6.520 -13.521   3.355  1.00  0.00     0.159 HD
ATOM     40  H   UNL     1      -5.455 -14.291   4.488  1.00  0.00     0.159 HD
ATOM     41  H   UNL     1      -3.401 -14.809   3.867  1.00  0.00     0.159 HD
ATOM     42  H   UNL     1      -2.617 -14.040   2.540  1.00  0.00     0.159 HD
ENDBRANCH  34  35
ENDBRANCH  33  34
ENDBRANCH  32  33
ENDBRANCH   6  32
ENDBRANCH   4   6
ENDBRANCH   1   2
BRANCH   1  43
ATOM     43  C   UNL     1       2.187  -9.467   0.376  1.00  0.00     0.102 C 
ATOM     44  C   UNL     1       3.367  -8.992   1.241  1.00  0.00     0.020 C 
BRANCH  43  45
ATOM     45  C   UNL     1       2.594  -9.956  -1.017  1.00  0.00     0.225 C 
ATOM     46  O   UNL     1       3.747  -9.907  -1.434  1.00  0.00    -0.275 OA
ATOM     47  N   UNL     1       1.560 -10.374  -1.823  1.00  0.00    -0.342 N 
ATOM     48  H   UNL     1       0.651 -10.551  -1.420  1.00  0.00     0.164 HD
BRANCH  47  49
ATOM     49  C   UNL     1       1.803 -10.902  -3.169  1.00  0.00     0.192 C 
BRANCH  49  50
ATOM     50  C   UNL     1       1.505  -9.818  -4.208  1.00  0.00     0.047 C 
BRANCH  50  51
ATOM     51  C   UNL     1       2.765  -9.369  -4.960  1.00  0.00     0.103 C 
BRANCH  51  52
ATOM     52  C   UNL     1       2.501  -8.154  -5.848  1.00  0.00     0.226 C 
ATOM     53  O   UNL     1       2.023  -7.131  -5.354  1.00  0.00    -0.275 OA
BRANCH  52  54
ATOM     54  N   UNL     1       2.903  -8.261  -7.192  1.00  0.00    -0.311 N 
ATOM     55  C   UNL     1       2.251  -9.212  -8.102  1.00  0.00     0.153 C 
BRANCH  54  56
ATOM     56  C   UNL     1       3.933  -7.462  -7.715  1.00  0.00     0.102 C 
ATOM     57  C   UNL     1       3.765  -6.239  -8.242  1.00  0.00     0.043 C 
BRANCH  56  58
ATOM     58  C   UNL     1       5.370  -7.928  -7.677  1.00  0.00     0.268 C 
ATOM     59  O   UNL     1       5.775  -8.900  -8.300  1.00  0.00    -0.268 OA
ATOM     60  N   UNL     1       6.182  -7.112  -6.926  1.00  0.00    -0.339 N 
ATOM     61  H   UNL     1       5.766  -6.331  -6.432  1.00  0.00     0.164 HD
BRANCH  60  62
ATOM     62  C   UNL     1       7.621  -7.343  -6.806  1.00  0.00     0.168 CG0
ATOM     63  C   UNL     1       8.393  -6.031  -6.865  1.00  0.00     0.041 C 
ATOM     64  G   UNL     1       8.086  -8.300  -7.922  1.00  0.00     0.000 G0
ENDBRANCH  60  62
ENDBRANCH  56  58
ENDBRANCH  54  56
ENDBRANCH  52  54
ENDBRANCH  51  52
ENDBRANCH  50  51
ENDBRANCH  49  50
BRANCH  49  65
ATOM     65  C   UNL     1       0.937 -12.137  -3.459  1.00  0.00     0.326 C 
ATOM     66  O   UNL     1       1.088 -12.907  -4.397  1.00  0.00    -0.250 OA
BRANCH  65  67
ATOM     67  O   UNL     1      -0.098 -12.312  -2.608  1.00  0.00    -0.480 OA
ATOM     68  H   UNL     1      -0.838 -11.837  -3.043  1.00  0.00     0.296 HD
ENDBRANCH  65  67
ENDBRANCH  49  65
ENDBRANCH  47  49
ENDBRANCH  43  45
ENDBRANCH   1  43
BRANCH   1  69
ATOM     69  C   UNL     1       1.218  -7.063   0.916  1.00  0.00    -0.001 C 
ATOM     70  C   UNL     1       0.588  -6.564   1.994  1.00  0.00     0.001 C 
BRANCH  70  71
ATOM     71  C   UNL     1       0.795  -5.248   2.603  1.00  0.00    -0.055 C 
ATOM     72  C   UNL     1       0.151  -4.195   2.057  1.00  0.00    -0.018 C 
ATOM     73  C   UNL     1       1.706  -5.164   3.800  1.00  0.00     0.044 C 
BRANCH  72  74
ATOM     74  C   UNL     1       0.173  -2.731   2.473  1.00  0.00     0.038 C 
ATOM     75  C   UNL     1      -1.257  -2.198   2.330  1.00  0.00     0.015 C 
BRANCH  74  76
ATOM     76  C   UNL     1       1.238  -1.983   1.617  1.00  0.00     0.128 C 
BRANCH  76  77
ATOM     77  O   UNL     1       0.710  -0.723   1.169  1.00  0.00    -0.381 OA
ATOM     78  C   UNL     1       1.281   0.401   1.826  1.00  0.00     0.195 C 
ENDBRANCH  76  77
BRANCH  76  79
ATOM     79  C   UNL     1       2.617  -1.844   2.310  1.00  0.00     0.068 C 
BRANCH  79  80
ATOM     80  C   UNL     1       3.702  -2.822   1.928  1.00  0.00    -0.045 A 
ATOM     81  C   UNL     1       3.604  -3.589   0.759  1.00  0.00     0.004 A 
ATOM     82  C   UNL     1       4.819  -2.999   2.759  1.00  0.00     0.004 A 
ATOM     83  C   UNL     1       4.605  -4.501   0.421  1.00  0.00     0.000 A 
ATOM     84  C   UNL     1       5.819  -3.912   2.419  1.00  0.00     0.000 A 
ATOM     85  C   UNL     1       5.713  -4.662   1.250  1.00  0.00     0.000 A 
ENDBRANCH  79  80
ENDBRANCH  76  79
ENDBRANCH  74  76
ENDBRANCH  72  74
ENDBRANCH  70  71
ENDBRANCH   1  69
TORSDOF 17
ENDMDL
MODEL 3
REMARK VINA RESULT:    -6.728      6.003     11.308
REMARK INTER + INTRA:         -28.608
REMARK INTER:                 -21.818
REMARK INTRA:                  -6.790
REMARK UNBOUND:                -8.509
REMARK SMILES C=C1C(=O)N[C@H](C)C(=O)N[C@@H](CC(C)C)C(=O)N[C@@H](C(=O)O)[C@H](C)C(=O)N[C@@H](CCCN=C(N)N)C(=O)N[C@@H](/C=C/C(C)=C/[C@H](C)[C@H](Cc2ccccc2)OC)[C@H](C)C(=O)N[C@@H](C(=O)O)CCC(=O)N1C
REMARK SMILES IDX 39 1 38 2 37 3 36 4 28 6 27 7 25 8 26 9 23 11 24 12 19 13
REMARK SMILES IDX 18 14 16 15 17 16 11 18 10 19 8 20 9 21 12 24 13 25 14 26
REMARK SMILES IDX 15 27 20 28 21 29 22 30 29 32 30 33 31 34 32 35 33 36 34 37
REMARK SMILES IDX 35 38 57 43 58 44 59 45 60 46 61 47 62 49 66 50 67 51 68 52
REMARK SMILES IDX 69 53 70 54 71 55 2 56 1 57 3 58 4 59 5 60 6 62 7 63 63 65
REMARK SMILES IDX 64 66 65 67 40 69 41 70 42 71 44 72 43 73 45 74 46 75 47 76
REMARK SMILES IDX 55 77 56 78 48 79 49 80 50 81 54 82 51 83 53 84 52 85
REMARK H PARENT 38 5 27 10 18 17 10 22 22 31 34 39 34 40 35 41 35 42 61 48
REMARK H PARENT 5 61 65 68
REMARK Flexibility Score:  369.900
ROOT
ATOM      1  C   UNL     1       5.114  -3.963   0.751  1.00  0.00     0.117 C 
ENDROOT
BRANCH   1   2
ATOM      2  N   UNL     1       3.798  -4.527   1.054  1.00  0.00    -0.347 N 
ATOM      3  O   UNL     1       4.033  -6.503  -0.091  1.00  0.00    -0.273 OA
ATOM      4  C   UNL     1       3.396  -5.795   0.683  1.00  0.00     0.243 C 
ATOM      5  H   UNL     1       3.146  -3.992   1.608  1.00  0.00     0.164 HD
BRANCH   4   6
ATOM      6  C   UNL     1       1.988  -6.180   1.202  1.00  0.00     0.171 C 
BRANCH   6   7
ATOM      7  N   UNL     1       1.557  -7.461   0.620  1.00  0.00    -0.344 N 
ATOM      8  C   UNL     1       0.225  -7.706   0.368  1.00  0.00     0.226 C 
ATOM      9  O   UNL     1      -0.657  -6.896   0.631  1.00  0.00    -0.275 OA
ATOM     10  H   UNL     1       2.249  -8.181   0.452  1.00  0.00     0.164 HD
BRANCH   8  11
ATOM     11  C   UNL     1      -0.052  -9.050  -0.283  1.00  0.00     0.109 C 
ATOM     12  C   UNL     1       1.209  -9.570  -0.972  1.00  0.00     0.021 C 
BRANCH  11  13
ATOM     13  C   UNL     1      -0.671 -10.012   0.750  1.00  0.00     0.204 C 
BRANCH  13  14
ATOM     14  N   UNL     1      -1.610  -9.330   1.646  1.00  0.00    -0.340 N 
ATOM     15  C   UNL     1      -1.982  -9.842   2.870  1.00  0.00     0.243 C 
ATOM     16  O   UNL     1      -1.504 -10.880   3.325  1.00  0.00    -0.273 OA
ATOM     17  H   UNL     1      -2.155  -8.550   1.268  1.00  0.00     0.164 HD
BRANCH  15  18
ATOM     18  C   UNL     1      -3.135  -9.059   3.544  1.00  0.00     0.171 C 
BRANCH  18  19
ATOM     19  N   UNL     1      -4.268  -9.978   3.635  1.00  0.00    -0.343 N 
ATOM     20  C   UNL     1      -4.989 -10.359   2.519  1.00  0.00     0.242 CG0
ATOM     21  O   UNL     1      -4.796  -9.842   1.421  1.00  0.00    -0.273 OA
ATOM     22  H   UNL     1      -4.541 -10.344   4.540  1.00  0.00     0.164 HD
ATOM     23  G   UNL     1      -6.097 -11.395   2.800  1.00  0.00     0.000 G0
ENDBRANCH  18  19
BRANCH  18  24
ATOM     24  C   UNL     1      -2.710  -8.552   4.927  1.00  0.00     0.038 C 
BRANCH  24  25
ATOM     25  C   UNL     1      -3.014  -7.062   5.189  1.00  0.00    -0.015 C 
ATOM     26  C   UNL     1      -4.483  -6.815   5.535  1.00  0.00     0.007 C 
ATOM     27  C   UNL     1      -2.628  -6.234   3.960  1.00  0.00     0.007 C 
ENDBRANCH  24  25
ENDBRANCH  18  24
ENDBRANCH  15  18
ENDBRANCH  13  14
BRANCH  13  28
ATOM     28  C   UNL     1      -1.424 -11.183   0.109  1.00  0.00     0.327 C 
ATOM     29  O   UNL     1      -1.020 -12.331   0.004  1.00  0.00    -0.250 OA
BRANCH  28  30
ATOM     30  O   UNL     1      -2.586 -10.812  -0.466  1.00  0.00    -0.480 OA
ATOM     31  H   UNL     1      -2.833  -9.986  -0.001  1.00  0.00     0.296 HD
ENDBRANCH  28  30
ENDBRANCH  13  28
ENDBRANCH  11  13
ENDBRANCH   8  11
ENDBRANCH   6   7
BRANCH   6  32
ATOM     32  C   UNL     1       2.019  -6.257   2.732  1.00  0.00     0.037 C 
BRANCH  32  33
ATOM     33  C   UNL     1       1.869  -7.697   3.243  1.00  0.00     0.026 C 
BRANCH  33  34
ATOM     34  C   UNL     1       0.815  -7.821   4.344  1.00  0.00     0.146 C 
BRANCH  34  35
ATOM     35  N   UNL     1       1.300  -7.142   5.537  1.00  0.00    -0.254 NA
ATOM     36  C   UNL     1       1.049  -7.658   6.683  1.00  0.00     0.185 C 
ATOM     37  N   UNL     1       1.495  -7.044   7.789  1.00  0.00    -0.370 N 
ATOM     38  N   UNL     1       0.371  -8.783   6.972  1.00  0.00    -0.370 N 
ATOM     39  H   UNL     1       2.026  -6.192   7.653  1.00  0.00     0.159 HD
ATOM     40  H   UNL     1       1.492  -7.468   8.700  1.00  0.00     0.159 HD
ATOM     41  H   UNL     1       0.120  -9.011   7.920  1.00  0.00     0.159 HD
ATOM     42  H   UNL     1      -0.036  -9.340   6.237  1.00  0.00     0.159 HD
ENDBRANCH  34  35
ENDBRANCH  33  34
ENDBRANCH  32  33
ENDBRANCH   6  32
ENDBRANCH   4   6
ENDBRANCH   1   2
BRANCH   1  43
ATOM     43  C   UNL     1       5.952  -3.931   2.062  1.00  0.00     0.102 C 
ATOM     44  C   UNL     1       5.327  -3.062   3.167  1.00  0.00     0.020 C 
BRANCH  43  45
ATOM     45  C   UNL     1       7.419  -3.604   1.769  1.00  0.00     0.225 C 
ATOM     46  O   UNL     1       8.053  -2.753   2.387  1.00  0.00    -0.275 OA
ATOM     47  N   UNL     1       7.970  -4.262   0.694  1.00  0.00    -0.342 N 
ATOM     48  H   UNL     1       7.492  -5.059   0.297  1.00  0.00     0.164 HD
BRANCH  47  49
ATOM     49  C   UNL     1       9.374  -4.075   0.318  1.00  0.00     0.192 C 
BRANCH  49  50
ATOM     50  C   UNL     1       9.463  -3.665  -1.155  1.00  0.00     0.047 C 
BRANCH  50  51
ATOM     51  C   UNL     1      10.398  -2.467  -1.370  1.00  0.00     0.103 C 
BRANCH  51  52
ATOM     52  C   UNL     1       9.678  -1.288  -2.021  1.00  0.00     0.226 C 
ATOM     53  O   UNL     1       9.492  -1.283  -3.239  1.00  0.00    -0.275 OA
BRANCH  52  54
ATOM     54  N   UNL     1       9.195  -0.291  -1.152  1.00  0.00    -0.311 N 
ATOM     55  C   UNL     1       7.986  -0.511  -0.347  1.00  0.00     0.153 C 
BRANCH  54  56
ATOM     56  C   UNL     1       9.852   0.943  -1.016  1.00  0.00     0.102 C 
ATOM     57  C   UNL     1       9.307   2.049  -0.484  1.00  0.00     0.043 C 
BRANCH  56  58
ATOM     58  C   UNL     1      11.293   1.105  -1.438  1.00  0.00     0.268 C 
ATOM     59  O   UNL     1      12.228   0.588  -0.840  1.00  0.00    -0.268 OA
ATOM     60  N   UNL     1      11.440   1.833  -2.595  1.00  0.00    -0.339 N 
ATOM     61  H   UNL     1      10.615   2.236  -3.024  1.00  0.00     0.164 HD
BRANCH  60  62
ATOM     62  C   UNL     1      12.745   2.058  -3.214  1.00  0.00     0.168 CG0
ATOM     63  C   UNL     1      12.645   2.008  -4.734  1.00  0.00     0.041 C 
ATOM     64  G   UNL     1      13.750   1.007  -2.698  1.00  0.00     0.000 G0
ENDBRANCH  60  62
ENDBRANCH  56  58
ENDBRANCH  54  56
ENDBRANCH  52  54
ENDBRANCH  51  52
ENDBRANCH  50  51
ENDBRANCH  49  50
BRANCH  49  65
ATOM     65  C   UNL     1      10.196  -5.355   0.540  1.00  0.00     0.326 C 
ATOM     66  O   UNL     1      11.165  -5.701  -0.121  1.00  0.00    -0.250 OA
BRANCH  65  67
ATOM     67  O   UNL     1       9.735  -6.157   1.524  1.00  0.00    -0.480 OA
ATOM     68  H   UNL     1       9.381  -6.935   1.042  1.00  0.00     0.296 HD
ENDBRANCH  65  67
ENDBRANCH  49  65
ENDBRANCH  47  49
ENDBRANCH  43  45
ENDBRANCH   1  43
BRANCH   1  69
ATOM     69  C   UNL     1       4.858  -2.662   0.013  1.00  0.00    -0.001 C 
ATOM     70  C   UNL     1       3.804  -1.839   0.149  1.00  0.00     0.001 C 
BRANCH  70  71
ATOM     71  C   UNL     1       3.578  -0.574  -0.555  1.00  0.00    -0.055 C 
ATOM     72  C   UNL     1       4.499  -0.189  -1.463  1.00  0.00    -0.018 C 
ATOM     73  C   UNL     1       2.332   0.203  -0.221  1.00  0.00     0.044 C 
BRANCH  72  74
ATOM     74  C   UNL     1       4.527   1.057  -2.336  1.00  0.00     0.038 C 
ATOM     75  C   UNL     1       4.671   0.589  -3.790  1.00  0.00     0.015 C 
BRANCH  74  76
ATOM     76  C   UNL     1       5.667   1.994  -1.837  1.00  0.00     0.128 C 
BRANCH  76  77
ATOM     77  O   UNL     1       6.773   1.953  -2.754  1.00  0.00    -0.381 OA
ATOM     78  C   UNL     1       7.101   3.220  -3.309  1.00  0.00     0.195 C 
ENDBRANCH  76  77
BRANCH  76  79
ATOM     79  C   UNL     1       5.202   3.438  -1.520  1.00  0.00     0.068 C 
BRANCH  79  80
ATOM     80  C   UNL     1       3.981   3.613  -0.651  1.00  0.00    -0.045 A 
ATOM     81  C   UNL     1       2.795   4.147  -1.171  1.00  0.00     0.004 A 
ATOM     82  C   UNL     1       4.025   3.266   0.708  1.00  0.00     0.004 A 
ATOM     83  C   UNL     1       1.674   4.320  -0.357  1.00  0.00     0.000 A 
ATOM     84  C   UNL     1       2.903   3.440   1.522  1.00  0.00     0.000 A 
ATOM     85  C   UNL     1       1.728   3.964   0.989  1.00  0.00     0.000 A 
ENDBRANCH  79  80
ENDBRANCH  76  79
ENDBRANCH  74  76
ENDBRANCH  72  74
ENDBRANCH  70  71
ENDBRANCH   1  69
TORSDOF 17
ENDMDL
MODEL 4
REMARK VINA RESULT:    -6.562      6.323     10.596
REMARK INTER + INTRA:         -28.112
REMARK INTER:                 -19.237
REMARK INTRA:                  -8.875
REMARK UNBOUND:                -8.509
REMARK SMILES C=C1C(=O)N[C@H](C)C(=O)N[C@@H](CC(C)C)C(=O)N[C@@H](C(=O)O)[C@H](C)C(=O)N[C@@H](CCCN=C(N)N)C(=O)N[C@@H](/C=C/C(C)=C/[C@H](C)[C@H](Cc2ccccc2)OC)[C@H](C)C(=O)N[C@@H](C(=O)O)CCC(=O)N1C
REMARK SMILES IDX 39 1 38 2 37 3 36 4 28 6 27 7 25 8 26 9 23 11 24 12 19 13
REMARK SMILES IDX 18 14 16 15 17 16 11 18 10 19 8 20 9 21 12 24 13 25 14 26
REMARK SMILES IDX 15 27 20 28 21 29 22 30 29 32 30 33 31 34 32 35 33 36 34 37
REMARK SMILES IDX 35 38 57 43 58 44 59 45 60 46 61 47 62 49 66 50 67 51 68 52
REMARK SMILES IDX 69 53 70 54 71 55 2 56 1 57 3 58 4 59 5 60 6 62 7 63 63 65
REMARK SMILES IDX 64 66 65 67 40 69 41 70 42 71 44 72 43 73 45 74 46 75 47 76
REMARK SMILES IDX 55 77 56 78 48 79 49 80 50 81 54 82 51 83 53 84 52 85
REMARK H PARENT 38 5 27 10 18 17 10 22 22 31 34 39 34 40 35 41 35 42 61 48
REMARK H PARENT 5 61 65 68
REMARK Flexibility Score:  369.900
ROOT
ATOM      1  C   UNL     1       1.857  -1.443   0.667  1.00  0.00     0.117 C 
ENDROOT
BRANCH   1   2
ATOM      2  N   UNL     1       1.435  -1.619   2.057  1.00  0.00    -0.347 N 
ATOM      3  O   UNL     1      -0.792  -2.007   1.662  1.00  0.00    -0.273 OA
ATOM      4  C   UNL     1       0.157  -1.979   2.438  1.00  0.00     0.243 C 
ATOM      5  H   UNL     1       2.116  -1.524   2.796  1.00  0.00     0.164 HD
BRANCH   4   6
ATOM      6  C   UNL     1      -0.004  -2.183   3.966  1.00  0.00     0.171 C 
BRANCH   6   7
ATOM      7  N   UNL     1       0.996  -3.141   4.465  1.00  0.00    -0.344 N 
ATOM      8  C   UNL     1       0.650  -4.451   4.716  1.00  0.00     0.226 C 
ATOM      9  O   UNL     1      -0.489  -4.874   4.562  1.00  0.00    -0.275 OA
ATOM     10  H   UNL     1       1.931  -2.812   4.668  1.00  0.00     0.164 HD
BRANCH   8  11
ATOM     11  C   UNL     1       1.804  -5.326   5.173  1.00  0.00     0.109 C 
ATOM     12  C   UNL     1       3.132  -4.597   4.963  1.00  0.00     0.021 C 
BRANCH  11  13
ATOM     13  C   UNL     1       1.551  -5.811   6.615  1.00  0.00     0.204 C 
BRANCH  13  14
ATOM     14  N   UNL     1       0.633  -4.928   7.341  1.00  0.00    -0.340 N 
ATOM     15  C   UNL     1       1.066  -3.899   8.148  1.00  0.00     0.243 C 
ATOM     16  O   UNL     1       2.255  -3.610   8.269  1.00  0.00    -0.273 OA
ATOM     17  H   UNL     1      -0.350  -5.205   7.404  1.00  0.00     0.164 HD
BRANCH  15  18
ATOM     18  C   UNL     1      -0.067  -3.240   8.972  1.00  0.00     0.171 C 
BRANCH  18  19
ATOM     19  N   UNL     1      -0.873  -4.328   9.522  1.00  0.00    -0.343 N 
ATOM     20  C   UNL     1      -2.225  -4.183   9.766  1.00  0.00     0.242 CG0
ATOM     21  O   UNL     1      -2.785  -3.095   9.659  1.00  0.00    -0.273 OA
ATOM     22  H   UNL     1      -0.431  -5.215   9.737  1.00  0.00     0.164 HD
ATOM     23  G   UNL     1      -2.922  -5.463  10.271  1.00  0.00     0.000 G0
ENDBRANCH  18  19
BRANCH  18  24
ATOM     24  C   UNL     1       0.513  -2.355  10.082  1.00  0.00     0.038 C 
BRANCH  24  25
ATOM     25  C   UNL     1       0.473  -0.841   9.786  1.00  0.00    -0.015 C 
ATOM     26  C   UNL     1       1.821  -0.161  10.030  1.00  0.00     0.007 C 
ATOM     27  C   UNL     1      -0.603  -0.176  10.648  1.00  0.00     0.007 C 
ENDBRANCH  24  25
ENDBRANCH  18  24
ENDBRANCH  15  18
ENDBRANCH  13  14
BRANCH  13  28
ATOM     28  C   UNL     1       0.969  -7.226   6.682  1.00  0.00     0.327 C 
ATOM     29  O   UNL     1       1.602  -8.270   6.657  1.00  0.00    -0.250 OA
BRANCH  28  30
ATOM     30  O   UNL     1      -0.379  -7.244   6.657  1.00  0.00    -0.480 OA
ATOM     31  H   UNL     1      -0.608  -8.197   6.680  1.00  0.00     0.296 HD
ENDBRANCH  28  30
ENDBRANCH  13  28
ENDBRANCH  11  13
ENDBRANCH   8  11
ENDBRANCH   6   7
BRANCH   6  32
ATOM     32  C   UNL     1       0.134  -0.830   4.672  1.00  0.00     0.037 C 
BRANCH  32  33
ATOM     33  C   UNL     1       0.794  -0.961   6.052  1.00  0.00     0.026 C 
BRANCH  33  34
ATOM     34  C   UNL     1       2.101  -0.173   6.152  1.00  0.00     0.146 C 
BRANCH  34  35
ATOM     35  N   UNL     1       3.136  -0.885   5.415  1.00  0.00    -0.254 NA
ATOM     36  C   UNL     1       4.363  -0.674   5.719  1.00  0.00     0.185 C 
ATOM     37  N   UNL     1       5.324  -1.327   5.050  1.00  0.00    -0.370 N 
ATOM     38  N   UNL     1       4.871   0.145   6.657  1.00  0.00    -0.370 N 
ATOM     39  H   UNL     1       5.020  -1.972   4.332  1.00  0.00     0.159 HD
ATOM     40  H   UNL     1       6.287  -1.350   5.340  1.00  0.00     0.159 HD
ATOM     41  H   UNL     1       5.860   0.329   6.707  1.00  0.00     0.159 HD
ATOM     42  H   UNL     1       4.263   0.712   7.227  1.00  0.00     0.159 HD
ENDBRANCH  34  35
ENDBRANCH  33  34
ENDBRANCH  32  33
ENDBRANCH   6  32
ENDBRANCH   4   6
ENDBRANCH   1   2
BRANCH   1  43
ATOM     43  C   UNL     1       2.971  -2.483   0.352  1.00  0.00     0.102 C 
ATOM     44  C   UNL     1       2.462  -3.934   0.323  1.00  0.00     0.020 C 
BRANCH  43  45
ATOM     45  C   UNL     1       4.192  -2.270   1.251  1.00  0.00     0.225 C 
ATOM     46  O   UNL     1       4.152  -1.628   2.297  1.00  0.00    -0.275 OA
ATOM     47  N   UNL     1       5.379  -2.769   0.766  1.00  0.00    -0.342 N 
ATOM     48  H   UNL     1       5.370  -3.418  -0.009  1.00  0.00     0.164 HD
BRANCH  47  49
ATOM     49  C   UNL     1       6.624  -2.670   1.535  1.00  0.00     0.192 C 
BRANCH  49  50
ATOM     50  C   UNL     1       7.815  -2.585   0.577  1.00  0.00     0.047 C 
BRANCH  50  51
ATOM     51  C   UNL     1       7.379  -2.572  -0.894  1.00  0.00     0.103 C 
BRANCH  51  52
ATOM     52  C   UNL     1       7.654  -3.905  -1.586  1.00  0.00     0.226 C 
ATOM     53  O   UNL     1       7.121  -4.933  -1.164  1.00  0.00    -0.275 OA
BRANCH  52  54
ATOM     54  N   UNL     1       8.462  -3.859  -2.737  1.00  0.00    -0.311 N 
ATOM     55  C   UNL     1       7.874  -3.647  -4.066  1.00  0.00     0.153 C 
BRANCH  54  56
ATOM     56  C   UNL     1       9.857  -4.008  -2.659  1.00  0.00     0.102 C 
ATOM     57  C   UNL     1      10.527  -5.137  -2.942  1.00  0.00     0.043 C 
BRANCH  56  58
ATOM     58  C   UNL     1      10.740  -2.843  -2.279  1.00  0.00     0.268 C 
ATOM     59  O   UNL     1      11.040  -2.580  -1.122  1.00  0.00    -0.268 OA
ATOM     60  N   UNL     1      11.223  -2.153  -3.366  1.00  0.00    -0.339 N 
ATOM     61  H   UNL     1      10.918  -2.428  -4.292  1.00  0.00     0.164 HD
BRANCH  60  62
ATOM     62  C   UNL     1      12.147  -1.028  -3.227  1.00  0.00     0.168 CG0
ATOM     63  C   UNL     1      11.391   0.293  -3.151  1.00  0.00     0.041 C 
ATOM     64  G   UNL     1      13.137  -1.023  -4.410  1.00  0.00     0.000 G0
ENDBRANCH  60  62
ENDBRANCH  56  58
ENDBRANCH  54  56
ENDBRANCH  52  54
ENDBRANCH  51  52
ENDBRANCH  50  51
ENDBRANCH  49  50
BRANCH  49  65
ATOM     65  C   UNL     1       6.809  -3.875   2.470  1.00  0.00     0.326 C 
ATOM     66  O   UNL     1       6.494  -3.913   3.651  1.00  0.00    -0.250 OA
BRANCH  65  67
ATOM     67  O   UNL     1       7.425  -4.938   1.907  1.00  0.00    -0.480 OA
ATOM     68  H   UNL     1       7.052  -4.967   0.999  1.00  0.00     0.296 HD
ENDBRANCH  65  67
ENDBRANCH  49  65
ENDBRANCH  47  49
ENDBRANCH  43  45
ENDBRANCH   1  43
BRANCH   1  69
ATOM     69  C   UNL     1       2.165   0.034   0.501  1.00  0.00    -0.001 C 
ATOM     70  C   UNL     1       1.780   1.044   1.302  1.00  0.00     0.001 C 
BRANCH  70  71
ATOM     71  C   UNL     1       2.102   2.464   1.143  1.00  0.00    -0.055 C 
ATOM     72  C   UNL     1       2.837   2.825   0.071  1.00  0.00    -0.018 C 
ATOM     73  C   UNL     1       1.582   3.422   2.183  1.00  0.00     0.044 C 
BRANCH  72  74
ATOM     74  C   UNL     1       3.314   4.208  -0.349  1.00  0.00     0.038 C 
ATOM     75  C   UNL     1       2.545   4.586  -1.620  1.00  0.00     0.015 C 
BRANCH  74  76
ATOM     76  C   UNL     1       4.863   4.177  -0.507  1.00  0.00     0.128 C 
BRANCH  76  77
ATOM     77  O   UNL     1       5.459   5.212   0.293  1.00  0.00    -0.381 OA
ATOM     78  C   UNL     1       5.406   4.955   1.690  1.00  0.00     0.195 C 
ENDBRANCH  76  77
BRANCH  76  79
ATOM     79  C   UNL     1       5.494   2.784  -0.254  1.00  0.00     0.068 C 
BRANCH  79  80
ATOM     80  C   UNL     1       5.675   1.864  -1.437  1.00  0.00    -0.045 A 
ATOM     81  C   UNL     1       6.395   2.275  -2.567  1.00  0.00     0.004 A 
ATOM     82  C   UNL     1       5.097   0.586  -1.434  1.00  0.00     0.004 A 
ATOM     83  C   UNL     1       6.546   1.423  -3.663  1.00  0.00     0.000 A 
ATOM     84  C   UNL     1       5.248  -0.265  -2.531  1.00  0.00     0.000 A 
ATOM     85  C   UNL     1       5.973   0.153  -3.644  1.00  0.00     0.000 A 
ENDBRANCH  79  80
ENDBRANCH  76  79
ENDBRANCH  74  76
ENDBRANCH  72  74
ENDBRANCH  70  71
ENDBRANCH   1  69
TORSDOF 17
ENDMDL
MODEL 5
REMARK VINA RESULT:    -6.502      4.290      8.038
REMARK INTER + INTRA:         -27.934
REMARK INTER:                 -20.251
REMARK INTRA:                  -7.683
REMARK UNBOUND:                -8.509
REMARK SMILES C=C1C(=O)N[C@H](C)C(=O)N[C@@H](CC(C)C)C(=O)N[C@@H](C(=O)O)[C@H](C)C(=O)N[C@@H](CCCN=C(N)N)C(=O)N[C@@H](/C=C/C(C)=C/[C@H](C)[C@H](Cc2ccccc2)OC)[C@H](C)C(=O)N[C@@H](C(=O)O)CCC(=O)N1C
REMARK SMILES IDX 39 1 38 2 37 3 36 4 28 6 27 7 25 8 26 9 23 11 24 12 19 13
REMARK SMILES IDX 18 14 16 15 17 16 11 18 10 19 8 20 9 21 12 24 13 25 14 26
REMARK SMILES IDX 15 27 20 28 21 29 22 30 29 32 30 33 31 34 32 35 33 36 34 37
REMARK SMILES IDX 35 38 57 43 58 44 59 45 60 46 61 47 62 49 66 50 67 51 68 52
REMARK SMILES IDX 69 53 70 54 71 55 2 56 1 57 3 58 4 59 5 60 6 62 7 63 63 65
REMARK SMILES IDX 64 66 65 67 40 69 41 70 42 71 44 72 43 73 45 74 46 75 47 76
REMARK SMILES IDX 55 77 56 78 48 79 49 80 50 81 54 82 51 83 53 84 52 85
REMARK H PARENT 38 5 27 10 18 17 10 22 22 31 34 39 34 40 35 41 35 42 61 48
REMARK H PARENT 5 61 65 68
REMARK Flexibility Score:  369.900
ROOT
ATOM      1  C   UNL     1       0.931  -8.457   0.254  1.00  0.00     0.117 C 
ENDROOT
BRANCH   1   2
ATOM      2  N   UNL     1      -0.141  -9.034   1.065  1.00  0.00    -0.347 N 
ATOM      3  O   UNL     1      -1.113 -10.320  -0.569  1.00  0.00    -0.273 OA
ATOM      4  C   UNL     1      -1.025  -9.993   0.610  1.00  0.00     0.243 C 
ATOM      5  H   UNL     1      -0.228  -8.765   2.034  1.00  0.00     0.164 HD
BRANCH   4   6
ATOM      6  C   UNL     1      -2.009 -10.500   1.695  1.00  0.00     0.171 C 
BRANCH   6   7
ATOM      7  N   UNL     1      -1.707  -9.877   2.994  1.00  0.00    -0.344 N 
ATOM      8  C   UNL     1      -1.841 -10.593   4.164  1.00  0.00     0.226 C 
ATOM      9  O   UNL     1      -2.233 -11.754   4.186  1.00  0.00    -0.275 OA
ATOM     10  H   UNL     1      -1.445  -8.900   3.021  1.00  0.00     0.164 HD
BRANCH   8  11
ATOM     11  C   UNL     1      -1.440  -9.830   5.413  1.00  0.00     0.109 C 
ATOM     12  C   UNL     1      -0.852 -10.788   6.449  1.00  0.00     0.021 C 
BRANCH  11  13
ATOM     13  C   UNL     1      -0.526  -8.648   5.032  1.00  0.00     0.204 C 
BRANCH  13  14
ATOM     14  N   UNL     1      -0.726  -7.490   5.909  1.00  0.00    -0.340 N 
ATOM     15  C   UNL     1      -1.578  -6.453   5.597  1.00  0.00     0.243 C 
ATOM     16  O   UNL     1      -2.279  -6.455   4.587  1.00  0.00    -0.273 OA
ATOM     17  H   UNL     1      -0.068  -7.354   6.681  1.00  0.00     0.164 HD
BRANCH  15  18
ATOM     18  C   UNL     1      -1.469  -5.250   6.566  1.00  0.00     0.171 C 
BRANCH  18  19
ATOM     19  N   UNL     1      -2.536  -5.408   7.552  1.00  0.00    -0.343 N 
ATOM     20  C   UNL     1      -3.569  -4.497   7.660  1.00  0.00     0.242 CG0
ATOM     21  O   UNL     1      -3.568  -3.445   7.026  1.00  0.00    -0.273 OA
ATOM     22  H   UNL     1      -2.519  -6.204   8.180  1.00  0.00     0.164 HD
ATOM     23  G   UNL     1      -4.642  -4.873   8.703  1.00  0.00     0.000 G0
ENDBRANCH  18  19
BRANCH  18  24
ATOM     24  C   UNL     1      -0.088  -5.216   7.233  1.00  0.00     0.038 C 
BRANCH  24  25
ATOM     25  C   UNL     1       0.897  -4.195   6.624  1.00  0.00    -0.015 C 
ATOM     26  C   UNL     1       1.868  -3.628   7.660  1.00  0.00     0.007 C 
ATOM     27  C   UNL     1       0.115  -3.052   5.971  1.00  0.00     0.007 C 
ENDBRANCH  24  25
ENDBRANCH  18  24
ENDBRANCH  15  18
ENDBRANCH  13  14
BRANCH  13  28
ATOM     28  C   UNL     1       0.964  -8.999   5.075  1.00  0.00     0.327 C 
ATOM     29  O   UNL     1       1.739  -8.749   5.986  1.00  0.00    -0.250 OA
BRANCH  28  30
ATOM     30  O   UNL     1       1.415  -9.535   3.923  1.00  0.00    -0.480 OA
ATOM     31  H   UNL     1       0.612  -9.624   3.368  1.00  0.00     0.296 HD
ENDBRANCH  28  30
ENDBRANCH  13  28
ENDBRANCH  11  13
ENDBRANCH   8  11
ENDBRANCH   6   7
BRANCH   6  32
ATOM     32  C   UNL     1      -3.445 -10.186   1.258  1.00  0.00     0.037 C 
BRANCH  32  33
ATOM     33  C   UNL     1      -3.964  -8.878   1.872  1.00  0.00     0.026 C 
BRANCH  33  34
ATOM     34  C   UNL     1      -5.080  -9.113   2.891  1.00  0.00     0.146 C 
BRANCH  34  35
ATOM     35  N   UNL     1      -4.838  -8.272   4.055  1.00  0.00    -0.254 NA
ATOM     36  C   UNL     1      -4.878  -8.807   5.219  1.00  0.00     0.185 C 
ATOM     37  N   UNL     1      -4.651  -8.042   6.298  1.00  0.00    -0.370 N 
ATOM     38  N   UNL     1      -5.123 -10.086   5.553  1.00  0.00    -0.370 N 
ATOM     39  H   UNL     1      -4.448  -7.065   6.128  1.00  0.00     0.159 HD
ATOM     40  H   UNL     1      -4.494  -8.413   7.219  1.00  0.00     0.159 HD
ATOM     41  H   UNL     1      -5.265 -10.356   6.512  1.00  0.00     0.159 HD
ATOM     42  H   UNL     1      -5.327 -10.772   4.842  1.00  0.00     0.159 HD
ENDBRANCH  34  35
ENDBRANCH  33  34
ENDBRANCH  32  33
ENDBRANCH   6  32
ENDBRANCH   4   6
ENDBRANCH   1   2
BRANCH   1  43
ATOM     43  C   UNL     1       2.158  -9.413   0.304  1.00  0.00     0.102 C 
ATOM     44  C   UNL     1       3.358  -8.829   1.070  1.00  0.00     0.020 C 
BRANCH  43  45
ATOM     45  C   UNL     1       2.508  -9.933  -1.094  1.00  0.00     0.225 C 
ATOM     46  O   UNL     1       3.646  -9.911  -1.553  1.00  0.00    -0.275 OA
ATOM     47  N   UNL     1       1.439 -10.348  -1.856  1.00  0.00    -0.342 N 
ATOM     48  H   UNL     1       0.542 -10.502  -1.417  1.00  0.00     0.164 HD
BRANCH  47  49
ATOM     49  C   UNL     1       1.626 -10.903  -3.200  1.00  0.00     0.192 C 
BRANCH  49  50
ATOM     50  C   UNL     1       1.217  -9.864  -4.247  1.00  0.00     0.047 C 
BRANCH  50  51
ATOM     51  C   UNL     1       2.250  -9.736  -5.374  1.00  0.00     0.103 C 
BRANCH  51  52
ATOM     52  C   UNL     1       2.644  -8.283  -5.629  1.00  0.00     0.226 C 
ATOM     53  O   UNL     1       1.858  -7.378  -5.340  1.00  0.00    -0.275 OA
BRANCH  52  54
ATOM     54  N   UNL     1       3.944  -8.063  -6.121  1.00  0.00    -0.311 N 
ATOM     55  C   UNL     1       5.100  -8.031  -5.216  1.00  0.00     0.153 C 
BRANCH  54  56
ATOM     56  C   UNL     1       4.185  -7.871  -7.492  1.00  0.00     0.102 C 
ATOM     57  C   UNL     1       3.425  -8.365  -8.482  1.00  0.00     0.043 C 
BRANCH  56  58
ATOM     58  C   UNL     1       5.341  -7.020  -7.963  1.00  0.00     0.268 C 
ATOM     59  O   UNL     1       5.324  -5.797  -7.945  1.00  0.00    -0.268 OA
ATOM     60  N   UNL     1       6.433  -7.760  -8.351  1.00  0.00    -0.339 N 
ATOM     61  H   UNL     1       6.363  -8.771  -8.347  1.00  0.00     0.164 HD
BRANCH  60  62
ATOM     62  C   UNL     1       7.683  -7.136  -8.784  1.00  0.00     0.168 CG0
ATOM     63  C   UNL     1       8.572  -6.809  -7.591  1.00  0.00     0.041 C 
ATOM     64  G   UNL     1       7.370  -5.864  -9.598  1.00  0.00     0.000 G0
ENDBRANCH  60  62
ENDBRANCH  56  58
ENDBRANCH  54  56
ENDBRANCH  52  54
ENDBRANCH  51  52
ENDBRANCH  50  51
ENDBRANCH  49  50
BRANCH  49  65
ATOM     65  C   UNL     1       0.801 -12.184  -3.403  1.00  0.00     0.326 C 
ATOM     66  O   UNL     1       0.789 -12.867  -4.417  1.00  0.00    -0.250 OA
BRANCH  65  67
ATOM     67  O   UNL     1      -0.003 -12.507  -2.367  1.00  0.00    -0.480 OA
ATOM     68  H   UNL     1       0.340 -13.379  -2.072  1.00  0.00     0.296 HD
ENDBRANCH  65  67
ENDBRANCH  49  65
ENDBRANCH  47  49
ENDBRANCH  43  45
ENDBRANCH   1  43
BRANCH   1  69
ATOM     69  C   UNL     1       1.097  -7.025   0.727  1.00  0.00    -0.001 C 
ATOM     70  C   UNL     1       0.188  -6.263   1.360  1.00  0.00     0.001 C 
BRANCH  70  71
ATOM     71  C   UNL     1       0.367  -4.888   1.831  1.00  0.00    -0.055 C 
ATOM     72  C   UNL     1       1.558  -4.296   1.602  1.00  0.00    -0.018 C 
ATOM     73  C   UNL     1      -0.793  -4.228   2.530  1.00  0.00     0.044 C 
BRANCH  72  74
ATOM     74  C   UNL     1       2.024  -2.895   1.970  1.00  0.00     0.038 C 
ATOM     75  C   UNL     1       2.148  -2.102   0.663  1.00  0.00     0.015 C 
BRANCH  74  76
ATOM     76  C   UNL     1       3.340  -3.004   2.795  1.00  0.00     0.128 C 
BRANCH  76  77
ATOM     77  O   UNL     1       3.059  -2.829   4.194  1.00  0.00    -0.381 OA
ATOM     78  C   UNL     1       3.945  -1.930   4.846  1.00  0.00     0.195 C 
ENDBRANCH  76  77
BRANCH  76  79
ATOM     79  C   UNL     1       4.160  -4.286   2.504  1.00  0.00     0.068 C 
BRANCH  79  80
ATOM     80  C   UNL     1       5.465  -4.137   1.759  1.00  0.00    -0.045 A 
ATOM     81  C   UNL     1       5.517  -4.260   0.364  1.00  0.00     0.004 A 
ATOM     82  C   UNL     1       6.657  -3.900   2.460  1.00  0.00     0.004 A 
ATOM     83  C   UNL     1       6.730  -4.135  -0.317  1.00  0.00     0.000 A 
ATOM     84  C   UNL     1       7.869  -3.776   1.778  1.00  0.00     0.000 A 
ATOM     85  C   UNL     1       7.906  -3.892   0.391  1.00  0.00     0.000 A 
ENDBRANCH  79  80
ENDBRANCH  76  79
ENDBRANCH  74  76
ENDBRANCH  72  74
ENDBRANCH  70  71
ENDBRANCH   1  69
TORSDOF 17
ENDMDL
MODEL 6
REMARK VINA RESULT:    -6.498      4.190      7.019
REMARK INTER + INTRA:         -27.923
REMARK INTER:                 -19.664
REMARK INTRA:                  -8.259
REMARK UNBOUND:                -8.509
REMARK SMILES C=C1C(=O)N[C@H](C)C(=O)N[C@@H](CC(C)C)C(=O)N[C@@H](C(=O)O)[C@H](C)C(=O)N[C@@H](CCCN=C(N)N)C(=O)N[C@@H](/C=C/C(C)=C/[C@H](C)[C@H](Cc2ccccc2)OC)[C@H](C)C(=O)N[C@@H](C(=O)O)CCC(=O)N1C
REMARK SMILES IDX 39 1 38 2 37 3 36 4 28 6 27 7 25 8 26 9 23 11 24 12 19 13
REMARK SMILES IDX 18 14 16 15 17 16 11 18 10 19 8 20 9 21 12 24 13 25 14 26
REMARK SMILES IDX 15 27 20 28 21 29 22 30 29 32 30 33 31 34 32 35 33 36 34 37
REMARK SMILES IDX 35 38 57 43 58 44 59 45 60 46 61 47 62 49 66 50 67 51 68 52
REMARK SMILES IDX 69 53 70 54 71 55 2 56 1 57 3 58 4 59 5 60 6 62 7 63 63 65
REMARK SMILES IDX 64 66 65 67 40 69 41 70 42 71 44 72 43 73 45 74 46 75 47 76
REMARK SMILES IDX 55 77 56 78 48 79 49 80 50 81 54 82 51 83 53 84 52 85
REMARK H PARENT 38 5 27 10 18 17 10 22 22 31 34 39 34 40 35 41 35 42 61 48
REMARK H PARENT 5 61 65 68
REMARK Flexibility Score:  369.900
ROOT
ATOM      1  C   UNL     1      -0.566  -6.485   5.847  1.00  0.00     0.117 C 
ENDROOT
BRANCH   1   2
ATOM      2  N   UNL     1      -0.814  -5.785   7.108  1.00  0.00    -0.347 N 
ATOM      3  O   UNL     1      -2.514  -4.425   6.382  1.00  0.00    -0.273 OA
ATOM      4  C   UNL     1      -1.833  -4.873   7.299  1.00  0.00     0.243 C 
ATOM      5  H   UNL     1      -0.248  -6.004   7.914  1.00  0.00     0.164 HD
BRANCH   4   6
ATOM      6  C   UNL     1      -1.931  -4.341   8.751  1.00  0.00     0.171 C 
BRANCH   6   7
ATOM      7  N   UNL     1      -1.654  -2.897   8.790  1.00  0.00    -0.344 N 
ATOM      8  C   UNL     1      -0.447  -2.425   9.261  1.00  0.00     0.226 C 
ATOM      9  O   UNL     1       0.432  -3.166   9.684  1.00  0.00    -0.275 OA
ATOM     10  H   UNL     1      -2.381  -2.250   8.512  1.00  0.00     0.164 HD
BRANCH   8  11
ATOM     11  C   UNL     1      -0.294  -0.916   9.186  1.00  0.00     0.109 C 
ATOM     12  C   UNL     1       1.186  -0.535   9.240  1.00  0.00     0.021 C 
BRANCH  11  13
ATOM     13  C   UNL     1      -1.058  -0.374   7.961  1.00  0.00     0.204 C 
BRANCH  13  14
ATOM     14  N   UNL     1      -1.195   1.085   7.998  1.00  0.00    -0.340 N 
ATOM     15  C   UNL     1      -2.393   1.730   7.779  1.00  0.00     0.243 C 
ATOM     16  O   UNL     1      -3.446   1.123   7.598  1.00  0.00    -0.273 OA
ATOM     17  H   UNL     1      -0.340   1.648   7.991  1.00  0.00     0.164 HD
BRANCH  15  18
ATOM     18  C   UNL     1      -2.254   3.268   7.660  1.00  0.00     0.171 C 
BRANCH  18  19
ATOM     19  N   UNL     1      -2.213   3.792   9.024  1.00  0.00    -0.343 N 
ATOM     20  C   UNL     1      -3.002   4.855   9.420  1.00  0.00     0.242 CG0
ATOM     21  O   UNL     1      -3.673   5.494   8.614  1.00  0.00    -0.273 OA
ATOM     22  H   UNL     1      -1.587   3.370   9.700  1.00  0.00     0.164 HD
ATOM     23  G   UNL     1      -2.880   5.215  10.915  1.00  0.00     0.000 G0
ENDBRANCH  18  19
BRANCH  18  24
ATOM     24  C   UNL     1      -0.988   3.639   6.877  1.00  0.00     0.038 C 
BRANCH  24  25
ATOM     25  C   UNL     1      -1.216   4.627   5.714  1.00  0.00    -0.015 C 
ATOM     26  C   UNL     1      -1.005   6.082   6.133  1.00  0.00     0.007 C 
ATOM     27  C   UNL     1      -2.632   4.451   5.159  1.00  0.00     0.007 C 
ENDBRANCH  24  25
ENDBRANCH  18  24
ENDBRANCH  15  18
ENDBRANCH  13  14
BRANCH  13  28
ATOM     28  C   UNL     1      -0.396  -0.735   6.628  1.00  0.00     0.327 C 
ATOM     29  O   UNL     1       0.459  -0.085   6.047  1.00  0.00    -0.250 OA
BRANCH  28  30
ATOM     30  O   UNL     1      -0.934  -1.828   6.049  1.00  0.00    -0.480 OA
ATOM     31  H   UNL     1      -1.719  -1.487   5.573  1.00  0.00     0.296 HD
ENDBRANCH  28  30
ENDBRANCH  13  28
ENDBRANCH  11  13
ENDBRANCH   8  11
ENDBRANCH   6   7
BRANCH   6  32
ATOM     32  C   UNL     1      -3.327  -4.646   9.306  1.00  0.00     0.037 C 
BRANCH  32  33
ATOM     33  C   UNL     1      -4.102  -3.369   9.657  1.00  0.00     0.026 C 
BRANCH  33  34
ATOM     34  C   UNL     1      -5.343  -3.178   8.783  1.00  0.00     0.146 C 
BRANCH  34  35
ATOM     35  N   UNL     1      -4.963  -2.446   7.583  1.00  0.00    -0.254 NA
ATOM     36  C   UNL     1      -5.664  -1.431   7.235  1.00  0.00     0.185 C 
ATOM     37  N   UNL     1      -5.321  -0.745   6.134  1.00  0.00    -0.370 N 
ATOM     38  N   UNL     1      -6.751  -0.911   7.832  1.00  0.00    -0.370 N 
ATOM     39  H   UNL     1      -4.503  -1.070   5.633  1.00  0.00     0.159 HD
ATOM     40  H   UNL     1      -5.706   0.152   5.895  1.00  0.00     0.159 HD
ATOM     41  H   UNL     1      -7.298  -0.193   7.385  1.00  0.00     0.159 HD
ATOM     42  H   UNL     1      -7.132  -1.335   8.664  1.00  0.00     0.159 HD
ENDBRANCH  34  35
ENDBRANCH  33  34
ENDBRANCH  32  33
ENDBRANCH   6  32
ENDBRANCH   4   6
ENDBRANCH   1   2
BRANCH   1  43
ATOM     43  C   UNL     1      -0.002  -7.899   6.168  1.00  0.00     0.102 C 
ATOM     44  C   UNL     1       1.521  -8.007   5.983  1.00  0.00     0.020 C 
BRANCH  43  45
ATOM     45  C   UNL     1      -0.795  -8.987   5.438  1.00  0.00     0.225 C 
ATOM     46  O   UNL     1      -0.370 -10.126   5.265  1.00  0.00    -0.275 OA
ATOM     47  N   UNL     1      -1.993  -8.582   4.894  1.00  0.00    -0.342 N 
ATOM     48  H   UNL     1      -2.395  -7.698   5.172  1.00  0.00     0.164 HD
BRANCH  47  49
ATOM     49  C   UNL     1      -2.875  -9.524   4.198  1.00  0.00     0.192 C 
BRANCH  49  50
ATOM     50  C   UNL     1      -3.136  -9.027   2.774  1.00  0.00     0.047 C 
BRANCH  50  51
ATOM     51  C   UNL     1      -1.924  -8.295   2.182  1.00  0.00     0.103 C 
BRANCH  51  52
ATOM     52  C   UNL     1      -0.956  -9.254   1.491  1.00  0.00     0.226 C 
ATOM     53  O   UNL     1      -0.818 -10.399   1.925  1.00  0.00    -0.275 OA
BRANCH  52  54
ATOM     54  N   UNL     1      -0.324  -8.776   0.328  1.00  0.00    -0.311 N 
ATOM     55  C   UNL     1       0.513  -7.569   0.363  1.00  0.00     0.153 C 
BRANCH  54  56
ATOM     56  C   UNL     1      -0.463  -9.435  -0.905  1.00  0.00     0.102 C 
ATOM     57  C   UNL     1      -1.407  -9.161  -1.820  1.00  0.00     0.043 C 
BRANCH  56  58
ATOM     58  C   UNL     1       0.508 -10.514  -1.321  1.00  0.00     0.268 C 
ATOM     59  O   UNL     1       1.615 -10.649  -0.818  1.00  0.00    -0.268 OA
ATOM     60  N   UNL     1      -0.004 -11.365  -2.272  1.00  0.00    -0.339 N 
ATOM     61  H   UNL     1      -0.926 -11.178  -2.646  1.00  0.00     0.164 HD
BRANCH  60  62
ATOM     62  C   UNL     1       0.746 -12.517  -2.771  1.00  0.00     0.168 CG0
ATOM     63  C   UNL     1       0.540 -13.733  -1.876  1.00  0.00     0.041 C 
ATOM     64  G   UNL     1       2.243 -12.157  -2.868  1.00  0.00     0.000 G0
ENDBRANCH  60  62
ENDBRANCH  56  58
ENDBRANCH  54  56
ENDBRANCH  52  54
ENDBRANCH  51  52
ENDBRANCH  50  51
ENDBRANCH  49  50
BRANCH  49  65
ATOM     65  C   UNL     1      -4.215  -9.693   4.931  1.00  0.00     0.326 C 
ATOM     66  O   UNL     1      -5.218 -10.215   4.467  1.00  0.00    -0.250 OA
BRANCH  65  67
ATOM     67  O   UNL     1      -4.253  -9.154   6.170  1.00  0.00    -0.480 OA
ATOM     68  H   UNL     1      -4.444  -9.921   6.751  1.00  0.00     0.296 HD
ENDBRANCH  65  67
ENDBRANCH  49  65
ENDBRANCH  47  49
ENDBRANCH  43  45
ENDBRANCH   1  43
BRANCH   1  69
ATOM     69  C   UNL     1       0.262  -5.542   4.994  1.00  0.00    -0.001 C 
ATOM     70  C   UNL     1       0.231  -5.410   3.656  1.00  0.00     0.001 C 
BRANCH  70  71
ATOM     71  C   UNL     1       1.020  -4.480   2.846  1.00  0.00    -0.055 C 
ATOM     72  C   UNL     1       2.233  -4.892   2.419  1.00  0.00    -0.018 C 
ATOM     73  C   UNL     1       0.420  -3.133   2.538  1.00  0.00     0.044 C 
BRANCH  72  74
ATOM     74  C   UNL     1       3.258  -4.153   1.571  1.00  0.00     0.038 C 
ATOM     75  C   UNL     1       3.450  -4.964   0.284  1.00  0.00     0.015 C 
BRANCH  74  76
ATOM     76  C   UNL     1       4.551  -3.949   2.414  1.00  0.00     0.128 C 
BRANCH  76  77
ATOM     77  O   UNL     1       5.660  -3.653   1.547  1.00  0.00    -0.381 OA
ATOM     78  C   UNL     1       6.889  -4.219   1.980  1.00  0.00     0.195 C 
ENDBRANCH  76  77
BRANCH  76  79
ATOM     79  C   UNL     1       4.398  -2.921   3.564  1.00  0.00     0.068 C 
BRANCH  79  80
ATOM     80  C   UNL     1       3.791  -3.397   4.861  1.00  0.00    -0.045 A 
ATOM     81  C   UNL     1       2.916  -2.582   5.591  1.00  0.00     0.004 A 
ATOM     82  C   UNL     1       4.119  -4.662   5.373  1.00  0.00     0.004 A 
ATOM     83  C   UNL     1       2.370  -3.025   6.797  1.00  0.00     0.000 A 
ATOM     84  C   UNL     1       3.573  -5.103   6.580  1.00  0.00     0.000 A 
ATOM     85  C   UNL     1       2.698  -4.286   7.291  1.00  0.00     0.000 A 
ENDBRANCH  79  80
ENDBRANCH  76  79
ENDBRANCH  74  76
ENDBRANCH  72  74
ENDBRANCH  70  71
ENDBRANCH   1  69
TORSDOF 17
ENDMDL
MODEL 7
REMARK VINA RESULT:    -6.476      2.624      5.271
REMARK INTER + INTRA:         -27.857
REMARK INTER:                 -21.646
REMARK INTRA:                  -6.210
REMARK UNBOUND:                -8.509
REMARK SMILES C=C1C(=O)N[C@H](C)C(=O)N[C@@H](CC(C)C)C(=O)N[C@@H](C(=O)O)[C@H](C)C(=O)N[C@@H](CCCN=C(N)N)C(=O)N[C@@H](/C=C/C(C)=C/[C@H](C)[C@H](Cc2ccccc2)OC)[C@H](C)C(=O)N[C@@H](C(=O)O)CCC(=O)N1C
REMARK SMILES IDX 39 1 38 2 37 3 36 4 28 6 27 7 25 8 26 9 23 11 24 12 19 13
REMARK SMILES IDX 18 14 16 15 17 16 11 18 10 19 8 20 9 21 12 24 13 25 14 26
REMARK SMILES IDX 15 27 20 28 21 29 22 30 29 32 30 33 31 34 32 35 33 36 34 37
REMARK SMILES IDX 35 38 57 43 58 44 59 45 60 46 61 47 62 49 66 50 67 51 68 52
REMARK SMILES IDX 69 53 70 54 71 55 2 56 1 57 3 58 4 59 5 60 6 62 7 63 63 65
REMARK SMILES IDX 64 66 65 67 40 69 41 70 42 71 44 72 43 73 45 74 46 75 47 76
REMARK SMILES IDX 55 77 56 78 48 79 49 80 50 81 54 82 51 83 53 84 52 85
REMARK H PARENT 38 5 27 10 18 17 10 22 22 31 34 39 34 40 35 41 35 42 61 48
REMARK H PARENT 5 61 65 68
REMARK Flexibility Score:  369.900
ROOT
ATOM      1  C   UNL     1       0.429  -7.086   2.533  1.00  0.00     0.117 C 
ENDROOT
BRANCH   1   2
ATOM      2  N   UNL     1      -0.523  -7.069   3.644  1.00  0.00    -0.347 N 
ATOM      3  O   UNL     1      -1.989  -5.530   2.777  1.00  0.00    -0.273 OA
ATOM      4  C   UNL     1      -1.708  -6.358   3.637  1.00  0.00     0.243 C 
ATOM      5  H   UNL     1      -0.347  -7.643   4.455  1.00  0.00     0.164 HD
BRANCH   4   6
ATOM      6  C   UNL     1      -2.576  -6.580   4.901  1.00  0.00     0.171 C 
BRANCH   6   7
ATOM      7  N   UNL     1      -2.905  -5.291   5.532  1.00  0.00    -0.344 N 
ATOM      8  C   UNL     1      -2.192  -4.840   6.622  1.00  0.00     0.226 C 
ATOM      9  O   UNL     1      -1.281  -5.485   7.128  1.00  0.00    -0.275 OA
ATOM     10  H   UNL     1      -3.694  -4.762   5.184  1.00  0.00     0.164 HD
BRANCH   8  11
ATOM     11  C   UNL     1      -2.616  -3.471   7.123  1.00  0.00     0.109 C 
ATOM     12  C   UNL     1      -3.300  -2.689   6.002  1.00  0.00     0.021 C 
BRANCH  11  13
ATOM     13  C   UNL     1      -3.450  -3.622   8.411  1.00  0.00     0.204 C 
BRANCH  13  14
ATOM     14  N   UNL     1      -4.361  -4.770   8.346  1.00  0.00    -0.340 N 
ATOM     15  C   UNL     1      -5.703  -4.645   8.057  1.00  0.00     0.243 C 
ATOM     16  O   UNL     1      -6.219  -3.566   7.773  1.00  0.00    -0.273 OA
ATOM     17  H   UNL     1      -4.033  -5.665   8.718  1.00  0.00     0.164 HD
BRANCH  15  18
ATOM     18  C   UNL     1      -6.502  -5.957   8.250  1.00  0.00     0.171 C 
BRANCH  18  19
ATOM     19  N   UNL     1      -7.756  -5.796   7.517  1.00  0.00    -0.343 N 
ATOM     20  C   UNL     1      -8.979  -5.786   8.159  1.00  0.00     0.242 CG0
ATOM     21  O   UNL     1      -9.080  -6.046   9.356  1.00  0.00    -0.273 OA
ATOM     22  H   UNL     1      -7.733  -5.693   6.509  1.00  0.00     0.164 HD
ATOM     23  G   UNL     1     -10.183  -5.525   7.230  1.00  0.00     0.000 G0
ENDBRANCH  18  19
BRANCH  18  24
ATOM     24  C   UNL     1      -5.701  -7.159   7.735  1.00  0.00     0.038 C 
BRANCH  24  25
ATOM     25  C   UNL     1      -6.516  -8.461   7.586  1.00  0.00    -0.015 C 
ATOM     26  C   UNL     1      -7.129  -8.922   8.909  1.00  0.00     0.007 C 
ATOM     27  C   UNL     1      -5.622  -9.567   7.020  1.00  0.00     0.007 C 
ENDBRANCH  24  25
ENDBRANCH  18  24
ENDBRANCH  15  18
ENDBRANCH  13  14
BRANCH  13  28
ATOM     28  C   UNL     1      -2.594  -3.793   9.669  1.00  0.00     0.327 C 
ATOM     29  O   UNL     1      -1.692  -3.054  10.035  1.00  0.00    -0.250 OA
BRANCH  28  30
ATOM     30  O   UNL     1      -2.842  -4.944  10.326  1.00  0.00    -0.480 OA
ATOM     31  H   UNL     1      -2.594  -4.751  11.254  1.00  0.00     0.296 HD
ENDBRANCH  28  30
ENDBRANCH  13  28
ENDBRANCH  11  13
ENDBRANCH   8  11
ENDBRANCH   6   7
BRANCH   6  32
ATOM     32  C   UNL     1      -3.849  -7.339   4.511  1.00  0.00     0.037 C 
BRANCH  32  33
ATOM     33  C   UNL     1      -3.541  -8.731   3.941  1.00  0.00     0.026 C 
BRANCH  33  34
ATOM     34  C   UNL     1      -2.941  -9.672   4.986  1.00  0.00     0.146 C 
BRANCH  34  35
ATOM     35  N   UNL     1      -1.503  -9.754   4.774  1.00  0.00    -0.254 NA
ATOM     36  C   UNL     1      -0.766 -10.201   5.721  1.00  0.00     0.185 C 
ATOM     37  N   UNL     1       0.560 -10.286   5.534  1.00  0.00    -0.370 N 
ATOM     38  N   UNL     1      -1.129 -10.626   6.945  1.00  0.00    -0.370 N 
ATOM     39  H   UNL     1       0.911  -9.994   4.631  1.00  0.00     0.159 HD
ATOM     40  H   UNL     1       1.179 -10.782   6.153  1.00  0.00     0.159 HD
ATOM     41  H   UNL     1      -0.440 -10.824   7.652  1.00  0.00     0.159 HD
ATOM     42  H   UNL     1      -2.095 -10.604   7.229  1.00  0.00     0.159 HD
ENDBRANCH  34  35
ENDBRANCH  33  34
ENDBRANCH  32  33
ENDBRANCH   6  32
ENDBRANCH   4   6
ENDBRANCH   1   2
BRANCH   1  43
ATOM     43  C   UNL     1       0.848  -8.560   2.263  1.00  0.00     0.102 C 
ATOM     44  C   UNL     1       2.307  -8.706   1.799  1.00  0.00     0.020 C 
BRANCH  43  45
ATOM     45  C   UNL     1      -0.166  -9.263   1.355  1.00  0.00     0.225 C 
ATOM     46  O   UNL     1      -0.753 -10.292   1.676  1.00  0.00    -0.275 OA
ATOM     47  N   UNL     1      -0.315  -8.718   0.100  1.00  0.00    -0.342 N 
ATOM     48  H   UNL     1       0.054  -7.797  -0.093  1.00  0.00     0.164 HD
BRANCH  47  49
ATOM     49  C   UNL     1      -1.276  -9.263  -0.863  1.00  0.00     0.192 C 
BRANCH  49  50
ATOM     50  C   UNL     1      -0.701  -9.160  -2.278  1.00  0.00     0.047 C 
BRANCH  50  51
ATOM     51  C   UNL     1       0.462 -10.136  -2.507  1.00  0.00     0.103 C 
BRANCH  51  52
ATOM     52  C   UNL     1       1.773  -9.407  -2.797  1.00  0.00     0.226 C 
ATOM     53  O   UNL     1       2.710  -9.498  -2.001  1.00  0.00    -0.275 OA
BRANCH  52  54
ATOM     54  N   UNL     1       1.852  -8.723  -4.024  1.00  0.00    -0.311 N 
ATOM     55  C   UNL     1       1.676  -7.267  -4.090  1.00  0.00     0.153 C 
BRANCH  54  56
ATOM     56  C   UNL     1       2.106  -9.404  -5.226  1.00  0.00     0.102 C 
ATOM     57  C   UNL     1       1.733 -10.667  -5.488  1.00  0.00     0.043 C 
BRANCH  56  58
ATOM     58  C   UNL     1       2.809  -8.715  -6.373  1.00  0.00     0.268 C 
ATOM     59  O   UNL     1       2.246  -8.409  -7.416  1.00  0.00    -0.268 OA
ATOM     60  N   UNL     1       4.121  -8.411  -6.098  1.00  0.00    -0.339 N 
ATOM     61  H   UNL     1       4.515  -8.709  -5.214  1.00  0.00     0.164 HD
BRANCH  60  62
ATOM     62  C   UNL     1       4.967  -7.688  -7.046  1.00  0.00     0.168 CG0
ATOM     63  C   UNL     1       4.855  -6.182  -6.841  1.00  0.00     0.041 C 
ATOM     64  G   UNL     1       4.576  -8.073  -8.487  1.00  0.00     0.000 G0
ENDBRANCH  60  62
ENDBRANCH  56  58
ENDBRANCH  54  56
ENDBRANCH  52  54
ENDBRANCH  51  52
ENDBRANCH  50  51
ENDBRANCH  49  50
BRANCH  49  65
ATOM     65  C   UNL     1      -2.620  -8.521  -0.805  1.00  0.00     0.326 C 
ATOM     66  O   UNL     1      -3.006  -7.686  -1.610  1.00  0.00    -0.250 OA
BRANCH  65  67
ATOM     67  O   UNL     1      -3.378  -8.812   0.275  1.00  0.00    -0.480 OA
ATOM     68  H   UNL     1      -4.088  -8.135   0.249  1.00  0.00     0.296 HD
ENDBRANCH  65  67
ENDBRANCH  49  65
ENDBRANCH  47  49
ENDBRANCH  43  45
ENDBRANCH   1  43
BRANCH   1  69
ATOM     69  C   UNL     1       1.502  -6.070   2.878  1.00  0.00    -0.001 C 
ATOM     70  C   UNL     1       1.913  -5.700   4.104  1.00  0.00     0.001 C 
BRANCH  70  71
ATOM     71  C   UNL     1       2.965  -4.733   4.424  1.00  0.00    -0.055 C 
ATOM     72  C   UNL     1       3.057  -3.628   3.655  1.00  0.00    -0.018 C 
ATOM     73  C   UNL     1       3.864  -5.036   5.594  1.00  0.00     0.044 C 
BRANCH  72  74
ATOM     74  C   UNL     1       4.035  -2.466   3.752  1.00  0.00     0.038 C 
ATOM     75  C   UNL     1       3.622  -1.627   4.967  1.00  0.00     0.015 C 
BRANCH  74  76
ATOM     76  C   UNL     1       4.036  -1.697   2.398  1.00  0.00     0.128 C 
BRANCH  76  77
ATOM     77  O   UNL     1       5.311  -1.845   1.751  1.00  0.00    -0.381 OA
ATOM     78  C   UNL     1       6.378  -2.122   2.648  1.00  0.00     0.195 C 
ENDBRANCH  76  77
BRANCH  76  79
ATOM     79  C   UNL     1       2.848  -2.056   1.470  1.00  0.00     0.068 C 
BRANCH  79  80
ATOM     80  C   UNL     1       1.484  -1.518   1.829  1.00  0.00    -0.045 A 
ATOM     81  C   UNL     1       1.317  -0.189   2.239  1.00  0.00     0.004 A 
ATOM     82  C   UNL     1       0.359  -2.356   1.783  1.00  0.00     0.004 A 
ATOM     83  C   UNL     1       0.053   0.297   2.583  1.00  0.00     0.000 A 
ATOM     84  C   UNL     1      -0.904  -1.869   2.128  1.00  0.00     0.000 A 
ATOM     85  C   UNL     1      -1.057  -0.543   2.526  1.00  0.00     0.000 A 
ENDBRANCH  79  80
ENDBRANCH  76  79
ENDBRANCH  74  76
ENDBRANCH  72  74
ENDBRANCH  70  71
ENDBRANCH   1  69
TORSDOF 17
ENDMDL
MODEL 8
REMARK VINA RESULT:    -6.464      7.480     11.769
REMARK INTER + INTRA:         -27.820
REMARK INTER:                 -20.442
REMARK INTRA:                  -7.378
REMARK UNBOUND:                -8.509
REMARK SMILES C=C1C(=O)N[C@H](C)C(=O)N[C@@H](CC(C)C)C(=O)N[C@@H](C(=O)O)[C@H](C)C(=O)N[C@@H](CCCN=C(N)N)C(=O)N[C@@H](/C=C/C(C)=C/[C@H](C)[C@H](Cc2ccccc2)OC)[C@H](C)C(=O)N[C@@H](C(=O)O)CCC(=O)N1C
REMARK SMILES IDX 39 1 38 2 37 3 36 4 28 6 27 7 25 8 26 9 23 11 24 12 19 13
REMARK SMILES IDX 18 14 16 15 17 16 11 18 10 19 8 20 9 21 12 24 13 25 14 26
REMARK SMILES IDX 15 27 20 28 21 29 22 30 29 32 30 33 31 34 32 35 33 36 34 37
REMARK SMILES IDX 35 38 57 43 58 44 59 45 60 46 61 47 62 49 66 50 67 51 68 52
REMARK SMILES IDX 69 53 70 54 71 55 2 56 1 57 3 58 4 59 5 60 6 62 7 63 63 65
REMARK SMILES IDX 64 66 65 67 40 69 41 70 42 71 44 72 43 73 45 74 46 75 47 76
REMARK SMILES IDX 55 77 56 78 48 79 49 80 50 81 54 82 51 83 53 84 52 85
REMARK H PARENT 38 5 27 10 18 17 10 22 22 31 34 39 34 40 35 41 35 42 61 48
REMARK H PARENT 5 61 65 68
REMARK Flexibility Score:  369.900
ROOT
ATOM      1  C   UNL     1       6.927  -3.915  -0.457  1.00  0.00     0.117 C 
ENDROOT
BRANCH   1   2
ATOM      2  N   UNL     1       5.701  -3.738   0.323  1.00  0.00    -0.347 N 
ATOM      3  O   UNL     1       4.985  -5.919   0.279  1.00  0.00    -0.273 OA
ATOM      4  C   UNL     1       4.873  -4.775   0.707  1.00  0.00     0.243 C 
ATOM      5  H   UNL     1       5.453  -2.818   0.652  1.00  0.00     0.164 HD
BRANCH   4   6
ATOM      6  C   UNL     1       3.688  -4.328   1.600  1.00  0.00     0.171 C 
BRANCH   6   7
ATOM      7  N   UNL     1       3.983  -3.033   2.235  1.00  0.00    -0.344 N 
ATOM      8  C   UNL     1       4.601  -2.979   3.466  1.00  0.00     0.226 C 
ATOM      9  O   UNL     1       4.911  -3.985   4.094  1.00  0.00    -0.275 OA
ATOM     10  H   UNL     1       3.681  -2.182   1.778  1.00  0.00     0.164 HD
BRANCH   8  11
ATOM     11  C   UNL     1       4.885  -1.572   3.962  1.00  0.00     0.109 C 
ATOM     12  C   UNL     1       5.081  -0.627   2.777  1.00  0.00     0.021 C 
BRANCH  11  13
ATOM     13  C   UNL     1       3.794  -1.141   4.962  1.00  0.00     0.204 C 
BRANCH  13  14
ATOM     14  N   UNL     1       3.444  -2.218   5.894  1.00  0.00    -0.340 N 
ATOM     15  C   UNL     1       2.143  -2.511   6.244  1.00  0.00     0.243 C 
ATOM     16  O   UNL     1       1.179  -1.928   5.751  1.00  0.00    -0.273 OA
ATOM     17  H   UNL     1       4.195  -2.635   6.450  1.00  0.00     0.164 HD
BRANCH  15  18
ATOM     18  C   UNL     1       2.029  -3.541   7.394  1.00  0.00     0.171 C 
BRANCH  18  19
ATOM     19  N   UNL     1       0.602  -3.746   7.633  1.00  0.00    -0.343 N 
ATOM     20  C   UNL     1      -0.027  -3.248   8.758  1.00  0.00     0.242 CG0
ATOM     21  O   UNL     1       0.608  -2.727   9.673  1.00  0.00    -0.273 OA
ATOM     22  H   UNL     1       0.055  -4.271   6.961  1.00  0.00     0.164 HD
ATOM     23  G   UNL     1      -1.549  -3.495   8.798  1.00  0.00     0.000 G0
ENDBRANCH  18  19
BRANCH  18  24
ATOM     24  C   UNL     1       2.730  -4.853   7.018  1.00  0.00     0.038 C 
BRANCH  24  25
ATOM     25  C   UNL     1       1.818  -5.900   6.344  1.00  0.00    -0.015 C 
ATOM     26  C   UNL     1       1.871  -7.258   7.044  1.00  0.00     0.007 C 
ATOM     27  C   UNL     1       2.216  -6.061   4.875  1.00  0.00     0.007 C 
ENDBRANCH  24  25
ENDBRANCH  18  24
ENDBRANCH  15  18
ENDBRANCH  13  14
BRANCH  13  28
ATOM     28  C   UNL     1       4.193   0.075   5.803  1.00  0.00     0.327 C 
ATOM     29  O   UNL     1       3.717   1.197   5.722  1.00  0.00    -0.250 OA
BRANCH  28  30
ATOM     30  O   UNL     1       5.246  -0.163   6.611  1.00  0.00    -0.480 OA
ATOM     31  H   UNL     1       5.629   0.724   6.775  1.00  0.00     0.296 HD
ENDBRANCH  28  30
ENDBRANCH  13  28
ENDBRANCH  11  13
ENDBRANCH   8  11
ENDBRANCH   6   7
BRANCH   6  32
ATOM     32  C   UNL     1       2.418  -4.241   0.746  1.00  0.00     0.037 C 
BRANCH  32  33
ATOM     33  C   UNL     1       1.165  -4.662   1.526  1.00  0.00     0.026 C 
BRANCH  33  34
ATOM     34  C   UNL     1       0.699  -3.587   2.508  1.00  0.00     0.146 C 
BRANCH  34  35
ATOM     35  N   UNL     1      -0.071  -2.588   1.781  1.00  0.00    -0.254 NA
ATOM     36  C   UNL     1      -0.782  -1.755   2.446  1.00  0.00     0.185 C 
ATOM     37  N   UNL     1      -1.491  -0.827   1.786  1.00  0.00    -0.370 N 
ATOM     38  N   UNL     1      -0.940  -1.655   3.778  1.00  0.00    -0.370 N 
ATOM     39  H   UNL     1      -1.416  -0.831   0.776  1.00  0.00     0.159 HD
ATOM     40  H   UNL     1      -1.929  -0.040   2.233  1.00  0.00     0.159 HD
ATOM     41  H   UNL     1      -1.637  -1.046   4.175  1.00  0.00     0.159 HD
ATOM     42  H   UNL     1      -0.477  -2.300   4.399  1.00  0.00     0.159 HD
ENDBRANCH  34  35
ENDBRANCH  33  34
ENDBRANCH  32  33
ENDBRANCH   6  32
ENDBRANCH   4   6
ENDBRANCH   1   2
BRANCH   1  43
ATOM     43  C   UNL     1       8.135  -3.956   0.523  1.00  0.00     0.102 C 
ATOM     44  C   UNL     1       8.134  -2.807   1.545  1.00  0.00     0.020 C 
BRANCH  43  45
ATOM     45  C   UNL     1       9.456  -4.109  -0.238  1.00  0.00     0.225 C 
ATOM     46  O   UNL     1      10.205  -3.166  -0.477  1.00  0.00    -0.275 OA
ATOM     47  N   UNL     1       9.714  -5.369  -0.728  1.00  0.00    -0.342 N 
ATOM     48  H   UNL     1       9.173  -6.155  -0.398  1.00  0.00     0.164 HD
BRANCH  47  49
ATOM     49  C   UNL     1      10.956  -5.671  -1.446  1.00  0.00     0.192 C 
BRANCH  49  50
ATOM     50  C   UNL     1      10.651  -5.904  -2.928  1.00  0.00     0.047 C 
BRANCH  50  51
ATOM     51  C   UNL     1       9.492  -5.031  -3.427  1.00  0.00     0.103 C 
BRANCH  51  52
ATOM     52  C   UNL     1       9.563  -4.791  -4.934  1.00  0.00     0.226 C 
ATOM     53  O   UNL     1      10.537  -4.208  -5.414  1.00  0.00    -0.275 OA
BRANCH  52  54
ATOM     54  N   UNL     1       8.517  -5.332  -5.705  1.00  0.00    -0.311 N 
ATOM     55  C   UNL     1       7.212  -4.663  -5.784  1.00  0.00     0.153 C 
BRANCH  54  56
ATOM     56  C   UNL     1       8.682  -6.525  -6.429  1.00  0.00     0.102 C 
ATOM     57  C   UNL     1       8.189  -7.719  -6.065  1.00  0.00     0.043 C 
BRANCH  56  58
ATOM     58  C   UNL     1       9.421  -6.535  -7.746  1.00  0.00     0.268 C 
ATOM     59  O   UNL     1       8.855  -6.527  -8.831  1.00  0.00    -0.268 OA
ATOM     60  N   UNL     1      10.787  -6.487  -7.600  1.00  0.00    -0.339 N 
ATOM     61  H   UNL     1      11.178  -6.507  -6.666  1.00  0.00     0.164 HD
BRANCH  60  62
ATOM     62  C   UNL     1      11.691  -6.426  -8.748  1.00  0.00     0.168 CG0
ATOM     63  C   UNL     1      12.417  -5.088  -8.802  1.00  0.00     0.041 C 
ATOM     64  G   UNL     1      10.895  -6.668 -10.047  1.00  0.00     0.000 G0
ENDBRANCH  60  62
ENDBRANCH  56  58
ENDBRANCH  54  56
ENDBRANCH  52  54
ENDBRANCH  51  52
ENDBRANCH  50  51
ENDBRANCH  49  50
BRANCH  49  65
ATOM     65  C   UNL     1      11.656  -6.912  -0.869  1.00  0.00     0.326 C 
ATOM     66  O   UNL     1      11.926  -7.929  -1.492  1.00  0.00    -0.250 OA
BRANCH  65  67
ATOM     67  O   UNL     1      11.924  -6.845   0.453  1.00  0.00    -0.480 OA
ATOM     68  H   UNL     1      11.081  -7.116   0.875  1.00  0.00     0.296 HD
ENDBRANCH  65  67
ENDBRANCH  49  65
ENDBRANCH  47  49
ENDBRANCH  43  45
ENDBRANCH   1  43
BRANCH   1  69
ATOM     69  C   UNL     1       6.897  -2.853  -1.540  1.00  0.00    -0.001 C 
ATOM     70  C   UNL     1       6.135  -1.746  -1.579  1.00  0.00     0.001 C 
BRANCH  70  71
ATOM     71  C   UNL     1       6.130  -0.717  -2.620  1.00  0.00    -0.055 C 
ATOM     72  C   UNL     1       5.919   0.561  -2.239  1.00  0.00    -0.018 C 
ATOM     73  C   UNL     1       6.369  -1.155  -4.042  1.00  0.00     0.044 C 
BRANCH  72  74
ATOM     74  C   UNL     1       5.865   1.823  -3.088  1.00  0.00     0.038 C 
ATOM     75  C   UNL     1       7.299   2.352  -3.205  1.00  0.00     0.015 C 
BRANCH  74  76
ATOM     76  C   UNL     1       4.853   2.816  -2.444  1.00  0.00     0.128 C 
BRANCH  76  77
ATOM     77  O   UNL     1       4.940   4.096  -3.094  1.00  0.00    -0.381 OA
ATOM     78  C   UNL     1       3.720   4.824  -3.088  1.00  0.00     0.195 C 
ENDBRANCH  76  77
BRANCH  76  79
ATOM     79  C   UNL     1       3.401   2.278  -2.373  1.00  0.00     0.068 C 
BRANCH  79  80
ATOM     80  C   UNL     1       2.904   1.760  -1.045  1.00  0.00    -0.045 A 
ATOM     81  C   UNL     1       2.705   0.389  -0.833  1.00  0.00     0.004 A 
ATOM     82  C   UNL     1       2.604   2.653  -0.005  1.00  0.00     0.004 A 
ATOM     83  C   UNL     1       2.231  -0.080   0.393  1.00  0.00     0.000 A 
ATOM     84  C   UNL     1       2.129   2.182   1.221  1.00  0.00     0.000 A 
ATOM     85  C   UNL     1       1.944   0.816   1.420  1.00  0.00     0.000 A 
ENDBRANCH  79  80
ENDBRANCH  76  79
ENDBRANCH  74  76
ENDBRANCH  72  74
ENDBRANCH  70  71
ENDBRANCH   1  69
TORSDOF 17
ENDMDL
MODEL 9
REMARK VINA RESULT:    -6.449      4.283     10.841
REMARK INTER + INTRA:         -27.776
REMARK INTER:                 -19.600
REMARK INTRA:                  -8.176
REMARK UNBOUND:                -8.509
REMARK SMILES C=C1C(=O)N[C@H](C)C(=O)N[C@@H](CC(C)C)C(=O)N[C@@H](C(=O)O)[C@H](C)C(=O)N[C@@H](CCCN=C(N)N)C(=O)N[C@@H](/C=C/C(C)=C/[C@H](C)[C@H](Cc2ccccc2)OC)[C@H](C)C(=O)N[C@@H](C(=O)O)CCC(=O)N1C
REMARK SMILES IDX 39 1 38 2 37 3 36 4 28 6 27 7 25 8 26 9 23 11 24 12 19 13
REMARK SMILES IDX 18 14 16 15 17 16 11 18 10 19 8 20 9 21 12 24 13 25 14 26
REMARK SMILES IDX 15 27 20 28 21 29 22 30 29 32 30 33 31 34 32 35 33 36 34 37
REMARK SMILES IDX 35 38 57 43 58 44 59 45 60 46 61 47 62 49 66 50 67 51 68 52
REMARK SMILES IDX 69 53 70 54 71 55 2 56 1 57 3 58 4 59 5 60 6 62 7 63 63 65
REMARK SMILES IDX 64 66 65 67 40 69 41 70 42 71 44 72 43 73 45 74 46 75 47 76
REMARK SMILES IDX 55 77 56 78 48 79 49 80 50 81 54 82 51 83 53 84 52 85
REMARK H PARENT 38 5 27 10 18 17 10 22 22 31 34 39 34 40 35 41 35 42 61 48
REMARK H PARENT 5 61 65 68
REMARK Flexibility Score:  369.900
ROOT
ATOM      1  C   UNL     1      -1.864  -3.486   4.015  1.00  0.00     0.117 C 
ENDROOT
BRANCH   1   2
ATOM      2  N   UNL     1      -0.904  -4.589   4.035  1.00  0.00    -0.347 N 
ATOM      3  O   UNL     1      -1.436  -5.505   1.998  1.00  0.00    -0.273 OA
ATOM      4  C   UNL     1      -0.703  -5.459   2.981  1.00  0.00     0.243 C 
ATOM      5  H   UNL     1      -0.306  -4.710   4.839  1.00  0.00     0.164 HD
BRANCH   4   6
ATOM      6  C   UNL     1       0.434  -6.484   3.226  1.00  0.00     0.171 C 
BRANCH   6   7
ATOM      7  N   UNL     1       1.133  -6.787   1.967  1.00  0.00    -0.344 N 
ATOM      8  C   UNL     1       1.425  -8.089   1.621  1.00  0.00     0.226 C 
ATOM      9  O   UNL     1       1.145  -9.041   2.339  1.00  0.00    -0.275 OA
ATOM     10  H   UNL     1       1.441  -6.022   1.380  1.00  0.00     0.164 HD
BRANCH   8  11
ATOM     11  C   UNL     1       2.099  -8.241   0.269  1.00  0.00     0.109 C 
ATOM     12  C   UNL     1       3.357  -9.099   0.401  1.00  0.00     0.021 C 
BRANCH  11  13
ATOM     13  C   UNL     1       1.077  -8.745  -0.769  1.00  0.00     0.204 C 
BRANCH  13  14
ATOM     14  N   UNL     1      -0.273  -8.853  -0.207  1.00  0.00    -0.340 N 
ATOM     15  C   UNL     1      -1.022 -10.008  -0.274  1.00  0.00     0.243 C 
ATOM     16  O   UNL     1      -0.586 -11.050  -0.758  1.00  0.00    -0.273 OA
ATOM     17  H   UNL     1      -0.748  -7.990   0.070  1.00  0.00     0.164 HD
BRANCH  15  18
ATOM     18  C   UNL     1      -2.486  -9.824   0.197  1.00  0.00     0.171 C 
BRANCH  18  19
ATOM     19  N   UNL     1      -2.923 -11.118   0.717  1.00  0.00    -0.343 N 
ATOM     20  C   UNL     1      -4.090 -11.720   0.285  1.00  0.00     0.242 CG0
ATOM     21  O   UNL     1      -4.879 -11.137  -0.454  1.00  0.00    -0.273 OA
ATOM     22  H   UNL     1      -2.362 -11.588   1.418  1.00  0.00     0.164 HD
ATOM     23  G   UNL     1      -4.345 -13.117   0.887  1.00  0.00     0.000 G0
ENDBRANCH  18  19
BRANCH  18  24
ATOM     24  C   UNL     1      -2.577  -8.729   1.266  1.00  0.00     0.038 C 
BRANCH  24  25
ATOM     25  C   UNL     1      -3.196  -9.185   2.604  1.00  0.00    -0.015 C 
ATOM     26  C   UNL     1      -4.472  -8.417   2.951  1.00  0.00     0.007 C 
ATOM     27  C   UNL     1      -2.171  -9.016   3.729  1.00  0.00     0.007 C 
ENDBRANCH  24  25
ENDBRANCH  18  24
ENDBRANCH  15  18
ENDBRANCH  13  14
BRANCH  13  28
ATOM     28  C   UNL     1       0.982  -7.849  -2.008  1.00  0.00     0.327 C 
ATOM     29  O   UNL     1       0.270  -8.036  -2.983  1.00  0.00    -0.250 OA
BRANCH  28  30
ATOM     30  O   UNL     1       1.874  -6.838  -1.999  1.00  0.00    -0.480 OA
ATOM     31  H   UNL     1       1.324  -6.032  -1.918  1.00  0.00     0.296 HD
ENDBRANCH  28  30
ENDBRANCH  13  28
ENDBRANCH  11  13
ENDBRANCH   8  11
ENDBRANCH   6   7
BRANCH   6  32
ATOM     32  C   UNL     1       1.404  -5.919   4.269  1.00  0.00     0.037 C 
BRANCH  32  33
ATOM     33  C   UNL     1       1.879  -6.992   5.259  1.00  0.00     0.026 C 
BRANCH  33  34
ATOM     34  C   UNL     1       1.159  -6.906   6.605  1.00  0.00     0.146 C 
BRANCH  34  35
ATOM     35  N   UNL     1       1.792  -5.870   7.410  1.00  0.00    -0.254 NA
ATOM     36  C   UNL     1       1.091  -4.862   7.776  1.00  0.00     0.185 C 
ATOM     37  N   UNL     1       1.663  -3.904   8.522  1.00  0.00    -0.370 N 
ATOM     38  N   UNL     1      -0.201  -4.594   7.518  1.00  0.00    -0.370 N 
ATOM     39  H   UNL     1       2.635  -4.040   8.768  1.00  0.00     0.159 HD
ATOM     40  H   UNL     1       1.145  -3.180   8.990  1.00  0.00     0.159 HD
ATOM     41  H   UNL     1      -0.602  -3.698   7.744  1.00  0.00     0.159 HD
ATOM     42  H   UNL     1      -0.752  -5.221   6.953  1.00  0.00     0.159 HD
ENDBRANCH  34  35
ENDBRANCH  33  34
ENDBRANCH  32  33
ENDBRANCH   6  32
ENDBRANCH   4   6
ENDBRANCH   1   2
BRANCH   1  43
ATOM     43  C   UNL     1      -1.113  -2.182   3.621  1.00  0.00     0.102 C 
ATOM     44  C   UNL     1      -1.371  -1.741   2.171  1.00  0.00     0.020 C 
BRANCH  43  45
ATOM     45  C   UNL     1       0.372  -2.270   3.989  1.00  0.00     0.225 C 
ATOM     46  O   UNL     1       0.768  -2.486   5.131  1.00  0.00    -0.275 OA
ATOM     47  N   UNL     1       1.252  -1.997   2.967  1.00  0.00    -0.342 N 
ATOM     48  H   UNL     1       0.920  -1.972   2.014  1.00  0.00     0.164 HD
BRANCH  47  49
ATOM     49  C   UNL     1       2.703  -2.078   3.164  1.00  0.00     0.192 C 
BRANCH  49  50
ATOM     50  C   UNL     1       3.359  -0.777   2.695  1.00  0.00     0.047 C 
BRANCH  50  51
ATOM     51  C   UNL     1       2.404   0.089   1.861  1.00  0.00     0.103 C 
BRANCH  51  52
ATOM     52  C   UNL     1       2.388  -0.327   0.392  1.00  0.00     0.226 C 
ATOM     53  O   UNL     1       1.404  -0.911  -0.066  1.00  0.00    -0.275 OA
BRANCH  52  54
ATOM     54  N   UNL     1       3.498   0.060  -0.381  1.00  0.00    -0.311 N 
ATOM     55  C   UNL     1       4.463  -0.934  -0.870  1.00  0.00     0.153 C 
BRANCH  54  56
ATOM     56  C   UNL     1       3.722   1.405  -0.719  1.00  0.00     0.102 C 
ATOM     57  C   UNL     1       3.004   2.102  -1.616  1.00  0.00     0.043 C 
BRANCH  56  58
ATOM     58  C   UNL     1       4.804   2.207  -0.035  1.00  0.00     0.268 C 
ATOM     59  O   UNL     1       5.407   1.810   0.953  1.00  0.00    -0.268 OA
ATOM     60  N   UNL     1       5.084   3.391  -0.673  1.00  0.00    -0.339 N 
ATOM     61  H   UNL     1       4.531   3.652  -1.481  1.00  0.00     0.164 HD
BRANCH  60  62
ATOM     62  C   UNL     1       6.141   4.292  -0.214  1.00  0.00     0.168 CG0
ATOM     63  C   UNL     1       5.606   5.285   0.811  1.00  0.00     0.041 C 
ATOM     64  G   UNL     1       6.751   5.031  -1.423  1.00  0.00     0.000 G0
ENDBRANCH  60  62
ENDBRANCH  56  58
ENDBRANCH  54  56
ENDBRANCH  52  54
ENDBRANCH  51  52
ENDBRANCH  50  51
ENDBRANCH  49  50
BRANCH  49  65
ATOM     65  C   UNL     1       3.313  -3.261   2.397  1.00  0.00     0.326 C 
ATOM     66  O   UNL     1       4.327  -3.866   2.713  1.00  0.00    -0.250 OA
BRANCH  65  67
ATOM     67  O   UNL     1       2.669  -3.585   1.254  1.00  0.00    -0.480 OA
ATOM     68  H   UNL     1       1.720  -3.528   1.499  1.00  0.00     0.296 HD
ENDBRANCH  65  67
ENDBRANCH  49  65
ENDBRANCH  47  49
ENDBRANCH  43  45
ENDBRANCH   1  43
BRANCH   1  69
ATOM     69  C   UNL     1      -2.597  -3.538   5.344  1.00  0.00    -0.001 C 
ATOM     70  C   UNL     1      -2.870  -2.510   6.166  1.00  0.00     0.001 C 
BRANCH  70  71
ATOM     71  C   UNL     1      -3.597  -2.569   7.436  1.00  0.00    -0.055 C 
ATOM     72  C   UNL     1      -3.964  -3.785   7.893  1.00  0.00    -0.018 C 
ATOM     73  C   UNL     1      -3.876  -1.270   8.147  1.00  0.00     0.044 C 
BRANCH  72  74
ATOM     74  C   UNL     1      -4.716  -4.148   9.166  1.00  0.00     0.038 C 
ATOM     75  C   UNL     1      -3.752  -4.951  10.047  1.00  0.00     0.015 C 
BRANCH  74  76
ATOM     76  C   UNL     1      -6.024  -4.899   8.777  1.00  0.00     0.128 C 
BRANCH  76  77
ATOM     77  O   UNL     1      -7.148  -4.008   8.875  1.00  0.00    -0.381 OA
ATOM     78  C   UNL     1      -6.893  -2.850   9.658  1.00  0.00     0.195 C 
ENDBRANCH  76  77
BRANCH  76  79
ATOM     79  C   UNL     1      -5.951  -5.625   7.411  1.00  0.00     0.068 C 
BRANCH  79  80
ATOM     80  C   UNL     1      -6.032  -7.133   7.406  1.00  0.00    -0.045 A 
ATOM     81  C   UNL     1      -6.920  -7.811   8.252  1.00  0.00     0.004 A 
ATOM     82  C   UNL     1      -5.192  -7.883   6.569  1.00  0.00     0.004 A 
ATOM     83  C   UNL     1      -6.978  -9.206   8.251  1.00  0.00     0.000 A 
ATOM     84  C   UNL     1      -5.251  -9.279   6.570  1.00  0.00     0.000 A 
ATOM     85  C   UNL     1      -6.145  -9.939   7.410  1.00  0.00     0.000 A 
ENDBRANCH  79  80
ENDBRANCH  76  79
ENDBRANCH  74  76
ENDBRANCH  72  74
ENDBRANCH  70  71
ENDBRANCH   1  69
TORSDOF 17
ENDMDL
MODEL 10
REMARK VINA RESULT:    -6.400      2.844      5.670
REMARK INTER + INTRA:         -27.630
REMARK INTER:                 -20.386
REMARK INTRA:                  -7.244
REMARK UNBOUND:                -8.509
REMARK SMILES C=C1C(=O)N[C@H](C)C(=O)N[C@@H](CC(C)C)C(=O)N[C@@H](C(=O)O)[C@H](C)C(=O)N[C@@H](CCCN=C(N)N)C(=O)N[C@@H](/C=C/C(C)=C/[C@H](C)[C@H](Cc2ccccc2)OC)[C@H](C)C(=O)N[C@@H](C(=O)O)CCC(=O)N1C
REMARK SMILES IDX 39 1 38 2 37 3 36 4 28 6 27 7 25 8 26 9 23 11 24 12 19 13
REMARK SMILES IDX 18 14 16 15 17 16 11 18 10 19 8 20 9 21 12 24 13 25 14 26
REMARK SMILES IDX 15 27 20 28 21 29 22 30 29 32 30 33 31 34 32 35 33 36 34 37
REMARK SMILES IDX 35 38 57 43 58 44 59 45 60 46 61 47 62 49 66 50 67 51 68 52
REMARK SMILES IDX 69 53 70 54 71 55 2 56 1 57 3 58 4 59 5 60 6 62 7 63 63 65
REMARK SMILES IDX 64 66 65 67 40 69 41 70 42 71 44 72 43 73 45 74 46 75 47 76
REMARK SMILES IDX 55 77 56 78 48 79 49 80 50 81 54 82 51 83 53 84 52 85
REMARK H PARENT 38 5 27 10 18 17 10 22 22 31 34 39 34 40 35 41 35 42 61 48
REMARK H PARENT 5 61 65 68
REMARK Flexibility Score:  369.900
ROOT
ATOM      1  C   UNL     1       1.551  -6.879   1.803  1.00  0.00     0.117 C 
ENDROOT
BRANCH   1   2
ATOM      2  N   UNL     1       1.359  -7.094   3.238  1.00  0.00    -0.347 N 
ATOM      3  O   UNL     1      -0.636  -5.980   3.457  1.00  0.00    -0.273 OA
ATOM      4  C   UNL     1       0.231  -6.704   3.934  1.00  0.00     0.243 C 
ATOM      5  H   UNL     1       2.059  -7.599   3.760  1.00  0.00     0.164 HD
BRANCH   4   6
ATOM      6  C   UNL     1       0.241  -7.128   5.424  1.00  0.00     0.171 C 
BRANCH   6   7
ATOM      7  N   UNL     1      -0.643  -6.256   6.213  1.00  0.00    -0.344 N 
ATOM      8  C   UNL     1      -0.126  -5.417   7.177  1.00  0.00     0.226 C 
ATOM      9  O   UNL     1       1.070  -5.370   7.439  1.00  0.00    -0.275 OA
ATOM     10  H   UNL     1      -1.644  -6.315   6.073  1.00  0.00     0.164 HD
BRANCH   8  11
ATOM     11  C   UNL     1      -1.160  -4.542   7.865  1.00  0.00     0.109 C 
ATOM     12  C   UNL     1      -0.507  -3.257   8.372  1.00  0.00     0.021 C 
BRANCH  11  13
ATOM     13  C   UNL     1      -2.369  -4.331   6.931  1.00  0.00     0.204 C 
BRANCH  13  14
ATOM     14  N   UNL     1      -3.642  -4.394   7.655  1.00  0.00    -0.340 N 
ATOM     15  C   UNL     1      -4.613  -5.333   7.381  1.00  0.00     0.243 C 
ATOM     16  O   UNL     1      -4.453  -6.225   6.550  1.00  0.00    -0.273 OA
ATOM     17  H   UNL     1      -3.899  -3.598   8.245  1.00  0.00     0.164 HD
BRANCH  15  18
ATOM     18  C   UNL     1      -5.948  -5.076   8.123  1.00  0.00     0.171 C 
BRANCH  18  19
ATOM     19  N   UNL     1      -6.142  -3.628   8.147  1.00  0.00    -0.343 N 
ATOM     20  C   UNL     1      -6.262  -2.929   9.333  1.00  0.00     0.242 CG0
ATOM     21  O   UNL     1      -6.345  -3.506  10.414  1.00  0.00    -0.273 OA
ATOM     22  H   UNL     1      -6.196  -3.118   7.273  1.00  0.00     0.164 HD
ATOM     23  G   UNL     1      -6.381  -1.400   9.161  1.00  0.00     0.000 G0
ENDBRANCH  18  19
BRANCH  18  24
ATOM     24  C   UNL     1      -7.107  -5.786   7.412  1.00  0.00     0.038 C 
BRANCH  24  25
ATOM     25  C   UNL     1      -7.979  -6.672   8.327  1.00  0.00    -0.015 C 
ATOM     26  C   UNL     1      -8.979  -5.858   9.149  1.00  0.00     0.007 C 
ATOM     27  C   UNL     1      -7.081  -7.483   9.265  1.00  0.00     0.007 C 
ENDBRANCH  24  25
ENDBRANCH  18  24
ENDBRANCH  15  18
ENDBRANCH  13  14
BRANCH  13  28
ATOM     28  C   UNL     1      -2.333  -2.990   6.191  1.00  0.00     0.327 C 
ATOM     29  O   UNL     1      -1.501  -2.642   5.366  1.00  0.00    -0.250 OA
BRANCH  28  30
ATOM     30  O   UNL     1      -3.273  -2.125   6.619  1.00  0.00    -0.480 OA
ATOM     31  H   UNL     1      -2.789  -1.518   7.217  1.00  0.00     0.296 HD
ENDBRANCH  28  30
ENDBRANCH  13  28
ENDBRANCH  11  13
ENDBRANCH   8  11
ENDBRANCH   6   7
BRANCH   6  32
ATOM     32  C   UNL     1      -0.195  -8.593   5.534  1.00  0.00     0.037 C 
BRANCH  32  33
ATOM     33  C   UNL     1      -1.061  -9.030   4.345  1.00  0.00     0.026 C 
BRANCH  33  34
ATOM     34  C   UNL     1      -2.542  -8.706   4.549  1.00  0.00     0.146 C 
BRANCH  34  35
ATOM     35  N   UNL     1      -3.306  -9.292   3.457  1.00  0.00    -0.254 NA
ATOM     36  C   UNL     1      -3.427  -8.630   2.367  1.00  0.00     0.185 C 
ATOM     37  N   UNL     1      -4.125  -9.163   1.352  1.00  0.00    -0.370 N 
ATOM     38  N   UNL     1      -2.938  -7.416   2.057  1.00  0.00    -0.370 N 
ATOM     39  H   UNL     1      -4.518 -10.083   1.505  1.00  0.00     0.159 HD
ATOM     40  H   UNL     1      -4.120  -8.791   0.418  1.00  0.00     0.159 HD
ATOM     41  H   UNL     1      -3.219  -6.941   1.216  1.00  0.00     0.159 HD
ATOM     42  H   UNL     1      -2.406  -6.891   2.733  1.00  0.00     0.159 HD
ENDBRANCH  34  35
ENDBRANCH  33  34
ENDBRANCH  32  33
ENDBRANCH   6  32
ENDBRANCH   4   6
ENDBRANCH   1   2
BRANCH   1  43
ATOM     43  C   UNL     1       1.875  -8.247   1.136  1.00  0.00     0.102 C 
ATOM     44  C   UNL     1       3.023  -8.173   0.115  1.00  0.00     0.020 C 
BRANCH  43  45
ATOM     45  C   UNL     1       0.604  -8.910   0.597  1.00  0.00     0.225 C 
ATOM     46  O   UNL     1      -0.352  -9.205   1.308  1.00  0.00    -0.275 OA
ATOM     47  N   UNL     1       0.633  -9.248  -0.737  1.00  0.00    -0.342 N 
ATOM     48  H   UNL     1       1.353  -8.867  -1.334  1.00  0.00     0.164 HD
BRANCH  47  49
ATOM     49  C   UNL     1      -0.525  -9.857  -1.398  1.00  0.00     0.192 C 
BRANCH  49  50
ATOM     50  C   UNL     1      -0.050 -10.765  -2.535  1.00  0.00     0.047 C 
BRANCH  50  51
ATOM     51  C   UNL     1       1.459 -10.644  -2.785  1.00  0.00     0.103 C 
BRANCH  51  52
ATOM     52  C   UNL     1       1.767  -9.995  -4.133  1.00  0.00     0.226 C 
ATOM     53  O   UNL     1       1.197 -10.398  -5.148  1.00  0.00    -0.275 OA
BRANCH  52  54
ATOM     54  N   UNL     1       2.650  -8.899  -4.114  1.00  0.00    -0.311 N 
ATOM     55  C   UNL     1       3.970  -9.002  -3.478  1.00  0.00     0.153 C 
BRANCH  54  56
ATOM     56  C   UNL     1       2.307  -7.672  -4.705  1.00  0.00     0.102 C 
ATOM     57  C   UNL     1       1.495  -6.754  -4.155  1.00  0.00     0.043 C 
BRANCH  56  58
ATOM     58  C   UNL     1       2.888  -7.264  -6.038  1.00  0.00     0.268 C 
ATOM     59  O   UNL     1       2.731  -6.153  -6.526  1.00  0.00    -0.268 OA
ATOM     60  N   UNL     1       3.663  -8.244  -6.612  1.00  0.00    -0.339 N 
ATOM     61  H   UNL     1       3.734  -9.142  -6.149  1.00  0.00     0.164 HD
BRANCH  60  62
ATOM     62  C   UNL     1       4.371  -8.037  -7.875  1.00  0.00     0.168 CG0
ATOM     63  C   UNL     1       5.827  -7.661  -7.629  1.00  0.00     0.041 C 
ATOM     64  G   UNL     1       3.656  -6.945  -8.696  1.00  0.00     0.000 G0
ENDBRANCH  60  62
ENDBRANCH  56  58
ENDBRANCH  54  56
ENDBRANCH  52  54
ENDBRANCH  51  52
ENDBRANCH  50  51
ENDBRANCH  49  50
BRANCH  49  65
ATOM     65  C   UNL     1      -1.479  -8.792  -1.963  1.00  0.00     0.326 C 
ATOM     66  O   UNL     1      -1.505  -8.403  -3.121  1.00  0.00    -0.250 OA
BRANCH  65  67
ATOM     67  O   UNL     1      -2.302  -8.231  -1.049  1.00  0.00    -0.480 OA
ATOM     68  H   UNL     1      -2.058  -7.281  -1.070  1.00  0.00     0.296 HD
ENDBRANCH  65  67
ENDBRANCH  49  65
ENDBRANCH  47  49
ENDBRANCH  43  45
ENDBRANCH   1  43
BRANCH   1  69
ATOM     69  C   UNL     1       2.552  -5.745   1.674  1.00  0.00    -0.001 C 
ATOM     70  C   UNL     1       2.407  -4.602   0.981  1.00  0.00     0.001 C 
BRANCH  70  71
ATOM     71  C   UNL     1       3.372  -3.505   0.882  1.00  0.00    -0.055 C 
ATOM     72  C   UNL     1       4.671  -3.826   0.701  1.00  0.00    -0.018 C 
ATOM     73  C   UNL     1       2.847  -2.097   0.980  1.00  0.00     0.044 C 
BRANCH  72  74
ATOM     74  C   UNL     1       5.879  -2.910   0.562  1.00  0.00     0.038 C 
ATOM     75  C   UNL     1       6.467  -3.147  -0.834  1.00  0.00     0.015 C 
BRANCH  74  76
ATOM     76  C   UNL     1       6.858  -3.191   1.739  1.00  0.00     0.128 C 
BRANCH  76  77
ATOM     77  O   UNL     1       8.217  -3.133   1.272  1.00  0.00    -0.381 OA
ATOM     78  C   UNL     1       8.919  -4.362   1.406  1.00  0.00     0.195 C 
ENDBRANCH  76  77
BRANCH  76  79
ATOM     79  C   UNL     1       6.615  -2.304   2.986  1.00  0.00     0.068 C 
BRANCH  79  80
ATOM     80  C   UNL     1       5.421  -2.618   3.855  1.00  0.00    -0.045 A 
ATOM     81  C   UNL     1       5.165  -3.927   4.283  1.00  0.00     0.004 A 
ATOM     82  C   UNL     1       4.530  -1.600   4.227  1.00  0.00     0.004 A 
ATOM     83  C   UNL     1       4.051  -4.212   5.076  1.00  0.00     0.000 A 
ATOM     84  C   UNL     1       3.415  -1.886   5.019  1.00  0.00     0.000 A 
ATOM     85  C   UNL     1       3.177  -3.191   5.445  1.00  0.00     0.000 A 
ENDBRANCH  79  80
ENDBRANCH  76  79
ENDBRANCH  74  76
ENDBRANCH  72  74
ENDBRANCH  70  71
ENDBRANCH   1  69
TORSDOF 17
ENDMDL
