MODEL 1
REMARK VINA RESULT:    -7.406      0.000      0.000
REMARK INTER + INTRA:         -18.593
REMARK INTER:                 -14.982
REMARK INTRA:                  -3.611
REMARK UNBOUND:                -3.611
REMARK SMILES CC[C@@H](C)[C@@H](NC(=O)[C@@H](O)Cc1ccc(O)c(Cl)c1)C(=O)N1[C@H](C(=O)NCCCCN=C(N)N)C[C@H]2CC[C@H](OS(=O)(=O)O)C[C@@H]21
REMARK SMILES IDX 22 1 36 2 46 3 35 4 23 5 45 6 37 7 39 8 38 9 20 10 21 11
REMARK SMILES IDX 5 12 6 13 7 14 8 15 9 17 11 18 12 19 17 20 19 21 15 22 14 23
REMARK SMILES IDX 13 24 18 25 16 26 10 28 3 30 4 31 2 32 1 33 24 34 25 35
REMARK SMILES IDX 26 36 27 38 28 39 29 40 30 41 31 42 32 43 33 44 34 45 40 50
REMARK SMILES IDX 41 51 42 52 43 53 44 54
REMARK H PARENT 6 16 16 27 10 29 26 37 33 46 33 47 34 48 34 49 44 55
ROOT
ATOM      1  N   UNL     1      -5.316  14.196   3.258  1.00  0.00    -0.326 N 
ATOM      2  C   UNL     1      -4.810  13.994   5.548  1.00  0.00     0.014 C 
ATOM      3  C   UNL     1      -5.975  14.153   4.567  1.00  0.00     0.091 C 
ATOM      4  C   UNL     1      -3.703  14.802   4.888  1.00  0.00     0.041 C 
ATOM      5  C   UNL     1      -3.848  14.325   3.432  1.00  0.00     0.175 C 
ATOM      6  C   UNL     1      -6.986  13.039   4.833  1.00  0.00     0.059 C 
ATOM      7  C   UNL     1      -5.240  14.337   6.961  1.00  0.00     0.008 C 
ATOM      8  C   UNL     1      -7.050  12.599   6.311  1.00  0.00     0.143 C 
ATOM      9  C   UNL     1      -6.623  13.728   7.271  1.00  0.00     0.034 C 
ENDROOT
BRANCH   1  10
ATOM     10  C   UNL     1      -5.862  14.347   1.994  1.00  0.00     0.246 C 
ATOM     11  O   UNL     1      -6.337  13.360   1.423  1.00  0.00    -0.272 OA
BRANCH  10  12
ATOM     12  C   UNL     1      -5.905  15.759   1.341  1.00  0.00     0.174 C 
BRANCH  12  13
ATOM     13  N   UNL     1      -4.550  16.191   0.999  1.00  0.00    -0.342 N 
ATOM     14  C   UNL     1      -4.134  16.563  -0.260  1.00  0.00     0.249 C 
ATOM     15  O   UNL     1      -4.869  16.600  -1.238  1.00  0.00    -0.272 OA
ATOM     16  H   UNL     1      -3.796  16.062   1.669  1.00  0.00     0.164 HD
BRANCH  14  17
ATOM     17  C   UNL     1      -2.640  16.951  -0.303  1.00  0.00     0.207 C 
BRANCH  17  18
ATOM     18  C   UNL     1      -2.362  18.118   0.650  1.00  0.00     0.077 C 
BRANCH  18  19
ATOM     19  C   UNL     1      -1.200  17.826   1.572  1.00  0.00    -0.043 A 
ATOM     20  C   UNL     1      -0.356  17.191   3.756  1.00  0.00     0.083 A 
ATOM     21  C   UNL     1      -1.430  17.412   2.893  1.00  0.00     0.028 A 
ATOM     22  C   UNL     1       0.951  17.384   3.307  1.00  0.00     0.134 A 
ATOM     23  C   UNL     1       1.194  17.794   2.001  1.00  0.00     0.048 A 
ATOM     24  C   UNL     1       0.120  18.017   1.136  1.00  0.00     0.008 A 
ATOM     25  Cl  UNL     1      -0.659  16.682   5.375  1.00  0.00    -0.080 Cl
BRANCH  22  26
ATOM     26  O   UNL     1       2.035  17.190   4.119  1.00  0.00    -0.506 OA
ATOM     27  H   UNL     1       2.719  16.756   3.575  1.00  0.00     0.293 HD
ENDBRANCH  22  26
ENDBRANCH  18  19
ENDBRANCH  17  18
BRANCH  17  28
ATOM     28  O   UNL     1      -2.238  17.315  -1.633  1.00  0.00    -0.383 OA
ATOM     29  H   UNL     1      -3.045  17.667  -2.074  1.00  0.00     0.211 HD
ENDBRANCH  17  28
ENDBRANCH  14  17
ENDBRANCH  12  13
BRANCH  12  30
ATOM     30  C   UNL     1      -6.656  16.801   2.212  1.00  0.00     0.018 C 
ATOM     31  C   UNL     1      -7.565  17.685   1.344  1.00  0.00     0.010 C 
BRANCH  30  32
ATOM     32  C   UNL     1      -5.719  17.683   3.073  1.00  0.00     0.002 C 
ATOM     33  C   UNL     1      -5.624  19.142   2.645  1.00  0.00     0.004 C 
ENDBRANCH  30  32
ENDBRANCH  12  30
ENDBRANCH  10  12
ENDBRANCH   1  10
BRANCH   5  34
ATOM     34  C   UNL     1      -3.146  12.960   3.204  1.00  0.00     0.242 C 
ATOM     35  O   UNL     1      -3.320  11.998   3.952  1.00  0.00    -0.273 OA
ATOM     36  N   UNL     1      -2.274  12.920   2.139  1.00  0.00    -0.354 N 
ATOM     37  H   UNL     1      -2.081  13.783   1.630  1.00  0.00     0.163 HD
BRANCH  36  38
ATOM     38  C   UNL     1      -1.702  11.681   1.655  1.00  0.00     0.116 C 
BRANCH  38  39
ATOM     39  C   UNL     1      -0.307  11.940   1.090  1.00  0.00     0.023 C 
BRANCH  39  40
ATOM     40  C   UNL     1       0.248  13.297   1.508  1.00  0.00     0.026 C 
BRANCH  40  41
ATOM     41  C   UNL     1       1.210  13.839   0.450  1.00  0.00     0.146 C 
BRANCH  41  42
ATOM     42  N   UNL     1       0.589  14.952  -0.256  1.00  0.00    -0.254 NA
ATOM     43  C   UNL     1       1.103  15.373  -1.350  1.00  0.00     0.185 C 
ATOM     44  N   UNL     1       2.190  14.944  -2.017  1.00  0.00    -0.370 N 
ATOM     45  N   UNL     1       0.518  16.403  -1.983  1.00  0.00    -0.370 N 
ATOM     46  H   UNL     1       2.617  15.518  -2.725  1.00  0.00     0.159 HD
ATOM     47  H   UNL     1       2.745  14.162  -1.684  1.00  0.00     0.159 HD
ATOM     48  H   UNL     1      -0.314  16.781  -1.551  1.00  0.00     0.159 HD
ATOM     49  H   UNL     1       0.711  16.633  -2.942  1.00  0.00     0.159 HD
ENDBRANCH  41  42
ENDBRANCH  40  41
ENDBRANCH  39  40
ENDBRANCH  38  39
ENDBRANCH  36  38
ENDBRANCH   5  34
BRANCH   8  50
ATOM     50  O   UNL     1      -6.197  11.474   6.525  1.00  0.00    -0.245 OA
BRANCH  50  51
ATOM     51  S   UNL     1      -6.834   9.978   6.563  1.00  0.00     0.397 S 
ATOM     52  O   UNL     1      -6.869   9.474   5.209  1.00  0.00    -0.169 OA
ATOM     53  O   UNL     1      -8.011   9.972   7.406  1.00  0.00    -0.169 OA
BRANCH  51  54
ATOM     54  O   UNL     1      -5.683   9.142   7.312  1.00  0.00    -0.264 OA
ATOM     55  H   UNL     1      -6.060   8.798   8.147  1.00  0.00     0.236 HD
ENDBRANCH  51  54
ENDBRANCH  50  51
ENDBRANCH   8  50
TORSDOF 19
ENDMDL
MODEL 2
REMARK VINA RESULT:    -7.388      3.005      6.259
REMARK INTER + INTRA:         -18.557
REMARK INTER:                 -14.656
REMARK INTRA:                  -3.901
REMARK UNBOUND:                -3.611
REMARK SMILES CC[C@@H](C)[C@@H](NC(=O)[C@@H](O)Cc1ccc(O)c(Cl)c1)C(=O)N1[C@H](C(=O)NCCCCN=C(N)N)C[C@H]2CC[C@H](OS(=O)(=O)O)C[C@@H]21
REMARK SMILES IDX 22 1 36 2 46 3 35 4 23 5 45 6 37 7 39 8 38 9 20 10 21 11
REMARK SMILES IDX 5 12 6 13 7 14 8 15 9 17 11 18 12 19 17 20 19 21 15 22 14 23
REMARK SMILES IDX 13 24 18 25 16 26 10 28 3 30 4 31 2 32 1 33 24 34 25 35
REMARK SMILES IDX 26 36 27 38 28 39 29 40 30 41 31 42 32 43 33 44 34 45 40 50
REMARK SMILES IDX 41 51 42 52 43 53 44 54
REMARK H PARENT 6 16 16 27 10 29 26 37 33 46 33 47 34 48 34 49 44 55
ROOT
ATOM      1  N   UNL     1      -3.593  14.258   3.246  1.00  0.00    -0.326 N 
ATOM      2  C   UNL     1      -2.469  15.569   1.645  1.00  0.00     0.014 C 
ATOM      3  C   UNL     1      -3.159  15.638   3.010  1.00  0.00     0.091 C 
ATOM      4  C   UNL     1      -3.289  14.522   0.908  1.00  0.00     0.041 C 
ATOM      5  C   UNL     1      -3.424  13.455   2.010  1.00  0.00     0.175 C 
ATOM      6  C   UNL     1      -2.193  16.275   4.008  1.00  0.00     0.059 C 
ATOM      7  C   UNL     1      -2.315  16.952   1.044  1.00  0.00     0.008 C 
ATOM      8  C   UNL     1      -1.243  17.315   3.377  1.00  0.00     0.143 C 
ATOM      9  C   UNL     1      -1.849  17.961   2.114  1.00  0.00     0.034 C 
ENDROOT
BRANCH   1  10
ATOM     10  C   UNL     1      -4.289  13.716   4.313  1.00  0.00     0.246 C 
ATOM     11  O   UNL     1      -3.789  13.762   5.442  1.00  0.00    -0.272 OA
BRANCH  10  12
ATOM     12  C   UNL     1      -5.699  13.102   4.076  1.00  0.00     0.174 C 
BRANCH  12  13
ATOM     13  N   UNL     1      -6.567  14.082   3.426  1.00  0.00    -0.342 N 
ATOM     14  C   UNL     1      -7.069  13.970   2.149  1.00  0.00     0.249 C 
ATOM     15  O   UNL     1      -6.861  13.010   1.417  1.00  0.00    -0.272 OA
ATOM     16  H   UNL     1      -6.697  14.998   3.848  1.00  0.00     0.164 HD
BRANCH  14  17
ATOM     17  C   UNL     1      -7.940  15.177   1.742  1.00  0.00     0.207 C 
BRANCH  17  18
ATOM     18  C   UNL     1      -7.517  16.429   2.518  1.00  0.00     0.077 C 
BRANCH  18  19
ATOM     19  C   UNL     1      -6.650  17.343   1.681  1.00  0.00    -0.043 A 
ATOM     20  C   UNL     1      -5.265  17.716  -0.275  1.00  0.00     0.083 A 
ATOM     21  C   UNL     1      -6.104  16.888   0.470  1.00  0.00     0.028 A 
ATOM     22  C   UNL     1      -4.965  19.000   0.182  1.00  0.00     0.134 A 
ATOM     23  C   UNL     1      -5.499  19.463   1.379  1.00  0.00     0.048 A 
ATOM     24  C   UNL     1      -6.338  18.635   2.129  1.00  0.00     0.008 A 
ATOM     25  Cl  UNL     1      -4.604  17.140  -1.760  1.00  0.00    -0.080 Cl
BRANCH  22  26
ATOM     26  O   UNL     1      -4.139  19.845  -0.509  1.00  0.00    -0.506 OA
ATOM     27  H   UNL     1      -4.581  20.038  -1.356  1.00  0.00     0.293 HD
ENDBRANCH  22  26
ENDBRANCH  18  19
ENDBRANCH  17  18
BRANCH  17  28
ATOM     28  O   UNL     1      -9.332  14.915   1.984  1.00  0.00    -0.383 OA
ATOM     29  H   UNL     1      -9.752  14.839   1.097  1.00  0.00     0.211 HD
ENDBRANCH  17  28
ENDBRANCH  14  17
ENDBRANCH  12  13
BRANCH  12  30
ATOM     30  C   UNL     1      -6.326  12.522   5.373  1.00  0.00     0.018 C 
ATOM     31  C   UNL     1      -6.237  10.988   5.384  1.00  0.00     0.010 C 
BRANCH  30  32
ATOM     32  C   UNL     1      -7.788  12.972   5.611  1.00  0.00     0.002 C 
ATOM     33  C   UNL     1      -8.849  11.917   5.325  1.00  0.00     0.004 C 
ENDBRANCH  30  32
ENDBRANCH  12  30
ENDBRANCH  10  12
ENDBRANCH   1  10
BRANCH   5  34
ATOM     34  C   UNL     1      -2.156  12.564   2.101  1.00  0.00     0.242 C 
ATOM     35  O   UNL     1      -1.394  12.602   3.067  1.00  0.00    -0.273 OA
ATOM     36  N   UNL     1      -1.917  11.771   1.002  1.00  0.00    -0.354 N 
ATOM     37  H   UNL     1      -2.517  11.873   0.182  1.00  0.00     0.163 HD
BRANCH  36  38
ATOM     38  C   UNL     1      -0.910  10.730   1.004  1.00  0.00     0.116 C 
BRANCH  38  39
ATOM     39  C   UNL     1       0.446  11.318   0.624  1.00  0.00     0.023 C 
BRANCH  39  40
ATOM     40  C   UNL     1       0.319  12.648  -0.112  1.00  0.00     0.026 C 
BRANCH  40  41
ATOM     41  C   UNL     1       1.053  13.757   0.643  1.00  0.00     0.146 C 
BRANCH  41  42
ATOM     42  N   UNL     1       0.588  15.058   0.180  1.00  0.00    -0.254 NA
ATOM     43  C   UNL     1       1.126  15.592  -0.852  1.00  0.00     0.185 C 
ATOM     44  N   UNL     1       2.112  15.138  -1.647  1.00  0.00    -0.370 N 
ATOM     45  N   UNL     1       0.687  16.794  -1.260  1.00  0.00    -0.370 N 
ATOM     46  H   UNL     1       2.599  15.762  -2.268  1.00  0.00     0.159 HD
ATOM     47  H   UNL     1       2.551  14.235  -1.489  1.00  0.00     0.159 HD
ATOM     48  H   UNL     1      -0.064  17.204  -0.721  1.00  0.00     0.159 HD
ATOM     49  H   UNL     1       0.882  17.163  -2.174  1.00  0.00     0.159 HD
ENDBRANCH  41  42
ENDBRANCH  40  41
ENDBRANCH  39  40
ENDBRANCH  38  39
ENDBRANCH  36  38
ENDBRANCH   5  34
BRANCH   8  50
ATOM     50  O   UNL     1      -0.006  16.697   3.021  1.00  0.00    -0.245 OA
BRANCH  50  51
ATOM     51  S   UNL     1       1.319  17.616   2.808  1.00  0.00     0.397 S 
ATOM     52  O   UNL     1       2.416  16.743   2.456  1.00  0.00    -0.169 OA
ATOM     53  O   UNL     1       1.426  18.572   3.891  1.00  0.00    -0.169 OA
BRANCH  51  54
ATOM     54  O   UNL     1       0.954  18.425   1.467  1.00  0.00    -0.264 OA
ATOM     55  H   UNL     1       0.820  19.363   1.711  1.00  0.00     0.236 HD
ENDBRANCH  51  54
ENDBRANCH  50  51
ENDBRANCH   8  50
TORSDOF 19
ENDMDL
MODEL 3
REMARK VINA RESULT:    -7.380      2.574      5.367
REMARK INTER + INTRA:         -18.541
REMARK INTER:                 -14.352
REMARK INTRA:                  -4.189
REMARK UNBOUND:                -3.611
REMARK SMILES CC[C@@H](C)[C@@H](NC(=O)[C@@H](O)Cc1ccc(O)c(Cl)c1)C(=O)N1[C@H](C(=O)NCCCCN=C(N)N)C[C@H]2CC[C@H](OS(=O)(=O)O)C[C@@H]21
REMARK SMILES IDX 22 1 36 2 46 3 35 4 23 5 45 6 37 7 39 8 38 9 20 10 21 11
REMARK SMILES IDX 5 12 6 13 7 14 8 15 9 17 11 18 12 19 17 20 19 21 15 22 14 23
REMARK SMILES IDX 13 24 18 25 16 26 10 28 3 30 4 31 2 32 1 33 24 34 25 35
REMARK SMILES IDX 26 36 27 38 28 39 29 40 30 41 31 42 32 43 33 44 34 45 40 50
REMARK SMILES IDX 41 51 42 52 43 53 44 54
REMARK H PARENT 6 16 16 27 10 29 26 37 33 46 33 47 34 48 34 49 44 55
ROOT
ATOM      1  N   UNL     1      -4.134  14.302   3.326  1.00  0.00    -0.326 N 
ATOM      2  C   UNL     1      -4.122  13.422   5.509  1.00  0.00     0.014 C 
ATOM      3  C   UNL     1      -5.054  13.921   4.401  1.00  0.00     0.091 C 
ATOM      4  C   UNL     1      -2.907  14.325   5.356  1.00  0.00     0.041 C 
ATOM      5  C   UNL     1      -2.737  14.295   3.826  1.00  0.00     0.175 C 
ATOM      6  C   UNL     1      -6.090  12.835   4.117  1.00  0.00     0.059 C 
ATOM      7  C   UNL     1      -4.844  13.368   6.841  1.00  0.00     0.008 C 
ATOM      8  C   UNL     1      -6.463  11.992   5.356  1.00  0.00     0.143 C 
ATOM      9  C   UNL     1      -6.257  12.772   6.670  1.00  0.00     0.034 C 
ENDROOT
BRANCH   1  10
ATOM     10  C   UNL     1      -4.402  14.840   2.078  1.00  0.00     0.246 C 
ATOM     11  O   UNL     1      -4.316  14.115   1.081  1.00  0.00    -0.272 OA
BRANCH  10  12
ATOM     12  C   UNL     1      -4.844  16.327   1.963  1.00  0.00     0.174 C 
BRANCH  12  13
ATOM     13  N   UNL     1      -6.304  16.415   1.970  1.00  0.00    -0.342 N 
ATOM     14  C   UNL     1      -7.065  16.835   3.038  1.00  0.00     0.249 C 
ATOM     15  O   UNL     1      -6.594  17.212   4.104  1.00  0.00    -0.272 OA
ATOM     16  H   UNL     1      -6.838  15.990   1.216  1.00  0.00     0.164 HD
BRANCH  14  17
ATOM     17  C   UNL     1      -8.579  16.800   2.741  1.00  0.00     0.207 C 
BRANCH  17  18
ATOM     18  C   UNL     1      -8.936  15.553   1.926  1.00  0.00     0.077 C 
BRANCH  18  19
ATOM     19  C   UNL     1      -9.341  14.398   2.813  1.00  0.00    -0.043 A 
ATOM     20  C   UNL     1      -9.756  13.490   5.024  1.00  0.00     0.083 A 
ATOM     21  C   UNL     1      -9.431  14.570   4.204  1.00  0.00     0.028 A 
ATOM     22  C   UNL     1      -9.993  12.234   4.465  1.00  0.00     0.134 A 
ATOM     23  C   UNL     1      -9.908  12.049   3.090  1.00  0.00     0.048 A 
ATOM     24  C   UNL     1      -9.580  13.128   2.265  1.00  0.00     0.008 A 
ATOM     25  Cl  UNL     1      -9.861  13.722   6.730  1.00  0.00    -0.080 Cl
BRANCH  22  26
ATOM     26  O   UNL     1     -10.305  11.143   5.230  1.00  0.00    -0.506 OA
ATOM     27  H   UNL     1     -10.872  10.570   4.682  1.00  0.00     0.293 HD
ENDBRANCH  22  26
ENDBRANCH  18  19
ENDBRANCH  17  18
BRANCH  17  28
ATOM     28  O   UNL     1      -8.993  17.973   2.023  1.00  0.00    -0.383 OA
ATOM     29  H   UNL     1      -9.874  17.760   1.638  1.00  0.00     0.211 HD
ENDBRANCH  17  28
ENDBRANCH  14  17
ENDBRANCH  12  13
BRANCH  12  30
ATOM     30  C   UNL     1      -4.214  17.048   0.741  1.00  0.00     0.018 C 
ATOM     31  C   UNL     1      -3.745  18.461   1.121  1.00  0.00     0.010 C 
BRANCH  30  32
ATOM     32  C   UNL     1      -5.147  17.111  -0.493  1.00  0.00     0.002 C 
ATOM     33  C   UNL     1      -4.502  17.632  -1.771  1.00  0.00     0.004 C 
ENDBRANCH  30  32
ENDBRANCH  12  30
ENDBRANCH  10  12
ENDBRANCH   1  10
BRANCH   5  34
ATOM     34  C   UNL     1      -1.992  13.016   3.358  1.00  0.00     0.242 C 
ATOM     35  O   UNL     1      -1.495  12.217   4.151  1.00  0.00    -0.273 OA
ATOM     36  N   UNL     1      -1.881  12.870   1.993  1.00  0.00    -0.354 N 
ATOM     37  H   UNL     1      -2.207  13.625   1.390  1.00  0.00     0.163 HD
BRANCH  36  38
ATOM     38  C   UNL     1      -1.412  11.643   1.383  1.00  0.00     0.116 C 
BRANCH  38  39
ATOM     39  C   UNL     1       0.078  11.756   1.070  1.00  0.00     0.023 C 
BRANCH  39  40
ATOM     40  C   UNL     1       0.363  12.745  -0.055  1.00  0.00     0.026 C 
BRANCH  40  41
ATOM     41  C   UNL     1       1.017  14.014   0.493  1.00  0.00     0.146 C 
BRANCH  41  42
ATOM     42  N   UNL     1      -0.013  14.960   0.903  1.00  0.00    -0.254 NA
ATOM     43  C   UNL     1       0.286  15.911   1.706  1.00  0.00     0.185 C 
ATOM     44  N   UNL     1       1.462  16.221   2.282  1.00  0.00    -0.370 N 
ATOM     45  N   UNL     1      -0.679  16.770   2.076  1.00  0.00    -0.370 N 
ATOM     46  H   UNL     1       1.497  16.840   3.074  1.00  0.00     0.159 HD
ATOM     47  H   UNL     1       2.302  15.682   2.101  1.00  0.00     0.159 HD
ATOM     48  H   UNL     1      -1.595  16.613   1.679  1.00  0.00     0.159 HD
ATOM     49  H   UNL     1      -0.482  17.660   2.499  1.00  0.00     0.159 HD
ENDBRANCH  41  42
ENDBRANCH  40  41
ENDBRANCH  39  40
ENDBRANCH  38  39
ENDBRANCH  36  38
ENDBRANCH   5  34
BRANCH   8  50
ATOM     50  O   UNL     1      -5.665  10.808   5.402  1.00  0.00    -0.245 OA
BRANCH  50  51
ATOM     51  S   UNL     1      -6.328   9.412   5.909  1.00  0.00     0.397 S 
ATOM     52  O   UNL     1      -5.620   8.325   5.273  1.00  0.00    -0.169 OA
ATOM     53  O   UNL     1      -7.772   9.513   5.858  1.00  0.00    -0.169 OA
BRANCH  51  54
ATOM     54  O   UNL     1      -5.889   9.375   7.456  1.00  0.00    -0.264 OA
ATOM     55  H   UNL     1      -6.233   8.545   7.844  1.00  0.00     0.236 HD
ENDBRANCH  51  54
ENDBRANCH  50  51
ENDBRANCH   8  50
TORSDOF 19
ENDMDL
MODEL 4
REMARK VINA RESULT:    -7.320      2.859      8.020
REMARK INTER + INTRA:         -18.421
REMARK INTER:                 -13.939
REMARK INTRA:                  -4.482
REMARK UNBOUND:                -3.611
REMARK SMILES CC[C@@H](C)[C@@H](NC(=O)[C@@H](O)Cc1ccc(O)c(Cl)c1)C(=O)N1[C@H](C(=O)NCCCCN=C(N)N)C[C@H]2CC[C@H](OS(=O)(=O)O)C[C@@H]21
REMARK SMILES IDX 22 1 36 2 46 3 35 4 23 5 45 6 37 7 39 8 38 9 20 10 21 11
REMARK SMILES IDX 5 12 6 13 7 14 8 15 9 17 11 18 12 19 17 20 19 21 15 22 14 23
REMARK SMILES IDX 13 24 18 25 16 26 10 28 3 30 4 31 2 32 1 33 24 34 25 35
REMARK SMILES IDX 26 36 27 38 28 39 29 40 30 41 31 42 32 43 33 44 34 45 40 50
REMARK SMILES IDX 41 51 42 52 43 53 44 54
REMARK H PARENT 6 16 16 27 10 29 26 37 33 46 33 47 34 48 34 49 44 55
ROOT
ATOM      1  N   UNL     1      -1.029  16.972   1.871  1.00  0.00    -0.326 N 
ATOM      2  C   UNL     1      -0.409  16.041  -0.200  1.00  0.00     0.014 C 
ATOM      3  C   UNL     1      -0.026  16.080   1.282  1.00  0.00     0.091 C 
ATOM      4  C   UNL     1      -0.925  17.449  -0.450  1.00  0.00     0.041 C 
ATOM      5  C   UNL     1      -1.804  17.643   0.799  1.00  0.00     0.175 C 
ATOM      6  C   UNL     1       0.058  14.644   1.797  1.00  0.00     0.059 C 
ATOM      7  C   UNL     1       0.733  15.507  -1.042  1.00  0.00     0.008 C 
ATOM      8  C   UNL     1       0.517  13.627   0.730  1.00  0.00     0.143 C 
ATOM      9  C   UNL     1       1.385  14.285  -0.361  1.00  0.00     0.034 C 
ENDROOT
BRANCH   1  10
ATOM     10  C   UNL     1      -1.177  17.400   3.180  1.00  0.00     0.246 C 
ATOM     11  O   UNL     1      -1.294  18.609   3.407  1.00  0.00    -0.272 OA
BRANCH  10  12
ATOM     12  C   UNL     1      -1.235  16.351   4.328  1.00  0.00     0.174 C 
BRANCH  12  13
ATOM     13  N   UNL     1      -2.483  15.593   4.248  1.00  0.00    -0.342 N 
ATOM     14  C   UNL     1      -2.605  14.243   4.492  1.00  0.00     0.249 C 
ATOM     15  O   UNL     1      -1.674  13.525   4.833  1.00  0.00    -0.272 OA
ATOM     16  H   UNL     1      -3.305  16.019   3.827  1.00  0.00     0.164 HD
BRANCH  14  17
ATOM     17  C   UNL     1      -4.050  13.733   4.308  1.00  0.00     0.207 C 
BRANCH  17  18
ATOM     18  C   UNL     1      -4.109  12.214   4.491  1.00  0.00     0.077 C 
BRANCH  18  19
ATOM     19  C   UNL     1      -5.236  11.802   5.412  1.00  0.00    -0.043 A 
ATOM     20  C   UNL     1      -6.678  12.263   7.307  1.00  0.00     0.083 A 
ATOM     21  C   UNL     1      -5.672  12.666   6.429  1.00  0.00     0.028 A 
ATOM     22  C   UNL     1      -7.253  10.998   7.178  1.00  0.00     0.134 A 
ATOM     23  C   UNL     1      -6.831  10.132   6.175  1.00  0.00     0.048 A 
ATOM     24  C   UNL     1      -5.823  10.532   5.295  1.00  0.00     0.008 A 
ATOM     25  Cl  UNL     1      -7.199  13.338   8.550  1.00  0.00    -0.080 Cl
BRANCH  22  26
ATOM     26  O   UNL     1      -8.235  10.555   8.022  1.00  0.00    -0.506 OA
ATOM     27  H   UNL     1      -9.086  10.774   7.601  1.00  0.00     0.293 HD
ENDBRANCH  22  26
ENDBRANCH  18  19
ENDBRANCH  17  18
BRANCH  17  28
ATOM     28  O   UNL     1      -4.559  14.077   3.009  1.00  0.00    -0.383 OA
ATOM     29  H   UNL     1      -3.932  14.738   2.637  1.00  0.00     0.211 HD
ENDBRANCH  17  28
ENDBRANCH  14  17
ENDBRANCH  12  13
BRANCH  12  30
ATOM     30  C   UNL     1      -1.013  16.982   5.729  1.00  0.00     0.018 C 
ATOM     31  C   UNL     1      -0.105  16.091   6.591  1.00  0.00     0.010 C 
BRANCH  30  32
ATOM     32  C   UNL     1      -2.327  17.292   6.485  1.00  0.00     0.002 C 
ATOM     33  C   UNL     1      -2.536  18.756   6.854  1.00  0.00     0.004 C 
ENDBRANCH  30  32
ENDBRANCH  12  30
ENDBRANCH  10  12
ENDBRANCH   1  10
BRANCH   5  34
ATOM     34  C   UNL     1      -3.196  16.978   0.628  1.00  0.00     0.242 C 
ATOM     35  O   UNL     1      -3.523  15.968   1.251  1.00  0.00    -0.273 OA
ATOM     36  N   UNL     1      -4.015  17.567  -0.309  1.00  0.00    -0.354 N 
ATOM     37  H   UNL     1      -3.643  18.328  -0.878  1.00  0.00     0.163 HD
BRANCH  36  38
ATOM     38  C   UNL     1      -5.414  17.215  -0.444  1.00  0.00     0.116 C 
BRANCH  38  39
ATOM     39  C   UNL     1      -6.221  17.858   0.682  1.00  0.00     0.023 C 
BRANCH  39  40
ATOM     40  C   UNL     1      -6.990  16.832   1.507  1.00  0.00     0.026 C 
BRANCH  40  41
ATOM     41  C   UNL     1      -7.365  15.621   0.653  1.00  0.00     0.146 C 
BRANCH  41  42
ATOM     42  N   UNL     1      -6.907  14.399   1.301  1.00  0.00    -0.254 NA
ATOM     43  C   UNL     1      -7.738  13.679   1.954  1.00  0.00     0.185 C 
ATOM     44  N   UNL     1      -9.055  13.855   2.167  1.00  0.00    -0.370 N 
ATOM     45  N   UNL     1      -7.295  12.559   2.549  1.00  0.00    -0.370 N 
ATOM     46  H   UNL     1      -9.529  13.348   2.896  1.00  0.00     0.159 HD
ATOM     47  H   UNL     1      -9.557  14.646   1.777  1.00  0.00     0.159 HD
ATOM     48  H   UNL     1      -6.313  12.347   2.430  1.00  0.00     0.159 HD
ATOM     49  H   UNL     1      -7.910  11.832   2.868  1.00  0.00     0.159 HD
ENDBRANCH  41  42
ENDBRANCH  40  41
ENDBRANCH  39  40
ENDBRANCH  38  39
ENDBRANCH  36  38
ENDBRANCH   5  34
BRANCH   8  50
ATOM     50  O   UNL     1      -0.617  13.026   0.106  1.00  0.00    -0.245 OA
BRANCH  50  51
ATOM     51  S   UNL     1      -1.688  12.199   1.011  1.00  0.00     0.397 S 
ATOM     52  O   UNL     1      -2.909  12.970   1.072  1.00  0.00    -0.169 OA
ATOM     53  O   UNL     1      -1.037  11.710   2.208  1.00  0.00    -0.169 OA
BRANCH  51  54
ATOM     54  O   UNL     1      -2.014  10.935   0.073  1.00  0.00    -0.264 OA
ATOM     55  H   UNL     1      -2.182  10.167   0.655  1.00  0.00     0.236 HD
ENDBRANCH  51  54
ENDBRANCH  50  51
ENDBRANCH   8  50
TORSDOF 19
ENDMDL
MODEL 5
REMARK VINA RESULT:    -7.288      3.387      7.504
REMARK INTER + INTRA:         -18.356
REMARK INTER:                 -14.836
REMARK INTRA:                  -3.520
REMARK UNBOUND:                -3.611
REMARK SMILES CC[C@@H](C)[C@@H](NC(=O)[C@@H](O)Cc1ccc(O)c(Cl)c1)C(=O)N1[C@H](C(=O)NCCCCN=C(N)N)C[C@H]2CC[C@H](OS(=O)(=O)O)C[C@@H]21
REMARK SMILES IDX 22 1 36 2 46 3 35 4 23 5 45 6 37 7 39 8 38 9 20 10 21 11
REMARK SMILES IDX 5 12 6 13 7 14 8 15 9 17 11 18 12 19 17 20 19 21 15 22 14 23
REMARK SMILES IDX 13 24 18 25 16 26 10 28 3 30 4 31 2 32 1 33 24 34 25 35
REMARK SMILES IDX 26 36 27 38 28 39 29 40 30 41 31 42 32 43 33 44 34 45 40 50
REMARK SMILES IDX 41 51 42 52 43 53 44 54
REMARK H PARENT 6 16 16 27 10 29 26 37 33 46 33 47 34 48 34 49 44 55
ROOT
ATOM      1  N   UNL     1      -3.355  15.027   2.165  1.00  0.00    -0.326 N 
ATOM      2  C   UNL     1      -3.735  17.342   2.361  1.00  0.00     0.014 C 
ATOM      3  C   UNL     1      -2.679  16.310   1.954  1.00  0.00     0.091 C 
ATOM      4  C   UNL     1      -4.462  16.645   3.501  1.00  0.00     0.041 C 
ATOM      5  C   UNL     1      -4.628  15.238   2.898  1.00  0.00     0.175 C 
ATOM      6  C   UNL     1      -2.191  16.649   0.546  1.00  0.00     0.059 C 
ATOM      7  C   UNL     1      -3.103  18.699   2.602  1.00  0.00     0.008 C 
ATOM      8  C   UNL     1      -2.206  18.160   0.230  1.00  0.00     0.143 C 
ATOM      9  C   UNL     1      -2.068  19.019   1.503  1.00  0.00     0.034 C 
ENDROOT
BRANCH   1  10
ATOM     10  C   UNL     1      -2.887  13.737   1.984  1.00  0.00     0.246 C 
ATOM     11  O   UNL     1      -3.338  13.059   1.054  1.00  0.00    -0.272 OA
BRANCH  10  12
ATOM     12  C   UNL     1      -1.776  13.185   2.923  1.00  0.00     0.174 C 
BRANCH  12  13
ATOM     13  N   UNL     1      -1.444  14.180   3.942  1.00  0.00    -0.342 N 
ATOM     14  C   UNL     1      -1.981  14.225   5.208  1.00  0.00     0.249 C 
ATOM     15  O   UNL     1      -2.787  13.407   5.636  1.00  0.00    -0.272 OA
ATOM     16  H   UNL     1      -0.912  15.008   3.683  1.00  0.00     0.164 HD
BRANCH  14  17
ATOM     17  C   UNL     1      -1.443  15.406   6.043  1.00  0.00     0.207 C 
BRANCH  17  18
ATOM     18  C   UNL     1      -1.615  16.723   5.279  1.00  0.00     0.077 C 
BRANCH  18  19
ATOM     19  C   UNL     1      -0.283  17.345   4.926  1.00  0.00    -0.043 A 
ATOM     20  C   UNL     1       1.518  17.698   3.339  1.00  0.00     0.083 A 
ATOM     21  C   UNL     1       0.266  17.164   3.646  1.00  0.00     0.028 A 
ATOM     22  C   UNL     1       2.229  18.413   4.304  1.00  0.00     0.134 A 
ATOM     23  C   UNL     1       1.697  18.600   5.575  1.00  0.00     0.048 A 
ATOM     24  C   UNL     1       0.445  18.065   5.886  1.00  0.00     0.008 A 
ATOM     25  Cl  UNL     1       2.176  17.465   1.762  1.00  0.00    -0.080 Cl
BRANCH  22  26
ATOM     26  O   UNL     1       3.464  18.945   4.053  1.00  0.00    -0.506 OA
ATOM     27  H   UNL     1       3.842  18.438   3.311  1.00  0.00     0.293 HD
ENDBRANCH  22  26
ENDBRANCH  18  19
ENDBRANCH  17  18
BRANCH  17  28
ATOM     28  O   UNL     1      -0.056  15.221   6.367  1.00  0.00    -0.383 OA
ATOM     29  H   UNL     1       0.162  15.909   7.036  1.00  0.00     0.211 HD
ENDBRANCH  17  28
ENDBRANCH  14  17
ENDBRANCH  12  13
BRANCH  12  30
ATOM     30  C   UNL     1      -0.525  12.691   2.148  1.00  0.00     0.018 C 
ATOM     31  C   UNL     1       0.006  13.788   1.211  1.00  0.00     0.010 C 
BRANCH  30  32
ATOM     32  C   UNL     1      -0.762  11.383   1.354  1.00  0.00     0.002 C 
ATOM     33  C   UNL     1       0.227  11.117   0.227  1.00  0.00     0.004 C 
ENDBRANCH  30  32
ENDBRANCH  12  30
ENDBRANCH  10  12
ENDBRANCH   1  10
BRANCH   5  34
ATOM     34  C   UNL     1      -5.838  15.169   1.929  1.00  0.00     0.242 C 
ATOM     35  O   UNL     1      -5.715  15.301   0.712  1.00  0.00    -0.273 OA
ATOM     36  N   UNL     1      -7.064  15.004   2.534  1.00  0.00    -0.354 N 
ATOM     37  H   UNL     1      -7.115  15.021   3.554  1.00  0.00     0.163 HD
BRANCH  36  38
ATOM     38  C   UNL     1      -8.265  14.705   1.781  1.00  0.00     0.116 C 
BRANCH  38  39
ATOM     39  C   UNL     1      -9.320  14.103   2.705  1.00  0.00     0.023 C 
BRANCH  39  40
ATOM     40  C   UNL     1      -9.239  12.582   2.769  1.00  0.00     0.026 C 
BRANCH  40  41
ATOM     41  C   UNL     1      -8.477  12.132   4.016  1.00  0.00     0.146 C 
BRANCH  41  42
ATOM     42  N   UNL     1      -7.043  12.188   3.764  1.00  0.00    -0.254 NA
ATOM     43  C   UNL     1      -6.224  11.889   4.701  1.00  0.00     0.185 C 
ATOM     44  N   UNL     1      -6.461  11.503   5.968  1.00  0.00    -0.370 N 
ATOM     45  N   UNL     1      -4.906  11.951   4.450  1.00  0.00    -0.370 N 
ATOM     46  H   UNL     1      -5.732  11.538   6.660  1.00  0.00     0.159 HD
ATOM     47  H   UNL     1      -7.406  11.391   6.323  1.00  0.00     0.159 HD
ATOM     48  H   UNL     1      -4.640  12.226   3.514  1.00  0.00     0.159 HD
ATOM     49  H   UNL     1      -4.219  11.514   5.038  1.00  0.00     0.159 HD
ENDBRANCH  41  42
ENDBRANCH  40  41
ENDBRANCH  39  40
ENDBRANCH  38  39
ENDBRANCH  36  38
ENDBRANCH   5  34
BRANCH   8  50
ATOM     50  O   UNL     1      -3.425  18.512  -0.425  1.00  0.00    -0.245 OA
BRANCH  50  51
ATOM     51  S   UNL     1      -3.695  18.003  -1.946  1.00  0.00     0.397 S 
ATOM     52  O   UNL     1      -2.443  17.521  -2.485  1.00  0.00    -0.169 OA
ATOM     53  O   UNL     1      -4.499  18.980  -2.650  1.00  0.00    -0.169 OA
BRANCH  51  54
ATOM     54  O   UNL     1      -4.600  16.695  -1.707  1.00  0.00    -0.264 OA
ATOM     55  H   UNL     1      -4.181  16.169  -0.995  1.00  0.00     0.236 HD
ENDBRANCH  51  54
ENDBRANCH  50  51
ENDBRANCH   8  50
TORSDOF 19
ENDMDL
MODEL 6
REMARK VINA RESULT:    -7.207      3.547      8.375
REMARK INTER + INTRA:         -18.192
REMARK INTER:                 -14.304
REMARK INTRA:                  -3.888
REMARK UNBOUND:                -3.611
REMARK SMILES CC[C@@H](C)[C@@H](NC(=O)[C@@H](O)Cc1ccc(O)c(Cl)c1)C(=O)N1[C@H](C(=O)NCCCCN=C(N)N)C[C@H]2CC[C@H](OS(=O)(=O)O)C[C@@H]21
REMARK SMILES IDX 22 1 36 2 46 3 35 4 23 5 45 6 37 7 39 8 38 9 20 10 21 11
REMARK SMILES IDX 5 12 6 13 7 14 8 15 9 17 11 18 12 19 17 20 19 21 15 22 14 23
REMARK SMILES IDX 13 24 18 25 16 26 10 28 3 30 4 31 2 32 1 33 24 34 25 35
REMARK SMILES IDX 26 36 27 38 28 39 29 40 30 41 31 42 32 43 33 44 34 45 40 50
REMARK SMILES IDX 41 51 42 52 43 53 44 54
REMARK H PARENT 6 16 16 27 10 29 26 37 33 46 33 47 34 48 34 49 44 55
ROOT
ATOM      1  N   UNL     1      -1.758  16.020   0.575  1.00  0.00    -0.326 N 
ATOM      2  C   UNL     1      -2.207  17.459  -1.233  1.00  0.00     0.014 C 
ATOM      3  C   UNL     1      -2.884  16.572  -0.184  1.00  0.00     0.091 C 
ATOM      4  C   UNL     1      -0.928  16.697  -1.542  1.00  0.00     0.041 C 
ATOM      5  C   UNL     1      -0.481  16.326  -0.116  1.00  0.00     0.175 C 
ATOM      6  C   UNL     1      -3.919  17.411   0.562  1.00  0.00     0.059 C 
ATOM      7  C   UNL     1      -3.165  17.792  -2.361  1.00  0.00     0.008 C 
ATOM      8  C   UNL     1      -4.569  18.512  -0.304  1.00  0.00     0.143 C 
ATOM      9  C   UNL     1      -4.558  18.151  -1.803  1.00  0.00     0.034 C 
ENDROOT
BRANCH   1  10
ATOM     10  C   UNL     1      -1.754  15.134   1.639  1.00  0.00     0.246 C 
ATOM     11  O   UNL     1      -0.957  15.312   2.566  1.00  0.00    -0.272 OA
BRANCH  10  12
ATOM     12  C   UNL     1      -2.778  13.963   1.665  1.00  0.00     0.174 C 
BRANCH  12  13
ATOM     13  N   UNL     1      -3.789  14.207   2.693  1.00  0.00    -0.342 N 
ATOM     14  C   UNL     1      -5.148  14.236   2.474  1.00  0.00     0.249 C 
ATOM     15  O   UNL     1      -5.667  14.030   1.384  1.00  0.00    -0.272 OA
ATOM     16  H   UNL     1      -3.504  14.546   3.609  1.00  0.00     0.164 HD
BRANCH  14  17
ATOM     17  C   UNL     1      -5.951  14.535   3.757  1.00  0.00     0.207 C 
BRANCH  17  18
ATOM     18  C   UNL     1      -7.167  13.609   3.856  1.00  0.00     0.077 C 
BRANCH  18  19
ATOM     19  C   UNL     1      -6.914  12.447   4.791  1.00  0.00    -0.043 A 
ATOM     20  C   UNL     1      -7.539  11.138   6.735  1.00  0.00     0.083 A 
ATOM     21  C   UNL     1      -7.801  12.180   5.845  1.00  0.00     0.028 A 
ATOM     22  C   UNL     1      -6.391  10.360   6.580  1.00  0.00     0.134 A 
ATOM     23  C   UNL     1      -5.504  10.613   5.540  1.00  0.00     0.048 A 
ATOM     24  C   UNL     1      -5.764  11.656   4.648  1.00  0.00     0.008 A 
ATOM     25  Cl  UNL     1      -8.640  10.826   8.025  1.00  0.00    -0.080 Cl
BRANCH  22  26
ATOM     26  O   UNL     1      -6.086   9.334   7.434  1.00  0.00    -0.506 OA
ATOM     27  H   UNL     1      -5.341   9.640   7.984  1.00  0.00     0.293 HD
ENDBRANCH  22  26
ENDBRANCH  18  19
ENDBRANCH  17  18
BRANCH  17  28
ATOM     28  O   UNL     1      -6.391  15.903   3.785  1.00  0.00    -0.383 OA
ATOM     29  H   UNL     1      -6.803  16.074   2.908  1.00  0.00     0.211 HD
ENDBRANCH  17  28
ENDBRANCH  14  17
ENDBRANCH  12  13
BRANCH  12  30
ATOM     30  C   UNL     1      -2.098  12.575   1.820  1.00  0.00     0.018 C 
ATOM     31  C   UNL     1      -1.924  12.215   3.304  1.00  0.00     0.010 C 
BRANCH  30  32
ATOM     32  C   UNL     1      -0.741  12.462   1.082  1.00  0.00     0.002 C 
ATOM     33  C   UNL     1      -0.251  11.041   0.835  1.00  0.00     0.004 C 
ENDBRANCH  30  32
ENDBRANCH  12  30
ENDBRANCH  10  12
ENDBRANCH   1  10
BRANCH   5  34
ATOM     34  C   UNL     1       0.252  17.505   0.578  1.00  0.00     0.242 C 
ATOM     35  O   UNL     1       0.039  18.680   0.279  1.00  0.00    -0.273 OA
ATOM     36  N   UNL     1       1.194  17.140   1.513  1.00  0.00    -0.354 N 
ATOM     37  H   UNL     1       1.411  16.149   1.631  1.00  0.00     0.163 HD
BRANCH  36  38
ATOM     38  C   UNL     1       1.813  18.100   2.404  1.00  0.00     0.116 C 
BRANCH  38  39
ATOM     39  C   UNL     1       1.749  17.589   3.841  1.00  0.00     0.023 C 
BRANCH  39  40
ATOM     40  C   UNL     1       0.534  18.121   4.595  1.00  0.00     0.026 C 
BRANCH  40  41
ATOM     41  C   UNL     1       0.058  19.442   3.992  1.00  0.00     0.146 C 
BRANCH  41  42
ATOM     42  N   UNL     1      -1.399  19.489   3.996  1.00  0.00    -0.254 NA
ATOM     43  C   UNL     1      -2.019  19.975   2.987  1.00  0.00     0.185 C 
ATOM     44  N   UNL     1      -1.538  20.488   1.840  1.00  0.00    -0.370 N 
ATOM     45  N   UNL     1      -3.362  20.013   3.013  1.00  0.00    -0.370 N 
ATOM     46  H   UNL     1      -2.122  21.053   1.247  1.00  0.00     0.159 HD
ATOM     47  H   UNL     1      -0.542  20.524   1.649  1.00  0.00     0.159 HD
ATOM     48  H   UNL     1      -3.805  19.637   3.840  1.00  0.00     0.159 HD
ATOM     49  H   UNL     1      -3.918  20.152   2.188  1.00  0.00     0.159 HD
ENDBRANCH  41  42
ENDBRANCH  40  41
ENDBRANCH  39  40
ENDBRANCH  38  39
ENDBRANCH  36  38
ENDBRANCH   5  34
BRANCH   8  50
ATOM     50  O   UNL     1      -3.874  19.747  -0.130  1.00  0.00    -0.245 OA
BRANCH  50  51
ATOM     51  S   UNL     1      -4.711  21.098   0.212  1.00  0.00     0.397 S 
ATOM     52  O   UNL     1      -3.768  22.120   0.607  1.00  0.00    -0.169 OA
ATOM     53  O   UNL     1      -5.858  20.766   1.031  1.00  0.00    -0.169 OA
BRANCH  51  54
ATOM     54  O   UNL     1      -5.249  21.536  -1.239  1.00  0.00    -0.264 OA
ATOM     55  H   UNL     1      -4.819  20.958  -1.903  1.00  0.00     0.236 HD
ENDBRANCH  51  54
ENDBRANCH  50  51
ENDBRANCH   8  50
TORSDOF 19
ENDMDL
MODEL 7
REMARK VINA RESULT:    -7.201      2.930      6.730
REMARK INTER + INTRA:         -18.179
REMARK INTER:                 -12.858
REMARK INTRA:                  -5.321
REMARK UNBOUND:                -3.611
REMARK SMILES CC[C@@H](C)[C@@H](NC(=O)[C@@H](O)Cc1ccc(O)c(Cl)c1)C(=O)N1[C@H](C(=O)NCCCCN=C(N)N)C[C@H]2CC[C@H](OS(=O)(=O)O)C[C@@H]21
REMARK SMILES IDX 22 1 36 2 46 3 35 4 23 5 45 6 37 7 39 8 38 9 20 10 21 11
REMARK SMILES IDX 5 12 6 13 7 14 8 15 9 17 11 18 12 19 17 20 19 21 15 22 14 23
REMARK SMILES IDX 13 24 18 25 16 26 10 28 3 30 4 31 2 32 1 33 24 34 25 35
REMARK SMILES IDX 26 36 27 38 28 39 29 40 30 41 31 42 32 43 33 44 34 45 40 50
REMARK SMILES IDX 41 51 42 52 43 53 44 54
REMARK H PARENT 6 16 16 27 10 29 26 37 33 46 33 47 34 48 34 49 44 55
ROOT
ATOM      1  N   UNL     1      -2.888  14.180   3.419  1.00  0.00    -0.326 N 
ATOM      2  C   UNL     1      -3.648  15.248   5.374  1.00  0.00     0.014 C 
ATOM      3  C   UNL     1      -3.084  15.521   3.977  1.00  0.00     0.091 C 
ATOM      4  C   UNL     1      -2.931  13.971   5.782  1.00  0.00     0.041 C 
ATOM      5  C   UNL     1      -3.062  13.158   4.481  1.00  0.00     0.175 C 
ATOM      6  C   UNL     1      -4.031  16.476   3.252  1.00  0.00     0.059 C 
ATOM      7  C   UNL     1      -3.535  16.478   6.254  1.00  0.00     0.008 C 
ATOM      8  C   UNL     1      -4.750  17.469   4.190  1.00  0.00     0.143 C 
ATOM      9  C   UNL     1      -3.940  17.745   5.472  1.00  0.00     0.034 C 
ENDROOT
BRANCH   1  10
ATOM     10  C   UNL     1      -2.384  13.795   2.188  1.00  0.00     0.246 C 
ATOM     11  O   UNL     1      -3.150  13.310   1.349  1.00  0.00    -0.272 OA
BRANCH  10  12
ATOM     12  C   UNL     1      -0.877  14.021   1.873  1.00  0.00     0.174 C 
BRANCH  12  13
ATOM     13  N   UNL     1      -0.729  15.086   0.881  1.00  0.00    -0.342 N 
ATOM     14  C   UNL     1      -0.428  16.398   1.169  1.00  0.00     0.249 C 
ATOM     15  O   UNL     1      -0.221  16.818   2.301  1.00  0.00    -0.272 OA
ATOM     16  H   UNL     1      -1.023  14.924  -0.079  1.00  0.00     0.164 HD
BRANCH  14  17
ATOM     17  C   UNL     1      -0.358  17.284  -0.093  1.00  0.00     0.207 C 
BRANCH  17  18
ATOM     18  C   UNL     1      -1.440  16.873  -1.096  1.00  0.00     0.077 C 
BRANCH  18  19
ATOM     19  C   UNL     1      -2.813  17.340  -0.664  1.00  0.00    -0.043 A 
ATOM     20  C   UNL     1      -4.216  18.888   0.568  1.00  0.00     0.083 A 
ATOM     21  C   UNL     1      -2.953  18.489   0.130  1.00  0.00     0.028 A 
ATOM     22  C   UNL     1      -5.343  18.144   0.219  1.00  0.00     0.134 A 
ATOM     23  C   UNL     1      -5.219  17.004  -0.567  1.00  0.00     0.048 A 
ATOM     24  C   UNL     1      -3.956  16.600  -1.005  1.00  0.00     0.008 A 
ATOM     25  Cl  UNL     1      -4.368  20.302   1.542  1.00  0.00    -0.080 Cl
BRANCH  22  26
ATOM     26  O   UNL     1      -6.601  18.490   0.633  1.00  0.00    -0.506 OA
ATOM     27  H   UNL     1      -7.211  18.244  -0.087  1.00  0.00     0.293 HD
ENDBRANCH  22  26
ENDBRANCH  18  19
ENDBRANCH  17  18
BRANCH  17  28
ATOM     28  O   UNL     1       0.932  17.191  -0.719  1.00  0.00    -0.383 OA
ATOM     29  H   UNL     1       0.778  17.329  -1.681  1.00  0.00     0.211 HD
ENDBRANCH  17  28
ENDBRANCH  14  17
ENDBRANCH  12  13
BRANCH  12  30
ATOM     30  C   UNL     1      -0.149  12.715   1.453  1.00  0.00     0.018 C 
ATOM     31  C   UNL     1       0.365  12.816   0.009  1.00  0.00     0.010 C 
BRANCH  30  32
ATOM     32  C   UNL     1      -1.013  11.441   1.622  1.00  0.00     0.002 C 
ATOM     33  C   UNL     1      -1.141  10.571   0.379  1.00  0.00     0.004 C 
ENDBRANCH  30  32
ENDBRANCH  12  30
ENDBRANCH  10  12
ENDBRANCH   1  10
BRANCH   5  34
ATOM     34  C   UNL     1      -4.453  12.479   4.368  1.00  0.00     0.242 C 
ATOM     35  O   UNL     1      -5.300  12.846   3.555  1.00  0.00    -0.273 OA
ATOM     36  N   UNL     1      -4.689  11.473   5.279  1.00  0.00    -0.354 N 
ATOM     37  H   UNL     1      -3.994  11.296   6.006  1.00  0.00     0.163 HD
BRANCH  36  38
ATOM     38  C   UNL     1      -5.836  10.595   5.181  1.00  0.00     0.116 C 
BRANCH  38  39
ATOM     39  C   UNL     1      -6.471  10.415   6.558  1.00  0.00     0.023 C 
BRANCH  39  40
ATOM     40  C   UNL     1      -7.990  10.542   6.520  1.00  0.00     0.026 C 
BRANCH  40  41
ATOM     41  C   UNL     1      -8.409  11.827   5.806  1.00  0.00     0.146 C 
BRANCH  41  42
ATOM     42  N   UNL     1      -7.949  12.984   6.562  1.00  0.00    -0.254 NA
ATOM     43  C   UNL     1      -7.612  14.052   5.942  1.00  0.00     0.185 C 
ATOM     44  N   UNL     1      -7.606  14.323   4.624  1.00  0.00    -0.370 N 
ATOM     45  N   UNL     1      -7.186  15.106   6.658  1.00  0.00    -0.370 N 
ATOM     46  H   UNL     1      -7.091  15.108   4.264  1.00  0.00     0.159 HD
ATOM     47  H   UNL     1      -7.912  13.639   3.939  1.00  0.00     0.159 HD
ATOM     48  H   UNL     1      -7.169  14.989   7.662  1.00  0.00     0.159 HD
ATOM     49  H   UNL     1      -7.134  16.035   6.279  1.00  0.00     0.159 HD
ENDBRANCH  41  42
ENDBRANCH  40  41
ENDBRANCH  39  40
ENDBRANCH  38  39
ENDBRANCH  36  38
ENDBRANCH   5  34
BRANCH   8  50
ATOM     50  O   UNL     1      -6.028  16.953   4.563  1.00  0.00    -0.245 OA
BRANCH  50  51
ATOM     51  S   UNL     1      -7.377  17.638   3.965  1.00  0.00     0.397 S 
ATOM     52  O   UNL     1      -7.033  18.959   3.489  1.00  0.00    -0.169 OA
ATOM     53  O   UNL     1      -8.479  17.422   4.879  1.00  0.00    -0.169 OA
BRANCH  51  54
ATOM     54  O   UNL     1      -7.645  16.755   2.648  1.00  0.00    -0.264 OA
ATOM     55  H   UNL     1      -8.554  16.947   2.340  1.00  0.00     0.236 HD
ENDBRANCH  51  54
ENDBRANCH  50  51
ENDBRANCH   8  50
TORSDOF 19
ENDMDL
MODEL 8
REMARK VINA RESULT:    -7.195      3.236      6.593
REMARK INTER + INTRA:         -18.168
REMARK INTER:                 -14.864
REMARK INTRA:                  -3.303
REMARK UNBOUND:                -3.611
REMARK SMILES CC[C@@H](C)[C@@H](NC(=O)[C@@H](O)Cc1ccc(O)c(Cl)c1)C(=O)N1[C@H](C(=O)NCCCCN=C(N)N)C[C@H]2CC[C@H](OS(=O)(=O)O)C[C@@H]21
REMARK SMILES IDX 22 1 36 2 46 3 35 4 23 5 45 6 37 7 39 8 38 9 20 10 21 11
REMARK SMILES IDX 5 12 6 13 7 14 8 15 9 17 11 18 12 19 17 20 19 21 15 22 14 23
REMARK SMILES IDX 13 24 18 25 16 26 10 28 3 30 4 31 2 32 1 33 24 34 25 35
REMARK SMILES IDX 26 36 27 38 28 39 29 40 30 41 31 42 32 43 33 44 34 45 40 50
REMARK SMILES IDX 41 51 42 52 43 53 44 54
REMARK H PARENT 6 16 16 27 10 29 26 37 33 46 33 47 34 48 34 49 44 55
ROOT
ATOM      1  N   UNL     1      -5.919  14.466   3.267  1.00  0.00    -0.326 N 
ATOM      2  C   UNL     1      -8.054  15.141   3.993  1.00  0.00     0.014 C 
ATOM      3  C   UNL     1      -7.279  14.671   2.759  1.00  0.00     0.091 C 
ATOM      4  C   UNL     1      -7.018  15.957   4.749  1.00  0.00     0.041 C 
ATOM      5  C   UNL     1      -5.800  15.022   4.637  1.00  0.00     0.175 C 
ATOM      6  C   UNL     1      -8.013  13.476   2.153  1.00  0.00     0.059 C 
ATOM      7  C   UNL     1      -9.365  15.789   3.595  1.00  0.00     0.008 C 
ATOM      8  C   UNL     1      -9.544  13.526   2.343  1.00  0.00     0.143 C 
ATOM      9  C   UNL     1     -10.063  14.971   2.488  1.00  0.00     0.034 C 
ENDROOT
BRANCH   1  10
ATOM     10  C   UNL     1      -4.775  14.061   2.601  1.00  0.00     0.246 C 
ATOM     11  O   UNL     1      -4.860  13.702   1.422  1.00  0.00    -0.272 OA
BRANCH  10  12
ATOM     12  C   UNL     1      -3.403  14.105   3.336  1.00  0.00     0.174 C 
BRANCH  12  13
ATOM     13  N   UNL     1      -2.589  15.198   2.806  1.00  0.00    -0.342 N 
ATOM     14  C   UNL     1      -2.234  16.330   3.504  1.00  0.00     0.249 C 
ATOM     15  O   UNL     1      -2.543  16.536   4.671  1.00  0.00    -0.272 OA
ATOM     16  H   UNL     1      -2.392  15.242   1.809  1.00  0.00     0.164 HD
BRANCH  14  17
ATOM     17  C   UNL     1      -1.385  17.307   2.664  1.00  0.00     0.207 C 
BRANCH  17  18
ATOM     18  C   UNL     1       0.089  16.889   2.684  1.00  0.00     0.077 C 
BRANCH  18  19
ATOM     19  C   UNL     1       0.545  16.371   1.339  1.00  0.00    -0.043 A 
ATOM     20  C   UNL     1       0.383  16.377  -1.082  1.00  0.00     0.083 A 
ATOM     21  C   UNL     1      -0.003  16.892   0.156  1.00  0.00     0.028 A 
ATOM     22  C   UNL     1       1.316  15.341  -1.147  1.00  0.00     0.134 A 
ATOM     23  C   UNL     1       1.866  14.816   0.016  1.00  0.00     0.048 A 
ATOM     24  C   UNL     1       1.480  15.328   1.257  1.00  0.00     0.008 A 
ATOM     25  Cl  UNL     1      -0.301  17.031  -2.523  1.00  0.00    -0.080 Cl
BRANCH  22  26
ATOM     26  O   UNL     1       1.717  14.797  -2.337  1.00  0.00    -0.506 OA
ATOM     27  H   UNL     1       2.652  15.048  -2.458  1.00  0.00     0.293 HD
ENDBRANCH  22  26
ENDBRANCH  18  19
ENDBRANCH  17  18
BRANCH  17  28
ATOM     28  O   UNL     1      -1.505  18.652   3.155  1.00  0.00    -0.383 OA
ATOM     29  H   UNL     1      -1.954  18.584   4.028  1.00  0.00     0.211 HD
ENDBRANCH  17  28
ENDBRANCH  14  17
ENDBRANCH  12  13
BRANCH  12  30
ATOM     30  C   UNL     1      -2.660  12.743   3.302  1.00  0.00     0.018 C 
ATOM     31  C   UNL     1      -2.435  12.208   4.726  1.00  0.00     0.010 C 
BRANCH  30  32
ATOM     32  C   UNL     1      -1.318  12.785   2.532  1.00  0.00     0.002 C 
ATOM     33  C   UNL     1      -1.165  11.742   1.433  1.00  0.00     0.004 C 
ENDBRANCH  30  32
ENDBRANCH  12  30
ENDBRANCH  10  12
ENDBRANCH   1  10
BRANCH   5  34
ATOM     34  C   UNL     1      -5.850  13.888   5.697  1.00  0.00     0.242 C 
ATOM     35  O   UNL     1      -5.737  12.700   5.395  1.00  0.00    -0.273 OA
ATOM     36  N   UNL     1      -6.082  14.304   6.988  1.00  0.00    -0.354 N 
ATOM     37  H   UNL     1      -6.287  15.289   7.158  1.00  0.00     0.163 HD
BRANCH  36  38
ATOM     38  C   UNL     1      -5.947  13.414   8.123  1.00  0.00     0.116 C 
BRANCH  38  39
ATOM     39  C   UNL     1      -7.240  13.408   8.934  1.00  0.00     0.023 C 
BRANCH  39  40
ATOM     40  C   UNL     1      -7.887  12.028   8.990  1.00  0.00     0.026 C 
BRANCH  40  41
ATOM     41  C   UNL     1      -8.104  11.474   7.582  1.00  0.00     0.146 C 
BRANCH  41  42
ATOM     42  N   UNL     1      -7.323  10.256   7.407  1.00  0.00    -0.254 NA
ATOM     43  C   UNL     1      -7.215   9.735   6.243  1.00  0.00     0.185 C 
ATOM     44  N   UNL     1      -7.728  10.135   5.065  1.00  0.00    -0.370 N 
ATOM     45  N   UNL     1      -6.495   8.610   6.103  1.00  0.00    -0.370 N 
ATOM     46  H   UNL     1      -7.769   9.505   4.282  1.00  0.00     0.159 HD
ATOM     47  H   UNL     1      -8.289  10.978   4.987  1.00  0.00     0.159 HD
ATOM     48  H   UNL     1      -6.066   8.245   6.943  1.00  0.00     0.159 HD
ATOM     49  H   UNL     1      -6.170   8.280   5.212  1.00  0.00     0.159 HD
ENDBRANCH  41  42
ENDBRANCH  40  41
ENDBRANCH  39  40
ENDBRANCH  38  39
ENDBRANCH  36  38
ENDBRANCH   5  34
BRANCH   8  50
ATOM     50  O   UNL     1      -9.918  12.791   3.509  1.00  0.00    -0.245 OA
BRANCH  50  51
ATOM     51  S   UNL     1     -11.178  11.764   3.441  1.00  0.00     0.397 S 
ATOM     52  O   UNL     1     -11.853  11.969   2.179  1.00  0.00    -0.169 OA
ATOM     53  O   UNL     1     -11.894  11.790   4.699  1.00  0.00    -0.169 OA
BRANCH  51  54
ATOM     54  O   UNL     1     -10.443  10.340   3.318  1.00  0.00    -0.264 OA
ATOM     55  H   UNL     1     -10.416   9.939   4.211  1.00  0.00     0.236 HD
ENDBRANCH  51  54
ENDBRANCH  50  51
ENDBRANCH   8  50
TORSDOF 19
ENDMDL
MODEL 9
REMARK VINA RESULT:    -7.185      3.190      7.611
REMARK INTER + INTRA:         -18.148
REMARK INTER:                 -14.331
REMARK INTRA:                  -3.817
REMARK UNBOUND:                -3.611
REMARK SMILES CC[C@@H](C)[C@@H](NC(=O)[C@@H](O)Cc1ccc(O)c(Cl)c1)C(=O)N1[C@H](C(=O)NCCCCN=C(N)N)C[C@H]2CC[C@H](OS(=O)(=O)O)C[C@@H]21
REMARK SMILES IDX 22 1 36 2 46 3 35 4 23 5 45 6 37 7 39 8 38 9 20 10 21 11
REMARK SMILES IDX 5 12 6 13 7 14 8 15 9 17 11 18 12 19 17 20 19 21 15 22 14 23
REMARK SMILES IDX 13 24 18 25 16 26 10 28 3 30 4 31 2 32 1 33 24 34 25 35
REMARK SMILES IDX 26 36 27 38 28 39 29 40 30 41 31 42 32 43 33 44 34 45 40 50
REMARK SMILES IDX 41 51 42 52 43 53 44 54
REMARK H PARENT 6 16 16 27 10 29 26 37 33 46 33 47 34 48 34 49 44 55
ROOT
ATOM      1  N   UNL     1      -1.164  16.833   1.538  1.00  0.00    -0.326 N 
ATOM      2  C   UNL     1      -2.946  18.335   1.207  1.00  0.00     0.014 C 
ATOM      3  C   UNL     1      -2.226  17.140   0.575  1.00  0.00     0.091 C 
ATOM      4  C   UNL     1      -1.813  19.087   1.888  1.00  0.00     0.041 C 
ATOM      5  C   UNL     1      -1.065  17.914   2.548  1.00  0.00     0.175 C 
ATOM      6  C   UNL     1      -3.260  16.059   0.268  1.00  0.00     0.059 C 
ATOM      7  C   UNL     1      -3.806  19.052   0.185  1.00  0.00     0.008 C 
ATOM      8  C   UNL     1      -4.655  16.617  -0.089  1.00  0.00     0.143 C 
ATOM      9  C   UNL     1      -4.575  18.037  -0.687  1.00  0.00     0.034 C 
ENDROOT
BRANCH   1  10
ATOM     10  C   UNL     1      -0.180  15.859   1.493  1.00  0.00     0.246 C 
ATOM     11  O   UNL     1       1.007  16.202   1.528  1.00  0.00    -0.272 OA
BRANCH  10  12
ATOM     12  C   UNL     1      -0.588  14.358   1.443  1.00  0.00     0.174 C 
BRANCH  12  13
ATOM     13  N   UNL     1      -1.167  13.956   2.724  1.00  0.00    -0.342 N 
ATOM     14  C   UNL     1      -2.376  13.316   2.878  1.00  0.00     0.249 C 
ATOM     15  O   UNL     1      -3.096  12.983   1.945  1.00  0.00    -0.272 OA
ATOM     16  H   UNL     1      -0.762  14.302   3.590  1.00  0.00     0.164 HD
BRANCH  14  17
ATOM     17  C   UNL     1      -2.720  13.041   4.358  1.00  0.00     0.207 C 
BRANCH  17  18
ATOM     18  C   UNL     1      -4.069  13.670   4.719  1.00  0.00     0.077 C 
BRANCH  18  19
ATOM     19  C   UNL     1      -5.165  12.632   4.814  1.00  0.00    -0.043 A 
ATOM     20  C   UNL     1      -5.866  10.344   5.213  1.00  0.00     0.083 A 
ATOM     21  C   UNL     1      -4.860  11.310   5.174  1.00  0.00     0.028 A 
ATOM     22  C   UNL     1      -7.179  10.690   4.892  1.00  0.00     0.134 A 
ATOM     23  C   UNL     1      -7.496  11.996   4.534  1.00  0.00     0.048 A 
ATOM     24  C   UNL     1      -6.490  12.965   4.492  1.00  0.00     0.008 A 
ATOM     25  Cl  UNL     1      -5.472   8.725   5.657  1.00  0.00    -0.080 Cl
BRANCH  22  26
ATOM     26  O   UNL     1      -8.197   9.776   4.905  1.00  0.00    -0.506 OA
ATOM     27  H   UNL     1      -8.682   9.908   5.741  1.00  0.00     0.293 HD
ENDBRANCH  22  26
ENDBRANCH  18  19
ENDBRANCH  17  18
BRANCH  17  28
ATOM     28  O   UNL     1      -1.703  13.560   5.230  1.00  0.00    -0.383 OA
ATOM     29  H   UNL     1      -1.896  13.190   6.122  1.00  0.00     0.211 HD
ENDBRANCH  17  28
ENDBRANCH  14  17
ENDBRANCH  12  13
BRANCH  12  30
ATOM     30  C   UNL     1       0.580  13.434   1.004  1.00  0.00     0.018 C 
ATOM     31  C   UNL     1       0.929  13.658  -0.475  1.00  0.00     0.010 C 
BRANCH  30  32
ATOM     32  C   UNL     1       0.315  11.931   1.267  1.00  0.00     0.002 C 
ATOM     33  C   UNL     1      -0.651  11.262   0.297  1.00  0.00     0.004 C 
ENDBRANCH  30  32
ENDBRANCH  12  30
ENDBRANCH  10  12
ENDBRANCH   1  10
BRANCH   5  34
ATOM     34  C   UNL     1      -1.736  17.485   3.880  1.00  0.00     0.242 C 
ATOM     35  O   UNL     1      -2.369  16.435   3.990  1.00  0.00    -0.273 OA
ATOM     36  N   UNL     1      -1.619  18.389   4.913  1.00  0.00    -0.354 N 
ATOM     37  H   UNL     1      -1.187  19.295   4.727  1.00  0.00     0.163 HD
BRANCH  36  38
ATOM     38  C   UNL     1      -1.993  18.061   6.273  1.00  0.00     0.116 C 
BRANCH  38  39
ATOM     39  C   UNL     1      -0.881  18.481   7.232  1.00  0.00     0.023 C 
BRANCH  39  40
ATOM     40  C   UNL     1       0.240  19.238   6.528  1.00  0.00     0.026 C 
BRANCH  40  41
ATOM     41  C   UNL     1       1.472  18.348   6.359  1.00  0.00     0.146 C 
BRANCH  41  42
ATOM     42  N   UNL     1       1.602  17.947   4.965  1.00  0.00    -0.254 NA
ATOM     43  C   UNL     1       2.411  18.577   4.198  1.00  0.00     0.185 C 
ATOM     44  N   UNL     1       3.223  19.616   4.463  1.00  0.00    -0.370 N 
ATOM     45  N   UNL     1       2.514  18.194   2.914  1.00  0.00    -0.370 N 
ATOM     46  H   UNL     1       3.616  20.163   3.717  1.00  0.00     0.159 HD
ATOM     47  H   UNL     1       3.281  20.024   5.391  1.00  0.00     0.159 HD
ATOM     48  H   UNL     1       1.941  17.410   2.633  1.00  0.00     0.159 HD
ATOM     49  H   UNL     1       3.278  18.470   2.324  1.00  0.00     0.159 HD
ENDBRANCH  41  42
ENDBRANCH  40  41
ENDBRANCH  39  40
ENDBRANCH  38  39
ENDBRANCH  36  38
ENDBRANCH   5  34
BRANCH   8  50
ATOM     50  O   UNL     1      -5.479  16.662   1.076  1.00  0.00    -0.245 OA
BRANCH  50  51
ATOM     51  S   UNL     1      -6.641  15.543   1.282  1.00  0.00     0.397 S 
ATOM     52  O   UNL     1      -7.565  16.037   2.278  1.00  0.00    -0.169 OA
ATOM     53  O   UNL     1      -6.039  14.231   1.388  1.00  0.00    -0.169 OA
BRANCH  51  54
ATOM     54  O   UNL     1      -7.428  15.616  -0.119  1.00  0.00    -0.264 OA
ATOM     55  H   UNL     1      -7.699  14.706  -0.356  1.00  0.00     0.236 HD
ENDBRANCH  51  54
ENDBRANCH  50  51
ENDBRANCH   8  50
TORSDOF 19
ENDMDL
MODEL 10
REMARK VINA RESULT:    -7.147      3.677      7.749
REMARK INTER + INTRA:         -18.070
REMARK INTER:                 -12.367
REMARK INTRA:                  -5.703
REMARK UNBOUND:                -3.611
REMARK SMILES CC[C@@H](C)[C@@H](NC(=O)[C@@H](O)Cc1ccc(O)c(Cl)c1)C(=O)N1[C@H](C(=O)NCCCCN=C(N)N)C[C@H]2CC[C@H](OS(=O)(=O)O)C[C@@H]21
REMARK SMILES IDX 22 1 36 2 46 3 35 4 23 5 45 6 37 7 39 8 38 9 20 10 21 11
REMARK SMILES IDX 5 12 6 13 7 14 8 15 9 17 11 18 12 19 17 20 19 21 15 22 14 23
REMARK SMILES IDX 13 24 18 25 16 26 10 28 3 30 4 31 2 32 1 33 24 34 25 35
REMARK SMILES IDX 26 36 27 38 28 39 29 40 30 41 31 42 32 43 33 44 34 45 40 50
REMARK SMILES IDX 41 51 42 52 43 53 44 54
REMARK H PARENT 6 16 16 27 10 29 26 37 33 46 33 47 34 48 34 49 44 55
ROOT
ATOM      1  N   UNL     1      -1.704  15.858   0.925  1.00  0.00    -0.326 N 
ATOM      2  C   UNL     1      -1.918  17.237  -0.971  1.00  0.00     0.014 C 
ATOM      3  C   UNL     1      -2.727  16.406   0.029  1.00  0.00     0.091 C 
ATOM      4  C   UNL     1      -0.633  16.434  -1.112  1.00  0.00     0.041 C 
ATOM      5  C   UNL     1      -0.353  16.109   0.367  1.00  0.00     0.175 C 
ATOM      6  C   UNL     1      -3.814  17.297   0.629  1.00  0.00     0.059 C 
ATOM      7  C   UNL     1      -2.739  17.548  -2.207  1.00  0.00     0.008 C 
ATOM      8  C   UNL     1      -4.337  18.378  -0.342  1.00  0.00     0.143 C 
ATOM      9  C   UNL     1      -4.174  17.959  -1.817  1.00  0.00     0.034 C 
ENDROOT
BRANCH   1  10
ATOM     10  C   UNL     1      -1.839  15.014   2.014  1.00  0.00     0.246 C 
ATOM     11  O   UNL     1      -1.306  15.325   3.085  1.00  0.00    -0.272 OA
BRANCH  10  12
ATOM     12  C   UNL     1      -2.691  13.719   1.880  1.00  0.00     0.174 C 
BRANCH  12  13
ATOM     13  N   UNL     1      -3.840  13.783   2.783  1.00  0.00    -0.342 N 
ATOM     14  C   UNL     1      -5.115  14.149   2.414  1.00  0.00     0.249 C 
ATOM     15  O   UNL     1      -5.437  14.440   1.269  1.00  0.00    -0.272 OA
ATOM     16  H   UNL     1      -3.696  13.721   3.788  1.00  0.00     0.164 HD
BRANCH  14  17
ATOM     17  C   UNL     1      -6.105  14.135   3.599  1.00  0.00     0.207 C 
BRANCH  17  18
ATOM     18  C   UNL     1      -5.548  14.948   4.772  1.00  0.00     0.077 C 
BRANCH  18  19
ATOM     19  C   UNL     1      -5.321  16.395   4.396  1.00  0.00    -0.043 A 
ATOM     20  C   UNL     1      -6.156  18.493   3.511  1.00  0.00     0.083 A 
ATOM     21  C   UNL     1      -6.380  17.173   3.904  1.00  0.00     0.028 A 
ATOM     22  C   UNL     1      -4.877  19.042   3.606  1.00  0.00     0.134 A 
ATOM     23  C   UNL     1      -3.819  18.283   4.092  1.00  0.00     0.048 A 
ATOM     24  C   UNL     1      -4.040  16.961   4.484  1.00  0.00     0.008 A 
ATOM     25  Cl  UNL     1      -7.470  19.433   2.908  1.00  0.00    -0.080 Cl
BRANCH  22  26
ATOM     26  O   UNL     1      -4.607  20.328   3.224  1.00  0.00    -0.506 OA
ATOM     27  H   UNL     1      -4.018  20.272   2.448  1.00  0.00     0.293 HD
ENDBRANCH  22  26
ENDBRANCH  18  19
ENDBRANCH  17  18
BRANCH  17  28
ATOM     28  O   UNL     1      -6.372  12.792   4.033  1.00  0.00    -0.383 OA
ATOM     29  H   UNL     1      -5.787  12.636   4.809  1.00  0.00     0.211 HD
ENDBRANCH  17  28
ENDBRANCH  14  17
ENDBRANCH  12  13
BRANCH  12  30
ATOM     30  C   UNL     1      -1.854  12.427   2.078  1.00  0.00     0.018 C 
ATOM     31  C   UNL     1      -1.948  11.931   3.529  1.00  0.00     0.010 C 
BRANCH  30  32
ATOM     32  C   UNL     1      -0.370  12.579   1.663  1.00  0.00     0.002 C 
ATOM     33  C   UNL     1       0.038  11.813   0.412  1.00  0.00     0.004 C 
ENDBRANCH  30  32
ENDBRANCH  12  30
ENDBRANCH  10  12
ENDBRANCH   1  10
BRANCH   5  34
ATOM     34  C   UNL     1       0.332  17.296   1.094  1.00  0.00     0.242 C 
ATOM     35  O   UNL     1       0.404  18.420   0.596  1.00  0.00    -0.273 OA
ATOM     36  N   UNL     1       0.899  16.990   2.311  1.00  0.00    -0.354 N 
ATOM     37  H   UNL     1       0.911  16.016   2.616  1.00  0.00     0.163 HD
BRANCH  36  38
ATOM     38  C   UNL     1       1.385  18.010   3.217  1.00  0.00     0.116 C 
BRANCH  38  39
ATOM     39  C   UNL     1       0.354  18.261   4.315  1.00  0.00     0.023 C 
BRANCH  39  40
ATOM     40  C   UNL     1       0.455  19.667   4.898  1.00  0.00     0.026 C 
BRANCH  40  41
ATOM     41  C   UNL     1      -0.825  20.458   4.628  1.00  0.00     0.146 C 
BRANCH  41  42
ATOM     42  N   UNL     1      -0.575  21.462   3.602  1.00  0.00    -0.254 NA
ATOM     43  C   UNL     1      -0.979  21.258   2.404  1.00  0.00     0.185 C 
ATOM     44  N   UNL     1      -1.641  20.209   1.881  1.00  0.00    -0.370 N 
ATOM     45  N   UNL     1      -0.735  22.193   1.472  1.00  0.00    -0.370 N 
ATOM     46  H   UNL     1      -1.677  20.071   0.886  1.00  0.00     0.159 HD
ATOM     47  H   UNL     1      -1.918  19.416   2.451  1.00  0.00     0.159 HD
ATOM     48  H   UNL     1      -0.247  23.022   1.785  1.00  0.00     0.159 HD
ATOM     49  H   UNL     1      -1.214  22.220   0.589  1.00  0.00     0.159 HD
ENDBRANCH  41  42
ENDBRANCH  40  41
ENDBRANCH  39  40
ENDBRANCH  38  39
ENDBRANCH  36  38
ENDBRANCH   5  34
BRANCH   8  50
ATOM     50  O   UNL     1      -3.632  19.602  -0.137  1.00  0.00    -0.245 OA
BRANCH  50  51
ATOM     51  S   UNL     1      -4.433  21.015  -0.224  1.00  0.00     0.397 S 
ATOM     52  O   UNL     1      -4.617  21.339  -1.620  1.00  0.00    -0.169 OA
ATOM     53  O   UNL     1      -3.853  21.961   0.706  1.00  0.00    -0.169 OA
BRANCH  51  54
ATOM     54  O   UNL     1      -5.889  20.609   0.327  1.00  0.00    -0.264 OA
ATOM     55  H   UNL     1      -6.009  19.649   0.173  1.00  0.00     0.236 HD
ENDBRANCH  51  54
ENDBRANCH  50  51
ENDBRANCH   8  50
TORSDOF 19
ENDMDL
MODEL 11
REMARK VINA RESULT:    -7.112      3.226      7.390
REMARK INTER + INTRA:         -17.999
REMARK INTER:                 -13.986
REMARK INTRA:                  -4.014
REMARK UNBOUND:                -3.611
REMARK SMILES CC[C@@H](C)[C@@H](NC(=O)[C@@H](O)Cc1ccc(O)c(Cl)c1)C(=O)N1[C@H](C(=O)NCCCCN=C(N)N)C[C@H]2CC[C@H](OS(=O)(=O)O)C[C@@H]21
REMARK SMILES IDX 22 1 36 2 46 3 35 4 23 5 45 6 37 7 39 8 38 9 20 10 21 11
REMARK SMILES IDX 5 12 6 13 7 14 8 15 9 17 11 18 12 19 17 20 19 21 15 22 14 23
REMARK SMILES IDX 13 24 18 25 16 26 10 28 3 30 4 31 2 32 1 33 24 34 25 35
REMARK SMILES IDX 26 36 27 38 28 39 29 40 30 41 31 42 32 43 33 44 34 45 40 50
REMARK SMILES IDX 41 51 42 52 43 53 44 54
REMARK H PARENT 6 16 16 27 10 29 26 37 33 46 33 47 34 48 34 49 44 55
ROOT
ATOM      1  N   UNL     1      -3.936  15.531   2.376  1.00  0.00    -0.326 N 
ATOM      2  C   UNL     1      -3.063  16.293   0.326  1.00  0.00     0.014 C 
ATOM      3  C   UNL     1      -4.376  16.025   1.068  1.00  0.00     0.091 C 
ATOM      4  C   UNL     1      -2.153  15.192   0.848  1.00  0.00     0.041 C 
ATOM      5  C   UNL     1      -2.477  15.261   2.352  1.00  0.00     0.175 C 
ATOM      6  C   UNL     1      -5.226  17.294   1.020  1.00  0.00     0.059 C 
ATOM      7  C   UNL     1      -3.299  16.418  -1.166  1.00  0.00     0.008 C 
ATOM      8  C   UNL     1      -5.019  18.133  -0.259  1.00  0.00     0.143 C 
ATOM      9  C   UNL     1      -4.555  17.269  -1.449  1.00  0.00     0.034 C 
ENDROOT
BRANCH   1  10
ATOM     10  C   UNL     1      -4.683  15.110   3.462  1.00  0.00     0.246 C 
ATOM     11  O   UNL     1      -5.038  15.939   4.306  1.00  0.00    -0.272 OA
BRANCH  10  12
ATOM     12  C   UNL     1      -5.094  13.613   3.576  1.00  0.00     0.174 C 
BRANCH  12  13
ATOM     13  N   UNL     1      -6.549  13.489   3.503  1.00  0.00    -0.342 N 
ATOM     14  C   UNL     1      -7.268  13.280   2.347  1.00  0.00     0.249 C 
ATOM     15  O   UNL     1      -6.757  13.146   1.242  1.00  0.00    -0.272 OA
ATOM     16  H   UNL     1      -7.117  13.733   4.310  1.00  0.00     0.164 HD
BRANCH  14  17
ATOM     17  C   UNL     1      -8.789  13.211   2.595  1.00  0.00     0.207 C 
BRANCH  17  18
ATOM     18  C   UNL     1      -9.228  14.331   3.545  1.00  0.00     0.077 C 
BRANCH  18  19
ATOM     19  C   UNL     1      -9.043  15.698   2.925  1.00  0.00    -0.043 A 
ATOM     20  C   UNL     1      -8.157  17.953   3.034  1.00  0.00     0.083 A 
ATOM     21  C   UNL     1      -8.285  16.678   3.585  1.00  0.00     0.028 A 
ATOM     22  C   UNL     1      -8.785  18.258   1.826  1.00  0.00     0.134 A 
ATOM     23  C   UNL     1      -9.538  17.298   1.162  1.00  0.00     0.048 A 
ATOM     24  C   UNL     1      -9.670  16.020   1.711  1.00  0.00     0.008 A 
ATOM     25  Cl  UNL     1      -7.221  19.144   3.859  1.00  0.00    -0.080 Cl
BRANCH  22  26
ATOM     26  O   UNL     1      -8.697  19.498   1.252  1.00  0.00    -0.506 OA
ATOM     27  H   UNL     1      -9.462  20.010   1.574  1.00  0.00     0.293 HD
ENDBRANCH  22  26
ENDBRANCH  18  19
ENDBRANCH  17  18
BRANCH  17  28
ATOM     28  O   UNL     1      -9.166  11.941   3.150  1.00  0.00    -0.383 OA
ATOM     29  H   UNL     1      -8.339  11.411   3.202  1.00  0.00     0.211 HD
ENDBRANCH  17  28
ENDBRANCH  14  17
ENDBRANCH  12  13
BRANCH  12  30
ATOM     30  C   UNL     1      -4.503  12.922   4.834  1.00  0.00     0.018 C 
ATOM     31  C   UNL     1      -3.350  11.982   4.451  1.00  0.00     0.010 C 
BRANCH  30  32
ATOM     32  C   UNL     1      -5.555  12.159   5.676  1.00  0.00     0.002 C 
ATOM     33  C   UNL     1      -5.817  10.722   5.243  1.00  0.00     0.004 C 
ENDBRANCH  30  32
ENDBRANCH  12  30
ENDBRANCH  10  12
ENDBRANCH   1  10
BRANCH   5  34
ATOM     34  C   UNL     1      -1.694  16.402   3.055  1.00  0.00     0.242 C 
ATOM     35  O   UNL     1      -2.258  17.371   3.561  1.00  0.00    -0.273 OA
ATOM     36  N   UNL     1      -0.323  16.277   3.022  1.00  0.00    -0.354 N 
ATOM     37  H   UNL     1       0.088  15.514   2.483  1.00  0.00     0.163 HD
BRANCH  36  38
ATOM     38  C   UNL     1       0.549  17.127   3.806  1.00  0.00     0.116 C 
BRANCH  38  39
ATOM     39  C   UNL     1       1.830  17.414   3.028  1.00  0.00     0.023 C 
BRANCH  39  40
ATOM     40  C   UNL     1       1.594  17.488   1.523  1.00  0.00     0.026 C 
BRANCH  40  41
ATOM     41  C   UNL     1       2.425  16.434   0.791  1.00  0.00     0.146 C 
BRANCH  41  42
ATOM     42  N   UNL     1       1.687  15.179   0.730  1.00  0.00    -0.254 NA
ATOM     43  C   UNL     1       1.581  14.561  -0.386  1.00  0.00     0.185 C 
ATOM     44  N   UNL     1       2.063  14.881  -1.602  1.00  0.00    -0.370 N 
ATOM     45  N   UNL     1       0.892  13.409  -0.423  1.00  0.00    -0.370 N 
ATOM     46  H   UNL     1       1.700  14.438  -2.429  1.00  0.00     0.159 HD
ATOM     47  H   UNL     1       2.620  15.716  -1.751  1.00  0.00     0.159 HD
ATOM     48  H   UNL     1       0.502  13.091   0.454  1.00  0.00     0.159 HD
ATOM     49  H   UNL     1       0.963  12.757  -1.184  1.00  0.00     0.159 HD
ENDBRANCH  41  42
ENDBRANCH  40  41
ENDBRANCH  39  40
ENDBRANCH  38  39
ENDBRANCH  36  38
ENDBRANCH   5  34
BRANCH   8  50
ATOM     50  O   UNL     1      -4.041  19.148  -0.027  1.00  0.00    -0.245 OA
BRANCH  50  51
ATOM     51  S   UNL     1      -4.477  20.528   0.714  1.00  0.00     0.397 S 
ATOM     52  O   UNL     1      -4.073  21.633  -0.127  1.00  0.00    -0.169 OA
ATOM     53  O   UNL     1      -4.112  20.465   2.114  1.00  0.00    -0.169 OA
BRANCH  51  54
ATOM     54  O   UNL     1      -6.081  20.469   0.617  1.00  0.00    -0.264 OA
ATOM     55  H   UNL     1      -6.410  19.985   1.403  1.00  0.00     0.236 HD
ENDBRANCH  51  54
ENDBRANCH  50  51
ENDBRANCH   8  50
TORSDOF 19
ENDMDL
MODEL 12
REMARK VINA RESULT:    -7.092      3.986      8.141
REMARK INTER + INTRA:         -17.958
REMARK INTER:                 -14.541
REMARK INTRA:                  -3.416
REMARK UNBOUND:                -3.611
REMARK SMILES CC[C@@H](C)[C@@H](NC(=O)[C@@H](O)Cc1ccc(O)c(Cl)c1)C(=O)N1[C@H](C(=O)NCCCCN=C(N)N)C[C@H]2CC[C@H](OS(=O)(=O)O)C[C@@H]21
REMARK SMILES IDX 22 1 36 2 46 3 35 4 23 5 45 6 37 7 39 8 38 9 20 10 21 11
REMARK SMILES IDX 5 12 6 13 7 14 8 15 9 17 11 18 12 19 17 20 19 21 15 22 14 23
REMARK SMILES IDX 13 24 18 25 16 26 10 28 3 30 4 31 2 32 1 33 24 34 25 35
REMARK SMILES IDX 26 36 27 38 28 39 29 40 30 41 31 42 32 43 33 44 34 45 40 50
REMARK SMILES IDX 41 51 42 52 43 53 44 54
REMARK H PARENT 6 16 16 27 10 29 26 37 33 46 33 47 34 48 34 49 44 55
ROOT
ATOM      1  N   UNL     1      -3.085  13.882   2.294  1.00  0.00    -0.326 N 
ATOM      2  C   UNL     1      -0.856  13.132   2.189  1.00  0.00     0.014 C 
ATOM      3  C   UNL     1      -1.969  13.768   1.351  1.00  0.00     0.091 C 
ATOM      4  C   UNL     1      -1.625  12.204   3.117  1.00  0.00     0.041 C 
ATOM      5  C   UNL     1      -2.778  13.133   3.537  1.00  0.00     0.175 C 
ATOM      6  C   UNL     1      -1.425  15.045   0.714  1.00  0.00     0.059 C 
ATOM      7  C   UNL     1       0.232  12.561   1.301  1.00  0.00     0.008 C 
ATOM      8  C   UNL     1       0.084  14.984   0.390  1.00  0.00     0.143 C 
ATOM      9  C   UNL     1       0.567  13.538   0.154  1.00  0.00     0.034 C 
ENDROOT
BRANCH   1  10
ATOM     10  C   UNL     1      -4.367  14.368   2.098  1.00  0.00     0.246 C 
ATOM     11  O   UNL     1      -5.176  13.688   1.458  1.00  0.00    -0.272 OA
BRANCH  10  12
ATOM     12  C   UNL     1      -4.772  15.735   2.722  1.00  0.00     0.174 C 
BRANCH  12  13
ATOM     13  N   UNL     1      -6.178  15.702   3.123  1.00  0.00    -0.342 N 
ATOM     14  C   UNL     1      -6.652  15.164   4.299  1.00  0.00     0.249 C 
ATOM     15  O   UNL     1      -5.936  14.672   5.161  1.00  0.00    -0.272 OA
ATOM     16  H   UNL     1      -6.901  15.931   2.445  1.00  0.00     0.164 HD
BRANCH  14  17
ATOM     17  C   UNL     1      -8.187  15.267   4.424  1.00  0.00     0.207 C 
BRANCH  17  18
ATOM     18  C   UNL     1      -8.847  15.141   3.047  1.00  0.00     0.077 C 
BRANCH  18  19
ATOM     19  C   UNL     1      -9.676  13.881   2.934  1.00  0.00    -0.043 A 
ATOM     20  C   UNL     1     -11.528  12.664   1.948  1.00  0.00     0.083 A 
ATOM     21  C   UNL     1     -10.734  13.809   2.015  1.00  0.00     0.028 A 
ATOM     22  C   UNL     1     -11.271  11.586   2.796  1.00  0.00     0.134 A 
ATOM     23  C   UNL     1     -10.226  11.643   3.710  1.00  0.00     0.048 A 
ATOM     24  C   UNL     1      -9.431  12.789   3.781  1.00  0.00     0.008 A 
ATOM     25  Cl  UNL     1     -12.825  12.595   0.813  1.00  0.00    -0.080 Cl
BRANCH  22  26
ATOM     26  O   UNL     1     -12.029  10.446   2.774  1.00  0.00    -0.506 OA
ATOM     27  H   UNL     1     -12.956  10.724   2.892  1.00  0.00     0.293 HD
ENDBRANCH  22  26
ENDBRANCH  18  19
ENDBRANCH  17  18
BRANCH  17  28
ATOM     28  O   UNL     1      -8.575  16.512   5.026  1.00  0.00    -0.383 OA
ATOM     29  H   UNL     1      -8.545  17.183   4.307  1.00  0.00     0.211 HD
ENDBRANCH  17  28
ENDBRANCH  14  17
ENDBRANCH  12  13
BRANCH  12  30
ATOM     30  C   UNL     1      -4.449  16.937   1.795  1.00  0.00     0.018 C 
ATOM     31  C   UNL     1      -4.464  18.256   2.584  1.00  0.00     0.010 C 
BRANCH  30  32
ATOM     32  C   UNL     1      -5.383  17.043   0.565  1.00  0.00     0.002 C 
ATOM     33  C   UNL     1      -4.684  17.024  -0.788  1.00  0.00     0.004 C 
ENDBRANCH  30  32
ENDBRANCH  12  30
ENDBRANCH  10  12
ENDBRANCH   1  10
BRANCH   5  34
ATOM     34  C   UNL     1      -2.348  14.101   4.672  1.00  0.00     0.242 C 
ATOM     35  O   UNL     1      -2.683  13.931   5.844  1.00  0.00    -0.273 OA
ATOM     36  N   UNL     1      -1.613  15.191   4.263  1.00  0.00    -0.354 N 
ATOM     37  H   UNL     1      -1.470  15.341   3.264  1.00  0.00     0.163 HD
BRANCH  36  38
ATOM     38  C   UNL     1      -0.951  16.073   5.203  1.00  0.00     0.116 C 
BRANCH  38  39
ATOM     39  C   UNL     1      -1.540  17.478   5.098  1.00  0.00     0.023 C 
BRANCH  39  40
ATOM     40  C   UNL     1      -0.500  18.565   5.348  1.00  0.00     0.026 C 
BRANCH  40  41
ATOM     41  C   UNL     1      -0.334  19.450   4.113  1.00  0.00     0.146 C 
BRANCH  41  42
ATOM     42  N   UNL     1      -0.850  18.759   2.939  1.00  0.00    -0.254 NA
ATOM     43  C   UNL     1      -0.868  19.359   1.808  1.00  0.00     0.185 C 
ATOM     44  N   UNL     1      -0.467  20.601   1.481  1.00  0.00    -0.370 N 
ATOM     45  N   UNL     1      -1.353  18.706   0.739  1.00  0.00    -0.370 N 
ATOM     46  H   UNL     1      -0.763  21.025   0.618  1.00  0.00     0.159 HD
ATOM     47  H   UNL     1      -0.062  21.228   2.168  1.00  0.00     0.159 HD
ATOM     48  H   UNL     1      -1.669  17.759   0.897  1.00  0.00     0.159 HD
ATOM     49  H   UNL     1      -1.185  19.008  -0.205  1.00  0.00     0.159 HD
ENDBRANCH  41  42
ENDBRANCH  40  41
ENDBRANCH  39  40
ENDBRANCH  38  39
ENDBRANCH  36  38
ENDBRANCH   5  34
BRANCH   8  50
ATOM     50  O   UNL     1       0.839  15.545   1.463  1.00  0.00    -0.245 OA
BRANCH  50  51
ATOM     51  S   UNL     1       2.015  16.622   1.140  1.00  0.00     0.397 S 
ATOM     52  O   UNL     1       3.134  15.905   0.572  1.00  0.00    -0.169 OA
ATOM     53  O   UNL     1       2.178  17.516   2.267  1.00  0.00    -0.169 OA
BRANCH  51  54
ATOM     54  O   UNL     1       1.374  17.465  -0.071  1.00  0.00    -0.264 OA
ATOM     55  H   UNL     1       0.649  18.010   0.296  1.00  0.00     0.236 HD
ENDBRANCH  51  54
ENDBRANCH  50  51
ENDBRANCH   8  50
TORSDOF 19
ENDMDL
MODEL 13
REMARK VINA RESULT:    -7.073      3.617      7.703
REMARK INTER + INTRA:         -17.921
REMARK INTER:                 -14.375
REMARK INTRA:                  -3.546
REMARK UNBOUND:                -3.611
REMARK SMILES CC[C@@H](C)[C@@H](NC(=O)[C@@H](O)Cc1ccc(O)c(Cl)c1)C(=O)N1[C@H](C(=O)NCCCCN=C(N)N)C[C@H]2CC[C@H](OS(=O)(=O)O)C[C@@H]21
REMARK SMILES IDX 22 1 36 2 46 3 35 4 23 5 45 6 37 7 39 8 38 9 20 10 21 11
REMARK SMILES IDX 5 12 6 13 7 14 8 15 9 17 11 18 12 19 17 20 19 21 15 22 14 23
REMARK SMILES IDX 13 24 18 25 16 26 10 28 3 30 4 31 2 32 1 33 24 34 25 35
REMARK SMILES IDX 26 36 27 38 28 39 29 40 30 41 31 42 32 43 33 44 34 45 40 50
REMARK SMILES IDX 41 51 42 52 43 53 44 54
REMARK H PARENT 6 16 16 27 10 29 26 37 33 46 33 47 34 48 34 49 44 55
ROOT
ATOM      1  N   UNL     1      -3.541  14.107   3.675  1.00  0.00    -0.326 N 
ATOM      2  C   UNL     1      -2.597  15.550   2.073  1.00  0.00     0.014 C 
ATOM      3  C   UNL     1      -3.246  15.526   3.459  1.00  0.00     0.091 C 
ATOM      4  C   UNL     1      -3.340  14.446   1.336  1.00  0.00     0.041 C 
ATOM      5  C   UNL     1      -3.338  13.349   2.416  1.00  0.00     0.175 C 
ATOM      6  C   UNL     1      -2.312  16.230   4.442  1.00  0.00     0.059 C 
ATOM      7  C   UNL     1      -2.592  16.953   1.500  1.00  0.00     0.008 C 
ATOM      8  C   UNL     1      -1.484  17.368   3.807  1.00  0.00     0.143 C 
ATOM      9  C   UNL     1      -2.188  17.980   2.579  1.00  0.00     0.034 C 
ENDROOT
BRANCH   1  10
ATOM     10  C   UNL     1      -4.149  13.480   4.750  1.00  0.00     0.246 C 
ATOM     11  O   UNL     1      -3.560  13.443   5.836  1.00  0.00    -0.272 OA
BRANCH  10  12
ATOM     12  C   UNL     1      -5.572  12.874   4.580  1.00  0.00     0.174 C 
BRANCH  12  13
ATOM     13  N   UNL     1      -6.501  13.906   4.120  1.00  0.00    -0.342 N 
ATOM     14  C   UNL     1      -7.057  13.965   2.862  1.00  0.00     0.249 C 
ATOM     15  O   UNL     1      -6.853  13.133   1.986  1.00  0.00    -0.272 OA
ATOM     16  H   UNL     1      -6.641  14.744   4.680  1.00  0.00     0.164 HD
BRANCH  14  17
ATOM     17  C   UNL     1      -7.985  15.185   2.677  1.00  0.00     0.207 C 
BRANCH  17  18
ATOM     18  C   UNL     1      -9.231  15.047   3.558  1.00  0.00     0.077 C 
BRANCH  18  19
ATOM     19  C   UNL     1      -9.992  13.774   3.260  1.00  0.00    -0.043 A 
ATOM     20  C   UNL     1     -11.697  12.588   2.008  1.00  0.00     0.083 A 
ATOM     21  C   UNL     1     -10.963  13.750   2.247  1.00  0.00     0.028 A 
ATOM     22  C   UNL     1     -11.470  11.447   2.779  1.00  0.00     0.134 A 
ATOM     23  C   UNL     1     -10.511  11.458   3.786  1.00  0.00     0.048 A 
ATOM     24  C   UNL     1      -9.776  12.620   4.028  1.00  0.00     0.008 A 
ATOM     25  Cl  UNL     1     -12.886  12.577   0.759  1.00  0.00    -0.080 Cl
BRANCH  22  26
ATOM     26  O   UNL     1     -12.172  10.288   2.589  1.00  0.00    -0.506 OA
ATOM     27  H   UNL     1     -11.679   9.583   3.048  1.00  0.00     0.293 HD
ENDBRANCH  22  26
ENDBRANCH  18  19
ENDBRANCH  17  18
BRANCH  17  28
ATOM     28  O   UNL     1      -8.385  15.327   1.305  1.00  0.00    -0.383 OA
ATOM     29  H   UNL     1      -7.936  14.602   0.814  1.00  0.00     0.211 HD
ENDBRANCH  17  28
ENDBRANCH  14  17
ENDBRANCH  12  13
BRANCH  12  30
ATOM     30  C   UNL     1      -6.074  12.153   5.860  1.00  0.00     0.018 C 
ATOM     31  C   UNL     1      -6.603  10.750   5.524  1.00  0.00     0.010 C 
BRANCH  30  32
ATOM     32  C   UNL     1      -7.144  12.951   6.644  1.00  0.00     0.002 C 
ATOM     33  C   UNL     1      -8.206  12.109   7.339  1.00  0.00     0.004 C 
ENDBRANCH  30  32
ENDBRANCH  12  30
ENDBRANCH  10  12
ENDBRANCH   1  10
BRANCH   5  34
ATOM     34  C   UNL     1      -1.990  12.579   2.448  1.00  0.00     0.242 C 
ATOM     35  O   UNL     1      -1.199  12.677   3.386  1.00  0.00    -0.273 OA
ATOM     36  N   UNL     1      -1.720  11.824   1.329  1.00  0.00    -0.354 N 
ATOM     37  H   UNL     1      -2.359  11.878   0.534  1.00  0.00     0.163 HD
BRANCH  36  38
ATOM     38  C   UNL     1      -0.623  10.881   1.279  1.00  0.00     0.116 C 
BRANCH  38  39
ATOM     39  C   UNL     1       0.518  11.457   0.444  1.00  0.00     0.023 C 
BRANCH  39  40
ATOM     40  C   UNL     1       0.211  12.858  -0.075  1.00  0.00     0.026 C 
BRANCH  40  41
ATOM     41  C   UNL     1       1.144  13.889   0.561  1.00  0.00     0.146 C 
BRANCH  41  42
ATOM     42  N   UNL     1       0.555  15.217   0.455  1.00  0.00    -0.254 NA
ATOM     43  C   UNL     1       1.317  16.239   0.338  1.00  0.00     0.185 C 
ATOM     44  N   UNL     1       2.659  16.318   0.291  1.00  0.00    -0.370 N 
ATOM     45  N   UNL     1       0.755  17.456   0.247  1.00  0.00    -0.370 N 
ATOM     46  H   UNL     1       3.127  17.195   0.444  1.00  0.00     0.159 HD
ATOM     47  H   UNL     1       3.243  15.488   0.334  1.00  0.00     0.159 HD
ATOM     48  H   UNL     1      -0.256  17.485   0.265  1.00  0.00     0.159 HD
ATOM     49  H   UNL     1       1.255  18.263  -0.080  1.00  0.00     0.159 HD
ENDBRANCH  41  42
ENDBRANCH  40  41
ENDBRANCH  39  40
ENDBRANCH  38  39
ENDBRANCH  36  38
ENDBRANCH   5  34
BRANCH   8  50
ATOM     50  O   UNL     1      -0.207  16.876   3.399  1.00  0.00    -0.245 OA
BRANCH  50  51
ATOM     51  S   UNL     1       1.144  17.598   3.946  1.00  0.00     0.397 S 
ATOM     52  O   UNL     1       2.229  17.247   3.058  1.00  0.00    -0.169 OA
ATOM     53  O   UNL     1       1.246  17.416   5.379  1.00  0.00    -0.169 OA
BRANCH  51  54
ATOM     54  O   UNL     1       0.832  19.150   3.664  1.00  0.00    -0.264 OA
ATOM     55  H   UNL     1       0.859  19.289   2.696  1.00  0.00     0.236 HD
ENDBRANCH  51  54
ENDBRANCH  50  51
ENDBRANCH   8  50
TORSDOF 19
ENDMDL
MODEL 14
REMARK VINA RESULT:    -7.042      3.539      6.747
REMARK INTER + INTRA:         -17.858
REMARK INTER:                 -12.716
REMARK INTRA:                  -5.143
REMARK UNBOUND:                -3.611
REMARK SMILES CC[C@@H](C)[C@@H](NC(=O)[C@@H](O)Cc1ccc(O)c(Cl)c1)C(=O)N1[C@H](C(=O)NCCCCN=C(N)N)C[C@H]2CC[C@H](OS(=O)(=O)O)C[C@@H]21
REMARK SMILES IDX 22 1 36 2 46 3 35 4 23 5 45 6 37 7 39 8 38 9 20 10 21 11
REMARK SMILES IDX 5 12 6 13 7 14 8 15 9 17 11 18 12 19 17 20 19 21 15 22 14 23
REMARK SMILES IDX 13 24 18 25 16 26 10 28 3 30 4 31 2 32 1 33 24 34 25 35
REMARK SMILES IDX 26 36 27 38 28 39 29 40 30 41 31 42 32 43 33 44 34 45 40 50
REMARK SMILES IDX 41 51 42 52 43 53 44 54
REMARK H PARENT 6 16 16 27 10 29 26 37 33 46 33 47 34 48 34 49 44 55
ROOT
ATOM      1  N   UNL     1      -2.843  14.051   1.733  1.00  0.00    -0.326 N 
ATOM      2  C   UNL     1      -0.674  13.139   1.659  1.00  0.00     0.014 C 
ATOM      3  C   UNL     1      -1.693  13.929   0.832  1.00  0.00     0.091 C 
ATOM      4  C   UNL     1      -1.555  12.199   2.467  1.00  0.00     0.041 C 
ATOM      5  C   UNL     1      -2.656  13.177   2.917  1.00  0.00     0.175 C 
ATOM      6  C   UNL     1      -1.023  15.209   0.336  1.00  0.00     0.059 C 
ATOM      7  C   UNL     1       0.412  12.562   0.772  1.00  0.00     0.008 C 
ATOM      8  C   UNL     1       0.491  15.057   0.073  1.00  0.00     0.143 C 
ATOM      9  C   UNL     1       0.876  13.603  -0.268  1.00  0.00     0.034 C 
ENDROOT
BRANCH   1  10
ATOM     10  C   UNL     1      -4.073  14.651   1.525  1.00  0.00     0.246 C 
ATOM     11  O   UNL     1      -5.102  14.017   1.780  1.00  0.00    -0.272 OA
BRANCH  10  12
ATOM     12  C   UNL     1      -4.133  16.121   1.017  1.00  0.00     0.174 C 
BRANCH  12  13
ATOM     13  N   UNL     1      -4.309  17.032   2.147  1.00  0.00    -0.342 N 
ATOM     14  C   UNL     1      -3.805  18.312   2.216  1.00  0.00     0.249 C 
ATOM     15  O   UNL     1      -3.169  18.844   1.315  1.00  0.00    -0.272 OA
ATOM     16  H   UNL     1      -4.677  16.679   3.027  1.00  0.00     0.164 HD
BRANCH  14  17
ATOM     17  C   UNL     1      -4.145  19.015   3.548  1.00  0.00     0.207 C 
BRANCH  17  18
ATOM     18  C   UNL     1      -5.320  18.315   4.238  1.00  0.00     0.077 C 
BRANCH  18  19
ATOM     19  C   UNL     1      -4.868  17.505   5.432  1.00  0.00    -0.043 A 
ATOM     20  C   UNL     1      -4.792  15.403   6.641  1.00  0.00     0.083 A 
ATOM     21  C   UNL     1      -5.168  16.136   5.514  1.00  0.00     0.028 A 
ATOM     22  C   UNL     1      -4.118  16.029   7.689  1.00  0.00     0.134 A 
ATOM     23  C   UNL     1      -3.814  17.384   7.621  1.00  0.00     0.048 A 
ATOM     24  C   UNL     1      -4.191  18.121   6.496  1.00  0.00     0.008 A 
ATOM     25  Cl  UNL     1      -5.170  13.722   6.723  1.00  0.00    -0.080 Cl
BRANCH  22  26
ATOM     26  O   UNL     1      -3.739  15.354   8.818  1.00  0.00    -0.506 OA
ATOM     27  H   UNL     1      -4.445  14.709   9.008  1.00  0.00     0.293 HD
ENDBRANCH  22  26
ENDBRANCH  18  19
ENDBRANCH  17  18
BRANCH  17  28
ATOM     28  O   UNL     1      -4.474  20.397   3.333  1.00  0.00    -0.383 OA
ATOM     29  H   UNL     1      -3.812  20.916   3.844  1.00  0.00     0.211 HD
ENDBRANCH  17  28
ENDBRANCH  14  17
ENDBRANCH  12  13
BRANCH  12  30
ATOM     30  C   UNL     1      -5.206  16.331  -0.086  1.00  0.00     0.018 C 
ATOM     31  C   UNL     1      -4.612  17.078  -1.290  1.00  0.00     0.010 C 
BRANCH  30  32
ATOM     32  C   UNL     1      -6.478  17.057   0.415  1.00  0.00     0.002 C 
ATOM     33  C   UNL     1      -7.693  16.166   0.634  1.00  0.00     0.004 C 
ENDBRANCH  30  32
ENDBRANCH  12  30
ENDBRANCH  10  12
ENDBRANCH   1  10
BRANCH   5  34
ATOM     34  C   UNL     1      -2.212  14.009   4.150  1.00  0.00     0.242 C 
ATOM     35  O   UNL     1      -2.071  13.508   5.265  1.00  0.00    -0.273 OA
ATOM     36  N   UNL     1      -2.041  15.355   3.917  1.00  0.00    -0.354 N 
ATOM     37  H   UNL     1      -2.289  15.731   3.001  1.00  0.00     0.163 HD
BRANCH  36  38
ATOM     38  C   UNL     1      -1.427  16.236   4.889  1.00  0.00     0.116 C 
BRANCH  38  39
ATOM     39  C   UNL     1      -0.757  17.408   4.177  1.00  0.00     0.023 C 
BRANCH  39  40
ATOM     40  C   UNL     1      -0.764  18.681   5.016  1.00  0.00     0.026 C 
BRANCH  40  41
ATOM     41  C   UNL     1       0.026  19.791   4.323  1.00  0.00     0.146 C 
BRANCH  41  42
ATOM     42  N   UNL     1      -0.894  20.747   3.719  1.00  0.00    -0.254 NA
ATOM     43  C   UNL     1      -1.031  20.777   2.447  1.00  0.00     0.185 C 
ATOM     44  N   UNL     1      -0.439  20.033   1.495  1.00  0.00    -0.370 N 
ATOM     45  N   UNL     1      -1.880  21.668   1.910  1.00  0.00    -0.370 N 
ATOM     46  H   UNL     1      -0.454  20.325   0.533  1.00  0.00     0.159 HD
ATOM     47  H   UNL     1       0.224  19.300   1.727  1.00  0.00     0.159 HD
ATOM     48  H   UNL     1      -2.375  22.264   2.560  1.00  0.00     0.159 HD
ATOM     49  H   UNL     1      -2.218  21.598   0.967  1.00  0.00     0.159 HD
ENDBRANCH  41  42
ENDBRANCH  40  41
ENDBRANCH  39  40
ENDBRANCH  38  39
ENDBRANCH  36  38
ENDBRANCH   5  34
BRANCH   8  50
ATOM     50  O   UNL     1       1.232  15.464   1.223  1.00  0.00    -0.245 OA
BRANCH  50  51
ATOM     51  S   UNL     1       1.994  16.901   1.220  1.00  0.00     0.397 S 
ATOM     52  O   UNL     1       2.351  17.220   2.584  1.00  0.00    -0.169 OA
ATOM     53  O   UNL     1       1.267  17.835   0.386  1.00  0.00    -0.169 OA
BRANCH  51  54
ATOM     54  O   UNL     1       3.376  16.546   0.478  1.00  0.00    -0.264 OA
ATOM     55  H   UNL     1       3.644  17.329  -0.045  1.00  0.00     0.236 HD
ENDBRANCH  51  54
ENDBRANCH  50  51
ENDBRANCH   8  50
TORSDOF 19
ENDMDL
MODEL 15
REMARK VINA RESULT:    -7.011      2.770      6.511
REMARK INTER + INTRA:         -17.795
REMARK INTER:                 -13.264
REMARK INTRA:                  -4.531
REMARK UNBOUND:                -3.611
REMARK SMILES CC[C@@H](C)[C@@H](NC(=O)[C@@H](O)Cc1ccc(O)c(Cl)c1)C(=O)N1[C@H](C(=O)NCCCCN=C(N)N)C[C@H]2CC[C@H](OS(=O)(=O)O)C[C@@H]21
REMARK SMILES IDX 22 1 36 2 46 3 35 4 23 5 45 6 37 7 39 8 38 9 20 10 21 11
REMARK SMILES IDX 5 12 6 13 7 14 8 15 9 17 11 18 12 19 17 20 19 21 15 22 14 23
REMARK SMILES IDX 13 24 18 25 16 26 10 28 3 30 4 31 2 32 1 33 24 34 25 35
REMARK SMILES IDX 26 36 27 38 28 39 29 40 30 41 31 42 32 43 33 44 34 45 40 50
REMARK SMILES IDX 41 51 42 52 43 53 44 54
REMARK H PARENT 6 16 16 27 10 29 26 37 33 46 33 47 34 48 34 49 44 55
ROOT
ATOM      1  N   UNL     1      -3.697  14.316   4.440  1.00  0.00    -0.326 N 
ATOM      2  C   UNL     1      -3.131  15.465   2.464  1.00  0.00     0.014 C 
ATOM      3  C   UNL     1      -3.463  15.676   3.943  1.00  0.00     0.091 C 
ATOM      4  C   UNL     1      -4.011  14.282   2.088  1.00  0.00     0.041 C 
ATOM      5  C   UNL     1      -3.768  13.366   3.302  1.00  0.00     0.175 C 
ATOM      6  C   UNL     1      -2.342  16.496   4.578  1.00  0.00     0.059 C 
ATOM      7  C   UNL     1      -3.258  16.761   1.689  1.00  0.00     0.008 C 
ATOM      8  C   UNL     1      -1.678  17.497   3.607  1.00  0.00     0.143 C 
ATOM      9  C   UNL     1      -2.635  17.931   2.479  1.00  0.00     0.034 C 
ENDROOT
BRANCH   1  10
ATOM     10  C   UNL     1      -4.053  13.882   5.705  1.00  0.00     0.246 C 
ATOM     11  O   UNL     1      -3.275  14.072   6.647  1.00  0.00    -0.272 OA
BRANCH  10  12
ATOM     12  C   UNL     1      -5.437  13.206   5.923  1.00  0.00     0.174 C 
BRANCH  12  13
ATOM     13  N   UNL     1      -6.298  13.447   4.765  1.00  0.00    -0.342 N 
ATOM     14  C   UNL     1      -7.047  12.487   4.123  1.00  0.00     0.249 C 
ATOM     15  O   UNL     1      -7.097  11.314   4.474  1.00  0.00    -0.272 OA
ATOM     16  H   UNL     1      -6.237  14.333   4.269  1.00  0.00     0.164 HD
BRANCH  14  17
ATOM     17  C   UNL     1      -7.837  13.051   2.923  1.00  0.00     0.207 C 
BRANCH  17  18
ATOM     18  C   UNL     1      -8.415  14.429   3.263  1.00  0.00     0.077 C 
BRANCH  18  19
ATOM     19  C   UNL     1      -7.729  15.532   2.489  1.00  0.00    -0.043 A 
ATOM     20  C   UNL     1      -6.640  17.699   2.435  1.00  0.00     0.083 A 
ATOM     21  C   UNL     1      -7.228  16.660   3.157  1.00  0.00     0.028 A 
ATOM     22  C   UNL     1      -6.550  17.619   1.045  1.00  0.00     0.134 A 
ATOM     23  C   UNL     1      -7.042  16.508   0.370  1.00  0.00     0.048 A 
ATOM     24  C   UNL     1      -7.633  15.467   1.090  1.00  0.00     0.008 A 
ATOM     25  Cl  UNL     1      -6.030  19.077   3.274  1.00  0.00    -0.080 Cl
BRANCH  22  26
ATOM     26  O   UNL     1      -5.991  18.617   0.293  1.00  0.00    -0.506 OA
ATOM     27  H   UNL     1      -5.644  18.197  -0.516  1.00  0.00     0.293 HD
ENDBRANCH  22  26
ENDBRANCH  18  19
ENDBRANCH  17  18
BRANCH  17  28
ATOM     28  O   UNL     1      -8.904  12.167   2.545  1.00  0.00    -0.383 OA
ATOM     29  H   UNL     1      -8.688  11.853   1.637  1.00  0.00     0.211 HD
ENDBRANCH  17  28
ENDBRANCH  14  17
ENDBRANCH  12  13
BRANCH  12  30
ATOM     30  C   UNL     1      -6.108  13.628   7.258  1.00  0.00     0.018 C 
ATOM     31  C   UNL     1      -6.738  12.415   7.960  1.00  0.00     0.010 C 
BRANCH  30  32
ATOM     32  C   UNL     1      -7.158  14.754   7.097  1.00  0.00     0.002 C 
ATOM     33  C   UNL     1      -6.598  16.171   7.096  1.00  0.00     0.004 C 
ENDBRANCH  30  32
ENDBRANCH  12  30
ENDBRANCH  10  12
ENDBRANCH   1  10
BRANCH   5  34
ATOM     34  C   UNL     1      -2.442  12.572   3.164  1.00  0.00     0.242 C 
ATOM     35  O   UNL     1      -1.608  12.521   4.069  1.00  0.00    -0.273 OA
ATOM     36  N   UNL     1      -2.241  11.976   1.939  1.00  0.00    -0.354 N 
ATOM     37  H   UNL     1      -2.911  12.154   1.190  1.00  0.00     0.163 HD
BRANCH  36  38
ATOM     38  C   UNL     1      -1.172  11.027   1.708  1.00  0.00     0.116 C 
BRANCH  38  39
ATOM     39  C   UNL     1      -0.419  11.395   0.431  1.00  0.00     0.023 C 
BRANCH  39  40
ATOM     40  C   UNL     1       0.711  12.386   0.687  1.00  0.00     0.026 C 
BRANCH  40  41
ATOM     41  C   UNL     1       0.322  13.786   0.212  1.00  0.00     0.146 C 
BRANCH  41  42
ATOM     42  N   UNL     1       1.307  14.754   0.675  1.00  0.00    -0.254 NA
ATOM     43  C   UNL     1       2.119  15.281  -0.162  1.00  0.00     0.185 C 
ATOM     44  N   UNL     1       2.238  15.092  -1.489  1.00  0.00    -0.370 N 
ATOM     45  N   UNL     1       3.023  16.169   0.286  1.00  0.00    -0.370 N 
ATOM     46  H   UNL     1       3.070  15.381  -1.976  1.00  0.00     0.159 HD
ATOM     47  H   UNL     1       1.624  14.462  -1.995  1.00  0.00     0.159 HD
ATOM     48  H   UNL     1       2.995  16.376   1.275  1.00  0.00     0.159 HD
ATOM     49  H   UNL     1       3.523  16.791  -0.324  1.00  0.00     0.159 HD
ENDBRANCH  41  42
ENDBRANCH  40  41
ENDBRANCH  39  40
ENDBRANCH  38  39
ENDBRANCH  36  38
ENDBRANCH   5  34
BRANCH   8  50
ATOM     50  O   UNL     1      -0.517  16.911   3.017  1.00  0.00    -0.245 OA
BRANCH  50  51
ATOM     51  S   UNL     1       0.796  17.830   2.745  1.00  0.00     0.397 S 
ATOM     52  O   UNL     1       0.879  18.815   3.800  1.00  0.00    -0.169 OA
ATOM     53  O   UNL     1       0.844  18.208   1.347  1.00  0.00    -0.169 OA
BRANCH  51  54
ATOM     54  O   UNL     1       1.994  16.793   3.019  1.00  0.00    -0.264 OA
ATOM     55  H   UNL     1       2.450  16.632   2.168  1.00  0.00     0.236 HD
ENDBRANCH  51  54
ENDBRANCH  50  51
ENDBRANCH   8  50
TORSDOF 19
ENDMDL
MODEL 16
REMARK VINA RESULT:    -7.008      3.457      8.064
REMARK INTER + INTRA:         -17.790
REMARK INTER:                 -13.716
REMARK INTRA:                  -4.073
REMARK UNBOUND:                -3.611
REMARK SMILES CC[C@@H](C)[C@@H](NC(=O)[C@@H](O)Cc1ccc(O)c(Cl)c1)C(=O)N1[C@H](C(=O)NCCCCN=C(N)N)C[C@H]2CC[C@H](OS(=O)(=O)O)C[C@@H]21
REMARK SMILES IDX 22 1 36 2 46 3 35 4 23 5 45 6 37 7 39 8 38 9 20 10 21 11
REMARK SMILES IDX 5 12 6 13 7 14 8 15 9 17 11 18 12 19 17 20 19 21 15 22 14 23
REMARK SMILES IDX 13 24 18 25 16 26 10 28 3 30 4 31 2 32 1 33 24 34 25 35
REMARK SMILES IDX 26 36 27 38 28 39 29 40 30 41 31 42 32 43 33 44 34 45 40 50
REMARK SMILES IDX 41 51 42 52 43 53 44 54
REMARK H PARENT 6 16 16 27 10 29 26 37 33 46 33 47 34 48 34 49 44 55
ROOT
ATOM      1  N   UNL     1      -1.627  15.311   0.559  1.00  0.00    -0.326 N 
ATOM      2  C   UNL     1       0.597  14.765   1.105  1.00  0.00     0.014 C 
ATOM      3  C   UNL     1      -0.269  15.856   0.469  1.00  0.00     0.091 C 
ATOM      4  C   UNL     1      -0.115  13.487   0.689  1.00  0.00     0.041 C 
ATOM      5  C   UNL     1      -1.576  13.886   0.969  1.00  0.00     0.175 C 
ATOM      6  C   UNL     1       0.028  17.179   1.172  1.00  0.00     0.059 C 
ATOM      7  C   UNL     1       2.058  14.953   0.743  1.00  0.00     0.008 C 
ATOM      8  C   UNL     1       1.482  17.303   1.676  1.00  0.00     0.143 C 
ATOM      9  C   UNL     1       2.457  16.440   0.848  1.00  0.00     0.034 C 
ENDROOT
BRANCH   1  10
ATOM     10  C   UNL     1      -2.828  15.846   0.127  1.00  0.00     0.246 C 
ATOM     11  O   UNL     1      -3.196  15.639  -1.034  1.00  0.00    -0.272 OA
BRANCH  10  12
ATOM     12  C   UNL     1      -3.708  16.657   1.122  1.00  0.00     0.174 C 
BRANCH  12  13
ATOM     13  N   UNL     1      -5.092  16.189   1.060  1.00  0.00    -0.342 N 
ATOM     14  C   UNL     1      -5.861  15.847   2.150  1.00  0.00     0.249 C 
ATOM     15  O   UNL     1      -5.473  15.925   3.309  1.00  0.00    -0.272 OA
ATOM     16  H   UNL     1      -5.495  15.926   0.164  1.00  0.00     0.164 HD
BRANCH  14  17
ATOM     17  C   UNL     1      -7.276  15.374   1.756  1.00  0.00     0.207 C 
BRANCH  17  18
ATOM     18  C   UNL     1      -7.281  13.865   1.490  1.00  0.00     0.077 C 
BRANCH  18  19
ATOM     19  C   UNL     1      -8.186  13.128   2.451  1.00  0.00    -0.043 A 
ATOM     20  C   UNL     1     -10.413  12.540   3.212  1.00  0.00     0.083 A 
ATOM     21  C   UNL     1      -9.580  13.181   2.295  1.00  0.00     0.028 A 
ATOM     22  C   UNL     1      -9.862  11.846   4.290  1.00  0.00     0.134 A 
ATOM     23  C   UNL     1      -8.483  11.786   4.457  1.00  0.00     0.048 A 
ATOM     24  C   UNL     1      -7.646  12.427   3.541  1.00  0.00     0.008 A 
ATOM     25  Cl  UNL     1     -12.123  12.617   3.003  1.00  0.00    -0.080 Cl
BRANCH  22  26
ATOM     26  O   UNL     1     -10.638  11.212   5.221  1.00  0.00    -0.506 OA
ATOM     27  H   UNL     1     -10.953  11.898   5.838  1.00  0.00     0.293 HD
ENDBRANCH  22  26
ENDBRANCH  18  19
ENDBRANCH  17  18
BRANCH  17  28
ATOM     28  O   UNL     1      -7.747  16.065   0.588  1.00  0.00    -0.383 OA
ATOM     29  H   UNL     1      -6.952  16.233   0.032  1.00  0.00     0.211 HD
ENDBRANCH  17  28
ENDBRANCH  14  17
ENDBRANCH  12  13
BRANCH  12  30
ATOM     30  C   UNL     1      -3.591  18.191   0.914  1.00  0.00     0.018 C 
ATOM     31  C   UNL     1      -3.543  18.924   2.264  1.00  0.00     0.010 C 
BRANCH  30  32
ATOM     32  C   UNL     1      -4.712  18.784   0.026  1.00  0.00     0.002 C 
ATOM     33  C   UNL     1      -4.388  18.874  -1.459  1.00  0.00     0.004 C 
ENDBRANCH  30  32
ENDBRANCH  12  30
ENDBRANCH  10  12
ENDBRANCH   1  10
BRANCH   5  34
ATOM     34  C   UNL     1      -1.931  13.733   2.472  1.00  0.00     0.242 C 
ATOM     35  O   UNL     1      -1.917  14.686   3.252  1.00  0.00    -0.273 OA
ATOM     36  N   UNL     1      -2.211  12.448   2.881  1.00  0.00    -0.354 N 
ATOM     37  H   UNL     1      -2.089  11.684   2.215  1.00  0.00     0.163 HD
BRANCH  36  38
ATOM     38  C   UNL     1      -2.767  12.155   4.185  1.00  0.00     0.116 C 
BRANCH  38  39
ATOM     39  C   UNL     1      -4.237  12.567   4.226  1.00  0.00     0.023 C 
BRANCH  39  40
ATOM     40  C   UNL     1      -4.558  13.463   5.417  1.00  0.00     0.026 C 
BRANCH  40  41
ATOM     41  C   UNL     1      -3.315  13.690   6.276  1.00  0.00     0.146 C 
BRANCH  41  42
ATOM     42  N   UNL     1      -3.159  15.112   6.552  1.00  0.00    -0.254 NA
ATOM     43  C   UNL     1      -2.030  15.677   6.343  1.00  0.00     0.185 C 
ATOM     44  N   UNL     1      -0.876  15.162   5.881  1.00  0.00    -0.370 N 
ATOM     45  N   UNL     1      -1.905  16.988   6.608  1.00  0.00    -0.370 N 
ATOM     46  H   UNL     1      -0.009  15.658   5.997  1.00  0.00     0.159 HD
ATOM     47  H   UNL     1      -0.797  14.184   5.617  1.00  0.00     0.159 HD
ATOM     48  H   UNL     1      -2.732  17.456   6.953  1.00  0.00     0.159 HD
ATOM     49  H   UNL     1      -1.147  17.545   6.256  1.00  0.00     0.159 HD
ENDBRANCH  41  42
ENDBRANCH  40  41
ENDBRANCH  39  40
ENDBRANCH  38  39
ENDBRANCH  36  38
ENDBRANCH   5  34
BRANCH   8  50
ATOM     50  O   UNL     1       1.564  16.896   3.042  1.00  0.00    -0.245 OA
BRANCH  50  51
ATOM     51  S   UNL     1       1.719  18.020   4.207  1.00  0.00     0.397 S 
ATOM     52  O   UNL     1       3.097  18.456   4.227  1.00  0.00    -0.169 OA
ATOM     53  O   UNL     1       1.047  17.570   5.409  1.00  0.00    -0.169 OA
BRANCH  51  54
ATOM     54  O   UNL     1       0.879  19.250   3.600  1.00  0.00    -0.264 OA
ATOM     55  H   UNL     1      -0.059  19.124   3.852  1.00  0.00     0.236 HD
ENDBRANCH  51  54
ENDBRANCH  50  51
ENDBRANCH   8  50
TORSDOF 19
ENDMDL
MODEL 17
REMARK VINA RESULT:    -6.957      3.913      8.557
REMARK INTER + INTRA:         -17.686
REMARK INTER:                 -14.208
REMARK INTRA:                  -3.478
REMARK UNBOUND:                -3.611
REMARK SMILES CC[C@@H](C)[C@@H](NC(=O)[C@@H](O)Cc1ccc(O)c(Cl)c1)C(=O)N1[C@H](C(=O)NCCCCN=C(N)N)C[C@H]2CC[C@H](OS(=O)(=O)O)C[C@@H]21
REMARK SMILES IDX 22 1 36 2 46 3 35 4 23 5 45 6 37 7 39 8 38 9 20 10 21 11
REMARK SMILES IDX 5 12 6 13 7 14 8 15 9 17 11 18 12 19 17 20 19 21 15 22 14 23
REMARK SMILES IDX 13 24 18 25 16 26 10 28 3 30 4 31 2 32 1 33 24 34 25 35
REMARK SMILES IDX 26 36 27 38 28 39 29 40 30 41 31 42 32 43 33 44 34 45 40 50
REMARK SMILES IDX 41 51 42 52 43 53 44 54
REMARK H PARENT 6 16 16 27 10 29 26 37 33 46 33 47 34 48 34 49 44 55
ROOT
ATOM      1  N   UNL     1      -3.213  13.977   2.196  1.00  0.00    -0.326 N 
ATOM      2  C   UNL     1      -0.966  13.272   2.225  1.00  0.00     0.014 C 
ATOM      3  C   UNL     1      -2.059  13.823   1.304  1.00  0.00     0.091 C 
ATOM      4  C   UNL     1      -1.750  12.393   3.186  1.00  0.00     0.041 C 
ATOM      5  C   UNL     1      -2.938  13.322   3.499  1.00  0.00     0.175 C 
ATOM      6  C   UNL     1      -1.517  15.066   0.601  1.00  0.00     0.059 C 
ATOM      7  C   UNL     1       0.166  12.667   1.419  1.00  0.00     0.008 C 
ATOM      8  C   UNL     1       0.003  15.017   0.336  1.00  0.00     0.143 C 
ATOM      9  C   UNL     1       0.524  13.571   0.220  1.00  0.00     0.034 C 
ENDROOT
BRANCH   1  10
ATOM     10  C   UNL     1      -4.495  14.419   1.920  1.00  0.00     0.246 C 
ATOM     11  O   UNL     1      -5.337  13.608   1.517  1.00  0.00    -0.272 OA
BRANCH  10  12
ATOM     12  C   UNL     1      -4.861  15.912   2.163  1.00  0.00     0.174 C 
BRANCH  12  13
ATOM     13  N   UNL     1      -6.307  16.050   2.334  1.00  0.00    -0.342 N 
ATOM     14  C   UNL     1      -6.970  15.982   3.539  1.00  0.00     0.249 C 
ATOM     15  O   UNL     1      -6.411  15.825   4.617  1.00  0.00    -0.272 OA
ATOM     16  H   UNL     1      -6.915  16.028   1.519  1.00  0.00     0.164 HD
BRANCH  14  17
ATOM     17  C   UNL     1      -8.497  16.148   3.388  1.00  0.00     0.207 C 
BRANCH  17  18
ATOM     18  C   UNL     1      -9.004  15.364   2.172  1.00  0.00     0.077 C 
BRANCH  18  19
ATOM     19  C   UNL     1      -9.857  14.184   2.580  1.00  0.00    -0.043 A 
ATOM     20  C   UNL     1     -10.103  12.069   3.741  1.00  0.00     0.083 A 
ATOM     21  C   UNL     1      -9.329  13.180   3.407  1.00  0.00     0.028 A 
ATOM     22  C   UNL     1     -11.405  11.952   3.252  1.00  0.00     0.134 A 
ATOM     23  C   UNL     1     -11.940  12.938   2.432  1.00  0.00     0.048 A 
ATOM     24  C   UNL     1     -11.167  14.052   2.095  1.00  0.00     0.008 A 
ATOM     25  Cl  UNL     1      -9.437  10.845   4.757  1.00  0.00    -0.080 Cl
BRANCH  22  26
ATOM     26  O   UNL     1     -12.198  10.875   3.543  1.00  0.00    -0.506 OA
ATOM     27  H   UNL     1     -12.024  10.643   4.474  1.00  0.00     0.293 HD
ENDBRANCH  22  26
ENDBRANCH  18  19
ENDBRANCH  17  18
BRANCH  17  28
ATOM     28  O   UNL     1      -8.856  17.532   3.246  1.00  0.00    -0.383 OA
ATOM     29  H   UNL     1      -9.208  17.629   2.332  1.00  0.00     0.211 HD
ENDBRANCH  17  28
ENDBRANCH  14  17
ENDBRANCH  12  13
BRANCH  12  30
ATOM     30  C   UNL     1      -4.302  16.853   1.062  1.00  0.00     0.018 C 
ATOM     31  C   UNL     1      -4.134  18.283   1.599  1.00  0.00     0.010 C 
BRANCH  30  32
ATOM     32  C   UNL     1      -5.151  16.867  -0.233  1.00  0.00     0.002 C 
ATOM     33  C   UNL     1      -4.378  17.149  -1.515  1.00  0.00     0.004 C 
ENDBRANCH  30  32
ENDBRANCH  12  30
ENDBRANCH  10  12
ENDBRANCH   1  10
BRANCH   5  34
ATOM     34  C   UNL     1      -2.571  14.376   4.578  1.00  0.00     0.242 C 
ATOM     35  O   UNL     1      -1.783  15.295   4.358  1.00  0.00    -0.273 OA
ATOM     36  N   UNL     1      -3.149  14.176   5.812  1.00  0.00    -0.354 N 
ATOM     37  H   UNL     1      -3.697  13.329   5.966  1.00  0.00     0.163 HD
BRANCH  36  38
ATOM     38  C   UNL     1      -3.090  15.170   6.863  1.00  0.00     0.116 C 
BRANCH  38  39
ATOM     39  C   UNL     1      -4.215  14.929   7.868  1.00  0.00     0.023 C 
BRANCH  39  40
ATOM     40  C   UNL     1      -4.502  13.446   8.076  1.00  0.00     0.026 C 
BRANCH  40  41
ATOM     41  C   UNL     1      -5.945  13.114   7.696  1.00  0.00     0.146 C 
BRANCH  41  42
ATOM     42  N   UNL     1      -6.091  13.140   6.247  1.00  0.00    -0.254 NA
ATOM     43  C   UNL     1      -5.970  12.055   5.579  1.00  0.00     0.185 C 
ATOM     44  N   UNL     1      -5.715  10.803   6.000  1.00  0.00    -0.370 N 
ATOM     45  N   UNL     1      -6.104  12.101   4.243  1.00  0.00    -0.370 N 
ATOM     46  H   UNL     1      -5.406  10.097   5.354  1.00  0.00     0.159 HD
ATOM     47  H   UNL     1      -5.599  10.585   6.985  1.00  0.00     0.159 HD
ATOM     48  H   UNL     1      -6.306  13.008   3.844  1.00  0.00     0.159 HD
ATOM     49  H   UNL     1      -6.259  11.281   3.683  1.00  0.00     0.159 HD
ENDBRANCH  41  42
ENDBRANCH  40  41
ENDBRANCH  39  40
ENDBRANCH  38  39
ENDBRANCH  36  38
ENDBRANCH   5  34
BRANCH   8  50
ATOM     50  O   UNL     1       0.706  15.669   1.395  1.00  0.00    -0.245 OA
BRANCH  50  51
ATOM     51  S   UNL     1       1.826  16.794   1.042  1.00  0.00     0.397 S 
ATOM     52  O   UNL     1       3.048  16.110   0.681  1.00  0.00    -0.169 OA
ATOM     53  O   UNL     1       1.807  17.832   2.051  1.00  0.00    -0.169 OA
BRANCH  51  54
ATOM     54  O   UNL     1       1.255  17.419  -0.325  1.00  0.00    -0.264 OA
ATOM     55  H   UNL     1       1.884  17.197  -1.041  1.00  0.00     0.236 HD
ENDBRANCH  51  54
ENDBRANCH  50  51
ENDBRANCH   8  50
TORSDOF 19
ENDMDL
MODEL 18
REMARK VINA RESULT:    -6.939      3.548      7.976
REMARK INTER + INTRA:         -17.650
REMARK INTER:                 -14.242
REMARK INTRA:                  -3.408
REMARK UNBOUND:                -3.611
REMARK SMILES CC[C@@H](C)[C@@H](NC(=O)[C@@H](O)Cc1ccc(O)c(Cl)c1)C(=O)N1[C@H](C(=O)NCCCCN=C(N)N)C[C@H]2CC[C@H](OS(=O)(=O)O)C[C@@H]21
REMARK SMILES IDX 22 1 36 2 46 3 35 4 23 5 45 6 37 7 39 8 38 9 20 10 21 11
REMARK SMILES IDX 5 12 6 13 7 14 8 15 9 17 11 18 12 19 17 20 19 21 15 22 14 23
REMARK SMILES IDX 13 24 18 25 16 26 10 28 3 30 4 31 2 32 1 33 24 34 25 35
REMARK SMILES IDX 26 36 27 38 28 39 29 40 30 41 31 42 32 43 33 44 34 45 40 50
REMARK SMILES IDX 41 51 42 52 43 53 44 54
REMARK H PARENT 6 16 16 27 10 29 26 37 33 46 33 47 34 48 34 49 44 55
ROOT
ATOM      1  N   UNL     1      -2.885  16.701   1.254  1.00  0.00    -0.326 N 
ATOM      2  C   UNL     1      -3.787  18.579   0.156  1.00  0.00     0.014 C 
ATOM      3  C   UNL     1      -3.702  17.888   1.521  1.00  0.00     0.091 C 
ATOM      4  C   UNL     1      -3.817  17.405  -0.811  1.00  0.00     0.041 C 
ATOM      5  C   UNL     1      -2.704  16.527  -0.208  1.00  0.00     0.175 C 
ATOM      6  C   UNL     1      -3.195  18.903   2.544  1.00  0.00     0.059 C 
ATOM      7  C   UNL     1      -4.915  19.592   0.131  1.00  0.00     0.008 C 
ATOM      8  C   UNL     1      -3.625  20.355   2.246  1.00  0.00     0.143 C 
ATOM      9  C   UNL     1      -4.935  20.416   1.435  1.00  0.00     0.034 C 
ENDROOT
BRANCH   1  10
ATOM     10  C   UNL     1      -2.487  15.687   2.108  1.00  0.00     0.246 C 
ATOM     11  O   UNL     1      -1.779  15.964   3.082  1.00  0.00    -0.272 OA
BRANCH  10  12
ATOM     12  C   UNL     1      -2.974  14.232   1.850  1.00  0.00     0.174 C 
BRANCH  12  13
ATOM     13  N   UNL     1      -4.228  13.991   2.562  1.00  0.00    -0.342 N 
ATOM     14  C   UNL     1      -5.477  14.346   2.105  1.00  0.00     0.249 C 
ATOM     15  O   UNL     1      -5.680  14.884   1.023  1.00  0.00    -0.272 OA
ATOM     16  H   UNL     1      -4.206  13.697   3.536  1.00  0.00     0.164 HD
BRANCH  14  17
ATOM     17  C   UNL     1      -6.602  13.972   3.094  1.00  0.00     0.207 C 
BRANCH  17  18
ATOM     18  C   UNL     1      -6.053  13.884   4.521  1.00  0.00     0.077 C 
BRANCH  18  19
ATOM     19  C   UNL     1      -6.307  12.527   5.138  1.00  0.00    -0.043 A 
ATOM     20  C   UNL     1      -7.565  11.106   6.649  1.00  0.00     0.083 A 
ATOM     21  C   UNL     1      -7.364  12.347   6.044  1.00  0.00     0.028 A 
ATOM     22  C   UNL     1      -6.713  10.040   6.356  1.00  0.00     0.134 A 
ATOM     23  C   UNL     1      -5.663  10.204   5.460  1.00  0.00     0.048 A 
ATOM     24  C   UNL     1      -5.458  11.446   4.854  1.00  0.00     0.008 A 
ATOM     25  Cl  UNL     1      -8.869  10.905   7.760  1.00  0.00    -0.080 Cl
BRANCH  22  26
ATOM     26  O   UNL     1      -6.865   8.808   6.932  1.00  0.00    -0.506 OA
ATOM     27  H   UNL     1      -7.812   8.585   6.871  1.00  0.00     0.293 HD
ENDBRANCH  22  26
ENDBRANCH  18  19
ENDBRANCH  17  18
BRANCH  17  28
ATOM     28  O   UNL     1      -7.209  12.720   2.738  1.00  0.00    -0.383 OA
ATOM     29  H   UNL     1      -7.463  12.290   3.587  1.00  0.00     0.211 HD
ENDBRANCH  17  28
ENDBRANCH  14  17
ENDBRANCH  12  13
BRANCH  12  30
ATOM     30  C   UNL     1      -1.891  13.169   2.182  1.00  0.00     0.018 C 
ATOM     31  C   UNL     1      -1.564  12.318   0.945  1.00  0.00     0.010 C 
BRANCH  30  32
ATOM     32  C   UNL     1      -2.263  12.254   3.374  1.00  0.00     0.002 C 
ATOM     33  C   UNL     1      -2.055  12.865   4.753  1.00  0.00     0.004 C 
ENDBRANCH  30  32
ENDBRANCH  12  30
ENDBRANCH  10  12
ENDBRANCH   1  10
BRANCH   5  34
ATOM     34  C   UNL     1      -1.296  17.006  -0.650  1.00  0.00     0.242 C 
ATOM     35  O   UNL     1      -0.808  18.067  -0.258  1.00  0.00    -0.273 OA
ATOM     36  N   UNL     1      -0.655  16.187  -1.552  1.00  0.00    -0.354 N 
ATOM     37  H   UNL     1      -1.159  15.385  -1.931  1.00  0.00     0.163 HD
BRANCH  36  38
ATOM     38  C   UNL     1       0.739  16.364  -1.902  1.00  0.00     0.116 C 
BRANCH  38  39
ATOM     39  C   UNL     1       1.507  15.069  -1.647  1.00  0.00     0.023 C 
BRANCH  39  40
ATOM     40  C   UNL     1       1.682  14.779  -0.160  1.00  0.00     0.026 C 
BRANCH  40  41
ATOM     41  C   UNL     1       2.470  15.898   0.522  1.00  0.00     0.146 C 
BRANCH  41  42
ATOM     42  N   UNL     1       2.087  15.986   1.925  1.00  0.00    -0.254 NA
ATOM     43  C   UNL     1       1.552  17.061   2.369  1.00  0.00     0.185 C 
ATOM     44  N   UNL     1       1.255  18.208   1.730  1.00  0.00    -0.370 N 
ATOM     45  N   UNL     1       1.210  17.123   3.666  1.00  0.00    -0.370 N 
ATOM     46  H   UNL     1       1.066  19.049   2.248  1.00  0.00     0.159 HD
ATOM     47  H   UNL     1       1.435  18.327   0.738  1.00  0.00     0.159 HD
ATOM     48  H   UNL     1       1.392  16.296   4.218  1.00  0.00     0.159 HD
ATOM     49  H   UNL     1       0.584  17.819   4.031  1.00  0.00     0.159 HD
ENDBRANCH  41  42
ENDBRANCH  40  41
ENDBRANCH  39  40
ENDBRANCH  38  39
ENDBRANCH  36  38
ENDBRANCH   5  34
BRANCH   8  50
ATOM     50  O   UNL     1      -2.604  21.028   1.509  1.00  0.00    -0.245 OA
BRANCH  50  51
ATOM     51  S   UNL     1      -1.411  21.793   2.306  1.00  0.00     0.397 S 
ATOM     52  O   UNL     1      -1.901  22.137   3.621  1.00  0.00    -0.169 OA
ATOM     53  O   UNL     1      -0.804  22.782   1.439  1.00  0.00    -0.169 OA
BRANCH  51  54
ATOM     54  O   UNL     1      -0.345  20.611   2.531  1.00  0.00    -0.264 OA
ATOM     55  H   UNL     1       0.551  20.993   2.433  1.00  0.00     0.236 HD
ENDBRANCH  51  54
ENDBRANCH  50  51
ENDBRANCH   8  50
TORSDOF 19
ENDMDL
MODEL 19
REMARK VINA RESULT:    -6.937      3.248      6.920
REMARK INTER + INTRA:         -17.645
REMARK INTER:                 -13.565
REMARK INTRA:                  -4.080
REMARK UNBOUND:                -3.611
REMARK SMILES CC[C@@H](C)[C@@H](NC(=O)[C@@H](O)Cc1ccc(O)c(Cl)c1)C(=O)N1[C@H](C(=O)NCCCCN=C(N)N)C[C@H]2CC[C@H](OS(=O)(=O)O)C[C@@H]21
REMARK SMILES IDX 22 1 36 2 46 3 35 4 23 5 45 6 37 7 39 8 38 9 20 10 21 11
REMARK SMILES IDX 5 12 6 13 7 14 8 15 9 17 11 18 12 19 17 20 19 21 15 22 14 23
REMARK SMILES IDX 13 24 18 25 16 26 10 28 3 30 4 31 2 32 1 33 24 34 25 35
REMARK SMILES IDX 26 36 27 38 28 39 29 40 30 41 31 42 32 43 33 44 34 45 40 50
REMARK SMILES IDX 41 51 42 52 43 53 44 54
REMARK H PARENT 6 16 16 27 10 29 26 37 33 46 33 47 34 48 34 49 44 55
ROOT
ATOM      1  N   UNL     1      -3.173  14.300   3.471  1.00  0.00    -0.326 N 
ATOM      2  C   UNL     1      -3.930  15.226   5.499  1.00  0.00     0.014 C 
ATOM      3  C   UNL     1      -3.452  15.598   4.092  1.00  0.00     0.091 C 
ATOM      4  C   UNL     1      -3.095  13.997   5.823  1.00  0.00     0.041 C 
ATOM      5  C   UNL     1      -3.217  13.227   4.495  1.00  0.00     0.175 C 
ATOM      6  C   UNL     1      -4.503  16.499   3.447  1.00  0.00     0.059 C 
ATOM      7  C   UNL     1      -3.877  16.426   6.424  1.00  0.00     0.008 C 
ATOM      8  C   UNL     1      -5.257  17.394   4.455  1.00  0.00     0.143 C 
ATOM      9  C   UNL     1      -4.416  17.685   5.713  1.00  0.00     0.034 C 
ENDROOT
BRANCH   1  10
ATOM     10  C   UNL     1      -2.694  14.006   2.206  1.00  0.00     0.246 C 
ATOM     11  O   UNL     1      -3.450  13.473   1.386  1.00  0.00    -0.272 OA
BRANCH  10  12
ATOM     12  C   UNL     1      -1.234  14.390   1.830  1.00  0.00     0.174 C 
BRANCH  12  13
ATOM     13  N   UNL     1      -1.239  15.372   0.747  1.00  0.00    -0.342 N 
ATOM     14  C   UNL     1      -1.087  16.730   0.911  1.00  0.00     0.249 C 
ATOM     15  O   UNL     1      -0.900  17.270   1.994  1.00  0.00    -0.272 OA
ATOM     16  H   UNL     1      -1.539  15.093  -0.184  1.00  0.00     0.164 HD
BRANCH  14  17
ATOM     17  C   UNL     1      -1.156  17.503  -0.424  1.00  0.00     0.207 C 
BRANCH  17  18
ATOM     18  C   UNL     1      -2.396  17.085  -1.221  1.00  0.00     0.077 C 
BRANCH  18  19
ATOM     19  C   UNL     1      -3.675  17.514  -0.537  1.00  0.00    -0.043 A 
ATOM     20  C   UNL     1      -5.949  17.037   0.158  1.00  0.00     0.083 A 
ATOM     21  C   UNL     1      -4.753  16.622  -0.430  1.00  0.00     0.028 A 
ATOM     22  C   UNL     1      -6.075  18.340   0.640  1.00  0.00     0.134 A 
ATOM     23  C   UNL     1      -5.015  19.233   0.541  1.00  0.00     0.048 A 
ATOM     24  C   UNL     1      -3.817  18.822  -0.049  1.00  0.00     0.008 A 
ATOM     25  Cl  UNL     1      -7.264  15.927   0.280  1.00  0.00    -0.080 Cl
BRANCH  22  26
ATOM     26  O   UNL     1      -7.231  18.795   1.215  1.00  0.00    -0.506 OA
ATOM     27  H   UNL     1      -7.284  18.387   2.099  1.00  0.00     0.293 HD
ENDBRANCH  22  26
ENDBRANCH  18  19
ENDBRANCH  17  18
BRANCH  17  28
ATOM     28  O   UNL     1       0.020  17.273  -1.216  1.00  0.00    -0.383 OA
ATOM     29  H   UNL     1       0.537  16.583  -0.742  1.00  0.00     0.211 HD
ENDBRANCH  17  28
ENDBRANCH  14  17
ENDBRANCH  12  13
BRANCH  12  30
ATOM     30  C   UNL     1      -0.353  13.153   1.504  1.00  0.00     0.018 C 
ATOM     31  C   UNL     1       0.474  13.392   0.232  1.00  0.00     0.010 C 
BRANCH  30  32
ATOM     32  C   UNL     1      -1.155  11.835   1.378  1.00  0.00     0.002 C 
ATOM     33  C   UNL     1      -0.421  10.689   0.694  1.00  0.00     0.004 C 
ENDBRANCH  30  32
ENDBRANCH  12  30
ENDBRANCH  10  12
ENDBRANCH   1  10
BRANCH   5  34
ATOM     34  C   UNL     1      -4.553  12.441   4.411  1.00  0.00     0.242 C 
ATOM     35  O   UNL     1      -4.693  11.326   4.913  1.00  0.00    -0.273 OA
ATOM     36  N   UNL     1      -5.551  13.057   3.689  1.00  0.00    -0.354 N 
ATOM     37  H   UNL     1      -5.336  13.924   3.196  1.00  0.00     0.163 HD
BRANCH  36  38
ATOM     38  C   UNL     1      -6.916  12.573   3.689  1.00  0.00     0.116 C 
BRANCH  38  39
ATOM     39  C   UNL     1      -7.682  13.183   4.860  1.00  0.00     0.023 C 
BRANCH  39  40
ATOM     40  C   UNL     1      -8.910  12.364   5.243  1.00  0.00     0.026 C 
BRANCH  40  41
ATOM     41  C   UNL     1      -8.716  11.702   6.607  1.00  0.00     0.146 C 
BRANCH  41  42
ATOM     42  N   UNL     1      -7.933  10.482   6.455  1.00  0.00    -0.254 NA
ATOM     43  C   UNL     1      -6.768  10.409   6.980  1.00  0.00     0.185 C 
ATOM     44  N   UNL     1      -6.084  11.317   7.700  1.00  0.00    -0.370 N 
ATOM     45  N   UNL     1      -6.060   9.277   6.825  1.00  0.00    -0.370 N 
ATOM     46  H   UNL     1      -5.092  11.220   7.838  1.00  0.00     0.159 HD
ATOM     47  H   UNL     1      -6.477  12.225   7.923  1.00  0.00     0.159 HD
ATOM     48  H   UNL     1      -6.508   8.537   6.301  1.00  0.00     0.159 HD
ATOM     49  H   UNL     1      -5.261   9.053   7.391  1.00  0.00     0.159 HD
ENDBRANCH  41  42
ENDBRANCH  40  41
ENDBRANCH  39  40
ENDBRANCH  38  39
ENDBRANCH  36  38
ENDBRANCH   5  34
BRANCH   8  50
ATOM     50  O   UNL     1      -6.472  16.761   4.858  1.00  0.00    -0.245 OA
BRANCH  50  51
ATOM     51  S   UNL     1      -7.896  17.475   4.531  1.00  0.00     0.397 S 
ATOM     52  O   UNL     1      -8.644  17.566   5.765  1.00  0.00    -0.169 OA
ATOM     53  O   UNL     1      -8.470  16.890   3.337  1.00  0.00    -0.169 OA
BRANCH  51  54
ATOM     54  O   UNL     1      -7.446  18.978   4.180  1.00  0.00    -0.264 OA
ATOM     55  H   UNL     1      -7.871  19.576   4.828  1.00  0.00     0.236 HD
ENDBRANCH  51  54
ENDBRANCH  50  51
ENDBRANCH   8  50
TORSDOF 19
ENDMDL
MODEL 20
REMARK VINA RESULT:    -6.872      3.232      7.161
REMARK INTER + INTRA:         -17.514
REMARK INTER:                 -13.084
REMARK INTRA:                  -4.430
REMARK UNBOUND:                -3.611
REMARK SMILES CC[C@@H](C)[C@@H](NC(=O)[C@@H](O)Cc1ccc(O)c(Cl)c1)C(=O)N1[C@H](C(=O)NCCCCN=C(N)N)C[C@H]2CC[C@H](OS(=O)(=O)O)C[C@@H]21
REMARK SMILES IDX 22 1 36 2 46 3 35 4 23 5 45 6 37 7 39 8 38 9 20 10 21 11
REMARK SMILES IDX 5 12 6 13 7 14 8 15 9 17 11 18 12 19 17 20 19 21 15 22 14 23
REMARK SMILES IDX 13 24 18 25 16 26 10 28 3 30 4 31 2 32 1 33 24 34 25 35
REMARK SMILES IDX 26 36 27 38 28 39 29 40 30 41 31 42 32 43 33 44 34 45 40 50
REMARK SMILES IDX 41 51 42 52 43 53 44 54
REMARK H PARENT 6 16 16 27 10 29 26 37 33 46 33 47 34 48 34 49 44 55
ROOT
ATOM      1  N   UNL     1      -3.067  13.944   2.013  1.00  0.00    -0.326 N 
ATOM      2  C   UNL     1      -0.837  13.191   1.967  1.00  0.00     0.014 C 
ATOM      3  C   UNL     1      -1.907  13.884   1.119  1.00  0.00     0.091 C 
ATOM      4  C   UNL     1      -1.651  12.209   2.796  1.00  0.00     0.041 C 
ATOM      5  C   UNL     1      -2.822  13.116   3.219  1.00  0.00     0.175 C 
ATOM      6  C   UNL     1      -1.330  15.197   0.592  1.00  0.00     0.059 C 
ATOM      7  C   UNL     1       0.292  12.672   1.098  1.00  0.00     0.008 C 
ATOM      8  C   UNL     1       0.192  15.148   0.336  1.00  0.00     0.143 C 
ATOM      9  C   UNL     1       0.684  13.718   0.033  1.00  0.00     0.034 C 
ENDROOT
BRANCH   1  10
ATOM     10  C   UNL     1      -4.336  14.448   1.787  1.00  0.00     0.246 C 
ATOM     11  O   UNL     1      -5.257  13.665   1.532  1.00  0.00    -0.272 OA
BRANCH  10  12
ATOM     12  C   UNL     1      -4.585  15.980   1.900  1.00  0.00     0.174 C 
BRANCH  12  13
ATOM     13  N   UNL     1      -5.245  16.286   3.169  1.00  0.00    -0.342 N 
ATOM     14  C   UNL     1      -4.810  17.221   4.081  1.00  0.00     0.249 C 
ATOM     15  O   UNL     1      -3.825  17.929   3.915  1.00  0.00    -0.272 OA
ATOM     16  H   UNL     1      -5.981  15.674   3.514  1.00  0.00     0.164 HD
BRANCH  14  17
ATOM     17  C   UNL     1      -5.713  17.298   5.331  1.00  0.00     0.207 C 
BRANCH  17  18
ATOM     18  C   UNL     1      -6.851  16.277   5.234  1.00  0.00     0.077 C 
BRANCH  18  19
ATOM     19  C   UNL     1      -6.550  15.023   6.023  1.00  0.00    -0.043 A 
ATOM     20  C   UNL     1      -5.955  12.673   6.089  1.00  0.00     0.083 A 
ATOM     21  C   UNL     1      -6.183  13.841   5.361  1.00  0.00     0.028 A 
ATOM     22  C   UNL     1      -6.092  12.677   7.478  1.00  0.00     0.134 A 
ATOM     23  C   UNL     1      -6.455  13.841   8.146  1.00  0.00     0.048 A 
ATOM     24  C   UNL     1      -6.686  15.011   7.420  1.00  0.00     0.008 A 
ATOM     25  Cl  UNL     1      -5.505  11.230   5.258  1.00  0.00    -0.080 Cl
BRANCH  22  26
ATOM     26  O   UNL     1      -5.889  11.553   8.233  1.00  0.00    -0.506 OA
ATOM     27  H   UNL     1      -6.762  11.140   8.361  1.00  0.00     0.293 HD
ENDBRANCH  22  26
ENDBRANCH  18  19
ENDBRANCH  17  18
BRANCH  17  28
ATOM     28  O   UNL     1      -6.265  18.615   5.490  1.00  0.00    -0.383 OA
ATOM     29  H   UNL     1      -5.698  19.070   6.153  1.00  0.00     0.211 HD
ENDBRANCH  17  28
ENDBRANCH  14  17
ENDBRANCH  12  13
BRANCH  12  30
ATOM     30  C   UNL     1      -5.352  16.556   0.680  1.00  0.00     0.018 C 
ATOM     31  C   UNL     1      -4.578  17.725   0.050  1.00  0.00     0.010 C 
BRANCH  30  32
ATOM     32  C   UNL     1      -6.801  16.991   1.005  1.00  0.00     0.002 C 
ATOM     33  C   UNL     1      -7.881  15.979   0.643  1.00  0.00     0.004 C 
ENDBRANCH  30  32
ENDBRANCH  12  30
ENDBRANCH  10  12
ENDBRANCH   1  10
BRANCH   5  34
ATOM     34  C   UNL     1      -2.445  14.008   4.432  1.00  0.00     0.242 C 
ATOM     35  O   UNL     1      -2.666  13.667   5.594  1.00  0.00    -0.273 OA
ATOM     36  N   UNL     1      -1.896  15.230   4.112  1.00  0.00    -0.354 N 
ATOM     37  H   UNL     1      -1.849  15.505   3.131  1.00  0.00     0.163 HD
BRANCH  36  38
ATOM     38  C   UNL     1      -1.293  16.091   5.108  1.00  0.00     0.116 C 
BRANCH  38  39
ATOM     39  C   UNL     1      -0.375  17.105   4.429  1.00  0.00     0.023 C 
BRANCH  39  40
ATOM     40  C   UNL     1      -0.457  18.486   5.071  1.00  0.00     0.026 C 
BRANCH  40  41
ATOM     41  C   UNL     1      -0.637  19.569   4.008  1.00  0.00     0.146 C 
BRANCH  41  42
ATOM     42  N   UNL     1      -0.486  18.986   2.681  1.00  0.00    -0.254 NA
ATOM     43  C   UNL     1      -1.340  19.259   1.768  1.00  0.00     0.185 C 
ATOM     44  N   UNL     1      -2.432  20.045   1.811  1.00  0.00    -0.370 N 
ATOM     45  N   UNL     1      -1.185  18.708   0.553  1.00  0.00    -0.370 N 
ATOM     46  H   UNL     1      -3.141  19.976   1.102  1.00  0.00     0.159 HD
ATOM     47  H   UNL     1      -2.691  20.551   2.652  1.00  0.00     0.159 HD
ATOM     48  H   UNL     1      -0.380  18.108   0.432  1.00  0.00     0.159 HD
ATOM     49  H   UNL     1      -1.659  19.050  -0.264  1.00  0.00     0.159 HD
ENDBRANCH  41  42
ENDBRANCH  40  41
ENDBRANCH  39  40
ENDBRANCH  38  39
ENDBRANCH  36  38
ENDBRANCH   5  34
BRANCH   8  50
ATOM     50  O   UNL     1       0.897  15.637   1.478  1.00  0.00    -0.245 OA
BRANCH  50  51
ATOM     51  S   UNL     1       2.112  16.699   1.278  1.00  0.00     0.397 S 
ATOM     52  O   UNL     1       3.171  16.034   0.552  1.00  0.00    -0.169 OA
ATOM     53  O   UNL     1       2.365  17.390   2.526  1.00  0.00    -0.169 OA
BRANCH  51  54
ATOM     54  O   UNL     1       1.470  17.754   0.249  1.00  0.00    -0.264 OA
ATOM     55  H   UNL     1       2.113  17.893  -0.476  1.00  0.00     0.236 HD
ENDBRANCH  51  54
ENDBRANCH  50  51
ENDBRANCH   8  50
TORSDOF 19
ENDMDL
MODEL 21
REMARK VINA RESULT:    -6.821      3.384      7.829
REMARK INTER + INTRA:         -17.411
REMARK INTER:                 -13.239
REMARK INTRA:                  -4.172
REMARK UNBOUND:                -3.611
REMARK SMILES CC[C@@H](C)[C@@H](NC(=O)[C@@H](O)Cc1ccc(O)c(Cl)c1)C(=O)N1[C@H](C(=O)NCCCCN=C(N)N)C[C@H]2CC[C@H](OS(=O)(=O)O)C[C@@H]21
REMARK SMILES IDX 22 1 36 2 46 3 35 4 23 5 45 6 37 7 39 8 38 9 20 10 21 11
REMARK SMILES IDX 5 12 6 13 7 14 8 15 9 17 11 18 12 19 17 20 19 21 15 22 14 23
REMARK SMILES IDX 13 24 18 25 16 26 10 28 3 30 4 31 2 32 1 33 24 34 25 35
REMARK SMILES IDX 26 36 27 38 28 39 29 40 30 41 31 42 32 43 33 44 34 45 40 50
REMARK SMILES IDX 41 51 42 52 43 53 44 54
REMARK H PARENT 6 16 16 27 10 29 26 37 33 46 33 47 34 48 34 49 44 55
ROOT
ATOM      1  N   UNL     1      -4.101  15.892   3.589  1.00  0.00    -0.326 N 
ATOM      2  C   UNL     1      -4.332  15.989   1.249  1.00  0.00     0.014 C 
ATOM      3  C   UNL     1      -4.351  16.854   2.512  1.00  0.00     0.091 C 
ATOM      4  C   UNL     1      -4.937  14.679   1.730  1.00  0.00     0.041 C 
ATOM      5  C   UNL     1      -4.188  14.507   3.064  1.00  0.00     0.175 C 
ATOM      6  C   UNL     1      -3.364  18.005   2.324  1.00  0.00     0.059 C 
ATOM      7  C   UNL     1      -4.969  16.718   0.082  1.00  0.00     0.008 C 
ATOM      8  C   UNL     1      -3.229  18.475   0.860  1.00  0.00     0.143 C 
ATOM      9  C   UNL     1      -4.504  18.188   0.040  1.00  0.00     0.034 C 
ENDROOT
BRANCH   1  10
ATOM     10  C   UNL     1      -4.025  16.092   4.957  1.00  0.00     0.246 C 
ATOM     11  O   UNL     1      -2.934  16.374   5.464  1.00  0.00    -0.272 OA
BRANCH  10  12
ATOM     12  C   UNL     1      -5.318  16.000   5.819  1.00  0.00     0.174 C 
BRANCH  12  13
ATOM     13  N   UNL     1      -5.382  14.698   6.483  1.00  0.00    -0.342 N 
ATOM     14  C   UNL     1      -5.121  14.478   7.817  1.00  0.00     0.249 C 
ATOM     15  O   UNL     1      -4.828  15.364   8.610  1.00  0.00    -0.272 OA
ATOM     16  H   UNL     1      -5.459  13.851   5.925  1.00  0.00     0.164 HD
BRANCH  14  17
ATOM     17  C   UNL     1      -5.257  12.992   8.212  1.00  0.00     0.207 C 
BRANCH  17  18
ATOM     18  C   UNL     1      -6.702  12.673   8.607  1.00  0.00     0.077 C 
BRANCH  18  19
ATOM     19  C   UNL     1      -7.456  11.997   7.484  1.00  0.00    -0.043 A 
ATOM     20  C   UNL     1      -9.534  11.553   6.314  1.00  0.00     0.083 A 
ATOM     21  C   UNL     1      -8.832  12.217   7.321  1.00  0.00     0.028 A 
ATOM     22  C   UNL     1      -8.868  10.667   5.467  1.00  0.00     0.134 A 
ATOM     23  C   UNL     1      -7.505  10.441   5.616  1.00  0.00     0.048 A 
ATOM     24  C   UNL     1      -6.800  11.102   6.624  1.00  0.00     0.008 A 
ATOM     25  Cl  UNL     1     -11.225  11.836   6.131  1.00  0.00    -0.080 Cl
BRANCH  22  26
ATOM     26  O   UNL     1      -9.515   9.986   4.472  1.00  0.00    -0.506 OA
ATOM     27  H   UNL     1      -9.147  10.305   3.628  1.00  0.00     0.293 HD
ENDBRANCH  22  26
ENDBRANCH  18  19
ENDBRANCH  17  18
BRANCH  17  28
ATOM     28  O   UNL     1      -4.382  12.665   9.304  1.00  0.00    -0.383 OA
ATOM     29  H   UNL     1      -3.992  11.788   9.086  1.00  0.00     0.211 HD
ENDBRANCH  17  28
ENDBRANCH  14  17
ENDBRANCH  12  13
BRANCH  12  30
ATOM     30  C   UNL     1      -6.603  16.315   5.007  1.00  0.00     0.018 C 
ATOM     31  C   UNL     1      -7.112  17.731   5.319  1.00  0.00     0.010 C 
BRANCH  30  32
ATOM     32  C   UNL     1      -7.738  15.284   5.216  1.00  0.00     0.002 C 
ATOM     33  C   UNL     1      -7.787  14.154   4.196  1.00  0.00     0.004 C 
ENDBRANCH  30  32
ENDBRANCH  12  30
ENDBRANCH  10  12
ENDBRANCH   1  10
BRANCH   5  34
ATOM     34  C   UNL     1      -2.772  13.909   2.852  1.00  0.00     0.242 C 
ATOM     35  O   UNL     1      -1.748  14.580   2.980  1.00  0.00    -0.273 OA
ATOM     36  N   UNL     1      -2.746  12.590   2.458  1.00  0.00    -0.354 N 
ATOM     37  H   UNL     1      -3.629  12.121   2.252  1.00  0.00     0.163 HD
BRANCH  36  38
ATOM     38  C   UNL     1      -1.522  11.817   2.424  1.00  0.00     0.116 C 
BRANCH  38  39
ATOM     39  C   UNL     1      -1.317  11.231   1.029  1.00  0.00     0.023 C 
BRANCH  39  40
ATOM     40  C   UNL     1       0.044  11.587   0.441  1.00  0.00     0.026 C 
BRANCH  40  41
ATOM     41  C   UNL     1       0.577  12.883   1.053  1.00  0.00     0.146 C 
BRANCH  41  42
ATOM     42  N   UNL     1       1.061  13.763  -0.002  1.00  0.00    -0.254 NA
ATOM     43  C   UNL     1       1.741  14.803   0.303  1.00  0.00     0.185 C 
ATOM     44  N   UNL     1       2.120  15.266   1.509  1.00  0.00    -0.370 N 
ATOM     45  N   UNL     1       2.174  15.604  -0.684  1.00  0.00    -0.370 N 
ATOM     46  H   UNL     1       2.436  16.214   1.618  1.00  0.00     0.159 HD
ATOM     47  H   UNL     1       1.888  14.773   2.366  1.00  0.00     0.159 HD
ATOM     48  H   UNL     1       1.939  15.323  -1.626  1.00  0.00     0.159 HD
ATOM     49  H   UNL     1       2.897  16.289  -0.551  1.00  0.00     0.159 HD
ENDBRANCH  41  42
ENDBRANCH  40  41
ENDBRANCH  39  40
ENDBRANCH  38  39
ENDBRANCH  36  38
ENDBRANCH   5  34
BRANCH   8  50
ATOM     50  O   UNL     1      -2.129  17.817   0.232  1.00  0.00    -0.245 OA
BRANCH  50  51
ATOM     51  S   UNL     1      -0.610  18.183   0.685  1.00  0.00     0.397 S 
ATOM     52  O   UNL     1      -0.636  19.477   1.329  1.00  0.00    -0.169 OA
ATOM     53  O   UNL     1       0.304  17.892  -0.400  1.00  0.00    -0.169 OA
BRANCH  51  54
ATOM     54  O   UNL     1      -0.343  17.116   1.858  1.00  0.00    -0.264 OA
ATOM     55  H   UNL     1      -1.196  16.685   2.070  1.00  0.00     0.236 HD
ENDBRANCH  51  54
ENDBRANCH  50  51
ENDBRANCH   8  50
TORSDOF 19
ENDMDL
MODEL 22
REMARK VINA RESULT:    -6.794      3.701      8.625
REMARK INTER + INTRA:         -17.355
REMARK INTER:                 -14.083
REMARK INTRA:                  -3.272
REMARK UNBOUND:                -3.611
REMARK SMILES CC[C@@H](C)[C@@H](NC(=O)[C@@H](O)Cc1ccc(O)c(Cl)c1)C(=O)N1[C@H](C(=O)NCCCCN=C(N)N)C[C@H]2CC[C@H](OS(=O)(=O)O)C[C@@H]21
REMARK SMILES IDX 22 1 36 2 46 3 35 4 23 5 45 6 37 7 39 8 38 9 20 10 21 11
REMARK SMILES IDX 5 12 6 13 7 14 8 15 9 17 11 18 12 19 17 20 19 21 15 22 14 23
REMARK SMILES IDX 13 24 18 25 16 26 10 28 3 30 4 31 2 32 1 33 24 34 25 35
REMARK SMILES IDX 26 36 27 38 28 39 29 40 30 41 31 42 32 43 33 44 34 45 40 50
REMARK SMILES IDX 41 51 42 52 43 53 44 54
REMARK H PARENT 6 16 16 27 10 29 26 37 33 46 33 47 34 48 34 49 44 55
ROOT
ATOM      1  N   UNL     1      -1.738  15.931   0.548  1.00  0.00    -0.326 N 
ATOM      2  C   UNL     1      -2.266  17.484  -1.140  1.00  0.00     0.014 C 
ATOM      3  C   UNL     1      -2.896  16.554  -0.100  1.00  0.00     0.091 C 
ATOM      4  C   UNL     1      -1.033  16.710  -1.579  1.00  0.00     0.041 C 
ATOM      5  C   UNL     1      -0.502  16.245  -0.211  1.00  0.00     0.175 C 
ATOM      6  C   UNL     1      -3.854  17.373   0.763  1.00  0.00     0.059 C 
ATOM      7  C   UNL     1      -3.287  17.907  -2.178  1.00  0.00     0.008 C 
ATOM      8  C   UNL     1      -4.529  18.539   0.008  1.00  0.00     0.143 C 
ATOM      9  C   UNL     1      -4.629  18.267  -1.507  1.00  0.00     0.034 C 
ENDROOT
BRANCH   1  10
ATOM     10  C   UNL     1      -1.688  14.984   1.557  1.00  0.00     0.246 C 
ATOM     11  O   UNL     1      -0.942  15.174   2.523  1.00  0.00    -0.272 OA
BRANCH  10  12
ATOM     12  C   UNL     1      -2.602  13.727   1.475  1.00  0.00     0.174 C 
BRANCH  12  13
ATOM     13  N   UNL     1      -3.579  13.748   2.563  1.00  0.00    -0.342 N 
ATOM     14  C   UNL     1      -4.908  14.080   2.425  1.00  0.00     0.249 C 
ATOM     15  O   UNL     1      -5.432  14.370   1.357  1.00  0.00    -0.272 OA
ATOM     16  H   UNL     1      -3.261  13.684   3.527  1.00  0.00     0.164 HD
BRANCH  14  17
ATOM     17  C   UNL     1      -5.677  14.026   3.763  1.00  0.00     0.207 C 
BRANCH  17  18
ATOM     18  C   UNL     1      -7.013  14.767   3.643  1.00  0.00     0.077 C 
BRANCH  18  19
ATOM     19  C   UNL     1      -8.185  13.812   3.624  1.00  0.00    -0.043 A 
ATOM     20  C   UNL     1      -9.602  12.199   4.753  1.00  0.00     0.083 A 
ATOM     21  C   UNL     1      -8.552  13.117   4.787  1.00  0.00     0.028 A 
ATOM     22  C   UNL     1     -10.291  11.969   3.561  1.00  0.00     0.134 A 
ATOM     23  C   UNL     1      -9.938  12.651   2.402  1.00  0.00     0.048 A 
ATOM     24  C   UNL     1      -8.886  13.568   2.432  1.00  0.00     0.008 A 
ATOM     25  Cl  UNL     1     -10.038  11.355   6.193  1.00  0.00    -0.080 Cl
BRANCH  22  26
ATOM     26  O   UNL     1     -11.321  11.072   3.477  1.00  0.00    -0.506 OA
ATOM     27  H   UNL     1     -11.210  10.448   4.218  1.00  0.00     0.293 HD
ENDBRANCH  22  26
ENDBRANCH  18  19
ENDBRANCH  17  18
BRANCH  17  28
ATOM     28  O   UNL     1      -4.905  14.605   4.827  1.00  0.00    -0.383 OA
ATOM     29  H   UNL     1      -4.750  15.543   4.571  1.00  0.00     0.211 HD
ENDBRANCH  17  28
ENDBRANCH  14  17
ENDBRANCH  12  13
BRANCH  12  30
ATOM     30  C   UNL     1      -1.796  12.401   1.429  1.00  0.00     0.018 C 
ATOM     31  C   UNL     1      -1.656  11.798   2.836  1.00  0.00     0.010 C 
BRANCH  30  32
ATOM     32  C   UNL     1      -0.402  12.544   0.771  1.00  0.00     0.002 C 
ATOM     33  C   UNL     1       0.276  11.234   0.391  1.00  0.00     0.004 C 
ENDBRANCH  30  32
ENDBRANCH  12  30
ENDBRANCH  10  12
ENDBRANCH   1  10
BRANCH   5  34
ATOM     34  C   UNL     1       0.309  17.362   0.498  1.00  0.00     0.242 C 
ATOM     35  O   UNL     1       0.093  18.558   0.301  1.00  0.00    -0.273 OA
ATOM     36  N   UNL     1       1.322  16.920   1.319  1.00  0.00    -0.354 N 
ATOM     37  H   UNL     1       1.530  15.921   1.348  1.00  0.00     0.163 HD
BRANCH  36  38
ATOM     38  C   UNL     1       2.032  17.806   2.217  1.00  0.00     0.116 C 
BRANCH  38  39
ATOM     39  C   UNL     1       1.519  17.620   3.643  1.00  0.00     0.023 C 
BRANCH  39  40
ATOM     40  C   UNL     1       0.732  18.828   4.142  1.00  0.00     0.026 C 
BRANCH  40  41
ATOM     41  C   UNL     1      -0.513  18.384   4.910  1.00  0.00     0.146 C 
BRANCH  41  42
ATOM     42  N   UNL     1      -0.363  16.998   5.332  1.00  0.00    -0.254 NA
ATOM     43  C   UNL     1      -1.368  16.207   5.278  1.00  0.00     0.185 C 
ATOM     44  N   UNL     1      -2.630  16.439   4.873  1.00  0.00    -0.370 N 
ATOM     45  N   UNL     1      -1.211  14.934   5.677  1.00  0.00    -0.370 N 
ATOM     46  H   UNL     1      -3.371  15.802   5.112  1.00  0.00     0.159 HD
ATOM     47  H   UNL     1      -2.920  17.348   4.526  1.00  0.00     0.159 HD
ATOM     48  H   UNL     1      -0.285  14.674   5.990  1.00  0.00     0.159 HD
ATOM     49  H   UNL     1      -1.865  14.207   5.447  1.00  0.00     0.159 HD
ENDBRANCH  41  42
ENDBRANCH  40  41
ENDBRANCH  39  40
ENDBRANCH  38  39
ENDBRANCH  36  38
ENDBRANCH   5  34
BRANCH   8  50
ATOM     50  O   UNL     1      -3.788  19.744   0.204  1.00  0.00    -0.245 OA
BRANCH  50  51
ATOM     51  S   UNL     1      -4.579  21.157   0.356  1.00  0.00     0.397 S 
ATOM     52  O   UNL     1      -4.538  21.831  -0.923  1.00  0.00    -0.169 OA
ATOM     53  O   UNL     1      -4.165  21.817   1.576  1.00  0.00    -0.169 OA
BRANCH  51  54
ATOM     54  O   UNL     1      -6.100  20.671   0.546  1.00  0.00    -0.264 OA
ATOM     55  H   UNL     1      -6.473  21.154   1.312  1.00  0.00     0.236 HD
ENDBRANCH  51  54
ENDBRANCH  50  51
ENDBRANCH   8  50
TORSDOF 19
ENDMDL
MODEL 23
REMARK VINA RESULT:    -6.791      3.480      7.283
REMARK INTER + INTRA:         -17.349
REMARK INTER:                 -12.213
REMARK INTRA:                  -5.137
REMARK UNBOUND:                -3.611
REMARK SMILES CC[C@@H](C)[C@@H](NC(=O)[C@@H](O)Cc1ccc(O)c(Cl)c1)C(=O)N1[C@H](C(=O)NCCCCN=C(N)N)C[C@H]2CC[C@H](OS(=O)(=O)O)C[C@@H]21
REMARK SMILES IDX 22 1 36 2 46 3 35 4 23 5 45 6 37 7 39 8 38 9 20 10 21 11
REMARK SMILES IDX 5 12 6 13 7 14 8 15 9 17 11 18 12 19 17 20 19 21 15 22 14 23
REMARK SMILES IDX 13 24 18 25 16 26 10 28 3 30 4 31 2 32 1 33 24 34 25 35
REMARK SMILES IDX 26 36 27 38 28 39 29 40 30 41 31 42 32 43 33 44 34 45 40 50
REMARK SMILES IDX 41 51 42 52 43 53 44 54
REMARK H PARENT 6 16 16 27 10 29 26 37 33 46 33 47 34 48 34 49 44 55
ROOT
ATOM      1  N   UNL     1      -2.390  14.388   1.198  1.00  0.00    -0.326 N 
ATOM      2  C   UNL     1      -0.166  13.617   1.133  1.00  0.00     0.014 C 
ATOM      3  C   UNL     1      -1.145  14.575   0.447  1.00  0.00     0.091 C 
ATOM      4  C   UNL     1      -1.060  12.452   1.529  1.00  0.00     0.041 C 
ATOM      5  C   UNL     1      -2.268  13.216   2.100  1.00  0.00     0.175 C 
ATOM      6  C   UNL     1      -0.519  15.967   0.418  1.00  0.00     0.059 C 
ATOM      7  C   UNL     1       1.045  13.362   0.258  1.00  0.00     0.008 C 
ATOM      8  C   UNL     1       1.022  15.954   0.309  1.00  0.00     0.143 C 
ATOM      9  C   UNL     1       1.542  14.676  -0.380  1.00  0.00     0.034 C 
ENDROOT
BRANCH   1  10
ATOM     10  C   UNL     1      -3.630  14.976   1.021  1.00  0.00     0.246 C 
ATOM     11  O   UNL     1      -4.648  14.324   1.279  1.00  0.00    -0.272 OA
BRANCH  10  12
ATOM     12  C   UNL     1      -3.717  16.455   0.543  1.00  0.00     0.174 C 
BRANCH  12  13
ATOM     13  N   UNL     1      -3.646  17.356   1.693  1.00  0.00    -0.342 N 
ATOM     14  C   UNL     1      -2.843  18.472   1.774  1.00  0.00     0.249 C 
ATOM     15  O   UNL     1      -2.112  18.853   0.869  1.00  0.00    -0.272 OA
ATOM     16  H   UNL     1      -4.075  17.083   2.574  1.00  0.00     0.164 HD
BRANCH  14  17
ATOM     17  C   UNL     1      -2.980  19.206   3.125  1.00  0.00     0.207 C 
BRANCH  17  18
ATOM     18  C   UNL     1      -3.775  20.504   2.951  1.00  0.00     0.077 C 
BRANCH  18  19
ATOM     19  C   UNL     1      -5.263  20.244   2.866  1.00  0.00    -0.043 A 
ATOM     20  C   UNL     1      -7.230  19.030   3.599  1.00  0.00     0.083 A 
ATOM     21  C   UNL     1      -5.867  19.303   3.714  1.00  0.00     0.028 A 
ATOM     22  C   UNL     1      -7.997  19.692   2.639  1.00  0.00     0.134 A 
ATOM     23  C   UNL     1      -7.411  20.627   1.794  1.00  0.00     0.048 A 
ATOM     24  C   UNL     1      -6.046  20.901   1.905  1.00  0.00     0.008 A 
ATOM     25  Cl  UNL     1      -7.955  17.870   4.650  1.00  0.00    -0.080 Cl
BRANCH  22  26
ATOM     26  O   UNL     1      -9.335  19.450   2.482  1.00  0.00    -0.506 OA
ATOM     27  H   UNL     1      -9.778  19.805   3.275  1.00  0.00     0.293 HD
ENDBRANCH  22  26
ENDBRANCH  18  19
ENDBRANCH  17  18
BRANCH  17  28
ATOM     28  O   UNL     1      -1.691  19.509   3.682  1.00  0.00    -0.383 OA
ATOM     29  H   UNL     1      -1.692  20.477   3.860  1.00  0.00     0.211 HD
ENDBRANCH  17  28
ENDBRANCH  14  17
ENDBRANCH  12  13
BRANCH  12  30
ATOM     30  C   UNL     1      -4.960  16.727  -0.346  1.00  0.00     0.018 C 
ATOM     31  C   UNL     1      -4.570  17.523  -1.602  1.00  0.00     0.010 C 
BRANCH  30  32
ATOM     32  C   UNL     1      -6.113  17.441   0.400  1.00  0.00     0.002 C 
ATOM     33  C   UNL     1      -7.328  16.573   0.704  1.00  0.00     0.004 C 
ENDBRANCH  30  32
ENDBRANCH  12  30
ENDBRANCH  10  12
ENDBRANCH   1  10
BRANCH   5  34
ATOM     34  C   UNL     1      -2.017  13.671   3.563  1.00  0.00     0.242 C 
ATOM     35  O   UNL     1      -1.556  12.915   4.418  1.00  0.00    -0.273 OA
ATOM     36  N   UNL     1      -2.397  14.964   3.847  1.00  0.00    -0.354 N 
ATOM     37  H   UNL     1      -2.883  15.502   3.129  1.00  0.00     0.163 HD
BRANCH  36  38
ATOM     38  C   UNL     1      -2.041  15.619   5.089  1.00  0.00     0.116 C 
BRANCH  38  39
ATOM     39  C   UNL     1      -3.300  16.135   5.781  1.00  0.00     0.023 C 
BRANCH  39  40
ATOM     40  C   UNL     1      -4.533  16.052   4.887  1.00  0.00     0.026 C 
BRANCH  40  41
ATOM     41  C   UNL     1      -5.576  15.109   5.488  1.00  0.00     0.146 C 
BRANCH  41  42
ATOM     42  N   UNL     1      -4.977  13.803   5.731  1.00  0.00    -0.254 NA
ATOM     43  C   UNL     1      -5.135  12.866   4.874  1.00  0.00     0.185 C 
ATOM     44  N   UNL     1      -5.800  12.865   3.704  1.00  0.00    -0.370 N 
ATOM     45  N   UNL     1      -4.579  11.667   5.118  1.00  0.00    -0.370 N 
ATOM     46  H   UNL     1      -6.047  12.000   3.255  1.00  0.00     0.159 HD
ATOM     47  H   UNL     1      -6.270  13.696   3.358  1.00  0.00     0.159 HD
ATOM     48  H   UNL     1      -4.052  11.585   5.977  1.00  0.00     0.159 HD
ATOM     49  H   UNL     1      -4.455  10.970   4.406  1.00  0.00     0.159 HD
ENDBRANCH  41  42
ENDBRANCH  40  41
ENDBRANCH  39  40
ENDBRANCH  38  39
ENDBRANCH  36  38
ENDBRANCH   5  34
BRANCH   8  50
ATOM     50  O   UNL     1       1.606  16.038   1.609  1.00  0.00    -0.245 OA
BRANCH  50  51
ATOM     51  S   UNL     1       1.317  17.343   2.536  1.00  0.00     0.397 S 
ATOM     52  O   UNL     1       2.572  17.763   3.118  1.00  0.00    -0.169 OA
ATOM     53  O   UNL     1       0.142  17.111   3.350  1.00  0.00    -0.169 OA
BRANCH  51  54
ATOM     54  O   UNL     1       0.948  18.459   1.439  1.00  0.00    -0.264 OA
ATOM     55  H   UNL     1       1.750  18.628   0.904  1.00  0.00     0.236 HD
ENDBRANCH  51  54
ENDBRANCH  50  51
ENDBRANCH   8  50
TORSDOF 19
ENDMDL
MODEL 24
REMARK VINA RESULT:    -6.765      3.429      7.683
REMARK INTER + INTRA:         -17.298
REMARK INTER:                 -12.782
REMARK INTRA:                  -4.516
REMARK UNBOUND:                -3.611
REMARK SMILES CC[C@@H](C)[C@@H](NC(=O)[C@@H](O)Cc1ccc(O)c(Cl)c1)C(=O)N1[C@H](C(=O)NCCCCN=C(N)N)C[C@H]2CC[C@H](OS(=O)(=O)O)C[C@@H]21
REMARK SMILES IDX 22 1 36 2 46 3 35 4 23 5 45 6 37 7 39 8 38 9 20 10 21 11
REMARK SMILES IDX 5 12 6 13 7 14 8 15 9 17 11 18 12 19 17 20 19 21 15 22 14 23
REMARK SMILES IDX 13 24 18 25 16 26 10 28 3 30 4 31 2 32 1 33 24 34 25 35
REMARK SMILES IDX 26 36 27 38 28 39 29 40 30 41 31 42 32 43 33 44 34 45 40 50
REMARK SMILES IDX 41 51 42 52 43 53 44 54
REMARK H PARENT 6 16 16 27 10 29 26 37 33 46 33 47 34 48 34 49 44 55
ROOT
ATOM      1  N   UNL     1      -3.570  14.877   3.952  1.00  0.00    -0.326 N 
ATOM      2  C   UNL     1      -4.284  16.798   2.793  1.00  0.00     0.014 C 
ATOM      3  C   UNL     1      -3.563  16.339   4.063  1.00  0.00     0.091 C 
ATOM      4  C   UNL     1      -5.323  15.707   2.585  1.00  0.00     0.041 C 
ATOM      5  C   UNL     1      -4.460  14.457   2.841  1.00  0.00     0.175 C 
ATOM      6  C   UNL     1      -2.214  17.052   4.137  1.00  0.00     0.059 C 
ATOM      7  C   UNL     1      -4.736  18.240   2.918  1.00  0.00     0.008 C 
ATOM      8  C   UNL     1      -2.224  18.466   3.516  1.00  0.00     0.143 C 
ATOM      9  C   UNL     1      -3.627  19.105   3.553  1.00  0.00     0.034 C 
ENDROOT
BRANCH   1  10
ATOM     10  C   UNL     1      -3.075  13.918   4.819  1.00  0.00     0.246 C 
ATOM     11  O   UNL     1      -1.921  13.507   4.664  1.00  0.00    -0.272 OA
BRANCH  10  12
ATOM     12  C   UNL     1      -3.964  13.412   5.992  1.00  0.00     0.174 C 
BRANCH  12  13
ATOM     13  N   UNL     1      -5.246  12.934   5.476  1.00  0.00    -0.342 N 
ATOM     14  C   UNL     1      -5.508  11.640   5.085  1.00  0.00     0.249 C 
ATOM     15  O   UNL     1      -4.692  10.729   5.154  1.00  0.00    -0.272 OA
ATOM     16  H   UNL     1      -5.966  13.604   5.216  1.00  0.00     0.164 HD
BRANCH  14  17
ATOM     17  C   UNL     1      -6.950  11.454   4.569  1.00  0.00     0.207 C 
BRANCH  17  18
ATOM     18  C   UNL     1      -7.920  12.339   5.358  1.00  0.00     0.077 C 
BRANCH  18  19
ATOM     19  C   UNL     1      -8.741  13.225   4.447  1.00  0.00    -0.043 A 
ATOM     20  C   UNL     1     -10.418  13.478   2.712  1.00  0.00     0.083 A 
ATOM     21  C   UNL     1      -9.698  12.663   3.587  1.00  0.00     0.028 A 
ATOM     22  C   UNL     1     -10.187  14.853   2.690  1.00  0.00     0.134 A 
ATOM     23  C   UNL     1      -9.243  15.423   3.536  1.00  0.00     0.048 A 
ATOM     24  C   UNL     1      -8.519  14.610   4.411  1.00  0.00     0.008 A 
ATOM     25  Cl  UNL     1     -11.589  12.769   1.663  1.00  0.00    -0.080 Cl
BRANCH  22  26
ATOM     26  O   UNL     1     -10.861  15.691   1.842  1.00  0.00    -0.506 OA
ATOM     27  H   UNL     1     -10.619  15.425   0.935  1.00  0.00     0.293 HD
ENDBRANCH  22  26
ENDBRANCH  18  19
ENDBRANCH  17  18
BRANCH  17  28
ATOM     28  O   UNL     1      -7.364  10.082   4.674  1.00  0.00    -0.383 OA
ATOM     29  H   UNL     1      -8.174   9.999   4.120  1.00  0.00     0.211 HD
ENDBRANCH  17  28
ENDBRANCH  14  17
ENDBRANCH  12  13
BRANCH  12  30
ATOM     30  C   UNL     1      -4.135  14.471   7.115  1.00  0.00     0.018 C 
ATOM     31  C   UNL     1      -4.223  13.796   8.493  1.00  0.00     0.010 C 
BRANCH  30  32
ATOM     32  C   UNL     1      -5.348  15.410   6.904  1.00  0.00     0.002 C 
ATOM     33  C   UNL     1      -6.263  15.572   8.111  1.00  0.00     0.004 C 
ENDBRANCH  30  32
ENDBRANCH  12  30
ENDBRANCH  10  12
ENDBRANCH   1  10
BRANCH   5  34
ATOM     34  C   UNL     1      -3.630  14.069   1.589  1.00  0.00     0.242 C 
ATOM     35  O   UNL     1      -3.612  14.761   0.571  1.00  0.00    -0.273 OA
ATOM     36  N   UNL     1      -2.960  12.869   1.679  1.00  0.00    -0.354 N 
ATOM     37  H   UNL     1      -3.110  12.283   2.501  1.00  0.00     0.163 HD
BRANCH  36  38
ATOM     38  C   UNL     1      -1.976  12.458   0.700  1.00  0.00     0.116 C 
BRANCH  38  39
ATOM     39  C   UNL     1      -0.898  11.610   1.373  1.00  0.00     0.023 C 
BRANCH  39  40
ATOM     40  C   UNL     1       0.505  11.959   0.889  1.00  0.00     0.026 C 
BRANCH  40  41
ATOM     41  C   UNL     1       0.513  13.316   0.184  1.00  0.00     0.146 C 
BRANCH  41  42
ATOM     42  N   UNL     1       1.210  14.295   1.008  1.00  0.00    -0.254 NA
ATOM     43  C   UNL     1       0.609  15.368   1.361  1.00  0.00     0.185 C 
ATOM     44  N   UNL     1      -0.641  15.788   1.092  1.00  0.00    -0.370 N 
ATOM     45  N   UNL     1       1.270  16.260   2.117  1.00  0.00    -0.370 N 
ATOM     46  H   UNL     1      -0.898  16.752   1.224  1.00  0.00     0.159 HD
ATOM     47  H   UNL     1      -1.285  15.228   0.542  1.00  0.00     0.159 HD
ATOM     48  H   UNL     1       2.217  16.016   2.372  1.00  0.00     0.159 HD
ATOM     49  H   UNL     1       0.807  16.993   2.623  1.00  0.00     0.159 HD
ENDBRANCH  41  42
ENDBRANCH  40  41
ENDBRANCH  39  40
ENDBRANCH  38  39
ENDBRANCH  36  38
ENDBRANCH   5  34
BRANCH   8  50
ATOM     50  O   UNL     1      -1.788  18.408   2.158  1.00  0.00    -0.245 OA
BRANCH  50  51
ATOM     51  S   UNL     1      -0.548  19.341   1.672  1.00  0.00     0.397 S 
ATOM     52  O   UNL     1      -0.970  20.722   1.752  1.00  0.00    -0.169 OA
ATOM     53  O   UNL     1       0.029  18.793   0.462  1.00  0.00    -0.169 OA
BRANCH  51  54
ATOM     54  O   UNL     1       0.513  19.138   2.863  1.00  0.00    -0.264 OA
ATOM     55  H   UNL     1       0.435  18.214   3.178  1.00  0.00     0.236 HD
ENDBRANCH  51  54
ENDBRANCH  50  51
ENDBRANCH   8  50
TORSDOF 19
ENDMDL
MODEL 25
REMARK VINA RESULT:    -6.750      3.757      8.396
REMARK INTER + INTRA:         -17.266
REMARK INTER:                 -14.150
REMARK INTRA:                  -3.116
REMARK UNBOUND:                -3.611
REMARK SMILES CC[C@@H](C)[C@@H](NC(=O)[C@@H](O)Cc1ccc(O)c(Cl)c1)C(=O)N1[C@H](C(=O)NCCCCN=C(N)N)C[C@H]2CC[C@H](OS(=O)(=O)O)C[C@@H]21
REMARK SMILES IDX 22 1 36 2 46 3 35 4 23 5 45 6 37 7 39 8 38 9 20 10 21 11
REMARK SMILES IDX 5 12 6 13 7 14 8 15 9 17 11 18 12 19 17 20 19 21 15 22 14 23
REMARK SMILES IDX 13 24 18 25 16 26 10 28 3 30 4 31 2 32 1 33 24 34 25 35
REMARK SMILES IDX 26 36 27 38 28 39 29 40 30 41 31 42 32 43 33 44 34 45 40 50
REMARK SMILES IDX 41 51 42 52 43 53 44 54
REMARK H PARENT 6 16 16 27 10 29 26 37 33 46 33 47 34 48 34 49 44 55
ROOT
ATOM      1  N   UNL     1      -2.408  16.192   0.974  1.00  0.00    -0.326 N 
ATOM      2  C   UNL     1      -3.110  18.105  -0.204  1.00  0.00     0.014 C 
ATOM      3  C   UNL     1      -3.270  17.367   1.128  1.00  0.00     0.091 C 
ATOM      4  C   UNL     1      -2.953  16.967  -1.201  1.00  0.00     0.041 C 
ATOM      5  C   UNL     1      -1.962  16.070  -0.436  1.00  0.00     0.175 C 
ATOM      6  C   UNL     1      -2.966  18.345   2.261  1.00  0.00     0.059 C 
ATOM      7  C   UNL     1      -4.222  19.117  -0.401  1.00  0.00     0.008 C 
ATOM      8  C   UNL     1      -3.347  19.807   1.940  1.00  0.00     0.143 C 
ATOM      9  C   UNL     1      -4.488  19.894   0.906  1.00  0.00     0.034 C 
ENDROOT
BRANCH   1  10
ATOM     10  C   UNL     1      -2.165  15.149   1.851  1.00  0.00     0.246 C 
ATOM     11  O   UNL     1      -1.371  15.319   2.783  1.00  0.00    -0.272 OA
BRANCH  10  12
ATOM     12  C   UNL     1      -2.924  13.802   1.672  1.00  0.00     0.174 C 
BRANCH  12  13
ATOM     13  N   UNL     1      -4.136  13.800   2.491  1.00  0.00    -0.342 N 
ATOM     14  C   UNL     1      -5.343  14.348   2.119  1.00  0.00     0.249 C 
ATOM     15  O   UNL     1      -5.545  14.879   1.035  1.00  0.00    -0.272 OA
ATOM     16  H   UNL     1      -4.080  13.536   3.472  1.00  0.00     0.164 HD
BRANCH  14  17
ATOM     17  C   UNL     1      -6.425  14.201   3.210  1.00  0.00     0.207 C 
BRANCH  17  18
ATOM     18  C   UNL     1      -7.238  12.921   2.989  1.00  0.00     0.077 C 
BRANCH  18  19
ATOM     19  C   UNL     1      -7.506  12.195   4.288  1.00  0.00    -0.043 A 
ATOM     20  C   UNL     1      -9.031  11.552   6.062  1.00  0.00     0.083 A 
ATOM     21  C   UNL     1      -8.797  12.181   4.838  1.00  0.00     0.028 A 
ATOM     22  C   UNL     1      -7.980  10.936   6.743  1.00  0.00     0.134 A 
ATOM     23  C   UNL     1      -6.697  10.943   6.209  1.00  0.00     0.048 A 
ATOM     24  C   UNL     1      -6.459  11.573   4.986  1.00  0.00     0.008 A 
ATOM     25  Cl  UNL     1     -10.625  11.545   6.721  1.00  0.00    -0.080 Cl
BRANCH  22  26
ATOM     26  O   UNL     1      -8.159  10.317   7.950  1.00  0.00    -0.506 OA
ATOM     27  H   UNL     1      -9.101  10.069   8.001  1.00  0.00     0.293 HD
ENDBRANCH  22  26
ENDBRANCH  18  19
ENDBRANCH  17  18
BRANCH  17  28
ATOM     28  O   UNL     1      -7.310  15.332   3.216  1.00  0.00    -0.383 OA
ATOM     29  H   UNL     1      -8.223  14.964   3.221  1.00  0.00     0.211 HD
ENDBRANCH  17  28
ENDBRANCH  14  17
ENDBRANCH  12  13
BRANCH  12  30
ATOM     30  C   UNL     1      -2.025  12.566   1.940  1.00  0.00     0.018 C 
ATOM     31  C   UNL     1      -1.990  12.231   3.439  1.00  0.00     0.010 C 
BRANCH  30  32
ATOM     32  C   UNL     1      -0.584  12.715   1.394  1.00  0.00     0.002 C 
ATOM     33  C   UNL     1      -0.034  11.495   0.667  1.00  0.00     0.004 C 
ENDBRANCH  30  32
ENDBRANCH  12  30
ENDBRANCH  10  12
ENDBRANCH   1  10
BRANCH   5  34
ATOM     34  C   UNL     1      -0.500  16.567  -0.596  1.00  0.00     0.242 C 
ATOM     35  O   UNL     1      -0.192  17.462  -1.381  1.00  0.00    -0.273 OA
ATOM     36  N   UNL     1       0.432  15.896   0.164  1.00  0.00    -0.354 N 
ATOM     37  H   UNL     1       0.133  15.084   0.705  1.00  0.00     0.163 HD
BRANCH  36  38
ATOM     38  C   UNL     1       1.796  16.363   0.303  1.00  0.00     0.116 C 
BRANCH  38  39
ATOM     39  C   UNL     1       2.122  16.582   1.778  1.00  0.00     0.023 C 
BRANCH  39  40
ATOM     40  C   UNL     1       1.235  17.645   2.419  1.00  0.00     0.026 C 
BRANCH  40  41
ATOM     41  C   UNL     1       1.603  17.843   3.890  1.00  0.00     0.146 C 
BRANCH  41  42
ATOM     42  N   UNL     1       0.472  18.417   4.607  1.00  0.00    -0.254 NA
ATOM     43  C   UNL     1      -0.325  17.650   5.251  1.00  0.00     0.185 C 
ATOM     44  N   UNL     1      -0.308  16.313   5.399  1.00  0.00    -0.370 N 
ATOM     45  N   UNL     1      -1.364  18.199   5.902  1.00  0.00    -0.370 N 
ATOM     46  H   UNL     1      -1.124  15.822   5.723  1.00  0.00     0.159 HD
ATOM     47  H   UNL     1       0.419  15.740   4.983  1.00  0.00     0.159 HD
ATOM     48  H   UNL     1      -1.445  19.205   5.849  1.00  0.00     0.159 HD
ATOM     49  H   UNL     1      -1.882  17.709   6.609  1.00  0.00     0.159 HD
ENDBRANCH  41  42
ENDBRANCH  40  41
ENDBRANCH  39  40
ENDBRANCH  38  39
ENDBRANCH  36  38
ENDBRANCH   5  34
BRANCH   8  50
ATOM     50  O   UNL     1      -2.214  20.507   1.425  1.00  0.00    -0.245 OA
BRANCH  50  51
ATOM     51  S   UNL     1      -1.490  21.643   2.337  1.00  0.00     0.397 S 
ATOM     52  O   UNL     1      -2.384  21.981   3.421  1.00  0.00    -0.169 OA
ATOM     53  O   UNL     1      -0.916  22.660   1.480  1.00  0.00    -0.169 OA
BRANCH  51  54
ATOM     54  O   UNL     1      -0.283  20.818   3.005  1.00  0.00    -0.264 OA
ATOM     55  H   UNL     1      -0.465  19.864   2.876  1.00  0.00     0.236 HD
ENDBRANCH  51  54
ENDBRANCH  50  51
ENDBRANCH   8  50
TORSDOF 19
ENDMDL
MODEL 26
REMARK VINA RESULT:    -6.743      2.905      7.871
REMARK INTER + INTRA:         -17.253
REMARK INTER:                 -12.227
REMARK INTRA:                  -5.026
REMARK UNBOUND:                -3.611
REMARK SMILES CC[C@@H](C)[C@@H](NC(=O)[C@@H](O)Cc1ccc(O)c(Cl)c1)C(=O)N1[C@H](C(=O)NCCCCN=C(N)N)C[C@H]2CC[C@H](OS(=O)(=O)O)C[C@@H]21
REMARK SMILES IDX 22 1 36 2 46 3 35 4 23 5 45 6 37 7 39 8 38 9 20 10 21 11
REMARK SMILES IDX 5 12 6 13 7 14 8 15 9 17 11 18 12 19 17 20 19 21 15 22 14 23
REMARK SMILES IDX 13 24 18 25 16 26 10 28 3 30 4 31 2 32 1 33 24 34 25 35
REMARK SMILES IDX 26 36 27 38 28 39 29 40 30 41 31 42 32 43 33 44 34 45 40 50
REMARK SMILES IDX 41 51 42 52 43 53 44 54
REMARK H PARENT 6 16 16 27 10 29 26 37 33 46 33 47 34 48 34 49 44 55
ROOT
ATOM      1  N   UNL     1      -1.169  16.869   1.395  1.00  0.00    -0.326 N 
ATOM      2  C   UNL     1      -2.999  18.298   1.008  1.00  0.00     0.014 C 
ATOM      3  C   UNL     1      -2.282  17.061   0.461  1.00  0.00     0.091 C 
ATOM      4  C   UNL     1      -1.853  19.135   1.555  1.00  0.00     0.041 C 
ATOM      5  C   UNL     1      -1.048  18.048   2.289  1.00  0.00     0.175 C 
ATOM      6  C   UNL     1      -3.304  15.935   0.313  1.00  0.00     0.059 C 
ATOM      7  C   UNL     1      -3.923  18.894  -0.036  1.00  0.00     0.008 C 
ATOM      8  C   UNL     1      -4.727  16.430  -0.029  1.00  0.00     0.143 C 
ATOM      9  C   UNL     1      -4.708  17.784  -0.766  1.00  0.00     0.034 C 
ENDROOT
BRANCH   1  10
ATOM     10  C   UNL     1      -0.166  15.915   1.398  1.00  0.00     0.246 C 
ATOM     11  O   UNL     1       1.014  16.282   1.404  1.00  0.00    -0.272 OA
BRANCH  10  12
ATOM     12  C   UNL     1      -0.543  14.406   1.436  1.00  0.00     0.174 C 
BRANCH  12  13
ATOM     13  N   UNL     1      -1.093  14.062   2.747  1.00  0.00    -0.342 N 
ATOM     14  C   UNL     1      -2.271  13.381   2.957  1.00  0.00     0.249 C 
ATOM     15  O   UNL     1      -2.984  12.959   2.055  1.00  0.00    -0.272 OA
ATOM     16  H   UNL     1      -0.696  14.480   3.585  1.00  0.00     0.164 HD
BRANCH  14  17
ATOM     17  C   UNL     1      -2.589  13.188   4.455  1.00  0.00     0.207 C 
BRANCH  17  18
ATOM     18  C   UNL     1      -3.922  13.855   4.810  1.00  0.00     0.077 C 
BRANCH  18  19
ATOM     19  C   UNL     1      -4.866  12.895   5.498  1.00  0.00    -0.043 A 
ATOM     20  C   UNL     1      -6.137  12.237   7.456  1.00  0.00     0.083 A 
ATOM     21  C   UNL     1      -5.306  13.150   6.806  1.00  0.00     0.028 A 
ATOM     22  C   UNL     1      -6.532  11.067   6.807  1.00  0.00     0.134 A 
ATOM     23  C   UNL     1      -6.103  10.802   5.511  1.00  0.00     0.048 A 
ATOM     24  C   UNL     1      -5.269  11.713   4.859  1.00  0.00     0.008 A 
ATOM     25  Cl  UNL     1      -6.668  12.568   9.063  1.00  0.00    -0.080 Cl
BRANCH  22  26
ATOM     26  O   UNL     1      -7.337  10.137   7.407  1.00  0.00    -0.506 OA
ATOM     27  H   UNL     1      -6.747   9.481   7.821  1.00  0.00     0.293 HD
ENDBRANCH  22  26
ENDBRANCH  18  19
ENDBRANCH  17  18
BRANCH  17  28
ATOM     28  O   UNL     1      -1.548  13.735   5.279  1.00  0.00    -0.383 OA
ATOM     29  H   UNL     1      -0.788  13.910   4.678  1.00  0.00     0.211 HD
ENDBRANCH  17  28
ENDBRANCH  14  17
ENDBRANCH  12  13
BRANCH  12  30
ATOM     30  C   UNL     1       0.635  13.482   1.028  1.00  0.00     0.018 C 
ATOM     31  C   UNL     1       0.951  13.628  -0.469  1.00  0.00     0.010 C 
BRANCH  30  32
ATOM     32  C   UNL     1       0.408  11.991   1.380  1.00  0.00     0.002 C 
ATOM     33  C   UNL     1       0.084  11.086   0.199  1.00  0.00     0.004 C 
ENDBRANCH  30  32
ENDBRANCH  12  30
ENDBRANCH  10  12
ENDBRANCH   1  10
BRANCH   5  34
ATOM     34  C   UNL     1      -1.645  17.740   3.688  1.00  0.00     0.242 C 
ATOM     35  O   UNL     1      -2.024  16.614   4.009  1.00  0.00    -0.273 OA
ATOM     36  N   UNL     1      -1.770  18.828   4.523  1.00  0.00    -0.354 N 
ATOM     37  H   UNL     1      -1.551  19.756   4.159  1.00  0.00     0.163 HD
BRANCH  36  38
ATOM     38  C   UNL     1      -2.103  18.691   5.926  1.00  0.00     0.116 C 
BRANCH  38  39
ATOM     39  C   UNL     1      -2.846  19.935   6.406  1.00  0.00     0.023 C 
BRANCH  39  40
ATOM     40  C   UNL     1      -4.064  19.594   7.259  1.00  0.00     0.026 C 
BRANCH  40  41
ATOM     41  C   UNL     1      -4.907  18.509   6.589  1.00  0.00     0.146 C 
BRANCH  41  42
ATOM     42  N   UNL     1      -5.520  19.038   5.378  1.00  0.00    -0.254 NA
ATOM     43  C   UNL     1      -5.498  18.345   4.302  1.00  0.00     0.185 C 
ATOM     44  N   UNL     1      -4.975  17.128   4.068  1.00  0.00    -0.370 N 
ATOM     45  N   UNL     1      -6.065  18.853   3.195  1.00  0.00    -0.370 N 
ATOM     46  H   UNL     1      -4.814  16.812   3.127  1.00  0.00     0.159 HD
ATOM     47  H   UNL     1      -4.520  16.593   4.801  1.00  0.00     0.159 HD
ATOM     48  H   UNL     1      -6.490  19.766   3.288  1.00  0.00     0.159 HD
ATOM     49  H   UNL     1      -6.297  18.291   2.396  1.00  0.00     0.159 HD
ENDBRANCH  41  42
ENDBRANCH  40  41
ENDBRANCH  39  40
ENDBRANCH  38  39
ENDBRANCH  36  38
ENDBRANCH   5  34
BRANCH   8  50
ATOM     50  O   UNL     1      -5.495  16.574   1.166  1.00  0.00    -0.245 OA
BRANCH  50  51
ATOM     51  S   UNL     1      -6.634  15.471   1.527  1.00  0.00     0.397 S 
ATOM     52  O   UNL     1      -7.399  15.210   0.328  1.00  0.00    -0.169 OA
ATOM     53  O   UNL     1      -7.277  15.826   2.775  1.00  0.00    -0.169 OA
BRANCH  51  54
ATOM     54  O   UNL     1      -5.753  14.150   1.781  1.00  0.00    -0.264 OA
ATOM     55  H   UNL     1      -4.857  14.436   2.049  1.00  0.00     0.236 HD
ENDBRANCH  51  54
ENDBRANCH  50  51
ENDBRANCH   8  50
TORSDOF 19
ENDMDL
MODEL 27
REMARK VINA RESULT:    -6.720      3.475      6.800
REMARK INTER + INTRA:         -17.206
REMARK INTER:                 -11.891
REMARK INTRA:                  -5.316
REMARK UNBOUND:                -3.611
REMARK SMILES CC[C@@H](C)[C@@H](NC(=O)[C@@H](O)Cc1ccc(O)c(Cl)c1)C(=O)N1[C@H](C(=O)NCCCCN=C(N)N)C[C@H]2CC[C@H](OS(=O)(=O)O)C[C@@H]21
REMARK SMILES IDX 22 1 36 2 46 3 35 4 23 5 45 6 37 7 39 8 38 9 20 10 21 11
REMARK SMILES IDX 5 12 6 13 7 14 8 15 9 17 11 18 12 19 17 20 19 21 15 22 14 23
REMARK SMILES IDX 13 24 18 25 16 26 10 28 3 30 4 31 2 32 1 33 24 34 25 35
REMARK SMILES IDX 26 36 27 38 28 39 29 40 30 41 31 42 32 43 33 44 34 45 40 50
REMARK SMILES IDX 41 51 42 52 43 53 44 54
REMARK H PARENT 6 16 16 27 10 29 26 37 33 46 33 47 34 48 34 49 44 55
ROOT
ATOM      1  N   UNL     1      -2.857  14.256   1.684  1.00  0.00    -0.326 N 
ATOM      2  C   UNL     1      -0.884  12.989   1.890  1.00  0.00     0.014 C 
ATOM      3  C   UNL     1      -1.720  13.787   0.886  1.00  0.00     0.091 C 
ATOM      4  C   UNL     1      -1.942  12.366   2.787  1.00  0.00     0.041 C 
ATOM      5  C   UNL     1      -2.864  13.579   3.004  1.00  0.00     0.175 C 
ATOM      6  C   UNL     1      -0.819  14.830   0.227  1.00  0.00     0.059 C 
ATOM      7  C   UNL     1       0.109  12.092   1.177  1.00  0.00     0.008 C 
ATOM      8  C   UNL     1       0.651  14.380   0.084  1.00  0.00     0.143 C 
ATOM      9  C   UNL     1       0.782  12.845   0.010  1.00  0.00     0.034 C 
ENDROOT
BRANCH   1  10
ATOM     10  C   UNL     1      -3.954  15.012   1.307  1.00  0.00     0.246 C 
ATOM     11  O   UNL     1      -5.088  14.548   1.469  1.00  0.00    -0.272 OA
BRANCH  10  12
ATOM     12  C   UNL     1      -3.739  16.441   0.730  1.00  0.00     0.174 C 
BRANCH  12  13
ATOM     13  N   UNL     1      -2.824  17.193   1.588  1.00  0.00    -0.342 N 
ATOM     14  C   UNL     1      -1.806  18.004   1.139  1.00  0.00     0.249 C 
ATOM     15  O   UNL     1      -1.569  18.208  -0.045  1.00  0.00    -0.272 OA
ATOM     16  H   UNL     1      -2.798  17.002   2.586  1.00  0.00     0.164 HD
BRANCH  14  17
ATOM     17  C   UNL     1      -1.004  18.647   2.290  1.00  0.00     0.207 C 
BRANCH  17  18
ATOM     18  C   UNL     1      -1.857  19.690   3.019  1.00  0.00     0.077 C 
BRANCH  18  19
ATOM     19  C   UNL     1      -1.999  19.372   4.491  1.00  0.00    -0.043 A 
ATOM     20  C   UNL     1      -1.069  18.490   6.550  1.00  0.00     0.083 A 
ATOM     21  C   UNL     1      -0.920  18.829   5.205  1.00  0.00     0.028 A 
ATOM     22  C   UNL     1      -2.293  18.690   7.189  1.00  0.00     0.134 A 
ATOM     23  C   UNL     1      -3.370  19.227   6.493  1.00  0.00     0.048 A 
ATOM     24  C   UNL     1      -3.225  19.566   5.146  1.00  0.00     0.008 A 
ATOM     25  Cl  UNL     1       0.268  17.823   7.411  1.00  0.00    -0.080 Cl
BRANCH  22  26
ATOM     26  O   UNL     1      -2.491  18.364   8.503  1.00  0.00    -0.506 OA
ATOM     27  H   UNL     1      -1.813  18.843   9.015  1.00  0.00     0.293 HD
ENDBRANCH  22  26
ENDBRANCH  18  19
ENDBRANCH  17  18
BRANCH  17  28
ATOM     28  O   UNL     1       0.195  19.268   1.802  1.00  0.00    -0.383 OA
ATOM     29  H   UNL     1      -0.053  19.716   0.961  1.00  0.00     0.211 HD
ENDBRANCH  17  28
ENDBRANCH  14  17
ENDBRANCH  12  13
BRANCH  12  30
ATOM     30  C   UNL     1      -5.073  17.195   0.481  1.00  0.00     0.018 C 
ATOM     31  C   UNL     1      -5.022  17.975  -0.841  1.00  0.00     0.010 C 
BRANCH  30  32
ATOM     32  C   UNL     1      -5.479  18.138   1.640  1.00  0.00     0.002 C 
ATOM     33  C   UNL     1      -6.975  18.379   1.791  1.00  0.00     0.004 C 
ENDBRANCH  30  32
ENDBRANCH  12  30
ENDBRANCH  10  12
ENDBRANCH   1  10
BRANCH   5  34
ATOM     34  C   UNL     1      -2.317  14.523   4.109  1.00  0.00     0.242 C 
ATOM     35  O   UNL     1      -1.613  15.499   3.851  1.00  0.00    -0.273 OA
ATOM     36  N   UNL     1      -2.632  14.159   5.399  1.00  0.00    -0.354 N 
ATOM     37  H   UNL     1      -3.117  13.274   5.555  1.00  0.00     0.163 HD
BRANCH  36  38
ATOM     38  C   UNL     1      -2.391  15.031   6.529  1.00  0.00     0.116 C 
BRANCH  38  39
ATOM     39  C   UNL     1      -3.673  15.191   7.343  1.00  0.00     0.023 C 
BRANCH  39  40
ATOM     40  C   UNL     1      -4.378  13.861   7.587  1.00  0.00     0.026 C 
BRANCH  40  41
ATOM     41  C   UNL     1      -5.804  13.894   7.037  1.00  0.00     0.146 C 
BRANCH  41  42
ATOM     42  N   UNL     1      -5.900  13.031   5.867  1.00  0.00    -0.254 NA
ATOM     43  C   UNL     1      -6.088  13.549   4.712  1.00  0.00     0.185 C 
ATOM     44  N   UNL     1      -6.220  14.839   4.353  1.00  0.00    -0.370 N 
ATOM     45  N   UNL     1      -6.178  12.736   3.647  1.00  0.00    -0.370 N 
ATOM     46  H   UNL     1      -6.604  15.085   3.457  1.00  0.00     0.159 HD
ATOM     47  H   UNL     1      -6.164  15.590   5.034  1.00  0.00     0.159 HD
ATOM     48  H   UNL     1      -6.080  11.746   3.828  1.00  0.00     0.159 HD
ATOM     49  H   UNL     1      -6.086  13.065   2.702  1.00  0.00     0.159 HD
ENDBRANCH  41  42
ENDBRANCH  40  41
ENDBRANCH  39  40
ENDBRANCH  38  39
ENDBRANCH  36  38
ENDBRANCH   5  34
BRANCH   8  50
ATOM     50  O   UNL     1       1.417  14.847   1.195  1.00  0.00    -0.245 OA
BRANCH  50  51
ATOM     51  S   UNL     1       2.210  16.263   1.085  1.00  0.00     0.397 S 
ATOM     52  O   UNL     1       3.493  16.010   0.469  1.00  0.00    -0.169 OA
ATOM     53  O   UNL     1       2.096  16.982   2.337  1.00  0.00    -0.169 OA
BRANCH  51  54
ATOM     54  O   UNL     1       1.342  17.048  -0.018  1.00  0.00    -0.264 OA
ATOM     55  H   UNL     1       1.313  16.494  -0.824  1.00  0.00     0.236 HD
ENDBRANCH  51  54
ENDBRANCH  50  51
ENDBRANCH   8  50
TORSDOF 19
ENDMDL
MODEL 28
REMARK VINA RESULT:    -6.699      3.843      7.874
REMARK INTER + INTRA:         -17.164
REMARK INTER:                 -13.300
REMARK INTRA:                  -3.863
REMARK UNBOUND:                -3.611
REMARK SMILES CC[C@@H](C)[C@@H](NC(=O)[C@@H](O)Cc1ccc(O)c(Cl)c1)C(=O)N1[C@H](C(=O)NCCCCN=C(N)N)C[C@H]2CC[C@H](OS(=O)(=O)O)C[C@@H]21
REMARK SMILES IDX 22 1 36 2 46 3 35 4 23 5 45 6 37 7 39 8 38 9 20 10 21 11
REMARK SMILES IDX 5 12 6 13 7 14 8 15 9 17 11 18 12 19 17 20 19 21 15 22 14 23
REMARK SMILES IDX 13 24 18 25 16 26 10 28 3 30 4 31 2 32 1 33 24 34 25 35
REMARK SMILES IDX 26 36 27 38 28 39 29 40 30 41 31 42 32 43 33 44 34 45 40 50
REMARK SMILES IDX 41 51 42 52 43 53 44 54
REMARK H PARENT 6 16 16 27 10 29 26 37 33 46 33 47 34 48 34 49 44 55
ROOT
ATOM      1  N   UNL     1      -3.218  13.918   2.414  1.00  0.00    -0.326 N 
ATOM      2  C   UNL     1      -1.091  12.911   2.496  1.00  0.00     0.014 C 
ATOM      3  C   UNL     1      -2.189  13.363   1.529  1.00  0.00     0.091 C 
ATOM      4  C   UNL     1      -1.884  12.443   3.707  1.00  0.00     0.041 C 
ATOM      5  C   UNL     1      -2.903  13.591   3.827  1.00  0.00     0.175 C 
ATOM      6  C   UNL     1      -1.562  14.282   0.482  1.00  0.00     0.059 C 
ATOM      7  C   UNL     1      -0.133  11.951   1.819  1.00  0.00     0.008 C 
ATOM      8  C   UNL     1      -0.095  13.934   0.149  1.00  0.00     0.143 C 
ATOM      9  C   UNL     1       0.219  12.445   0.400  1.00  0.00     0.034 C 
ENDROOT
BRANCH   1  10
ATOM     10  C   UNL     1      -4.453  14.463   2.107  1.00  0.00     0.246 C 
ATOM     11  O   UNL     1      -5.242  13.811   1.415  1.00  0.00    -0.272 OA
BRANCH  10  12
ATOM     12  C   UNL     1      -4.837  15.861   2.673  1.00  0.00     0.174 C 
BRANCH  12  13
ATOM     13  N   UNL     1      -6.148  15.795   3.318  1.00  0.00    -0.342 N 
ATOM     14  C   UNL     1      -6.356  15.649   4.671  1.00  0.00     0.249 C 
ATOM     15  O   UNL     1      -5.454  15.584   5.497  1.00  0.00    -0.272 OA
ATOM     16  H   UNL     1      -6.983  15.678   2.750  1.00  0.00     0.164 HD
BRANCH  14  17
ATOM     17  C   UNL     1      -7.854  15.595   5.040  1.00  0.00     0.207 C 
BRANCH  17  18
ATOM     18  C   UNL     1      -8.717  15.576   3.775  1.00  0.00     0.077 C 
BRANCH  18  19
ATOM     19  C   UNL     1      -9.361  14.226   3.554  1.00  0.00    -0.043 A 
ATOM     20  C   UNL     1      -9.578  11.880   4.131  1.00  0.00     0.083 A 
ATOM     21  C   UNL     1      -9.019  13.136   4.370  1.00  0.00     0.028 A 
ATOM     22  C   UNL     1     -10.477  11.704   3.079  1.00  0.00     0.134 A 
ATOM     23  C   UNL     1     -10.824  12.774   2.263  1.00  0.00     0.048 A 
ATOM     24  C   UNL     1     -10.266  14.032   2.498  1.00  0.00     0.008 A 
ATOM     25  Cl  UNL     1      -9.146  10.553   5.145  1.00  0.00    -0.080 Cl
BRANCH  22  26
ATOM     26  O   UNL     1     -11.042  10.489   2.801  1.00  0.00    -0.506 OA
ATOM     27  H   UNL     1     -11.819  10.664   2.238  1.00  0.00     0.293 HD
ENDBRANCH  22  26
ENDBRANCH  18  19
ENDBRANCH  17  18
BRANCH  17  28
ATOM     28  O   UNL     1      -8.227  16.718   5.855  1.00  0.00    -0.383 OA
ATOM     29  H   UNL     1      -7.899  16.517   6.761  1.00  0.00     0.211 HD
ENDBRANCH  17  28
ENDBRANCH  14  17
ENDBRANCH  12  13
BRANCH  12  30
ATOM     30  C   UNL     1      -4.758  16.983   1.603  1.00  0.00     0.018 C 
ATOM     31  C   UNL     1      -3.924  18.168   2.115  1.00  0.00     0.010 C 
BRANCH  30  32
ATOM     32  C   UNL     1      -6.143  17.478   1.119  1.00  0.00     0.002 C 
ATOM     33  C   UNL     1      -6.472  18.926   1.456  1.00  0.00     0.004 C 
ENDBRANCH  30  32
ENDBRANCH  12  30
ENDBRANCH  10  12
ENDBRANCH   1  10
BRANCH   5  34
ATOM     34  C   UNL     1      -2.296  14.821   4.554  1.00  0.00     0.242 C 
ATOM     35  O   UNL     1      -1.830  15.782   3.943  1.00  0.00    -0.273 OA
ATOM     36  N   UNL     1      -2.268  14.734   5.928  1.00  0.00    -0.354 N 
ATOM     37  H   UNL     1      -2.559  13.862   6.371  1.00  0.00     0.163 HD
BRANCH  36  38
ATOM     38  C   UNL     1      -1.940  15.867   6.767  1.00  0.00     0.116 C 
BRANCH  38  39
ATOM     39  C   UNL     1      -0.423  16.017   6.866  1.00  0.00     0.023 C 
BRANCH  39  40
ATOM     40  C   UNL     1       0.021  17.475   6.837  1.00  0.00     0.026 C 
BRANCH  40  41
ATOM     41  C   UNL     1      -0.397  18.144   5.527  1.00  0.00     0.146 C 
BRANCH  41  42
ATOM     42  N   UNL     1       0.786  18.577   4.795  1.00  0.00    -0.254 NA
ATOM     43  C   UNL     1       1.205  17.884   3.804  1.00  0.00     0.185 C 
ATOM     44  N   UNL     1       0.718  16.747   3.274  1.00  0.00    -0.370 N 
ATOM     45  N   UNL     1       2.300  18.298   3.145  1.00  0.00    -0.370 N 
ATOM     46  H   UNL     1       1.282  16.185   2.660  1.00  0.00     0.159 HD
ATOM     47  H   UNL     1      -0.117  16.302   3.643  1.00  0.00     0.159 HD
ATOM     48  H   UNL     1       2.725  19.154   3.475  1.00  0.00     0.159 HD
ATOM     49  H   UNL     1       2.549  17.956   2.234  1.00  0.00     0.159 HD
ENDBRANCH  41  42
ENDBRANCH  40  41
ENDBRANCH  39  40
ENDBRANCH  38  39
ENDBRANCH  36  38
ENDBRANCH   5  34
BRANCH   8  50
ATOM     50  O   UNL     1       0.789  14.724   0.946  1.00  0.00    -0.245 OA
BRANCH  50  51
ATOM     51  S   UNL     1       1.688  15.882   0.240  1.00  0.00     0.397 S 
ATOM     52  O   UNL     1       2.894  16.047   1.019  1.00  0.00    -0.169 OA
ATOM     53  O   UNL     1       0.845  17.008  -0.105  1.00  0.00    -0.169 OA
BRANCH  51  54
ATOM     54  O   UNL     1       2.143  15.167  -1.126  1.00  0.00    -0.264 OA
ATOM     55  H   UNL     1       2.778  14.458  -0.895  1.00  0.00     0.236 HD
ENDBRANCH  51  54
ENDBRANCH  50  51
ENDBRANCH   8  50
TORSDOF 19
ENDMDL
MODEL 29
REMARK VINA RESULT:    -6.698      3.596      8.026
REMARK INTER + INTRA:         -17.162
REMARK INTER:                 -13.878
REMARK INTRA:                  -3.285
REMARK UNBOUND:                -3.611
REMARK SMILES CC[C@@H](C)[C@@H](NC(=O)[C@@H](O)Cc1ccc(O)c(Cl)c1)C(=O)N1[C@H](C(=O)NCCCCN=C(N)N)C[C@H]2CC[C@H](OS(=O)(=O)O)C[C@@H]21
REMARK SMILES IDX 22 1 36 2 46 3 35 4 23 5 45 6 37 7 39 8 38 9 20 10 21 11
REMARK SMILES IDX 5 12 6 13 7 14 8 15 9 17 11 18 12 19 17 20 19 21 15 22 14 23
REMARK SMILES IDX 13 24 18 25 16 26 10 28 3 30 4 31 2 32 1 33 24 34 25 35
REMARK SMILES IDX 26 36 27 38 28 39 29 40 30 41 31 42 32 43 33 44 34 45 40 50
REMARK SMILES IDX 41 51 42 52 43 53 44 54
REMARK H PARENT 6 16 16 27 10 29 26 37 33 46 33 47 34 48 34 49 44 55
ROOT
ATOM      1  N   UNL     1      -4.201  16.937   0.330  1.00  0.00    -0.326 N 
ATOM      2  C   UNL     1      -4.085  19.187  -0.354  1.00  0.00     0.014 C 
ATOM      3  C   UNL     1      -4.528  18.285   0.802  1.00  0.00     0.091 C 
ATOM      4  C   UNL     1      -4.388  18.336  -1.577  1.00  0.00     0.041 C 
ATOM      5  C   UNL     1      -3.836  16.977  -1.108  1.00  0.00     0.175 C 
ATOM      6  C   UNL     1      -3.865  18.784   2.085  1.00  0.00     0.059 C 
ATOM      7  C   UNL     1      -4.706  20.565  -0.235  1.00  0.00     0.008 C 
ATOM      8  C   UNL     1      -3.636  20.311   2.113  1.00  0.00     0.143 C 
ATOM      9  C   UNL     1      -4.646  21.065   1.224  1.00  0.00     0.034 C 
ENDROOT
BRANCH   1  10
ATOM     10  C   UNL     1      -4.393  15.711   0.943  1.00  0.00     0.246 C 
ATOM     11  O   UNL     1      -3.632  14.776   0.670  1.00  0.00    -0.272 OA
BRANCH  10  12
ATOM     12  C   UNL     1      -5.532  15.547   1.991  1.00  0.00     0.174 C 
BRANCH  12  13
ATOM     13  N   UNL     1      -5.097  14.655   3.065  1.00  0.00    -0.342 N 
ATOM     14  C   UNL     1      -4.930  15.024   4.381  1.00  0.00     0.249 C 
ATOM     15  O   UNL     1      -5.157  16.149   4.807  1.00  0.00    -0.272 OA
ATOM     16  H   UNL     1      -4.723  13.737   2.837  1.00  0.00     0.164 HD
BRANCH  14  17
ATOM     17  C   UNL     1      -4.444  13.859   5.270  1.00  0.00     0.207 C 
BRANCH  17  18
ATOM     18  C   UNL     1      -5.480  13.545   6.354  1.00  0.00     0.077 C 
BRANCH  18  19
ATOM     19  C   UNL     1      -6.515  12.554   5.872  1.00  0.00    -0.043 A 
ATOM     20  C   UNL     1      -8.836  11.942   5.519  1.00  0.00     0.083 A 
ATOM     21  C   UNL     1      -7.880  12.877   5.918  1.00  0.00     0.028 A 
ATOM     22  C   UNL     1      -8.435  10.681   5.074  1.00  0.00     0.134 A 
ATOM     23  C   UNL     1      -7.087  10.348   5.023  1.00  0.00     0.048 A 
ATOM     24  C   UNL     1      -6.128  11.282   5.424  1.00  0.00     0.008 A 
ATOM     25  Cl  UNL     1     -10.508  12.357   5.584  1.00  0.00    -0.080 Cl
BRANCH  22  26
ATOM     26  O   UNL     1      -9.336   9.728   4.683  1.00  0.00    -0.506 OA
ATOM     27  H   UNL     1      -9.170   8.942   5.235  1.00  0.00     0.293 HD
ENDBRANCH  22  26
ENDBRANCH  18  19
ENDBRANCH  17  18
BRANCH  17  28
ATOM     28  O   UNL     1      -3.185  14.171   5.888  1.00  0.00    -0.383 OA
ATOM     29  H   UNL     1      -2.946  13.384   6.428  1.00  0.00     0.211 HD
ENDBRANCH  17  28
ENDBRANCH  14  17
ENDBRANCH  12  13
BRANCH  12  30
ATOM     30  C   UNL     1      -6.873  15.097   1.354  1.00  0.00     0.018 C 
ATOM     31  C   UNL     1      -7.508  16.242   0.550  1.00  0.00     0.010 C 
BRANCH  30  32
ATOM     32  C   UNL     1      -7.891  14.537   2.377  1.00  0.00     0.002 C 
ATOM     33  C   UNL     1      -8.234  13.062   2.215  1.00  0.00     0.004 C 
ENDBRANCH  30  32
ENDBRANCH  12  30
ENDBRANCH  10  12
ENDBRANCH   1  10
BRANCH   5  34
ATOM     34  C   UNL     1      -2.296  16.894  -1.287  1.00  0.00     0.242 C 
ATOM     35  O   UNL     1      -1.747  17.100  -2.369  1.00  0.00    -0.273 OA
ATOM     36  N   UNL     1      -1.595  16.520  -0.162  1.00  0.00    -0.354 N 
ATOM     37  H   UNL     1      -2.115  16.246   0.673  1.00  0.00     0.163 HD
BRANCH  36  38
ATOM     38  C   UNL     1      -0.151  16.600  -0.089  1.00  0.00     0.116 C 
BRANCH  38  39
ATOM     39  C   UNL     1       0.464  15.273  -0.525  1.00  0.00     0.023 C 
BRANCH  39  40
ATOM     40  C   UNL     1       1.473  14.738   0.486  1.00  0.00     0.026 C 
BRANCH  40  41
ATOM     41  C   UNL     1       0.934  13.487   1.180  1.00  0.00     0.146 C 
BRANCH  41  42
ATOM     42  N   UNL     1      -0.491  13.349   0.909  1.00  0.00    -0.254 NA
ATOM     43  C   UNL     1      -1.015  12.183   0.858  1.00  0.00     0.185 C 
ATOM     44  N   UNL     1      -0.451  10.972   1.021  1.00  0.00    -0.370 N 
ATOM     45  N   UNL     1      -2.330  12.076   0.602  1.00  0.00    -0.370 N 
ATOM     46  H   UNL     1      -0.925  10.140   0.714  1.00  0.00     0.159 HD
ATOM     47  H   UNL     1       0.536  10.869   1.235  1.00  0.00     0.159 HD
ATOM     48  H   UNL     1      -2.833  12.944   0.474  1.00  0.00     0.159 HD
ATOM     49  H   UNL     1      -2.852  11.236   0.777  1.00  0.00     0.159 HD
ENDBRANCH  41  42
ENDBRANCH  40  41
ENDBRANCH  39  40
ENDBRANCH  38  39
ENDBRANCH  36  38
ENDBRANCH   5  34
BRANCH   8  50
ATOM     50  O   UNL     1      -2.317  20.617   1.660  1.00  0.00    -0.245 OA
BRANCH  50  51
ATOM     51  S   UNL     1      -1.424  21.710   2.468  1.00  0.00     0.397 S 
ATOM     52  O   UNL     1      -0.510  20.992   3.328  1.00  0.00    -0.169 OA
ATOM     53  O   UNL     1      -2.283  22.758   2.979  1.00  0.00    -0.169 OA
BRANCH  51  54
ATOM     54  O   UNL     1      -0.520  22.338   1.295  1.00  0.00    -0.264 OA
ATOM     55  H   UNL     1       0.217  21.717   1.122  1.00  0.00     0.236 HD
ENDBRANCH  51  54
ENDBRANCH  50  51
ENDBRANCH   8  50
TORSDOF 19
ENDMDL
MODEL 30
REMARK VINA RESULT:    -6.686      3.584      8.386
REMARK INTER + INTRA:         -17.137
REMARK INTER:                 -14.296
REMARK INTRA:                  -2.841
REMARK UNBOUND:                -3.611
REMARK SMILES CC[C@@H](C)[C@@H](NC(=O)[C@@H](O)Cc1ccc(O)c(Cl)c1)C(=O)N1[C@H](C(=O)NCCCCN=C(N)N)C[C@H]2CC[C@H](OS(=O)(=O)O)C[C@@H]21
REMARK SMILES IDX 22 1 36 2 46 3 35 4 23 5 45 6 37 7 39 8 38 9 20 10 21 11
REMARK SMILES IDX 5 12 6 13 7 14 8 15 9 17 11 18 12 19 17 20 19 21 15 22 14 23
REMARK SMILES IDX 13 24 18 25 16 26 10 28 3 30 4 31 2 32 1 33 24 34 25 35
REMARK SMILES IDX 26 36 27 38 28 39 29 40 30 41 31 42 32 43 33 44 34 45 40 50
REMARK SMILES IDX 41 51 42 52 43 53 44 54
REMARK H PARENT 6 16 16 27 10 29 26 37 33 46 33 47 34 48 34 49 44 55
ROOT
ATOM      1  N   UNL     1      -1.556  15.908   0.515  1.00  0.00    -0.326 N 
ATOM      2  C   UNL     1      -2.206  17.440  -1.150  1.00  0.00     0.014 C 
ATOM      3  C   UNL     1      -2.760  16.486  -0.088  1.00  0.00     0.091 C 
ATOM      4  C   UNL     1      -0.960  16.714  -1.635  1.00  0.00     0.041 C 
ATOM      5  C   UNL     1      -0.362  16.271  -0.288  1.00  0.00     0.175 C 
ATOM      6  C   UNL     1      -3.718  17.267   0.810  1.00  0.00     0.059 C 
ATOM      7  C   UNL     1      -3.280  17.822  -2.150  1.00  0.00     0.008 C 
ATOM      8  C   UNL     1      -4.465  18.405   0.082  1.00  0.00     0.143 C 
ATOM      9  C   UNL     1      -4.610  18.129  -1.428  1.00  0.00     0.034 C 
ENDROOT
BRANCH   1  10
ATOM     10  C   UNL     1      -1.432  14.965   1.521  1.00  0.00     0.246 C 
ATOM     11  O   UNL     1      -0.979  15.310   2.617  1.00  0.00    -0.272 OA
BRANCH  10  12
ATOM     12  C   UNL     1      -1.903  13.504   1.264  1.00  0.00     0.174 C 
BRANCH  12  13
ATOM     13  N   UNL     1      -2.963  13.149   2.207  1.00  0.00    -0.342 N 
ATOM     14  C   UNL     1      -2.759  12.694   3.490  1.00  0.00     0.249 C 
ATOM     15  O   UNL     1      -1.653  12.561   3.999  1.00  0.00    -0.272 OA
ATOM     16  H   UNL     1      -3.921  13.059   1.877  1.00  0.00     0.164 HD
BRANCH  14  17
ATOM     17  C   UNL     1      -4.079  12.388   4.230  1.00  0.00     0.207 C 
BRANCH  17  18
ATOM     18  C   UNL     1      -4.899  13.669   4.415  1.00  0.00     0.077 C 
BRANCH  18  19
ATOM     19  C   UNL     1      -6.248  13.575   3.739  1.00  0.00    -0.043 A 
ATOM     20  C   UNL     1      -7.973  14.554   2.343  1.00  0.00     0.083 A 
ATOM     21  C   UNL     1      -6.707  14.622   2.925  1.00  0.00     0.028 A 
ATOM     22  C   UNL     1      -8.788  13.444   2.570  1.00  0.00     0.134 A 
ATOM     23  C   UNL     1      -8.346  12.399   3.373  1.00  0.00     0.048 A 
ATOM     24  C   UNL     1      -7.080  12.465   3.959  1.00  0.00     0.008 A 
ATOM     25  Cl  UNL     1      -8.520  15.851   1.346  1.00  0.00    -0.080 Cl
BRANCH  22  26
ATOM     26  O   UNL     1     -10.040  13.337   2.029  1.00  0.00    -0.506 OA
ATOM     27  H   UNL     1      -9.924  13.037   1.108  1.00  0.00     0.293 HD
ENDBRANCH  22  26
ENDBRANCH  18  19
ENDBRANCH  17  18
BRANCH  17  28
ATOM     28  O   UNL     1      -3.827  11.793   5.513  1.00  0.00    -0.383 OA
ATOM     29  H   UNL     1      -2.937  12.111   5.790  1.00  0.00     0.211 HD
ENDBRANCH  17  28
ENDBRANCH  14  17
ENDBRANCH  12  13
BRANCH  12  30
ATOM     30  C   UNL     1      -0.732  12.485   1.278  1.00  0.00     0.018 C 
ATOM     31  C   UNL     1       0.607  13.187   1.001  1.00  0.00     0.010 C 
BRANCH  30  32
ATOM     32  C   UNL     1      -0.926  11.303   0.297  1.00  0.00     0.002 C 
ATOM     33  C   UNL     1      -1.256   9.965   0.946  1.00  0.00     0.004 C 
ENDBRANCH  30  32
ENDBRANCH  12  30
ENDBRANCH  10  12
ENDBRANCH   1  10
BRANCH   5  34
ATOM     34  C   UNL     1       0.430  17.420   0.392  1.00  0.00     0.242 C 
ATOM     35  O   UNL     1       0.225  18.605   0.131  1.00  0.00    -0.273 OA
ATOM     36  N   UNL     1       1.415  17.015   1.266  1.00  0.00    -0.354 N 
ATOM     37  H   UNL     1       1.618  16.018   1.350  1.00  0.00     0.163 HD
BRANCH  36  38
ATOM     38  C   UNL     1       2.099  17.943   2.143  1.00  0.00     0.116 C 
BRANCH  38  39
ATOM     39  C   UNL     1       1.700  17.676   3.592  1.00  0.00     0.023 C 
BRANCH  39  40
ATOM     40  C   UNL     1       0.893  18.820   4.195  1.00  0.00     0.026 C 
BRANCH  40  41
ATOM     41  C   UNL     1      -0.510  18.871   3.590  1.00  0.00     0.146 C 
BRANCH  41  42
ATOM     42  N   UNL     1      -1.080  20.199   3.778  1.00  0.00    -0.254 NA
ATOM     43  C   UNL     1      -1.065  21.036   2.809  1.00  0.00     0.185 C 
ATOM     44  N   UNL     1      -0.586  20.905   1.559  1.00  0.00    -0.370 N 
ATOM     45  N   UNL     1      -1.591  22.257   3.004  1.00  0.00    -0.370 N 
ATOM     46  H   UNL     1      -0.420  21.715   0.986  1.00  0.00     0.159 HD
ATOM     47  H   UNL     1      -0.165  20.039   1.238  1.00  0.00     0.159 HD
ATOM     48  H   UNL     1      -1.983  22.436   3.919  1.00  0.00     0.159 HD
ATOM     49  H   UNL     1      -1.830  22.873   2.247  1.00  0.00     0.159 HD
ENDBRANCH  41  42
ENDBRANCH  40  41
ENDBRANCH  39  40
ENDBRANCH  38  39
ENDBRANCH  36  38
ENDBRANCH   5  34
BRANCH   8  50
ATOM     50  O   UNL     1      -3.765  19.638   0.252  1.00  0.00    -0.245 OA
BRANCH  50  51
ATOM     51  S   UNL     1      -4.498  20.879   1.006  1.00  0.00     0.397 S 
ATOM     52  O   UNL     1      -4.064  22.104   0.373  1.00  0.00    -0.169 OA
ATOM     53  O   UNL     1      -4.415  20.694   2.440  1.00  0.00    -0.169 OA
BRANCH  51  54
ATOM     54  O   UNL     1      -6.032  20.679   0.568  1.00  0.00    -0.264 OA
ATOM     55  H   UNL     1      -6.038  20.311  -0.339  1.00  0.00     0.236 HD
ENDBRANCH  51  54
ENDBRANCH  50  51
ENDBRANCH   8  50
TORSDOF 19
ENDMDL
MODEL 31
REMARK VINA RESULT:    -6.678      3.013      6.710
REMARK INTER + INTRA:         -17.121
REMARK INTER:                 -13.054
REMARK INTRA:                  -4.067
REMARK UNBOUND:                -3.611
REMARK SMILES CC[C@@H](C)[C@@H](NC(=O)[C@@H](O)Cc1ccc(O)c(Cl)c1)C(=O)N1[C@H](C(=O)NCCCCN=C(N)N)C[C@H]2CC[C@H](OS(=O)(=O)O)C[C@@H]21
REMARK SMILES IDX 22 1 36 2 46 3 35 4 23 5 45 6 37 7 39 8 38 9 20 10 21 11
REMARK SMILES IDX 5 12 6 13 7 14 8 15 9 17 11 18 12 19 17 20 19 21 15 22 14 23
REMARK SMILES IDX 13 24 18 25 16 26 10 28 3 30 4 31 2 32 1 33 24 34 25 35
REMARK SMILES IDX 26 36 27 38 28 39 29 40 30 41 31 42 32 43 33 44 34 45 40 50
REMARK SMILES IDX 41 51 42 52 43 53 44 54
REMARK H PARENT 6 16 16 27 10 29 26 37 33 46 33 47 34 48 34 49 44 55
ROOT
ATOM      1  N   UNL     1      -5.665  14.509   3.327  1.00  0.00    -0.326 N 
ATOM      2  C   UNL     1      -7.781  15.125   4.156  1.00  0.00     0.014 C 
ATOM      3  C   UNL     1      -7.080  14.505   2.944  1.00  0.00     0.091 C 
ATOM      4  C   UNL     1      -6.766  16.147   4.643  1.00  0.00     0.041 C 
ATOM      5  C   UNL     1      -5.476  15.311   4.561  1.00  0.00     0.175 C 
ATOM      6  C   UNL     1      -7.744  13.164   2.636  1.00  0.00     0.059 C 
ATOM      7  C   UNL     1      -9.182  15.581   3.798  1.00  0.00     0.008 C 
ATOM      8  C   UNL     1      -9.248  13.122   2.980  1.00  0.00     0.143 C 
ATOM      9  C   UNL     1      -9.894  14.521   2.930  1.00  0.00     0.034 C 
ENDROOT
BRANCH   1  10
ATOM     10  C   UNL     1      -4.553  14.085   2.621  1.00  0.00     0.246 C 
ATOM     11  O   UNL     1      -4.648  13.904   1.402  1.00  0.00    -0.272 OA
BRANCH  10  12
ATOM     12  C   UNL     1      -3.200  13.888   3.365  1.00  0.00     0.174 C 
BRANCH  12  13
ATOM     13  N   UNL     1      -2.201  14.816   2.836  1.00  0.00    -0.342 N 
ATOM     14  C   UNL     1      -1.687  15.896   3.518  1.00  0.00     0.249 C 
ATOM     15  O   UNL     1      -1.996  16.187   4.667  1.00  0.00    -0.272 OA
ATOM     16  H   UNL     1      -1.967  14.794   1.847  1.00  0.00     0.164 HD
BRANCH  14  17
ATOM     17  C   UNL     1      -0.662  16.694   2.684  1.00  0.00     0.207 C 
BRANCH  17  18
ATOM     18  C   UNL     1      -0.055  15.807   1.591  1.00  0.00     0.077 C 
BRANCH  18  19
ATOM     19  C   UNL     1      -0.431  16.285   0.207  1.00  0.00    -0.043 A 
ATOM     20  C   UNL     1      -2.102  17.077  -1.363  1.00  0.00     0.083 A 
ATOM     21  C   UNL     1      -1.747  16.684  -0.072  1.00  0.00     0.028 A 
ATOM     22  C   UNL     1      -1.148  17.073  -2.381  1.00  0.00     0.134 A 
ATOM     23  C   UNL     1       0.159  16.681  -2.119  1.00  0.00     0.048 A 
ATOM     24  C   UNL     1       0.517  16.285  -0.828  1.00  0.00     0.008 A 
ATOM     25  Cl  UNL     1      -3.725  17.563  -1.686  1.00  0.00    -0.080 Cl
BRANCH  22  26
ATOM     26  O   UNL     1      -1.452  17.440  -3.664  1.00  0.00    -0.506 OA
ATOM     27  H   UNL     1      -2.349  17.105  -3.846  1.00  0.00     0.293 HD
ENDBRANCH  22  26
ENDBRANCH  18  19
ENDBRANCH  17  18
BRANCH  17  28
ATOM     28  O   UNL     1       0.388  17.213   3.515  1.00  0.00    -0.383 OA
ATOM     29  H   UNL     1       0.222  18.180   3.591  1.00  0.00     0.211 HD
ENDBRANCH  17  28
ENDBRANCH  14  17
ENDBRANCH  12  13
BRANCH  12  30
ATOM     30  C   UNL     1      -2.712  12.415   3.342  1.00  0.00     0.018 C 
ATOM     31  C   UNL     1      -2.750  11.804   4.752  1.00  0.00     0.010 C 
BRANCH  30  32
ATOM     32  C   UNL     1      -1.305  12.236   2.722  1.00  0.00     0.002 C 
ATOM     33  C   UNL     1      -1.268  11.494   1.392  1.00  0.00     0.004 C 
ENDBRANCH  30  32
ENDBRANCH  12  30
ENDBRANCH  10  12
ENDBRANCH   1  10
BRANCH   5  34
ATOM     34  C   UNL     1      -5.313  14.388   5.798  1.00  0.00     0.242 C 
ATOM     35  O   UNL     1      -5.799  13.257   5.844  1.00  0.00    -0.273 OA
ATOM     36  N   UNL     1      -4.635  14.944   6.859  1.00  0.00    -0.354 N 
ATOM     37  H   UNL     1      -4.361  15.926   6.807  1.00  0.00     0.163 HD
BRANCH  36  38
ATOM     38  C   UNL     1      -4.207  14.160   8.000  1.00  0.00     0.116 C 
BRANCH  38  39
ATOM     39  C   UNL     1      -5.088  14.477   9.206  1.00  0.00     0.023 C 
BRANCH  39  40
ATOM     40  C   UNL     1      -5.734  13.229   9.798  1.00  0.00     0.026 C 
BRANCH  40  41
ATOM     41  C   UNL     1      -7.246  13.241   9.569  1.00  0.00     0.146 C 
BRANCH  41  42
ATOM     42  N   UNL     1      -7.693  11.913   9.169  1.00  0.00    -0.254 NA
ATOM     43  C   UNL     1      -8.209  11.742   8.010  1.00  0.00     0.185 C 
ATOM     44  N   UNL     1      -8.428  12.627   7.020  1.00  0.00    -0.370 N 
ATOM     45  N   UNL     1      -8.620  10.511   7.662  1.00  0.00    -0.370 N 
ATOM     46  H   UNL     1      -9.058  12.408   6.267  1.00  0.00     0.159 HD
ATOM     47  H   UNL     1      -8.164  13.603   7.111  1.00  0.00     0.159 HD
ATOM     48  H   UNL     1      -8.483   9.782   8.349  1.00  0.00     0.159 HD
ATOM     49  H   UNL     1      -8.808  10.249   6.711  1.00  0.00     0.159 HD
ENDBRANCH  41  42
ENDBRANCH  40  41
ENDBRANCH  39  40
ENDBRANCH  38  39
ENDBRANCH  36  38
ENDBRANCH   5  34
BRANCH   8  50
ATOM     50  O   UNL     1      -9.437  12.582   4.288  1.00  0.00    -0.245 OA
BRANCH  50  51
ATOM     51  S   UNL     1     -10.225  11.171   4.469  1.00  0.00     0.397 S 
ATOM     52  O   UNL     1      -9.258  10.163   4.842  1.00  0.00    -0.169 OA
ATOM     53  O   UNL     1     -11.134  10.976   3.358  1.00  0.00    -0.169 OA
BRANCH  51  54
ATOM     54  O   UNL     1     -11.105  11.444   5.787  1.00  0.00    -0.264 OA
ATOM     55  H   UNL     1     -10.493  11.702   6.506  1.00  0.00     0.236 HD
ENDBRANCH  51  54
ENDBRANCH  50  51
ENDBRANCH   8  50
TORSDOF 19
ENDMDL
MODEL 32
REMARK VINA RESULT:    -6.659      3.491      6.982
REMARK INTER + INTRA:         -17.082
REMARK INTER:                 -13.812
REMARK INTRA:                  -3.270
REMARK UNBOUND:                -3.611
REMARK SMILES CC[C@@H](C)[C@@H](NC(=O)[C@@H](O)Cc1ccc(O)c(Cl)c1)C(=O)N1[C@H](C(=O)NCCCCN=C(N)N)C[C@H]2CC[C@H](OS(=O)(=O)O)C[C@@H]21
REMARK SMILES IDX 22 1 36 2 46 3 35 4 23 5 45 6 37 7 39 8 38 9 20 10 21 11
REMARK SMILES IDX 5 12 6 13 7 14 8 15 9 17 11 18 12 19 17 20 19 21 15 22 14 23
REMARK SMILES IDX 13 24 18 25 16 26 10 28 3 30 4 31 2 32 1 33 24 34 25 35
REMARK SMILES IDX 26 36 27 38 28 39 29 40 30 41 31 42 32 43 33 44 34 45 40 50
REMARK SMILES IDX 41 51 42 52 43 53 44 54
REMARK H PARENT 6 16 16 27 10 29 26 37 33 46 33 47 34 48 34 49 44 55
ROOT
ATOM      1  N   UNL     1      -4.233  17.064   0.304  1.00  0.00    -0.326 N 
ATOM      2  C   UNL     1      -4.183  19.352  -0.246  1.00  0.00     0.014 C 
ATOM      3  C   UNL     1      -4.579  18.374   0.863  1.00  0.00     0.091 C 
ATOM      4  C   UNL     1      -4.496  18.568  -1.512  1.00  0.00     0.041 C 
ATOM      5  C   UNL     1      -3.902  17.198  -1.136  1.00  0.00     0.175 C 
ATOM      6  C   UNL     1      -3.898  18.811   2.158  1.00  0.00     0.059 C 
ATOM      7  C   UNL     1      -4.831  20.706  -0.032  1.00  0.00     0.008 C 
ATOM      8  C   UNL     1      -3.702  20.338   2.273  1.00  0.00     0.143 C 
ATOM      9  C   UNL     1      -4.749  21.120   1.453  1.00  0.00     0.034 C 
ENDROOT
BRANCH   1  10
ATOM     10  C   UNL     1      -4.384  15.799   0.847  1.00  0.00     0.246 C 
ATOM     11  O   UNL     1      -3.558  14.923   0.569  1.00  0.00    -0.272 OA
BRANCH  10  12
ATOM     12  C   UNL     1      -5.561  15.520   1.826  1.00  0.00     0.174 C 
BRANCH  12  13
ATOM     13  N   UNL     1      -5.185  14.469   2.770  1.00  0.00    -0.342 N 
ATOM     14  C   UNL     1      -4.602  14.682   3.999  1.00  0.00     0.249 C 
ATOM     15  O   UNL     1      -4.357  15.793   4.454  1.00  0.00    -0.272 OA
ATOM     16  H   UNL     1      -5.183  13.497   2.469  1.00  0.00     0.164 HD
BRANCH  14  17
ATOM     17  C   UNL     1      -4.309  13.369   4.756  1.00  0.00     0.207 C 
BRANCH  17  18
ATOM     18  C   UNL     1      -2.802  13.204   4.979  1.00  0.00     0.077 C 
BRANCH  18  19
ATOM     19  C   UNL     1      -2.048  13.112   3.671  1.00  0.00    -0.043 A 
ATOM     20  C   UNL     1      -1.163  11.787   1.843  1.00  0.00     0.083 A 
ATOM     21  C   UNL     1      -1.902  11.876   3.023  1.00  0.00     0.028 A 
ATOM     22  C   UNL     1      -0.566  12.927   1.305  1.00  0.00     0.134 A 
ATOM     23  C   UNL     1      -0.702  14.158   1.936  1.00  0.00     0.048 A 
ATOM     24  C   UNL     1      -1.440  14.250   3.119  1.00  0.00     0.008 A 
ATOM     25  Cl  UNL     1      -0.995  10.259   1.061  1.00  0.00    -0.080 Cl
BRANCH  22  26
ATOM     26  O   UNL     1       0.177  12.887   0.155  1.00  0.00    -0.506 OA
ATOM     27  H   UNL     1      -0.166  12.142  -0.373  1.00  0.00     0.293 HD
ENDBRANCH  22  26
ENDBRANCH  18  19
ENDBRANCH  17  18
BRANCH  17  28
ATOM     28  O   UNL     1      -4.811  12.233   4.034  1.00  0.00    -0.383 OA
ATOM     29  H   UNL     1      -4.032  11.824   3.594  1.00  0.00     0.211 HD
ENDBRANCH  17  28
ENDBRANCH  14  17
ENDBRANCH  12  13
BRANCH  12  30
ATOM     30  C   UNL     1      -6.892  15.207   1.090  1.00  0.00     0.018 C 
ATOM     31  C   UNL     1      -7.881  16.374   1.230  1.00  0.00     0.010 C 
BRANCH  30  32
ATOM     32  C   UNL     1      -7.559  13.886   1.547  1.00  0.00     0.002 C 
ATOM     33  C   UNL     1      -8.901  14.044   2.250  1.00  0.00     0.004 C 
ENDBRANCH  30  32
ENDBRANCH  12  30
ENDBRANCH  10  12
ENDBRANCH   1  10
BRANCH   5  34
ATOM     34  C   UNL     1      -2.366  17.161  -1.353  1.00  0.00     0.242 C 
ATOM     35  O   UNL     1      -1.862  17.068  -2.472  1.00  0.00    -0.273 OA
ATOM     36  N   UNL     1      -1.611  17.185  -0.202  1.00  0.00    -0.354 N 
ATOM     37  H   UNL     1      -2.088  17.141   0.699  1.00  0.00     0.163 HD
BRANCH  36  38
ATOM     38  C   UNL     1      -0.175  17.373  -0.223  1.00  0.00     0.116 C 
BRANCH  38  39
ATOM     39  C   UNL     1       0.516  16.056  -0.565  1.00  0.00     0.023 C 
BRANCH  39  40
ATOM     40  C   UNL     1       1.977  16.034  -0.130  1.00  0.00     0.026 C 
BRANCH  40  41
ATOM     41  C   UNL     1       2.090  15.830   1.380  1.00  0.00     0.146 C 
BRANCH  41  42
ATOM     42  N   UNL     1       2.497  17.077   2.016  1.00  0.00    -0.254 NA
ATOM     43  C   UNL     1       1.827  17.530   3.008  1.00  0.00     0.185 C 
ATOM     44  N   UNL     1       0.736  17.030   3.617  1.00  0.00    -0.370 N 
ATOM     45  N   UNL     1       2.217  18.683   3.577  1.00  0.00    -0.370 N 
ATOM     46  H   UNL     1       0.174  17.608   4.218  1.00  0.00     0.159 HD
ATOM     47  H   UNL     1       0.316  16.154   3.321  1.00  0.00     0.159 HD
ATOM     48  H   UNL     1       3.038  19.122   3.183  1.00  0.00     0.159 HD
ATOM     49  H   UNL     1       1.900  18.976   4.484  1.00  0.00     0.159 HD
ENDBRANCH  41  42
ENDBRANCH  40  41
ENDBRANCH  39  40
ENDBRANCH  38  39
ENDBRANCH  36  38
ENDBRANCH   5  34
BRANCH   8  50
ATOM     50  O   UNL     1      -2.401  20.702   1.810  1.00  0.00    -0.245 OA
BRANCH  50  51
ATOM     51  S   UNL     1      -1.265  21.154   2.883  1.00  0.00     0.397 S 
ATOM     52  O   UNL     1      -0.605  22.331   2.364  1.00  0.00    -0.169 OA
ATOM     53  O   UNL     1      -0.516  19.992   3.317  1.00  0.00    -0.169 OA
BRANCH  51  54
ATOM     54  O   UNL     1      -2.156  21.661   4.122  1.00  0.00    -0.264 OA
ATOM     55  H   UNL     1      -2.464  22.567   3.916  1.00  0.00     0.236 HD
ENDBRANCH  51  54
ENDBRANCH  50  51
ENDBRANCH   8  50
TORSDOF 19
ENDMDL
MODEL 33
REMARK VINA RESULT:    -6.648      3.193      7.828
REMARK INTER + INTRA:         -17.060
REMARK INTER:                 -12.139
REMARK INTRA:                  -4.920
REMARK UNBOUND:                -3.611
REMARK SMILES CC[C@@H](C)[C@@H](NC(=O)[C@@H](O)Cc1ccc(O)c(Cl)c1)C(=O)N1[C@H](C(=O)NCCCCN=C(N)N)C[C@H]2CC[C@H](OS(=O)(=O)O)C[C@@H]21
REMARK SMILES IDX 22 1 36 2 46 3 35 4 23 5 45 6 37 7 39 8 38 9 20 10 21 11
REMARK SMILES IDX 5 12 6 13 7 14 8 15 9 17 11 18 12 19 17 20 19 21 15 22 14 23
REMARK SMILES IDX 13 24 18 25 16 26 10 28 3 30 4 31 2 32 1 33 24 34 25 35
REMARK SMILES IDX 26 36 27 38 28 39 29 40 30 41 31 42 32 43 33 44 34 45 40 50
REMARK SMILES IDX 41 51 42 52 43 53 44 54
REMARK H PARENT 6 16 16 27 10 29 26 37 33 46 33 47 34 48 34 49 44 55
ROOT
ATOM      1  N   UNL     1      -3.993  14.935   5.271  1.00  0.00    -0.326 N 
ATOM      2  C   UNL     1      -4.017  15.910   3.128  1.00  0.00     0.014 C 
ATOM      3  C   UNL     1      -4.134  16.240   4.619  1.00  0.00     0.091 C 
ATOM      4  C   UNL     1      -4.681  14.545   3.034  1.00  0.00     0.041 C 
ATOM      5  C   UNL     1      -4.054  13.852   4.258  1.00  0.00     0.175 C 
ATOM      6  C   UNL     1      -3.117  17.331   4.953  1.00  0.00     0.059 C 
ATOM      7  C   UNL     1      -4.539  17.051   2.278  1.00  0.00     0.008 C 
ATOM      8  C   UNL     1      -2.848  18.308   3.789  1.00  0.00     0.143 C 
ATOM      9  C   UNL     1      -4.050  18.408   2.827  1.00  0.00     0.034 C 
ENDROOT
BRANCH   1  10
ATOM     10  C   UNL     1      -4.034  14.605   6.615  1.00  0.00     0.246 C 
ATOM     11  O   UNL     1      -3.010  14.730   7.296  1.00  0.00    -0.272 OA
BRANCH  10  12
ATOM     12  C   UNL     1      -5.373  14.127   7.246  1.00  0.00     0.174 C 
BRANCH  12  13
ATOM     13  N   UNL     1      -5.714  12.796   6.746  1.00  0.00    -0.342 N 
ATOM     14  C   UNL     1      -6.243  11.777   7.506  1.00  0.00     0.249 C 
ATOM     15  O   UNL     1      -6.516  11.884   8.695  1.00  0.00    -0.272 OA
ATOM     16  H   UNL     1      -5.400  12.510   5.821  1.00  0.00     0.164 HD
BRANCH  14  17
ATOM     17  C   UNL     1      -6.476  10.486   6.692  1.00  0.00     0.207 C 
BRANCH  17  18
ATOM     18  C   UNL     1      -7.973  10.174   6.601  1.00  0.00     0.077 C 
BRANCH  18  19
ATOM     19  C   UNL     1      -8.677  11.080   5.615  1.00  0.00    -0.043 A 
ATOM     20  C   UNL     1      -8.642  12.415   3.591  1.00  0.00     0.083 A 
ATOM     21  C   UNL     1      -8.006  11.540   4.472  1.00  0.00     0.028 A 
ATOM     22  C   UNL     1      -9.947  12.837   3.845  1.00  0.00     0.134 A 
ATOM     23  C   UNL     1     -10.624  12.389   4.974  1.00  0.00     0.048 A 
ATOM     24  C   UNL     1      -9.989  11.514   5.859  1.00  0.00     0.008 A 
ATOM     25  Cl  UNL     1      -7.800  12.970   2.191  1.00  0.00    -0.080 Cl
BRANCH  22  26
ATOM     26  O   UNL     1     -10.608  13.702   3.016  1.00  0.00    -0.506 OA
ATOM     27  H   UNL     1     -10.832  14.487   3.550  1.00  0.00     0.293 HD
ENDBRANCH  22  26
ENDBRANCH  18  19
ENDBRANCH  17  18
BRANCH  17  28
ATOM     28  O   UNL     1      -5.792   9.370   7.284  1.00  0.00    -0.383 OA
ATOM     29  H   UNL     1      -6.493   8.735   7.556  1.00  0.00     0.211 HD
ENDBRANCH  17  28
ENDBRANCH  14  17
ENDBRANCH  12  13
BRANCH  12  30
ATOM     30  C   UNL     1      -6.527  15.147   7.050  1.00  0.00     0.018 C 
ATOM     31  C   UNL     1      -7.381  15.258   8.323  1.00  0.00     0.010 C 
BRANCH  30  32
ATOM     32  C   UNL     1      -7.429  14.838   5.830  1.00  0.00     0.002 C 
ATOM     33  C   UNL     1      -8.666  15.716   5.696  1.00  0.00     0.004 C 
ENDBRANCH  30  32
ENDBRANCH  12  30
ENDBRANCH  10  12
ENDBRANCH   1  10
BRANCH   5  34
ATOM     34  C   UNL     1      -2.633  13.312   3.944  1.00  0.00     0.242 C 
ATOM     35  O   UNL     1      -1.658  13.577   4.647  1.00  0.00    -0.273 OA
ATOM     36  N   UNL     1      -2.533  12.561   2.794  1.00  0.00    -0.354 N 
ATOM     37  H   UNL     1      -3.352  12.476   2.190  1.00  0.00     0.163 HD
BRANCH  36  38
ATOM     38  C   UNL     1      -1.343  11.805   2.465  1.00  0.00     0.116 C 
BRANCH  38  39
ATOM     39  C   UNL     1      -1.335  11.472   0.975  1.00  0.00     0.023 C 
BRANCH  39  40
ATOM     40  C   UNL     1      -0.002  11.799   0.311  1.00  0.00     0.026 C 
BRANCH  40  41
ATOM     41  C   UNL     1       0.573  13.103   0.864  1.00  0.00     0.146 C 
BRANCH  41  42
ATOM     42  N   UNL     1      -0.151  14.237   0.303  1.00  0.00    -0.254 NA
ATOM     43  C   UNL     1      -0.516  15.196   1.068  1.00  0.00     0.185 C 
ATOM     44  N   UNL     1      -0.339  15.363   2.391  1.00  0.00    -0.370 N 
ATOM     45  N   UNL     1      -1.186  16.230   0.532  1.00  0.00    -0.370 N 
ATOM     46  H   UNL     1      -0.885  16.037   2.900  1.00  0.00     0.159 HD
ATOM     47  H   UNL     1       0.161  14.680   2.952  1.00  0.00     0.159 HD
ATOM     48  H   UNL     1      -1.353  16.188  -0.464  1.00  0.00     0.159 HD
ATOM     49  H   UNL     1      -1.294  17.111   1.003  1.00  0.00     0.159 HD
ENDBRANCH  41  42
ENDBRANCH  40  41
ENDBRANCH  39  40
ENDBRANCH  38  39
ENDBRANCH  36  38
ENDBRANCH   5  34
BRANCH   8  50
ATOM     50  O   UNL     1      -1.707  17.881   3.045  1.00  0.00    -0.245 OA
BRANCH  50  51
ATOM     51  S   UNL     1      -0.269  18.600   3.297  1.00  0.00     0.397 S 
ATOM     52  O   UNL     1       0.509  17.747   4.166  1.00  0.00    -0.169 OA
ATOM     53  O   UNL     1      -0.473  20.003   3.592  1.00  0.00    -0.169 OA
BRANCH  51  54
ATOM     54  O   UNL     1       0.418  18.492   1.848  1.00  0.00    -0.264 OA
ATOM     55  H   UNL     1       1.381  18.627   1.963  1.00  0.00     0.236 HD
ENDBRANCH  51  54
ENDBRANCH  50  51
ENDBRANCH   8  50
TORSDOF 19
ENDMDL
MODEL 34
REMARK VINA RESULT:    -6.622      3.396      8.304
REMARK INTER + INTRA:         -17.008
REMARK INTER:                 -13.529
REMARK INTRA:                  -3.479
REMARK UNBOUND:                -3.611
REMARK SMILES CC[C@@H](C)[C@@H](NC(=O)[C@@H](O)Cc1ccc(O)c(Cl)c1)C(=O)N1[C@H](C(=O)NCCCCN=C(N)N)C[C@H]2CC[C@H](OS(=O)(=O)O)C[C@@H]21
REMARK SMILES IDX 22 1 36 2 46 3 35 4 23 5 45 6 37 7 39 8 38 9 20 10 21 11
REMARK SMILES IDX 5 12 6 13 7 14 8 15 9 17 11 18 12 19 17 20 19 21 15 22 14 23
REMARK SMILES IDX 13 24 18 25 16 26 10 28 3 30 4 31 2 32 1 33 24 34 25 35
REMARK SMILES IDX 26 36 27 38 28 39 29 40 30 41 31 42 32 43 33 44 34 45 40 50
REMARK SMILES IDX 41 51 42 52 43 53 44 54
REMARK H PARENT 6 16 16 27 10 29 26 37 33 46 33 47 34 48 34 49 44 55
ROOT
ATOM      1  N   UNL     1      -1.541  15.318   0.658  1.00  0.00    -0.326 N 
ATOM      2  C   UNL     1       0.733  14.874   1.077  1.00  0.00     0.014 C 
ATOM      3  C   UNL     1      -0.217  15.928   0.502  1.00  0.00     0.091 C 
ATOM      4  C   UNL     1       0.060  13.567   0.684  1.00  0.00     0.041 C 
ATOM      5  C   UNL     1      -1.401  13.894   1.048  1.00  0.00     0.175 C 
ATOM      6  C   UNL     1       0.055  17.257   1.205  1.00  0.00     0.059 C 
ATOM      7  C   UNL     1       2.161  15.135   0.640  1.00  0.00     0.008 C 
ATOM      8  C   UNL     1       1.527  17.445   1.631  1.00  0.00     0.143 C 
ATOM      9  C   UNL     1       2.495  16.638   0.742  1.00  0.00     0.034 C 
ENDROOT
BRANCH   1  10
ATOM     10  C   UNL     1      -2.788  15.800   0.298  1.00  0.00     0.246 C 
ATOM     11  O   UNL     1      -3.227  15.549  -0.830  1.00  0.00    -0.272 OA
BRANCH  10  12
ATOM     12  C   UNL     1      -3.625  16.608   1.331  1.00  0.00     0.174 C 
BRANCH  12  13
ATOM     13  N   UNL     1      -5.020  16.169   1.295  1.00  0.00    -0.342 N 
ATOM     14  C   UNL     1      -5.478  14.955   1.757  1.00  0.00     0.249 C 
ATOM     15  O   UNL     1      -4.763  14.111   2.281  1.00  0.00    -0.272 OA
ATOM     16  H   UNL     1      -5.699  16.694   0.751  1.00  0.00     0.164 HD
BRANCH  14  17
ATOM     17  C   UNL     1      -6.999  14.780   1.563  1.00  0.00     0.207 C 
BRANCH  17  18
ATOM     18  C   UNL     1      -7.367  13.293   1.522  1.00  0.00     0.077 C 
BRANCH  18  19
ATOM     19  C   UNL     1      -8.459  12.957   2.513  1.00  0.00    -0.043 A 
ATOM     20  C   UNL     1      -9.182  11.867   4.555  1.00  0.00     0.083 A 
ATOM     21  C   UNL     1      -8.163  12.218   3.669  1.00  0.00     0.028 A 
ATOM     22  C   UNL     1     -10.498  12.249   4.294  1.00  0.00     0.134 A 
ATOM     23  C   UNL     1     -10.804  12.981   3.153  1.00  0.00     0.048 A 
ATOM     24  C   UNL     1      -9.787  13.332   2.262  1.00  0.00     0.008 A 
ATOM     25  Cl  UNL     1      -8.799  10.958   5.970  1.00  0.00    -0.080 Cl
BRANCH  22  26
ATOM     26  O   UNL     1     -11.531  11.919   5.128  1.00  0.00    -0.506 OA
ATOM     27  H   UNL     1     -11.446  12.485   5.917  1.00  0.00     0.293 HD
ENDBRANCH  22  26
ENDBRANCH  18  19
ENDBRANCH  17  18
BRANCH  17  28
ATOM     28  O   UNL     1      -7.443  15.414   0.352  1.00  0.00    -0.383 OA
ATOM     29  H   UNL     1      -8.370  15.698   0.518  1.00  0.00     0.211 HD
ENDBRANCH  17  28
ENDBRANCH  14  17
ENDBRANCH  12  13
BRANCH  12  30
ATOM     30  C   UNL     1      -3.483  18.143   1.149  1.00  0.00     0.018 C 
ATOM     31  C   UNL     1      -3.381  18.848   2.511  1.00  0.00     0.010 C 
BRANCH  30  32
ATOM     32  C   UNL     1      -4.617  18.777   0.306  1.00  0.00     0.002 C 
ATOM     33  C   UNL     1      -4.330  18.897  -1.185  1.00  0.00     0.004 C 
ENDBRANCH  30  32
ENDBRANCH  12  30
ENDBRANCH  10  12
ENDBRANCH   1  10
BRANCH   5  34
ATOM     34  C   UNL     1      -1.667  13.710   2.565  1.00  0.00     0.242 C 
ATOM     35  O   UNL     1      -1.753  12.599   3.088  1.00  0.00    -0.273 OA
ATOM     36  N   UNL     1      -1.855  14.876   3.273  1.00  0.00    -0.354 N 
ATOM     37  H   UNL     1      -1.891  15.760   2.763  1.00  0.00     0.163 HD
BRANCH  36  38
ATOM     38  C   UNL     1      -1.899  14.904   4.720  1.00  0.00     0.116 C 
BRANCH  38  39
ATOM     39  C   UNL     1      -2.803  16.042   5.189  1.00  0.00     0.023 C 
BRANCH  39  40
ATOM     40  C   UNL     1      -3.850  15.577   6.196  1.00  0.00     0.026 C 
BRANCH  40  41
ATOM     41  C   UNL     1      -5.026  14.907   5.485  1.00  0.00     0.146 C 
BRANCH  41  42
ATOM     42  N   UNL     1      -5.362  13.660   6.159  1.00  0.00    -0.254 NA
ATOM     43  C   UNL     1      -5.098  12.542   5.593  1.00  0.00     0.185 C 
ATOM     44  N   UNL     1      -4.524  12.290   4.402  1.00  0.00    -0.370 N 
ATOM     45  N   UNL     1      -5.421  11.404   6.229  1.00  0.00    -0.370 N 
ATOM     46  H   UNL     1      -4.601  11.381   3.978  1.00  0.00     0.159 HD
ATOM     47  H   UNL     1      -4.205  13.039   3.795  1.00  0.00     0.159 HD
ATOM     48  H   UNL     1      -5.851  11.505   7.138  1.00  0.00     0.159 HD
ATOM     49  H   UNL     1      -5.042  10.510   5.970  1.00  0.00     0.159 HD
ENDBRANCH  41  42
ENDBRANCH  40  41
ENDBRANCH  39  40
ENDBRANCH  38  39
ENDBRANCH  36  38
ENDBRANCH   5  34
BRANCH   8  50
ATOM     50  O   UNL     1       1.702  17.029   2.986  1.00  0.00    -0.245 OA
BRANCH  50  51
ATOM     51  S   UNL     1       1.675  18.137   4.176  1.00  0.00     0.397 S 
ATOM     52  O   UNL     1       1.649  17.435   5.439  1.00  0.00    -0.169 OA
ATOM     53  O   UNL     1       0.708  19.167   3.859  1.00  0.00    -0.169 OA
BRANCH  51  54
ATOM     54  O   UNL     1       3.143  18.784   4.065  1.00  0.00    -0.264 OA
ATOM     55  H   UNL     1       3.037  19.719   3.795  1.00  0.00     0.236 HD
ENDBRANCH  51  54
ENDBRANCH  50  51
ENDBRANCH   8  50
TORSDOF 19
ENDMDL
MODEL 35
REMARK VINA RESULT:    -6.559      3.275      7.723
REMARK INTER + INTRA:         -16.881
REMARK INTER:                 -12.627
REMARK INTRA:                  -4.254
REMARK UNBOUND:                -3.611
REMARK SMILES CC[C@@H](C)[C@@H](NC(=O)[C@@H](O)Cc1ccc(O)c(Cl)c1)C(=O)N1[C@H](C(=O)NCCCCN=C(N)N)C[C@H]2CC[C@H](OS(=O)(=O)O)C[C@@H]21
REMARK SMILES IDX 22 1 36 2 46 3 35 4 23 5 45 6 37 7 39 8 38 9 20 10 21 11
REMARK SMILES IDX 5 12 6 13 7 14 8 15 9 17 11 18 12 19 17 20 19 21 15 22 14 23
REMARK SMILES IDX 13 24 18 25 16 26 10 28 3 30 4 31 2 32 1 33 24 34 25 35
REMARK SMILES IDX 26 36 27 38 28 39 29 40 30 41 31 42 32 43 33 44 34 45 40 50
REMARK SMILES IDX 41 51 42 52 43 53 44 54
REMARK H PARENT 6 16 16 27 10 29 26 37 33 46 33 47 34 48 34 49 44 55
ROOT
ATOM      1  N   UNL     1      -4.937  15.688   3.921  1.00  0.00    -0.326 N 
ATOM      2  C   UNL     1      -5.796  15.029   1.831  1.00  0.00     0.014 C 
ATOM      3  C   UNL     1      -5.742  16.205   2.810  1.00  0.00     0.091 C 
ATOM      4  C   UNL     1      -5.827  13.823   2.757  1.00  0.00     0.041 C 
ATOM      5  C   UNL     1      -4.736  14.226   3.766  1.00  0.00     0.175 C 
ATOM      6  C   UNL     1      -5.236  17.435   2.060  1.00  0.00     0.059 C 
ATOM      7  C   UNL     1      -6.909  15.217   0.819  1.00  0.00     0.008 C 
ATOM      8  C   UNL     1      -5.642  17.465   0.570  1.00  0.00     0.143 C 
ATOM      9  C   UNL     1      -6.938  16.673   0.308  1.00  0.00     0.034 C 
ENDROOT
BRANCH   1  10
ATOM     10  C   UNL     1      -4.566  16.298   5.107  1.00  0.00     0.246 C 
ATOM     11  O   UNL     1      -3.511  16.940   5.149  1.00  0.00    -0.272 OA
BRANCH  10  12
ATOM     12  C   UNL     1      -5.503  16.199   6.346  1.00  0.00     0.174 C 
BRANCH  12  13
ATOM     13  N   UNL     1      -5.452  14.847   6.903  1.00  0.00    -0.342 N 
ATOM     14  C   UNL     1      -5.156  14.542   8.212  1.00  0.00     0.249 C 
ATOM     15  O   UNL     1      -4.926  15.383   9.073  1.00  0.00    -0.272 OA
ATOM     16  H   UNL     1      -5.466  14.045   6.278  1.00  0.00     0.164 HD
BRANCH  14  17
ATOM     17  C   UNL     1      -5.165  13.024   8.487  1.00  0.00     0.207 C 
BRANCH  17  18
ATOM     18  C   UNL     1      -6.570  12.560   8.884  1.00  0.00     0.077 C 
BRANCH  18  19
ATOM     19  C   UNL     1      -7.222  11.744   7.791  1.00  0.00    -0.043 A 
ATOM     20  C   UNL     1      -7.093  10.010   6.100  1.00  0.00     0.083 A 
ATOM     21  C   UNL     1      -6.504  10.728   7.141  1.00  0.00     0.028 A 
ATOM     22  C   UNL     1      -8.398  10.302   5.700  1.00  0.00     0.134 A 
ATOM     23  C   UNL     1      -9.120  11.306   6.336  1.00  0.00     0.048 A 
ATOM     24  C   UNL     1      -8.533  12.027   7.377  1.00  0.00     0.008 A 
ATOM     25  Cl  UNL     1      -6.195   8.766   5.313  1.00  0.00    -0.080 Cl
BRANCH  22  26
ATOM     26  O   UNL     1      -9.013   9.633   4.677  1.00  0.00    -0.506 OA
ATOM     27  H   UNL     1      -8.574   8.765   4.606  1.00  0.00     0.293 HD
ENDBRANCH  22  26
ENDBRANCH  18  19
ENDBRANCH  17  18
BRANCH  17  28
ATOM     28  O   UNL     1      -4.237  12.681   9.529  1.00  0.00    -0.383 OA
ATOM     29  H   UNL     1      -3.572  13.406   9.550  1.00  0.00     0.211 HD
ENDBRANCH  17  28
ENDBRANCH  14  17
ENDBRANCH  12  13
BRANCH  12  30
ATOM     30  C   UNL     1      -6.953  16.660   6.040  1.00  0.00     0.018 C 
ATOM     31  C   UNL     1      -7.386  17.777   7.001  1.00  0.00     0.010 C 
BRANCH  30  32
ATOM     32  C   UNL     1      -7.988  15.509   6.061  1.00  0.00     0.002 C 
ATOM     33  C   UNL     1      -8.676  15.226   4.732  1.00  0.00     0.004 C 
ENDBRANCH  30  32
ENDBRANCH  12  30
ENDBRANCH  10  12
ENDBRANCH   1  10
BRANCH   5  34
ATOM     34  C   UNL     1      -3.314  13.920   3.224  1.00  0.00     0.242 C 
ATOM     35  O   UNL     1      -2.505  14.809   2.961  1.00  0.00    -0.273 OA
ATOM     36  N   UNL     1      -3.044  12.587   3.009  1.00  0.00    -0.354 N 
ATOM     37  H   UNL     1      -3.796  11.907   3.132  1.00  0.00     0.163 HD
BRANCH  36  38
ATOM     38  C   UNL     1      -1.710  12.106   2.715  1.00  0.00     0.116 C 
BRANCH  38  39
ATOM     39  C   UNL     1      -1.553  11.903   1.210  1.00  0.00     0.023 C 
BRANCH  39  40
ATOM     40  C   UNL     1      -0.094  11.746   0.792  1.00  0.00     0.026 C 
BRANCH  40  41
ATOM     41  C   UNL     1       0.411  13.013   0.102  1.00  0.00     0.146 C 
BRANCH  41  42
ATOM     42  N   UNL     1       0.741  14.021   1.102  1.00  0.00    -0.254 NA
ATOM     43  C   UNL     1       0.082  15.117   1.137  1.00  0.00     0.185 C 
ATOM     44  N   UNL     1      -0.934  15.541   0.363  1.00  0.00    -0.370 N 
ATOM     45  N   UNL     1       0.404  16.035   2.063  1.00  0.00    -0.370 N 
ATOM     46  H   UNL     1      -1.192  16.513   0.342  1.00  0.00     0.159 HD
ATOM     47  H   UNL     1      -1.314  14.964  -0.381  1.00  0.00     0.159 HD
ATOM     48  H   UNL     1       1.155  15.791   2.694  1.00  0.00     0.159 HD
ATOM     49  H   UNL     1      -0.202  16.798   2.307  1.00  0.00     0.159 HD
ENDBRANCH  41  42
ENDBRANCH  40  41
ENDBRANCH  39  40
ENDBRANCH  38  39
ENDBRANCH  36  38
ENDBRANCH   5  34
BRANCH   8  50
ATOM     50  O   UNL     1      -4.600  16.909  -0.233  1.00  0.00    -0.245 OA
BRANCH  50  51
ATOM     51  S   UNL     1      -3.552  17.899  -0.986  1.00  0.00     0.397 S 
ATOM     52  O   UNL     1      -2.596  18.365  -0.008  1.00  0.00    -0.169 OA
ATOM     53  O   UNL     1      -4.279  18.819  -1.837  1.00  0.00    -0.169 OA
BRANCH  51  54
ATOM     54  O   UNL     1      -2.748  16.878  -1.933  1.00  0.00    -0.264 OA
ATOM     55  H   UNL     1      -3.291  16.723  -2.733  1.00  0.00     0.236 HD
ENDBRANCH  51  54
ENDBRANCH  50  51
ENDBRANCH   8  50
TORSDOF 19
ENDMDL
MODEL 36
REMARK VINA RESULT:    -6.558      4.112      8.583
REMARK INTER + INTRA:         -16.878
REMARK INTER:                 -14.169
REMARK INTRA:                  -2.709
REMARK UNBOUND:                -3.611
REMARK SMILES CC[C@@H](C)[C@@H](NC(=O)[C@@H](O)Cc1ccc(O)c(Cl)c1)C(=O)N1[C@H](C(=O)NCCCCN=C(N)N)C[C@H]2CC[C@H](OS(=O)(=O)O)C[C@@H]21
REMARK SMILES IDX 22 1 36 2 46 3 35 4 23 5 45 6 37 7 39 8 38 9 20 10 21 11
REMARK SMILES IDX 5 12 6 13 7 14 8 15 9 17 11 18 12 19 17 20 19 21 15 22 14 23
REMARK SMILES IDX 13 24 18 25 16 26 10 28 3 30 4 31 2 32 1 33 24 34 25 35
REMARK SMILES IDX 26 36 27 38 28 39 29 40 30 41 31 42 32 43 33 44 34 45 40 50
REMARK SMILES IDX 41 51 42 52 43 53 44 54
REMARK H PARENT 6 16 16 27 10 29 26 37 33 46 33 47 34 48 34 49 44 55
ROOT
ATOM      1  N   UNL     1      -2.319  16.146   0.784  1.00  0.00    -0.326 N 
ATOM      2  C   UNL     1      -3.073  18.113  -0.267  1.00  0.00     0.014 C 
ATOM      3  C   UNL     1      -3.184  17.304   1.028  1.00  0.00     0.091 C 
ATOM      4  C   UNL     1      -2.940  17.031  -1.328  1.00  0.00     0.041 C 
ATOM      5  C   UNL     1      -1.918  16.103  -0.644  1.00  0.00     0.175 C 
ATOM      6  C   UNL     1      -2.850  18.222   2.202  1.00  0.00     0.059 C 
ATOM      7  C   UNL     1      -4.198  19.124  -0.373  1.00  0.00     0.008 C 
ATOM      8  C   UNL     1      -3.252  19.696   1.972  1.00  0.00     0.143 C 
ATOM      9  C   UNL     1      -4.426  19.828   0.981  1.00  0.00     0.034 C 
ENDROOT
BRANCH   1  10
ATOM     10  C   UNL     1      -2.040  15.059   1.596  1.00  0.00     0.246 C 
ATOM     11  O   UNL     1      -1.095  15.129   2.389  1.00  0.00    -0.272 OA
BRANCH  10  12
ATOM     12  C   UNL     1      -2.944  13.795   1.523  1.00  0.00     0.174 C 
BRANCH  12  13
ATOM     13  N   UNL     1      -3.977  13.861   2.557  1.00  0.00    -0.342 N 
ATOM     14  C   UNL     1      -5.243  14.371   2.378  1.00  0.00     0.249 C 
ATOM     15  O   UNL     1      -5.658  14.807   1.311  1.00  0.00    -0.272 OA
ATOM     16  H   UNL     1      -3.730  13.682   3.527  1.00  0.00     0.164 HD
BRANCH  14  17
ATOM     17  C   UNL     1      -6.094  14.316   3.664  1.00  0.00     0.207 C 
BRANCH  17  18
ATOM     18  C   UNL     1      -7.487  14.902   3.410  1.00  0.00     0.077 C 
BRANCH  18  19
ATOM     19  C   UNL     1      -8.560  13.836   3.447  1.00  0.00    -0.043 A 
ATOM     20  C   UNL     1      -9.693  12.034   4.610  1.00  0.00     0.083 A 
ATOM     21  C   UNL     1      -8.736  13.049   4.596  1.00  0.00     0.028 A 
ATOM     22  C   UNL     1     -10.478  11.798   3.480  1.00  0.00     0.134 A 
ATOM     23  C   UNL     1     -10.314  12.571   2.336  1.00  0.00     0.048 A 
ATOM     24  C   UNL     1      -9.355  13.586   2.318  1.00  0.00     0.008 A 
ATOM     25  Cl  UNL     1      -9.895  11.077   6.030  1.00  0.00    -0.080 Cl
BRANCH  22  26
ATOM     26  O   UNL     1     -11.421  10.808   3.442  1.00  0.00    -0.506 OA
ATOM     27  H   UNL     1     -11.906  10.914   2.603  1.00  0.00     0.293 HD
ENDBRANCH  22  26
ENDBRANCH  18  19
ENDBRANCH  17  18
BRANCH  17  28
ATOM     28  O   UNL     1      -5.463  15.038   4.734  1.00  0.00    -0.383 OA
ATOM     29  H   UNL     1      -6.156  15.623   5.114  1.00  0.00     0.211 HD
ENDBRANCH  17  28
ENDBRANCH  14  17
ENDBRANCH  12  13
BRANCH  12  30
ATOM     30  C   UNL     1      -2.133  12.473   1.579  1.00  0.00     0.018 C 
ATOM     31  C   UNL     1      -1.729  12.141   3.024  1.00  0.00     0.010 C 
BRANCH  30  32
ATOM     32  C   UNL     1      -0.884  12.471   0.664  1.00  0.00     0.002 C 
ATOM     33  C   UNL     1       0.064  11.295   0.859  1.00  0.00     0.004 C 
ENDBRANCH  30  32
ENDBRANCH  12  30
ENDBRANCH  10  12
ENDBRANCH   1  10
BRANCH   5  34
ATOM     34  C   UNL     1      -0.466  16.621  -0.824  1.00  0.00     0.242 C 
ATOM     35  O   UNL     1      -0.151  17.398  -1.725  1.00  0.00    -0.273 OA
ATOM     36  N   UNL     1       0.453  16.106   0.063  1.00  0.00    -0.354 N 
ATOM     37  H   UNL     1       0.155  15.374   0.710  1.00  0.00     0.163 HD
BRANCH  36  38
ATOM     38  C   UNL     1       1.796  16.635   0.179  1.00  0.00     0.116 C 
BRANCH  38  39
ATOM     39  C   UNL     1       2.164  16.798   1.652  1.00  0.00     0.023 C 
BRANCH  39  40
ATOM     40  C   UNL     1       1.239  17.769   2.379  1.00  0.00     0.026 C 
BRANCH  40  41
ATOM     41  C   UNL     1       1.458  17.697   3.890  1.00  0.00     0.146 C 
BRANCH  41  42
ATOM     42  N   UNL     1       2.821  18.100   4.210  1.00  0.00    -0.254 NA
ATOM     43  C   UNL     1       3.042  19.270   4.679  1.00  0.00     0.185 C 
ATOM     44  N   UNL     1       2.184  20.269   4.952  1.00  0.00    -0.370 N 
ATOM     45  N   UNL     1       4.307  19.623   4.963  1.00  0.00    -0.370 N 
ATOM     46  H   UNL     1       2.516  21.209   5.083  1.00  0.00     0.159 HD
ATOM     47  H   UNL     1       1.184  20.167   4.809  1.00  0.00     0.159 HD
ATOM     48  H   UNL     1       5.017  18.923   4.794  1.00  0.00     0.159 HD
ATOM     49  H   UNL     1       4.534  20.411   5.543  1.00  0.00     0.159 HD
ENDBRANCH  41  42
ENDBRANCH  40  41
ENDBRANCH  39  40
ENDBRANCH  38  39
ENDBRANCH  36  38
ENDBRANCH   5  34
BRANCH   8  50
ATOM     50  O   UNL     1      -2.141  20.432   1.459  1.00  0.00    -0.245 OA
BRANCH  50  51
ATOM     51  S   UNL     1      -1.500  21.638   2.344  1.00  0.00     0.397 S 
ATOM     52  O   UNL     1      -2.453  21.991   3.372  1.00  0.00    -0.169 OA
ATOM     53  O   UNL     1      -0.928  22.635   1.463  1.00  0.00    -0.169 OA
BRANCH  51  54
ATOM     54  O   UNL     1      -0.293  20.893   3.101  1.00  0.00    -0.264 OA
ATOM     55  H   UNL     1      -0.685  20.265   3.742  1.00  0.00     0.236 HD
ENDBRANCH  51  54
ENDBRANCH  50  51
ENDBRANCH   8  50
TORSDOF 19
ENDMDL
MODEL 37
REMARK VINA RESULT:    -6.546      3.416      7.584
REMARK INTER + INTRA:         -16.854
REMARK INTER:                 -12.037
REMARK INTRA:                  -4.817
REMARK UNBOUND:                -3.611
REMARK SMILES CC[C@@H](C)[C@@H](NC(=O)[C@@H](O)Cc1ccc(O)c(Cl)c1)C(=O)N1[C@H](C(=O)NCCCCN=C(N)N)C[C@H]2CC[C@H](OS(=O)(=O)O)C[C@@H]21
REMARK SMILES IDX 22 1 36 2 46 3 35 4 23 5 45 6 37 7 39 8 38 9 20 10 21 11
REMARK SMILES IDX 5 12 6 13 7 14 8 15 9 17 11 18 12 19 17 20 19 21 15 22 14 23
REMARK SMILES IDX 13 24 18 25 16 26 10 28 3 30 4 31 2 32 1 33 24 34 25 35
REMARK SMILES IDX 26 36 27 38 28 39 29 40 30 41 31 42 32 43 33 44 34 45 40 50
REMARK SMILES IDX 41 51 42 52 43 53 44 54
REMARK H PARENT 6 16 16 27 10 29 26 37 33 46 33 47 34 48 34 49 44 55
ROOT
ATOM      1  N   UNL     1      -4.137  15.524   3.078  1.00  0.00    -0.326 N 
ATOM      2  C   UNL     1      -5.815  15.312   1.440  1.00  0.00     0.014 C 
ATOM      3  C   UNL     1      -5.244  16.278   2.483  1.00  0.00     0.091 C 
ATOM      4  C   UNL     1      -5.625  13.955   2.101  1.00  0.00     0.041 C 
ATOM      5  C   UNL     1      -4.187  14.110   2.631  1.00  0.00     0.175 C 
ATOM      6  C   UNL     1      -4.929  17.603   1.792  1.00  0.00     0.059 C 
ATOM      7  C   UNL     1      -7.203  15.740   1.008  1.00  0.00     0.008 C 
ATOM      8  C   UNL     1      -5.877  17.933   0.619  1.00  0.00     0.143 C 
ATOM      9  C   UNL     1      -7.258  17.266   0.784  1.00  0.00     0.034 C 
ENDROOT
BRANCH   1  10
ATOM     10  C   UNL     1      -3.264  15.880   4.091  1.00  0.00     0.246 C 
ATOM     11  O   UNL     1      -2.195  16.427   3.799  1.00  0.00    -0.272 OA
BRANCH  10  12
ATOM     12  C   UNL     1      -3.664  15.625   5.574  1.00  0.00     0.174 C 
BRANCH  12  13
ATOM     13  N   UNL     1      -5.059  15.194   5.646  1.00  0.00    -0.342 N 
ATOM     14  C   UNL     1      -5.499  14.042   6.259  1.00  0.00     0.249 C 
ATOM     15  O   UNL     1      -4.763  13.256   6.842  1.00  0.00    -0.272 OA
ATOM     16  H   UNL     1      -5.761  15.660   5.077  1.00  0.00     0.164 HD
BRANCH  14  17
ATOM     17  C   UNL     1      -7.028  13.856   6.151  1.00  0.00     0.207 C 
BRANCH  17  18
ATOM     18  C   UNL     1      -7.629  14.903   5.208  1.00  0.00     0.077 C 
BRANCH  18  19
ATOM     19  C   UNL     1      -8.592  14.284   4.220  1.00  0.00    -0.043 A 
ATOM     20  C   UNL     1     -10.495  14.485   2.730  1.00  0.00     0.083 A 
ATOM     21  C   UNL     1      -9.577  15.070   3.603  1.00  0.00     0.028 A 
ATOM     22  C   UNL     1     -10.436  13.115   2.469  1.00  0.00     0.134 A 
ATOM     23  C   UNL     1      -9.465  12.325   3.074  1.00  0.00     0.048 A 
ATOM     24  C   UNL     1      -8.546  12.907   3.950  1.00  0.00     0.008 A 
ATOM     25  Cl  UNL     1     -11.698  15.467   1.981  1.00  0.00    -0.080 Cl
BRANCH  22  26
ATOM     26  O   UNL     1     -11.321  12.496   1.629  1.00  0.00    -0.506 OA
ATOM     27  H   UNL     1     -11.185  12.883   0.744  1.00  0.00     0.293 HD
ENDBRANCH  22  26
ENDBRANCH  18  19
ENDBRANCH  17  18
BRANCH  17  28
ATOM     28  O   UNL     1      -7.654  13.960   7.440  1.00  0.00    -0.383 OA
ATOM     29  H   UNL     1      -8.063  14.854   7.472  1.00  0.00     0.211 HD
ENDBRANCH  17  28
ENDBRANCH  14  17
ENDBRANCH  12  13
BRANCH  12  30
ATOM     30  C   UNL     1      -3.371  16.843   6.492  1.00  0.00     0.018 C 
ATOM     31  C   UNL     1      -2.955  16.380   7.897  1.00  0.00     0.010 C 
BRANCH  30  32
ATOM     32  C   UNL     1      -4.548  17.844   6.589  1.00  0.00     0.002 C 
ATOM     33  C   UNL     1      -5.149  18.010   7.979  1.00  0.00     0.004 C 
ENDBRANCH  30  32
ENDBRANCH  12  30
ENDBRANCH  10  12
ENDBRANCH   1  10
BRANCH   5  34
ATOM     34  C   UNL     1      -3.136  13.846   1.520  1.00  0.00     0.242 C 
ATOM     35  O   UNL     1      -2.733  14.736   0.772  1.00  0.00    -0.273 OA
ATOM     36  N   UNL     1      -2.730  12.536   1.397  1.00  0.00    -0.354 N 
ATOM     37  H   UNL     1      -3.189  11.824   1.966  1.00  0.00     0.163 HD
BRANCH  36  38
ATOM     38  C   UNL     1      -1.607  12.150   0.567  1.00  0.00     0.116 C 
BRANCH  38  39
ATOM     39  C   UNL     1      -0.298  12.524   1.258  1.00  0.00     0.023 C 
BRANCH  39  40
ATOM     40  C   UNL     1       0.767  12.994   0.273  1.00  0.00     0.026 C 
BRANCH  40  41
ATOM     41  C   UNL     1       0.705  14.511   0.090  1.00  0.00     0.146 C 
BRANCH  41  42
ATOM     42  N   UNL     1       1.083  15.172   1.332  1.00  0.00    -0.254 NA
ATOM     43  C   UNL     1       0.408  16.179   1.744  1.00  0.00     0.185 C 
ATOM     44  N   UNL     1      -0.667  16.781   1.202  1.00  0.00    -0.370 N 
ATOM     45  N   UNL     1       0.775  16.778   2.889  1.00  0.00    -0.370 N 
ATOM     46  H   UNL     1      -0.943  17.701   1.499  1.00  0.00     0.159 HD
ATOM     47  H   UNL     1      -1.085  16.447   0.339  1.00  0.00     0.159 HD
ATOM     48  H   UNL     1       1.572  16.380   3.367  1.00  0.00     0.159 HD
ATOM     49  H   UNL     1       0.173  17.404   3.393  1.00  0.00     0.159 HD
ENDBRANCH  41  42
ENDBRANCH  40  41
ENDBRANCH  39  40
ENDBRANCH  38  39
ENDBRANCH  36  38
ENDBRANCH   5  34
BRANCH   8  50
ATOM     50  O   UNL     1      -5.305  17.492  -0.613  1.00  0.00    -0.245 OA
BRANCH  50  51
ATOM     51  S   UNL     1      -4.056  18.311  -1.257  1.00  0.00     0.397 S 
ATOM     52  O   UNL     1      -2.834  17.660  -0.841  1.00  0.00    -0.169 OA
ATOM     53  O   UNL     1      -4.260  19.733  -1.072  1.00  0.00    -0.169 OA
BRANCH  51  54
ATOM     54  O   UNL     1      -4.214  17.987  -2.824  1.00  0.00    -0.264 OA
ATOM     55  H   UNL     1      -4.880  18.604  -3.190  1.00  0.00     0.236 HD
ENDBRANCH  51  54
ENDBRANCH  50  51
ENDBRANCH   8  50
TORSDOF 19
ENDMDL
MODEL 38
REMARK VINA RESULT:    -6.540      3.310      8.477
REMARK INTER + INTRA:         -16.841
REMARK INTER:                 -13.742
REMARK INTRA:                  -3.099
REMARK UNBOUND:                -3.611
REMARK SMILES CC[C@@H](C)[C@@H](NC(=O)[C@@H](O)Cc1ccc(O)c(Cl)c1)C(=O)N1[C@H](C(=O)NCCCCN=C(N)N)C[C@H]2CC[C@H](OS(=O)(=O)O)C[C@@H]21
REMARK SMILES IDX 22 1 36 2 46 3 35 4 23 5 45 6 37 7 39 8 38 9 20 10 21 11
REMARK SMILES IDX 5 12 6 13 7 14 8 15 9 17 11 18 12 19 17 20 19 21 15 22 14 23
REMARK SMILES IDX 13 24 18 25 16 26 10 28 3 30 4 31 2 32 1 33 24 34 25 35
REMARK SMILES IDX 26 36 27 38 28 39 29 40 30 41 31 42 32 43 33 44 34 45 40 50
REMARK SMILES IDX 41 51 42 52 43 53 44 54
REMARK H PARENT 6 16 16 27 10 29 26 37 33 46 33 47 34 48 34 49 44 55
ROOT
ATOM      1  N   UNL     1      -1.785  15.933   0.549  1.00  0.00    -0.326 N 
ATOM      2  C   UNL     1      -2.329  17.452  -1.165  1.00  0.00     0.014 C 
ATOM      3  C   UNL     1      -2.950  16.535  -0.107  1.00  0.00     0.091 C 
ATOM      4  C   UNL     1      -1.090  16.682  -1.591  1.00  0.00     0.041 C 
ATOM      5  C   UNL     1      -0.553  16.246  -0.216  1.00  0.00     0.175 C 
ATOM      6  C   UNL     1      -3.914  17.360   0.743  1.00  0.00     0.059 C 
ATOM      7  C   UNL     1      -3.355  17.847  -2.208  1.00  0.00     0.008 C 
ATOM      8  C   UNL     1      -4.601  18.506  -0.032  1.00  0.00     0.143 C 
ATOM      9  C   UNL     1      -4.700  18.206  -1.542  1.00  0.00     0.034 C 
ENDROOT
BRANCH   1  10
ATOM     10  C   UNL     1      -1.726  15.005   1.575  1.00  0.00     0.246 C 
ATOM     11  O   UNL     1      -0.972  15.213   2.531  1.00  0.00    -0.272 OA
BRANCH  10  12
ATOM     12  C   UNL     1      -2.637  13.744   1.522  1.00  0.00     0.174 C 
BRANCH  12  13
ATOM     13  N   UNL     1      -3.594  13.774   2.628  1.00  0.00    -0.342 N 
ATOM     14  C   UNL     1      -4.948  13.985   2.496  1.00  0.00     0.249 C 
ATOM     15  O   UNL     1      -5.512  14.144   1.420  1.00  0.00    -0.272 OA
ATOM     16  H   UNL     1      -3.255  13.814   3.586  1.00  0.00     0.164 HD
BRANCH  14  17
ATOM     17  C   UNL     1      -5.687  13.977   3.851  1.00  0.00     0.207 C 
BRANCH  17  18
ATOM     18  C   UNL     1      -6.486  12.680   4.018  1.00  0.00     0.077 C 
BRANCH  18  19
ATOM     19  C   UNL     1      -6.908  12.462   5.453  1.00  0.00    -0.043 A 
ATOM     20  C   UNL     1      -6.376  12.423   7.820  1.00  0.00     0.083 A 
ATOM     21  C   UNL     1      -5.997  12.673   6.500  1.00  0.00     0.028 A 
ATOM     22  C   UNL     1      -7.662  11.960   8.102  1.00  0.00     0.134 A 
ATOM     23  C   UNL     1      -8.574  11.747   7.075  1.00  0.00     0.048 A 
ATOM     24  C   UNL     1      -8.198  11.994   5.753  1.00  0.00     0.008 A 
ATOM     25  Cl  UNL     1      -5.242  12.688   9.092  1.00  0.00    -0.080 Cl
BRANCH  22  26
ATOM     26  O   UNL     1      -8.075  11.691   9.378  1.00  0.00    -0.506 OA
ATOM     27  H   UNL     1      -8.550  12.483   9.692  1.00  0.00     0.293 HD
ENDBRANCH  22  26
ENDBRANCH  18  19
ENDBRANCH  17  18
BRANCH  17  28
ATOM     28  O   UNL     1      -6.575  15.101   3.962  1.00  0.00    -0.383 OA
ATOM     29  H   UNL     1      -6.601  15.516   3.070  1.00  0.00     0.211 HD
ENDBRANCH  17  28
ENDBRANCH  14  17
ENDBRANCH  12  13
BRANCH  12  30
ATOM     30  C   UNL     1      -1.828  12.420   1.475  1.00  0.00     0.018 C 
ATOM     31  C   UNL     1      -1.598  11.870   2.891  1.00  0.00     0.010 C 
BRANCH  30  32
ATOM     32  C   UNL     1      -0.478  12.543   0.726  1.00  0.00     0.002 C 
ATOM     33  C   UNL     1       0.290  11.240   0.552  1.00  0.00     0.004 C 
ENDBRANCH  30  32
ENDBRANCH  12  30
ENDBRANCH  10  12
ENDBRANCH   1  10
BRANCH   5  34
ATOM     34  C   UNL     1       0.249  17.383   0.472  1.00  0.00     0.242 C 
ATOM     35  O   UNL     1       0.019  18.573   0.258  1.00  0.00    -0.273 OA
ATOM     36  N   UNL     1       1.269  16.964   1.297  1.00  0.00    -0.354 N 
ATOM     37  H   UNL     1       1.488  15.968   1.341  1.00  0.00     0.163 HD
BRANCH  36  38
ATOM     38  C   UNL     1       1.972  17.872   2.179  1.00  0.00     0.116 C 
BRANCH  38  39
ATOM     39  C   UNL     1       1.699  17.498   3.633  1.00  0.00     0.023 C 
BRANCH  39  40
ATOM     40  C   UNL     1       0.389  18.085   4.149  1.00  0.00     0.026 C 
BRANCH  40  41
ATOM     41  C   UNL     1       0.028  17.491   5.511  1.00  0.00     0.146 C 
BRANCH  41  42
ATOM     42  N   UNL     1      -1.412  17.281   5.590  1.00  0.00    -0.254 NA
ATOM     43  C   UNL     1      -1.879  16.090   5.588  1.00  0.00     0.185 C 
ATOM     44  N   UNL     1      -1.238  14.908   5.522  1.00  0.00    -0.370 N 
ATOM     45  N   UNL     1      -3.210  15.918   5.658  1.00  0.00    -0.370 N 
ATOM     46  H   UNL     1      -1.735  14.068   5.283  1.00  0.00     0.159 HD
ATOM     47  H   UNL     1      -0.225  14.854   5.477  1.00  0.00     0.159 HD
ATOM     48  H   UNL     1      -3.767  16.759   5.719  1.00  0.00     0.159 HD
ATOM     49  H   UNL     1      -3.633  15.039   5.897  1.00  0.00     0.159 HD
ENDBRANCH  41  42
ENDBRANCH  40  41
ENDBRANCH  39  40
ENDBRANCH  38  39
ENDBRANCH  36  38
ENDBRANCH   5  34
BRANCH   8  50
ATOM     50  O   UNL     1      -3.871  19.721   0.142  1.00  0.00    -0.245 OA
BRANCH  50  51
ATOM     51  S   UNL     1      -4.654  21.145   0.072  1.00  0.00     0.397 S 
ATOM     52  O   UNL     1      -5.863  21.028   0.856  1.00  0.00    -0.169 OA
ATOM     53  O   UNL     1      -4.678  21.619  -1.296  1.00  0.00    -0.169 OA
BRANCH  51  54
ATOM     54  O   UNL     1      -3.678  22.106   0.913  1.00  0.00    -0.264 OA
ATOM     55  H   UNL     1      -3.927  23.032   0.715  1.00  0.00     0.236 HD
ENDBRANCH  51  54
ENDBRANCH  50  51
ENDBRANCH   8  50
TORSDOF 19
ENDMDL
MODEL 39
REMARK VINA RESULT:    -6.452      3.494      8.361
REMARK INTER + INTRA:         -16.664
REMARK INTER:                 -12.740
REMARK INTRA:                  -3.923
REMARK UNBOUND:                -3.611
REMARK SMILES CC[C@@H](C)[C@@H](NC(=O)[C@@H](O)Cc1ccc(O)c(Cl)c1)C(=O)N1[C@H](C(=O)NCCCCN=C(N)N)C[C@H]2CC[C@H](OS(=O)(=O)O)C[C@@H]21
REMARK SMILES IDX 22 1 36 2 46 3 35 4 23 5 45 6 37 7 39 8 38 9 20 10 21 11
REMARK SMILES IDX 5 12 6 13 7 14 8 15 9 17 11 18 12 19 17 20 19 21 15 22 14 23
REMARK SMILES IDX 13 24 18 25 16 26 10 28 3 30 4 31 2 32 1 33 24 34 25 35
REMARK SMILES IDX 26 36 27 38 28 39 29 40 30 41 31 42 32 43 33 44 34 45 40 50
REMARK SMILES IDX 41 51 42 52 43 53 44 54
REMARK H PARENT 6 16 16 27 10 29 26 37 33 46 33 47 34 48 34 49 44 55
ROOT
ATOM      1  N   UNL     1      -3.244  17.842   0.893  1.00  0.00    -0.326 N 
ATOM      2  C   UNL     1      -2.570  16.860  -1.138  1.00  0.00     0.014 C 
ATOM      3  C   UNL     1      -2.132  17.859  -0.062  1.00  0.00     0.091 C 
ATOM      4  C   UNL     1      -4.077  17.059  -1.186  1.00  0.00     0.041 C 
ATOM      5  C   UNL     1      -4.394  17.099   0.320  1.00  0.00     0.175 C 
ATOM      6  C   UNL     1      -0.745  17.457   0.434  1.00  0.00     0.059 C 
ATOM      7  C   UNL     1      -1.756  17.037  -2.405  1.00  0.00     0.008 C 
ATOM      8  C   UNL     1       0.133  16.789  -0.647  1.00  0.00     0.143 C 
ATOM      9  C   UNL     1      -0.262  17.233  -2.069  1.00  0.00     0.034 C 
ENDROOT
BRANCH   1  10
ATOM     10  C   UNL     1      -3.420  18.561   2.063  1.00  0.00     0.246 C 
ATOM     11  O   UNL     1      -4.224  19.499   2.076  1.00  0.00    -0.272 OA
BRANCH  10  12
ATOM     12  C   UNL     1      -2.637  18.147   3.342  1.00  0.00     0.174 C 
BRANCH  12  13
ATOM     13  N   UNL     1      -2.771  16.708   3.565  1.00  0.00    -0.342 N 
ATOM     14  C   UNL     1      -1.721  15.825   3.682  1.00  0.00     0.249 C 
ATOM     15  O   UNL     1      -0.543  16.157   3.639  1.00  0.00    -0.272 OA
ATOM     16  H   UNL     1      -3.682  16.265   3.467  1.00  0.00     0.164 HD
BRANCH  14  17
ATOM     17  C   UNL     1      -2.187  14.369   3.895  1.00  0.00     0.207 C 
BRANCH  17  18
ATOM     18  C   UNL     1      -2.511  14.121   5.371  1.00  0.00     0.077 C 
BRANCH  18  19
ATOM     19  C   UNL     1      -3.953  13.710   5.570  1.00  0.00    -0.043 A 
ATOM     20  C   UNL     1      -5.693  12.025   5.457  1.00  0.00     0.083 A 
ATOM     21  C   UNL     1      -4.353  12.388   5.321  1.00  0.00     0.028 A 
ATOM     22  C   UNL     1      -6.639  12.976   5.840  1.00  0.00     0.134 A 
ATOM     23  C   UNL     1      -6.257  14.289   6.090  1.00  0.00     0.048 A 
ATOM     24  C   UNL     1      -4.916  14.656   5.952  1.00  0.00     0.008 A 
ATOM     25  Cl  UNL     1      -6.166  10.395   5.147  1.00  0.00    -0.080 Cl
BRANCH  22  26
ATOM     26  O   UNL     1      -7.966  12.669   5.976  1.00  0.00    -0.506 OA
ATOM     27  H   UNL     1      -8.122  12.516   6.927  1.00  0.00     0.293 HD
ENDBRANCH  22  26
ENDBRANCH  18  19
ENDBRANCH  17  18
BRANCH  17  28
ATOM     28  O   UNL     1      -1.184  13.436   3.463  1.00  0.00    -0.383 OA
ATOM     29  H   UNL     1      -1.234  13.417   2.480  1.00  0.00     0.211 HD
ENDBRANCH  17  28
ENDBRANCH  14  17
ENDBRANCH  12  13
BRANCH  12  30
ATOM     30  C   UNL     1      -3.042  18.979   4.589  1.00  0.00     0.018 C 
ATOM     31  C   UNL     1      -1.799  19.545   5.294  1.00  0.00     0.010 C 
BRANCH  30  32
ATOM     32  C   UNL     1      -3.919  18.200   5.599  1.00  0.00     0.002 C 
ATOM     33  C   UNL     1      -5.338  18.726   5.769  1.00  0.00     0.004 C 
ENDBRANCH  30  32
ENDBRANCH  12  30
ENDBRANCH  10  12
ENDBRANCH   1  10
BRANCH   5  34
ATOM     34  C   UNL     1      -4.484  15.673   0.924  1.00  0.00     0.242 C 
ATOM     35  O   UNL     1      -3.588  14.840   0.783  1.00  0.00    -0.273 OA
ATOM     36  N   UNL     1      -5.659  15.389   1.583  1.00  0.00    -0.354 N 
ATOM     37  H   UNL     1      -6.412  16.078   1.564  1.00  0.00     0.163 HD
BRANCH  36  38
ATOM     38  C   UNL     1      -5.827  14.195   2.386  1.00  0.00     0.116 C 
BRANCH  38  39
ATOM     39  C   UNL     1      -7.083  13.447   1.947  1.00  0.00     0.023 C 
BRANCH  39  40
ATOM     40  C   UNL     1      -8.299  14.361   1.844  1.00  0.00     0.026 C 
BRANCH  40  41
ATOM     41  C   UNL     1      -9.292  14.072   2.970  1.00  0.00     0.146 C 
BRANCH  41  42
ATOM     42  N   UNL     1     -10.264  13.081   2.527  1.00  0.00    -0.254 NA
ATOM     43  C   UNL     1     -10.227  11.898   3.013  1.00  0.00     0.185 C 
ATOM     44  N   UNL     1      -9.396  11.362   3.926  1.00  0.00    -0.370 N 
ATOM     45  N   UNL     1     -11.129  10.997   2.589  1.00  0.00    -0.370 N 
ATOM     46  H   UNL     1      -9.325  10.364   4.032  1.00  0.00     0.159 HD
ATOM     47  H   UNL     1      -8.660  11.909   4.362  1.00  0.00     0.159 HD
ATOM     48  H   UNL     1     -11.800  11.322   1.906  1.00  0.00     0.159 HD
ATOM     49  H   UNL     1     -11.317  10.142   3.081  1.00  0.00     0.159 HD
ENDBRANCH  41  42
ENDBRANCH  40  41
ENDBRANCH  39  40
ENDBRANCH  38  39
ENDBRANCH  36  38
ENDBRANCH   5  34
BRANCH   8  50
ATOM     50  O   UNL     1       0.014  15.368  -0.566  1.00  0.00    -0.245 OA
BRANCH  50  51
ATOM     51  S   UNL     1       1.346  14.463  -0.338  1.00  0.00     0.397 S 
ATOM     52  O   UNL     1       0.966  13.073  -0.459  1.00  0.00    -0.169 OA
ATOM     53  O   UNL     1       2.076  14.953   0.812  1.00  0.00    -0.169 OA
BRANCH  51  54
ATOM     54  O   UNL     1       2.208  14.798  -1.653  1.00  0.00    -0.264 OA
ATOM     55  H   UNL     1       3.131  14.963  -1.371  1.00  0.00     0.236 HD
ENDBRANCH  51  54
ENDBRANCH  50  51
ENDBRANCH   8  50
TORSDOF 19
ENDMDL
MODEL 40
REMARK VINA RESULT:    -6.439      3.623      7.843
REMARK INTER + INTRA:         -16.638
REMARK INTER:                 -13.433
REMARK INTRA:                  -3.204
REMARK UNBOUND:                -3.611
REMARK SMILES CC[C@@H](C)[C@@H](NC(=O)[C@@H](O)Cc1ccc(O)c(Cl)c1)C(=O)N1[C@H](C(=O)NCCCCN=C(N)N)C[C@H]2CC[C@H](OS(=O)(=O)O)C[C@@H]21
REMARK SMILES IDX 22 1 36 2 46 3 35 4 23 5 45 6 37 7 39 8 38 9 20 10 21 11
REMARK SMILES IDX 5 12 6 13 7 14 8 15 9 17 11 18 12 19 17 20 19 21 15 22 14 23
REMARK SMILES IDX 13 24 18 25 16 26 10 28 3 30 4 31 2 32 1 33 24 34 25 35
REMARK SMILES IDX 26 36 27 38 28 39 29 40 30 41 31 42 32 43 33 44 34 45 40 50
REMARK SMILES IDX 41 51 42 52 43 53 44 54
REMARK H PARENT 6 16 16 27 10 29 26 37 33 46 33 47 34 48 34 49 44 55
ROOT
ATOM      1  N   UNL     1      -3.656  14.369   4.108  1.00  0.00    -0.326 N 
ATOM      2  C   UNL     1      -3.467  15.465   2.033  1.00  0.00     0.014 C 
ATOM      3  C   UNL     1      -3.736  15.710   3.521  1.00  0.00     0.091 C 
ATOM      4  C   UNL     1      -4.112  14.109   1.795  1.00  0.00     0.041 C 
ATOM      5  C   UNL     1      -3.609  13.346   3.034  1.00  0.00     0.175 C 
ATOM      6  C   UNL     1      -2.764  16.778   4.019  1.00  0.00     0.059 C 
ATOM      7  C   UNL     1      -3.905  16.654   1.201  1.00  0.00     0.008 C 
ATOM      8  C   UNL     1      -2.382  17.819   2.945  1.00  0.00     0.143 C 
ATOM      9  C   UNL     1      -3.480  17.976   1.874  1.00  0.00     0.034 C 
ENDROOT
BRANCH   1  10
ATOM     10  C   UNL     1      -3.832  13.962   5.420  1.00  0.00     0.246 C 
ATOM     11  O   UNL     1      -2.970  14.247   6.258  1.00  0.00    -0.272 OA
BRANCH  10  12
ATOM     12  C   UNL     1      -5.127  13.196   5.818  1.00  0.00     0.174 C 
BRANCH  12  13
ATOM     13  N   UNL     1      -6.167  13.420   4.815  1.00  0.00    -0.342 N 
ATOM     14  C   UNL     1      -6.902  12.429   4.204  1.00  0.00     0.249 C 
ATOM     15  O   UNL     1      -6.781  11.236   4.456  1.00  0.00    -0.272 OA
ATOM     16  H   UNL     1      -6.270  14.339   4.392  1.00  0.00     0.164 HD
BRANCH  14  17
ATOM     17  C   UNL     1      -7.912  12.983   3.177  1.00  0.00     0.207 C 
BRANCH  17  18
ATOM     18  C   UNL     1      -9.260  12.268   3.311  1.00  0.00     0.077 C 
BRANCH  18  19
ATOM     19  C   UNL     1     -10.383  13.063   2.685  1.00  0.00    -0.043 A 
ATOM     20  C   UNL     1     -11.449  15.194   2.226  1.00  0.00     0.083 A 
ATOM     21  C   UNL     1     -10.386  14.465   2.761  1.00  0.00     0.028 A 
ATOM     22  C   UNL     1     -12.513  14.529   1.615  1.00  0.00     0.134 A 
ATOM     23  C   UNL     1     -12.523  13.142   1.533  1.00  0.00     0.048 A 
ATOM     24  C   UNL     1     -11.462  12.410   2.070  1.00  0.00     0.008 A 
ATOM     25  Cl  UNL     1     -11.434  16.915   2.328  1.00  0.00    -0.080 Cl
BRANCH  22  26
ATOM     26  O   UNL     1     -13.582  15.200   1.086  1.00  0.00    -0.506 OA
ATOM     27  H   UNL     1     -13.783  14.776   0.231  1.00  0.00     0.293 HD
ENDBRANCH  22  26
ENDBRANCH  18  19
ENDBRANCH  17  18
BRANCH  17  28
ATOM     28  O   UNL     1      -7.422  12.830   1.835  1.00  0.00    -0.383 OA
ATOM     29  H   UNL     1      -8.041  13.335   1.260  1.00  0.00     0.211 HD
ENDBRANCH  17  28
ENDBRANCH  14  17
ENDBRANCH  12  13
BRANCH  12  30
ATOM     30  C   UNL     1      -5.606  13.536   7.255  1.00  0.00     0.018 C 
ATOM     31  C   UNL     1      -6.306  12.327   7.897  1.00  0.00     0.010 C 
BRANCH  30  32
ATOM     32  C   UNL     1      -6.523  14.781   7.326  1.00  0.00     0.002 C 
ATOM     33  C   UNL     1      -5.854  16.055   7.826  1.00  0.00     0.004 C 
ENDBRANCH  30  32
ENDBRANCH  12  30
ENDBRANCH  10  12
ENDBRANCH   1  10
BRANCH   5  34
ATOM     34  C   UNL     1      -2.162  12.823   2.835  1.00  0.00     0.242 C 
ATOM     35  O   UNL     1      -1.295  12.940   3.701  1.00  0.00    -0.273 OA
ATOM     36  N   UNL     1      -1.904  12.267   1.602  1.00  0.00    -0.354 N 
ATOM     37  H   UNL     1      -2.629  12.306   0.884  1.00  0.00     0.163 HD
BRANCH  36  38
ATOM     38  C   UNL     1      -0.683  11.540   1.322  1.00  0.00     0.116 C 
BRANCH  38  39
ATOM     39  C   UNL     1       0.131  12.283   0.265  1.00  0.00     0.023 C 
BRANCH  39  40
ATOM     40  C   UNL     1       0.871  13.486   0.839  1.00  0.00     0.026 C 
BRANCH  40  41
ATOM     41  C   UNL     1       0.123  14.782   0.525  1.00  0.00     0.146 C 
BRANCH  41  42
ATOM     42  N   UNL     1       0.626  15.352  -0.717  1.00  0.00    -0.254 NA
ATOM     43  C   UNL     1       0.037  16.364  -1.234  1.00  0.00     0.185 C 
ATOM     44  N   UNL     1      -1.041  17.049  -0.809  1.00  0.00    -0.370 N 
ATOM     45  N   UNL     1       0.514  16.872  -2.383  1.00  0.00    -0.370 N 
ATOM     46  H   UNL     1      -1.539  17.660  -1.432  1.00  0.00     0.159 HD
ATOM     47  H   UNL     1      -1.520  16.806   0.053  1.00  0.00     0.159 HD
ATOM     48  H   UNL     1       1.332  16.419  -2.768  1.00  0.00     0.159 HD
ATOM     49  H   UNL     1       0.264  17.785  -2.718  1.00  0.00     0.159 HD
ENDBRANCH  41  42
ENDBRANCH  40  41
ENDBRANCH  39  40
ENDBRANCH  38  39
ENDBRANCH  36  38
ENDBRANCH   5  34
BRANCH   8  50
ATOM     50  O   UNL     1      -1.169  17.434   2.298  1.00  0.00    -0.245 OA
BRANCH  50  51
ATOM     51  S   UNL     1       0.121  18.423   2.356  1.00  0.00     0.397 S 
ATOM     52  O   UNL     1       1.306  17.626   2.133  1.00  0.00    -0.169 OA
ATOM     53  O   UNL     1       0.004  19.308   3.497  1.00  0.00    -0.169 OA
BRANCH  51  54
ATOM     54  O   UNL     1      -0.071  19.304   1.024  1.00  0.00    -0.264 OA
ATOM     55  H   UNL     1       0.670  19.095   0.419  1.00  0.00     0.236 HD
ENDBRANCH  51  54
ENDBRANCH  50  51
ENDBRANCH   8  50
TORSDOF 19
ENDMDL
MODEL 41
REMARK VINA RESULT:    -6.389      3.573      7.619
REMARK INTER + INTRA:         -16.537
REMARK INTER:                 -13.035
REMARK INTRA:                  -3.502
REMARK UNBOUND:                -3.611
REMARK SMILES CC[C@@H](C)[C@@H](NC(=O)[C@@H](O)Cc1ccc(O)c(Cl)c1)C(=O)N1[C@H](C(=O)NCCCCN=C(N)N)C[C@H]2CC[C@H](OS(=O)(=O)O)C[C@@H]21
REMARK SMILES IDX 22 1 36 2 46 3 35 4 23 5 45 6 37 7 39 8 38 9 20 10 21 11
REMARK SMILES IDX 5 12 6 13 7 14 8 15 9 17 11 18 12 19 17 20 19 21 15 22 14 23
REMARK SMILES IDX 13 24 18 25 16 26 10 28 3 30 4 31 2 32 1 33 24 34 25 35
REMARK SMILES IDX 26 36 27 38 28 39 29 40 30 41 31 42 32 43 33 44 34 45 40 50
REMARK SMILES IDX 41 51 42 52 43 53 44 54
REMARK H PARENT 6 16 16 27 10 29 26 37 33 46 33 47 34 48 34 49 44 55
ROOT
ATOM      1  N   UNL     1      -2.985  13.929   2.128  1.00  0.00    -0.326 N 
ATOM      2  C   UNL     1      -0.761  13.164   2.036  1.00  0.00     0.014 C 
ATOM      3  C   UNL     1      -1.868  13.797   1.189  1.00  0.00     0.091 C 
ATOM      4  C   UNL     1      -1.537  12.251   2.973  1.00  0.00     0.041 C 
ATOM      5  C   UNL     1      -2.686  13.192   3.380  1.00  0.00     0.175 C 
ATOM      6  C   UNL     1      -1.314  15.064   0.539  1.00  0.00     0.059 C 
ATOM      7  C   UNL     1       0.326  12.576   1.158  1.00  0.00     0.008 C 
ATOM      8  C   UNL     1       0.195  14.989   0.219  1.00  0.00     0.143 C 
ATOM      9  C   UNL     1       0.670  13.538   0.001  1.00  0.00     0.034 C 
ENDROOT
BRANCH   1  10
ATOM     10  C   UNL     1      -4.263  14.421   1.924  1.00  0.00     0.246 C 
ATOM     11  O   UNL     1      -5.126  13.674   1.451  1.00  0.00    -0.272 OA
BRANCH  10  12
ATOM     12  C   UNL     1      -4.595  15.886   2.331  1.00  0.00     0.174 C 
BRANCH  12  13
ATOM     13  N   UNL     1      -5.556  15.891   3.434  1.00  0.00    -0.342 N 
ATOM     14  C   UNL     1      -5.306  16.378   4.697  1.00  0.00     0.249 C 
ATOM     15  O   UNL     1      -4.247  16.892   5.033  1.00  0.00    -0.272 OA
ATOM     16  H   UNL     1      -6.419  15.359   3.352  1.00  0.00     0.164 HD
BRANCH  14  17
ATOM     17  C   UNL     1      -6.516  16.225   5.644  1.00  0.00     0.207 C 
BRANCH  17  18
ATOM     18  C   UNL     1      -6.284  15.074   6.628  1.00  0.00     0.077 C 
BRANCH  18  19
ATOM     19  C   UNL     1      -6.757  13.752   6.068  1.00  0.00    -0.043 A 
ATOM     20  C   UNL     1      -8.455  12.028   5.897  1.00  0.00     0.083 A 
ATOM     21  C   UNL     1      -8.040  13.271   6.375  1.00  0.00     0.028 A 
ATOM     22  C   UNL     1      -7.595  11.258   5.113  1.00  0.00     0.134 A 
ATOM     23  C   UNL     1      -6.322  11.722   4.802  1.00  0.00     0.048 A 
ATOM     24  C   UNL     1      -5.903  12.966   5.280  1.00  0.00     0.008 A 
ATOM     25  Cl  UNL     1     -10.035  11.454   6.285  1.00  0.00    -0.080 Cl
BRANCH  22  26
ATOM     26  O   UNL     1      -7.953  10.029   4.631  1.00  0.00    -0.506 OA
ATOM     27  H   UNL     1      -8.605  10.185   3.923  1.00  0.00     0.293 HD
ENDBRANCH  22  26
ENDBRANCH  18  19
ENDBRANCH  17  18
BRANCH  17  28
ATOM     28  O   UNL     1      -7.724  15.984   4.905  1.00  0.00    -0.383 OA
ATOM     29  H   UNL     1      -8.464  16.134   5.537  1.00  0.00     0.211 HD
ENDBRANCH  17  28
ENDBRANCH  14  17
ENDBRANCH  12  13
BRANCH  12  30
ATOM     30  C   UNL     1      -5.066  16.750   1.131  1.00  0.00     0.018 C 
ATOM     31  C   UNL     1      -3.874  17.162   0.253  1.00  0.00     0.010 C 
BRANCH  30  32
ATOM     32  C   UNL     1      -5.878  18.001   1.546  1.00  0.00     0.002 C 
ATOM     33  C   UNL     1      -5.047  19.215   1.943  1.00  0.00     0.004 C 
ENDBRANCH  30  32
ENDBRANCH  12  30
ENDBRANCH  10  12
ENDBRANCH   1  10
BRANCH   5  34
ATOM     34  C   UNL     1      -2.252  14.170   4.505  1.00  0.00     0.242 C 
ATOM     35  O   UNL     1      -2.489  13.953   5.693  1.00  0.00    -0.273 OA
ATOM     36  N   UNL     1      -1.633  15.322   4.072  1.00  0.00    -0.354 N 
ATOM     37  H   UNL     1      -1.573  15.501   3.069  1.00  0.00     0.163 HD
BRANCH  36  38
ATOM     38  C   UNL     1      -0.976  16.235   4.984  1.00  0.00     0.116 C 
BRANCH  38  39
ATOM     39  C   UNL     1      -0.659  17.545   4.266  1.00  0.00     0.023 C 
BRANCH  39  40
ATOM     40  C   UNL     1      -1.506  17.743   3.014  1.00  0.00     0.026 C 
BRANCH  40  41
ATOM     41  C   UNL     1      -1.138  19.050   2.311  1.00  0.00     0.146 C 
BRANCH  41  42
ATOM     42  N   UNL     1      -1.664  20.180   3.066  1.00  0.00    -0.254 NA
ATOM     43  C   UNL     1      -1.397  21.373   2.688  1.00  0.00     0.185 C 
ATOM     44  N   UNL     1      -0.667  21.808   1.644  1.00  0.00    -0.370 N 
ATOM     45  N   UNL     1      -1.888  22.401   3.400  1.00  0.00    -0.370 N 
ATOM     46  H   UNL     1      -0.339  22.758   1.608  1.00  0.00     0.159 HD
ATOM     47  H   UNL     1      -0.232  21.162   0.993  1.00  0.00     0.159 HD
ATOM     48  H   UNL     1      -2.458  22.161   4.199  1.00  0.00     0.159 HD
ATOM     49  H   UNL     1      -1.926  23.340   3.044  1.00  0.00     0.159 HD
ENDBRANCH  41  42
ENDBRANCH  40  41
ENDBRANCH  39  40
ENDBRANCH  38  39
ENDBRANCH  36  38
ENDBRANCH   5  34
BRANCH   8  50
ATOM     50  O   UNL     1       0.952  15.558   1.287  1.00  0.00    -0.245 OA
BRANCH  50  51
ATOM     51  S   UNL     1       1.819  16.909   1.027  1.00  0.00     0.397 S 
ATOM     52  O   UNL     1       2.288  17.393   2.306  1.00  0.00    -0.169 OA
ATOM     53  O   UNL     1       1.111  17.770   0.102  1.00  0.00    -0.169 OA
BRANCH  51  54
ATOM     54  O   UNL     1       3.118  16.334   0.273  1.00  0.00    -0.264 OA
ATOM     55  H   UNL     1       2.814  15.864  -0.530  1.00  0.00     0.236 HD
ENDBRANCH  51  54
ENDBRANCH  50  51
ENDBRANCH   8  50
TORSDOF 19
ENDMDL
MODEL 42
REMARK VINA RESULT:    -6.367      3.750      8.246
REMARK INTER + INTRA:         -16.492
REMARK INTER:                 -13.219
REMARK INTRA:                  -3.273
REMARK UNBOUND:                -3.611
REMARK SMILES CC[C@@H](C)[C@@H](NC(=O)[C@@H](O)Cc1ccc(O)c(Cl)c1)C(=O)N1[C@H](C(=O)NCCCCN=C(N)N)C[C@H]2CC[C@H](OS(=O)(=O)O)C[C@@H]21
REMARK SMILES IDX 22 1 36 2 46 3 35 4 23 5 45 6 37 7 39 8 38 9 20 10 21 11
REMARK SMILES IDX 5 12 6 13 7 14 8 15 9 17 11 18 12 19 17 20 19 21 15 22 14 23
REMARK SMILES IDX 13 24 18 25 16 26 10 28 3 30 4 31 2 32 1 33 24 34 25 35
REMARK SMILES IDX 26 36 27 38 28 39 29 40 30 41 31 42 32 43 33 44 34 45 40 50
REMARK SMILES IDX 41 51 42 52 43 53 44 54
REMARK H PARENT 6 16 16 27 10 29 26 37 33 46 33 47 34 48 34 49 44 55
ROOT
ATOM      1  N   UNL     1      -1.694  15.934   0.514  1.00  0.00    -0.326 N 
ATOM      2  C   UNL     1      -2.251  17.434  -1.213  1.00  0.00     0.014 C 
ATOM      3  C   UNL     1      -2.863  16.516  -0.152  1.00  0.00     0.091 C 
ATOM      4  C   UNL     1      -0.999  16.676  -1.630  1.00  0.00     0.041 C 
ATOM      5  C   UNL     1      -0.463  16.257  -0.249  1.00  0.00     0.175 C 
ATOM      6  C   UNL     1      -3.842  17.334   0.688  1.00  0.00     0.059 C 
ATOM      7  C   UNL     1      -3.278  17.808  -2.264  1.00  0.00     0.008 C 
ATOM      8  C   UNL     1      -4.540  18.465  -0.098  1.00  0.00     0.143 C 
ATOM      9  C   UNL     1      -4.629  18.154  -1.605  1.00  0.00     0.034 C 
ENDROOT
BRANCH   1  10
ATOM     10  C   UNL     1      -1.626  15.014   1.546  1.00  0.00     0.246 C 
ATOM     11  O   UNL     1      -0.731  15.123   2.391  1.00  0.00    -0.272 OA
BRANCH  10  12
ATOM     12  C   UNL     1      -2.700  13.892   1.645  1.00  0.00     0.174 C 
BRANCH  12  13
ATOM     13  N   UNL     1      -3.714  14.257   2.634  1.00  0.00    -0.342 N 
ATOM     14  C   UNL     1      -5.072  14.116   2.462  1.00  0.00     0.249 C 
ATOM     15  O   UNL     1      -5.587  13.637   1.459  1.00  0.00    -0.272 OA
ATOM     16  H   UNL     1      -3.449  14.808   3.447  1.00  0.00     0.164 HD
BRANCH  14  17
ATOM     17  C   UNL     1      -5.881  14.608   3.681  1.00  0.00     0.207 C 
BRANCH  17  18
ATOM     18  C   UNL     1      -7.383  14.428   3.436  1.00  0.00     0.077 C 
BRANCH  18  19
ATOM     19  C   UNL     1      -8.021  15.692   2.905  1.00  0.00    -0.043 A 
ATOM     20  C   UNL     1      -9.310  17.713   3.276  1.00  0.00     0.083 A 
ATOM     21  C   UNL     1      -8.680  16.573   3.777  1.00  0.00     0.028 A 
ATOM     22  C   UNL     1      -9.287  17.979   1.907  1.00  0.00     0.134 A 
ATOM     23  C   UNL     1      -8.638  17.116   1.033  1.00  0.00     0.048 A 
ATOM     24  C   UNL     1      -8.008  15.973   1.530  1.00  0.00     0.008 A 
ATOM     25  Cl  UNL     1     -10.115  18.783   4.363  1.00  0.00    -0.080 Cl
BRANCH  22  26
ATOM     26  O   UNL     1      -9.900  19.079   1.369  1.00  0.00    -0.506 OA
ATOM     27  H   UNL     1     -10.060  19.698   2.105  1.00  0.00     0.293 HD
ENDBRANCH  22  26
ENDBRANCH  18  19
ENDBRANCH  17  18
BRANCH  17  28
ATOM     28  O   UNL     1      -5.606  15.990   3.961  1.00  0.00    -0.383 OA
ATOM     29  H   UNL     1      -6.482  16.426   4.063  1.00  0.00     0.211 HD
ENDBRANCH  17  28
ENDBRANCH  14  17
ENDBRANCH  12  13
BRANCH  12  30
ATOM     30  C   UNL     1      -2.083  12.494   1.917  1.00  0.00     0.018 C 
ATOM     31  C   UNL     1      -1.877  12.271   3.423  1.00  0.00     0.010 C 
BRANCH  30  32
ATOM     32  C   UNL     1      -0.759  12.240   1.156  1.00  0.00     0.002 C 
ATOM     33  C   UNL     1      -0.506  10.792   0.755  1.00  0.00     0.004 C 
ENDBRANCH  30  32
ENDBRANCH  12  30
ENDBRANCH  10  12
ENDBRANCH   1  10
BRANCH   5  34
ATOM     34  C   UNL     1       0.321  17.410   0.434  1.00  0.00     0.242 C 
ATOM     35  O   UNL     1       0.049  18.595   0.242  1.00  0.00    -0.273 OA
ATOM     36  N   UNL     1       1.375  17.012   1.227  1.00  0.00    -0.354 N 
ATOM     37  H   UNL     1       1.625  16.023   1.252  1.00  0.00     0.163 HD
BRANCH  36  38
ATOM     38  C   UNL     1       2.073  17.930   2.103  1.00  0.00     0.116 C 
BRANCH  38  39
ATOM     39  C   UNL     1       1.735  17.616   3.558  1.00  0.00     0.023 C 
BRANCH  39  40
ATOM     40  C   UNL     1       0.417  18.245   3.999  1.00  0.00     0.026 C 
BRANCH  40  41
ATOM     41  C   UNL     1       0.053  17.803   5.417  1.00  0.00     0.146 C 
BRANCH  41  42
ATOM     42  N   UNL     1      -1.372  17.511   5.491  1.00  0.00    -0.254 NA
ATOM     43  C   UNL     1      -1.770  16.295   5.510  1.00  0.00     0.185 C 
ATOM     44  N   UNL     1      -1.060  15.152   5.472  1.00  0.00    -0.370 N 
ATOM     45  N   UNL     1      -3.088  16.047   5.575  1.00  0.00    -0.370 N 
ATOM     46  H   UNL     1      -1.506  14.279   5.248  1.00  0.00     0.159 HD
ATOM     47  H   UNL     1      -0.046  15.155   5.436  1.00  0.00     0.159 HD
ATOM     48  H   UNL     1      -3.695  16.855   5.615  1.00  0.00     0.159 HD
ATOM     49  H   UNL     1      -3.462  15.150   5.829  1.00  0.00     0.159 HD
ENDBRANCH  41  42
ENDBRANCH  40  41
ENDBRANCH  39  40
ENDBRANCH  38  39
ENDBRANCH  36  38
ENDBRANCH   5  34
BRANCH   8  50
ATOM     50  O   UNL     1      -3.827  19.691   0.071  1.00  0.00    -0.245 OA
BRANCH  50  51
ATOM     51  S   UNL     1      -4.633  21.036   0.504  1.00  0.00     0.397 S 
ATOM     52  O   UNL     1      -3.660  22.049   0.844  1.00  0.00    -0.169 OA
ATOM     53  O   UNL     1      -5.713  20.687   1.403  1.00  0.00    -0.169 OA
BRANCH  51  54
ATOM     54  O   UNL     1      -5.281  21.503  -0.892  1.00  0.00    -0.264 OA
ATOM     55  H   UNL     1      -5.386  20.707  -1.453  1.00  0.00     0.236 HD
ENDBRANCH  51  54
ENDBRANCH  50  51
ENDBRANCH   8  50
TORSDOF 19
ENDMDL
MODEL 43
REMARK VINA RESULT:    -6.339      4.044      8.726
REMARK INTER + INTRA:         -16.435
REMARK INTER:                 -13.052
REMARK INTRA:                  -3.383
REMARK UNBOUND:                -3.611
REMARK SMILES CC[C@@H](C)[C@@H](NC(=O)[C@@H](O)Cc1ccc(O)c(Cl)c1)C(=O)N1[C@H](C(=O)NCCCCN=C(N)N)C[C@H]2CC[C@H](OS(=O)(=O)O)C[C@@H]21
REMARK SMILES IDX 22 1 36 2 46 3 35 4 23 5 45 6 37 7 39 8 38 9 20 10 21 11
REMARK SMILES IDX 5 12 6 13 7 14 8 15 9 17 11 18 12 19 17 20 19 21 15 22 14 23
REMARK SMILES IDX 13 24 18 25 16 26 10 28 3 30 4 31 2 32 1 33 24 34 25 35
REMARK SMILES IDX 26 36 27 38 28 39 29 40 30 41 31 42 32 43 33 44 34 45 40 50
REMARK SMILES IDX 41 51 42 52 43 53 44 54
REMARK H PARENT 6 16 16 27 10 29 26 37 33 46 33 47 34 48 34 49 44 55
ROOT
ATOM      1  N   UNL     1      -3.027  13.892   2.283  1.00  0.00    -0.326 N 
ATOM      2  C   UNL     1      -0.798  13.159   2.099  1.00  0.00     0.014 C 
ATOM      3  C   UNL     1      -1.949  13.774   1.297  1.00  0.00     0.091 C 
ATOM      4  C   UNL     1      -1.520  12.238   3.070  1.00  0.00     0.041 C 
ATOM      5  C   UNL     1      -2.664  13.163   3.523  1.00  0.00     0.175 C 
ATOM      6  C   UNL     1      -1.442  15.047   0.622  1.00  0.00     0.059 C 
ATOM      7  C   UNL     1       0.260  12.586   1.176  1.00  0.00     0.008 C 
ATOM      8  C   UNL     1       0.053  14.993   0.238  1.00  0.00     0.143 C 
ATOM      9  C   UNL     1       0.540  13.549   0.004  1.00  0.00     0.034 C 
ENDROOT
BRANCH   1  10
ATOM     10  C   UNL     1      -4.320  14.364   2.131  1.00  0.00     0.246 C 
ATOM     11  O   UNL     1      -5.118  13.721   1.441  1.00  0.00    -0.272 OA
BRANCH  10  12
ATOM     12  C   UNL     1      -4.752  15.667   2.865  1.00  0.00     0.174 C 
BRANCH  12  13
ATOM     13  N   UNL     1      -6.155  15.571   3.267  1.00  0.00    -0.342 N 
ATOM     14  C   UNL     1      -6.615  14.896   4.375  1.00  0.00     0.249 C 
ATOM     15  O   UNL     1      -5.888  14.316   5.171  1.00  0.00    -0.272 OA
ATOM     16  H   UNL     1      -6.884  15.867   2.623  1.00  0.00     0.164 HD
BRANCH  14  17
ATOM     17  C   UNL     1      -8.150  14.964   4.519  1.00  0.00     0.207 C 
BRANCH  17  18
ATOM     18  C   UNL     1      -8.820  14.911   3.142  1.00  0.00     0.077 C 
BRANCH  18  19
ATOM     19  C   UNL     1      -9.707  13.695   2.995  1.00  0.00    -0.043 A 
ATOM     20  C   UNL     1     -11.617  12.596   1.980  1.00  0.00     0.083 A 
ATOM     21  C   UNL     1     -10.770  13.701   2.078  1.00  0.00     0.028 A 
ATOM     22  C   UNL     1     -11.409  11.483   2.796  1.00  0.00     0.134 A 
ATOM     23  C   UNL     1     -10.360  11.464   3.708  1.00  0.00     0.048 A 
ATOM     24  C   UNL     1      -9.512  12.569   3.809  1.00  0.00     0.008 A 
ATOM     25  Cl  UNL     1     -12.917  12.621   0.848  1.00  0.00    -0.080 Cl
BRANCH  22  26
ATOM     26  O   UNL     1     -12.219  10.381   2.743  1.00  0.00    -0.506 OA
ATOM     27  H   UNL     1     -12.983  10.621   2.187  1.00  0.00     0.293 HD
ENDBRANCH  22  26
ENDBRANCH  18  19
ENDBRANCH  17  18
BRANCH  17  28
ATOM     28  O   UNL     1      -8.553  16.164   5.199  1.00  0.00    -0.383 OA
ATOM     29  H   UNL     1      -8.166  16.910   4.686  1.00  0.00     0.211 HD
ENDBRANCH  17  28
ENDBRANCH  14  17
ENDBRANCH  12  13
BRANCH  12  30
ATOM     30  C   UNL     1      -4.458  16.947   2.037  1.00  0.00     0.018 C 
ATOM     31  C   UNL     1      -5.343  18.114   2.504  1.00  0.00     0.010 C 
BRANCH  30  32
ATOM     32  C   UNL     1      -4.605  16.746   0.509  1.00  0.00     0.002 C 
ATOM     33  C   UNL     1      -5.843  17.376  -0.115  1.00  0.00     0.004 C 
ENDBRANCH  30  32
ENDBRANCH  12  30
ENDBRANCH  10  12
ENDBRANCH   1  10
BRANCH   5  34
ATOM     34  C   UNL     1      -2.198  14.151   4.625  1.00  0.00     0.242 C 
ATOM     35  O   UNL     1      -2.407  13.949   5.821  1.00  0.00    -0.273 OA
ATOM     36  N   UNL     1      -1.584  15.295   4.166  1.00  0.00    -0.354 N 
ATOM     37  H   UNL     1      -1.547  15.462   3.159  1.00  0.00     0.163 HD
BRANCH  36  38
ATOM     38  C   UNL     1      -0.900  16.214   5.051  1.00  0.00     0.116 C 
BRANCH  38  39
ATOM     39  C   UNL     1      -1.716  17.497   5.197  1.00  0.00     0.023 C 
BRANCH  39  40
ATOM     40  C   UNL     1      -2.539  17.521   6.480  1.00  0.00     0.026 C 
BRANCH  40  41
ATOM     41  C   UNL     1      -4.000  17.176   6.194  1.00  0.00     0.146 C 
BRANCH  41  42
ATOM     42  N   UNL     1      -4.754  17.154   7.441  1.00  0.00    -0.254 NA
ATOM     43  C   UNL     1      -4.913  16.048   8.065  1.00  0.00     0.185 C 
ATOM     44  N   UNL     1      -4.478  14.811   7.759  1.00  0.00    -0.370 N 
ATOM     45  N   UNL     1      -5.615  16.048   9.210  1.00  0.00    -0.370 N 
ATOM     46  H   UNL     1      -4.879  14.003   8.203  1.00  0.00     0.159 HD
ATOM     47  H   UNL     1      -3.919  14.633   6.931  1.00  0.00     0.159 HD
ATOM     48  H   UNL     1      -5.971  16.942   9.518  1.00  0.00     0.159 HD
ATOM     49  H   UNL     1      -5.583  15.289   9.868  1.00  0.00     0.159 HD
ENDBRANCH  41  42
ENDBRANCH  40  41
ENDBRANCH  39  40
ENDBRANCH  38  39
ENDBRANCH  36  38
ENDBRANCH   5  34
BRANCH   8  50
ATOM     50  O   UNL     1       0.846  15.577   1.272  1.00  0.00    -0.245 OA
BRANCH  50  51
ATOM     51  S   UNL     1       1.412  17.091   1.092  1.00  0.00     0.397 S 
ATOM     52  O   UNL     1       2.856  17.034   1.121  1.00  0.00    -0.169 OA
ATOM     53  O   UNL     1       0.670  17.992   1.950  1.00  0.00    -0.169 OA
BRANCH  51  54
ATOM     54  O   UNL     1       1.016  17.419  -0.431  1.00  0.00    -0.264 OA
ATOM     55  H   UNL     1       0.082  17.711  -0.441  1.00  0.00     0.236 HD
ENDBRANCH  51  54
ENDBRANCH  50  51
ENDBRANCH   8  50
TORSDOF 19
ENDMDL
MODEL 44
REMARK VINA RESULT:    -6.308      4.061      8.241
REMARK INTER + INTRA:         -16.373
REMARK INTER:                 -12.101
REMARK INTRA:                  -4.272
REMARK UNBOUND:                -3.611
REMARK SMILES CC[C@@H](C)[C@@H](NC(=O)[C@@H](O)Cc1ccc(O)c(Cl)c1)C(=O)N1[C@H](C(=O)NCCCCN=C(N)N)C[C@H]2CC[C@H](OS(=O)(=O)O)C[C@@H]21
REMARK SMILES IDX 22 1 36 2 46 3 35 4 23 5 45 6 37 7 39 8 38 9 20 10 21 11
REMARK SMILES IDX 5 12 6 13 7 14 8 15 9 17 11 18 12 19 17 20 19 21 15 22 14 23
REMARK SMILES IDX 13 24 18 25 16 26 10 28 3 30 4 31 2 32 1 33 24 34 25 35
REMARK SMILES IDX 26 36 27 38 28 39 29 40 30 41 31 42 32 43 33 44 34 45 40 50
REMARK SMILES IDX 41 51 42 52 43 53 44 54
REMARK H PARENT 6 16 16 27 10 29 26 37 33 46 33 47 34 48 34 49 44 55
ROOT
ATOM      1  N   UNL     1      -3.130  13.803   2.334  1.00  0.00    -0.326 N 
ATOM      2  C   UNL     1      -0.902  13.071   2.127  1.00  0.00     0.014 C 
ATOM      3  C   UNL     1      -2.047  13.726   1.349  1.00  0.00     0.091 C 
ATOM      4  C   UNL     1      -1.632  12.109   3.051  1.00  0.00     0.041 C 
ATOM      5  C   UNL     1      -2.776  13.016   3.541  1.00  0.00     0.175 C 
ATOM      6  C   UNL     1      -1.533  15.027   0.736  1.00  0.00     0.059 C 
ATOM      7  C   UNL     1       0.158  12.537   1.184  1.00  0.00     0.008 C 
ATOM      8  C   UNL     1      -0.036  14.986   0.357  1.00  0.00     0.143 C 
ATOM      9  C   UNL     1       0.447  13.552   0.058  1.00  0.00     0.034 C 
ENDROOT
BRANCH   1  10
ATOM     10  C   UNL     1      -4.421  14.286   2.198  1.00  0.00     0.246 C 
ATOM     11  O   UNL     1      -5.223  13.668   1.490  1.00  0.00    -0.272 OA
BRANCH  10  12
ATOM     12  C   UNL     1      -4.845  15.568   2.972  1.00  0.00     0.174 C 
BRANCH  12  13
ATOM     13  N   UNL     1      -6.239  15.456   3.397  1.00  0.00    -0.342 N 
ATOM     14  C   UNL     1      -6.696  14.627   4.397  1.00  0.00     0.249 C 
ATOM     15  O   UNL     1      -5.970  13.903   5.068  1.00  0.00    -0.272 OA
ATOM     16  H   UNL     1      -6.974  15.875   2.832  1.00  0.00     0.164 HD
BRANCH  14  17
ATOM     17  C   UNL     1      -8.223  14.722   4.599  1.00  0.00     0.207 C 
BRANCH  17  18
ATOM     18  C   UNL     1      -8.764  16.020   3.991  1.00  0.00     0.077 C 
BRANCH  18  19
ATOM     19  C   UNL     1     -10.052  15.792   3.233  1.00  0.00    -0.043 A 
ATOM     20  C   UNL     1     -11.599  14.291   2.120  1.00  0.00     0.083 A 
ATOM     21  C   UNL     1     -10.435  14.493   2.862  1.00  0.00     0.028 A 
ATOM     22  C   UNL     1     -12.385  15.380   1.743  1.00  0.00     0.134 A 
ATOM     23  C   UNL     1     -12.018  16.671   2.104  1.00  0.00     0.048 A 
ATOM     24  C   UNL     1     -10.852  16.877   2.845  1.00  0.00     0.008 A 
ATOM     25  Cl  UNL     1     -12.053  12.688   1.673  1.00  0.00    -0.080 Cl
BRANCH  22  26
ATOM     26  O   UNL     1     -13.530  15.232   1.007  1.00  0.00    -0.506 OA
ATOM     27  H   UNL     1     -14.239  15.686   1.498  1.00  0.00     0.293 HD
ENDBRANCH  22  26
ENDBRANCH  18  19
ENDBRANCH  17  18
BRANCH  17  28
ATOM     28  O   UNL     1      -8.565  14.670   5.993  1.00  0.00    -0.383 OA
ATOM     29  H   UNL     1      -9.480  15.025   6.062  1.00  0.00     0.211 HD
ENDBRANCH  17  28
ENDBRANCH  14  17
ENDBRANCH  12  13
BRANCH  12  30
ATOM     30  C   UNL     1      -4.573  16.870   2.170  1.00  0.00     0.018 C 
ATOM     31  C   UNL     1      -5.403  18.037   2.727  1.00  0.00     0.010 C 
BRANCH  30  32
ATOM     32  C   UNL     1      -4.815  16.724   0.648  1.00  0.00     0.002 C 
ATOM     33  C   UNL     1      -6.241  16.993   0.186  1.00  0.00     0.004 C 
ENDBRANCH  30  32
ENDBRANCH  12  30
ENDBRANCH  10  12
ENDBRANCH   1  10
BRANCH   5  34
ATOM     34  C   UNL     1      -2.312  13.950   4.690  1.00  0.00     0.242 C 
ATOM     35  O   UNL     1      -1.178  14.426   4.734  1.00  0.00    -0.273 OA
ATOM     36  N   UNL     1      -3.242  14.164   5.682  1.00  0.00    -0.354 N 
ATOM     37  H   UNL     1      -4.122  13.647   5.651  1.00  0.00     0.163 HD
BRANCH  36  38
ATOM     38  C   UNL     1      -3.061  15.169   6.709  1.00  0.00     0.116 C 
BRANCH  38  39
ATOM     39  C   UNL     1      -3.929  16.387   6.402  1.00  0.00     0.023 C 
BRANCH  39  40
ATOM     40  C   UNL     1      -3.143  17.509   5.733  1.00  0.00     0.026 C 
BRANCH  40  41
ATOM     41  C   UNL     1      -1.709  17.557   6.261  1.00  0.00     0.146 C 
BRANCH  41  42
ATOM     42  N   UNL     1      -0.938  18.534   5.504  1.00  0.00    -0.254 NA
ATOM     43  C   UNL     1      -0.099  18.134   4.624  1.00  0.00     0.185 C 
ATOM     44  N   UNL     1       0.225  16.886   4.241  1.00  0.00    -0.370 N 
ATOM     45  N   UNL     1       0.606  19.051   3.940  1.00  0.00    -0.370 N 
ATOM     46  H   UNL     1       1.068  16.711   3.721  1.00  0.00     0.159 HD
ATOM     47  H   UNL     1      -0.223  16.070   4.648  1.00  0.00     0.159 HD
ATOM     48  H   UNL     1       0.416  20.019   4.162  1.00  0.00     0.159 HD
ATOM     49  H   UNL     1       1.095  18.838   3.089  1.00  0.00     0.159 HD
ENDBRANCH  41  42
ENDBRANCH  40  41
ENDBRANCH  39  40
ENDBRANCH  38  39
ENDBRANCH  36  38
ENDBRANCH   5  34
BRANCH   8  50
ATOM     50  O   UNL     1       0.753  15.518   1.421  1.00  0.00    -0.245 OA
BRANCH  50  51
ATOM     51  S   UNL     1       1.974  16.538   1.082  1.00  0.00     0.397 S 
ATOM     52  O   UNL     1       2.991  15.797   0.371  1.00  0.00    -0.169 OA
ATOM     53  O   UNL     1       2.289  17.326   2.256  1.00  0.00    -0.169 OA
BRANCH  51  54
ATOM     54  O   UNL     1       1.303  17.515  -0.005  1.00  0.00    -0.264 OA
ATOM     55  H   UNL     1       0.421  17.773   0.330  1.00  0.00     0.236 HD
ENDBRANCH  51  54
ENDBRANCH  50  51
ENDBRANCH   8  50
TORSDOF 19
ENDMDL
MODEL 45
REMARK VINA RESULT:    -6.262      3.403      7.651
REMARK INTER + INTRA:         -16.280
REMARK INTER:                 -11.763
REMARK INTRA:                  -4.517
REMARK UNBOUND:                -3.611
REMARK SMILES CC[C@@H](C)[C@@H](NC(=O)[C@@H](O)Cc1ccc(O)c(Cl)c1)C(=O)N1[C@H](C(=O)NCCCCN=C(N)N)C[C@H]2CC[C@H](OS(=O)(=O)O)C[C@@H]21
REMARK SMILES IDX 22 1 36 2 46 3 35 4 23 5 45 6 37 7 39 8 38 9 20 10 21 11
REMARK SMILES IDX 5 12 6 13 7 14 8 15 9 17 11 18 12 19 17 20 19 21 15 22 14 23
REMARK SMILES IDX 13 24 18 25 16 26 10 28 3 30 4 31 2 32 1 33 24 34 25 35
REMARK SMILES IDX 26 36 27 38 28 39 29 40 30 41 31 42 32 43 33 44 34 45 40 50
REMARK SMILES IDX 41 51 42 52 43 53 44 54
REMARK H PARENT 6 16 16 27 10 29 26 37 33 46 33 47 34 48 34 49 44 55
ROOT
ATOM      1  N   UNL     1      -1.808  15.969   0.798  1.00  0.00    -0.326 N 
ATOM      2  C   UNL     1      -2.345  17.456  -0.946  1.00  0.00     0.014 C 
ATOM      3  C   UNL     1      -2.970  16.558   0.126  1.00  0.00     0.091 C 
ATOM      4  C   UNL     1      -1.104  16.677  -1.354  1.00  0.00     0.041 C 
ATOM      5  C   UNL     1      -0.573  16.266   0.031  1.00  0.00     0.175 C 
ATOM      6  C   UNL     1      -3.937  17.399   0.956  1.00  0.00     0.059 C 
ATOM      7  C   UNL     1      -3.367  17.832  -2.001  1.00  0.00     0.008 C 
ATOM      8  C   UNL     1      -4.620  18.531   0.158  1.00  0.00     0.143 C 
ATOM      9  C   UNL     1      -4.714  18.204  -1.346  1.00  0.00     0.034 C 
ENDROOT
BRANCH   1  10
ATOM     10  C   UNL     1      -1.753  15.059   1.840  1.00  0.00     0.246 C 
ATOM     11  O   UNL     1      -1.118  15.351   2.859  1.00  0.00    -0.272 OA
BRANCH  10  12
ATOM     12  C   UNL     1      -2.523  13.712   1.725  1.00  0.00     0.174 C 
BRANCH  12  13
ATOM     13  N   UNL     1      -3.011  13.303   3.041  1.00  0.00    -0.342 N 
ATOM     14  C   UNL     1      -4.336  13.263   3.416  1.00  0.00     0.249 C 
ATOM     15  O   UNL     1      -5.265  13.543   2.669  1.00  0.00    -0.272 OA
ATOM     16  H   UNL     1      -2.355  13.193   3.810  1.00  0.00     0.164 HD
BRANCH  14  17
ATOM     17  C   UNL     1      -4.528  12.805   4.877  1.00  0.00     0.207 C 
BRANCH  17  18
ATOM     18  C   UNL     1      -5.268  13.878   5.682  1.00  0.00     0.077 C 
BRANCH  18  19
ATOM     19  C   UNL     1      -4.368  15.044   6.025  1.00  0.00    -0.043 A 
ATOM     20  C   UNL     1      -3.029  16.264   7.638  1.00  0.00     0.083 A 
ATOM     21  C   UNL     1      -3.819  15.161   7.311  1.00  0.00     0.028 A 
ATOM     22  C   UNL     1      -2.785  17.255   6.686  1.00  0.00     0.134 A 
ATOM     23  C   UNL     1      -3.323  17.151   5.409  1.00  0.00     0.048 A 
ATOM     24  C   UNL     1      -4.115  16.049   5.079  1.00  0.00     0.008 A 
ATOM     25  Cl  UNL     1      -2.363  16.390   9.224  1.00  0.00    -0.080 Cl
BRANCH  22  26
ATOM     26  O   UNL     1      -2.026  18.359   6.964  1.00  0.00    -0.506 OA
ATOM     27  H   UNL     1      -1.931  18.852   6.127  1.00  0.00     0.293 HD
ENDBRANCH  22  26
ENDBRANCH  18  19
ENDBRANCH  17  18
BRANCH  17  28
ATOM     28  O   UNL     1      -3.264  12.527   5.503  1.00  0.00    -0.383 OA
ATOM     29  H   UNL     1      -3.111  11.561   5.389  1.00  0.00     0.211 HD
ENDBRANCH  17  28
ENDBRANCH  14  17
ENDBRANCH  12  13
BRANCH  12  30
ATOM     30  C   UNL     1      -1.690  12.602   1.030  1.00  0.00     0.018 C 
ATOM     31  C   UNL     1      -1.575  11.361   1.930  1.00  0.00     0.010 C 
BRANCH  30  32
ATOM     32  C   UNL     1      -0.283  13.068   0.584  1.00  0.00     0.002 C 
ATOM     33  C   UNL     1       0.667  11.956   0.158  1.00  0.00     0.004 C 
ENDBRANCH  30  32
ENDBRANCH  12  30
ENDBRANCH  10  12
ENDBRANCH   1  10
BRANCH   5  34
ATOM     34  C   UNL     1       0.227  17.416   0.701  1.00  0.00     0.242 C 
ATOM     35  O   UNL     1       0.129  18.586   0.334  1.00  0.00    -0.273 OA
ATOM     36  N   UNL     1       1.092  17.024   1.698  1.00  0.00    -0.354 N 
ATOM     37  H   UNL     1       1.218  16.026   1.875  1.00  0.00     0.163 HD
BRANCH  36  38
ATOM     38  C   UNL     1       1.750  17.975   2.569  1.00  0.00     0.116 C 
BRANCH  38  39
ATOM     39  C   UNL     1       1.700  17.478   4.012  1.00  0.00     0.023 C 
BRANCH  39  40
ATOM     40  C   UNL     1       0.736  18.287   4.873  1.00  0.00     0.026 C 
BRANCH  40  41
ATOM     41  C   UNL     1       0.246  19.525   4.122  1.00  0.00     0.146 C 
BRANCH  41  42
ATOM     42  N   UNL     1      -1.202  19.632   4.242  1.00  0.00    -0.254 NA
ATOM     43  C   UNL     1      -1.894  20.023   3.238  1.00  0.00     0.185 C 
ATOM     44  N   UNL     1      -1.499  20.377   2.001  1.00  0.00    -0.370 N 
ATOM     45  N   UNL     1      -3.227  20.120   3.371  1.00  0.00    -0.370 N 
ATOM     46  H   UNL     1      -2.114  20.893   1.395  1.00  0.00     0.159 HD
ATOM     47  H   UNL     1      -0.523  20.350   1.725  1.00  0.00     0.159 HD
ATOM     48  H   UNL     1      -3.608  19.862   4.271  1.00  0.00     0.159 HD
ATOM     49  H   UNL     1      -3.848  20.185   2.584  1.00  0.00     0.159 HD
ENDBRANCH  41  42
ENDBRANCH  40  41
ENDBRANCH  39  40
ENDBRANCH  38  39
ENDBRANCH  36  38
ENDBRANCH   5  34
BRANCH   8  50
ATOM     50  O   UNL     1      -3.891  19.748   0.313  1.00  0.00    -0.245 OA
BRANCH  50  51
ATOM     51  S   UNL     1      -4.680  21.170   0.262  1.00  0.00     0.397 S 
ATOM     52  O   UNL     1      -4.688  21.627  -1.110  1.00  0.00    -0.169 OA
ATOM     53  O   UNL     1      -4.224  22.018   1.343  1.00  0.00    -0.169 OA
BRANCH  51  54
ATOM     54  O   UNL     1      -6.192  20.725   0.584  1.00  0.00    -0.264 OA
ATOM     55  H   UNL     1      -6.222  19.747   0.583  1.00  0.00     0.236 HD
ENDBRANCH  51  54
ENDBRANCH  50  51
ENDBRANCH   8  50
TORSDOF 19
ENDMDL
MODEL 46
REMARK VINA RESULT:    -6.254      3.630      6.161
REMARK INTER + INTRA:         -16.263
REMARK INTER:                 -13.220
REMARK INTRA:                  -3.043
REMARK UNBOUND:                -3.611
REMARK SMILES CC[C@@H](C)[C@@H](NC(=O)[C@@H](O)Cc1ccc(O)c(Cl)c1)C(=O)N1[C@H](C(=O)NCCCCN=C(N)N)C[C@H]2CC[C@H](OS(=O)(=O)O)C[C@@H]21
REMARK SMILES IDX 22 1 36 2 46 3 35 4 23 5 45 6 37 7 39 8 38 9 20 10 21 11
REMARK SMILES IDX 5 12 6 13 7 14 8 15 9 17 11 18 12 19 17 20 19 21 15 22 14 23
REMARK SMILES IDX 13 24 18 25 16 26 10 28 3 30 4 31 2 32 1 33 24 34 25 35
REMARK SMILES IDX 26 36 27 38 28 39 29 40 30 41 31 42 32 43 33 44 34 45 40 50
REMARK SMILES IDX 41 51 42 52 43 53 44 54
REMARK H PARENT 6 16 16 27 10 29 26 37 33 46 33 47 34 48 34 49 44 55
ROOT
ATOM      1  N   UNL     1      -7.498  14.860   3.851  1.00  0.00    -0.326 N 
ATOM      2  C   UNL     1      -8.908  13.712   2.356  1.00  0.00     0.014 C 
ATOM      3  C   UNL     1      -8.782  14.153   3.817  1.00  0.00     0.091 C 
ATOM      4  C   UNL     1      -7.468  13.416   1.969  1.00  0.00     0.041 C 
ATOM      5  C   UNL     1      -6.764  14.642   2.580  1.00  0.00     0.175 C 
ATOM      6  C   UNL     1     -10.044  14.924   4.200  1.00  0.00     0.059 C 
ATOM      7  C   UNL     1      -9.956  12.627   2.206  1.00  0.00     0.008 C 
ATOM      8  C   UNL     1     -11.314  14.441   3.466  1.00  0.00     0.143 C 
ATOM      9  C   UNL     1     -11.210  12.962   3.041  1.00  0.00     0.034 C 
ENDROOT
BRANCH   1  10
ATOM     10  C   UNL     1      -6.846  15.464   4.913  1.00  0.00     0.246 C 
ATOM     11  O   UNL     1      -7.137  16.626   5.215  1.00  0.00    -0.272 OA
BRANCH  10  12
ATOM     12  C   UNL     1      -5.794  14.656   5.726  1.00  0.00     0.174 C 
BRANCH  12  13
ATOM     13  N   UNL     1      -4.530  14.601   4.991  1.00  0.00    -0.342 N 
ATOM     14  C   UNL     1      -3.309  14.999   5.488  1.00  0.00     0.249 C 
ATOM     15  O   UNL     1      -3.141  15.422   6.625  1.00  0.00    -0.272 OA
ATOM     16  H   UNL     1      -4.537  14.421   3.990  1.00  0.00     0.164 HD
BRANCH  14  17
ATOM     17  C   UNL     1      -2.167  14.835   4.463  1.00  0.00     0.207 C 
BRANCH  17  18
ATOM     18  C   UNL     1      -2.733  14.508   3.078  1.00  0.00     0.077 C 
BRANCH  18  19
ATOM     19  C   UNL     1      -1.794  13.632   2.279  1.00  0.00    -0.043 A 
ATOM     20  C   UNL     1       0.072  13.401   0.746  1.00  0.00     0.083 A 
ATOM     21  C   UNL     1      -0.762  14.208   1.521  1.00  0.00     0.028 A 
ATOM     22  C   UNL     1      -0.119  12.019   0.722  1.00  0.00     0.134 A 
ATOM     23  C   UNL     1      -1.137  11.436   1.468  1.00  0.00     0.048 A 
ATOM     24  C   UNL     1      -1.975  12.241   2.243  1.00  0.00     0.008 A 
ATOM     25  Cl  UNL     1       1.334  14.126  -0.178  1.00  0.00    -0.080 Cl
BRANCH  22  26
ATOM     26  O   UNL     1       0.666  11.188  -0.030  1.00  0.00    -0.506 OA
ATOM     27  H   UNL     1       1.214  10.678   0.595  1.00  0.00     0.293 HD
ENDBRANCH  22  26
ENDBRANCH  18  19
ENDBRANCH  17  18
BRANCH  17  28
ATOM     28  O   UNL     1      -1.258  13.797   4.864  1.00  0.00    -0.383 OA
ATOM     29  H   UNL     1      -1.611  12.963   4.479  1.00  0.00     0.211 HD
ENDBRANCH  17  28
ENDBRANCH  14  17
ENDBRANCH  12  13
BRANCH  12  30
ATOM     30  C   UNL     1      -6.303  13.247   6.133  1.00  0.00     0.018 C 
ATOM     31  C   UNL     1      -5.944  12.937   7.595  1.00  0.00     0.010 C 
BRANCH  30  32
ATOM     32  C   UNL     1      -5.798  12.112   5.209  1.00  0.00     0.002 C 
ATOM     33  C   UNL     1      -6.848  11.087   4.802  1.00  0.00     0.004 C 
ENDBRANCH  30  32
ENDBRANCH  12  30
ENDBRANCH  10  12
ENDBRANCH   1  10
BRANCH   5  34
ATOM     34  C   UNL     1      -6.878  15.885   1.659  1.00  0.00     0.242 C 
ATOM     35  O   UNL     1      -7.745  16.745   1.817  1.00  0.00    -0.273 OA
ATOM     36  N   UNL     1      -5.975  15.930   0.620  1.00  0.00    -0.354 N 
ATOM     37  H   UNL     1      -5.359  15.129   0.470  1.00  0.00     0.163 HD
BRANCH  36  38
ATOM     38  C   UNL     1      -5.797  17.110  -0.200  1.00  0.00     0.116 C 
BRANCH  38  39
ATOM     39  C   UNL     1      -4.543  16.960  -1.058  1.00  0.00     0.023 C 
BRANCH  39  40
ATOM     40  C   UNL     1      -3.316  16.579  -0.236  1.00  0.00     0.026 C 
BRANCH  40  41
ATOM     41  C   UNL     1      -2.054  17.217  -0.818  1.00  0.00     0.146 C 
BRANCH  41  42
ATOM     42  N   UNL     1      -1.363  17.974   0.216  1.00  0.00    -0.254 NA
ATOM     43  C   UNL     1      -0.086  17.925   0.291  1.00  0.00     0.185 C 
ATOM     44  N   UNL     1       0.800  17.253  -0.468  1.00  0.00    -0.370 N 
ATOM     45  N   UNL     1       0.532  18.627   1.255  1.00  0.00    -0.370 N 
ATOM     46  H   UNL     1       1.743  17.110  -0.149  1.00  0.00     0.159 HD
ATOM     47  H   UNL     1       0.504  16.681  -1.252  1.00  0.00     0.159 HD
ATOM     48  H   UNL     1      -0.063  19.170   1.866  1.00  0.00     0.159 HD
ATOM     49  H   UNL     1       1.516  18.830   1.234  1.00  0.00     0.159 HD
ENDBRANCH  41  42
ENDBRANCH  40  41
ENDBRANCH  39  40
ENDBRANCH  38  39
ENDBRANCH  36  38
ENDBRANCH   5  34
BRANCH   8  50
ATOM     50  O   UNL     1     -11.537  15.233   2.299  1.00  0.00    -0.245 OA
BRANCH  50  51
ATOM     51  S   UNL     1     -13.033  15.788   1.980  1.00  0.00     0.397 S 
ATOM     52  O   UNL     1     -13.691  16.048   3.240  1.00  0.00    -0.169 OA
ATOM     53  O   UNL     1     -13.647  14.968   0.956  1.00  0.00    -0.169 OA
BRANCH  51  54
ATOM     54  O   UNL     1     -12.726  17.231   1.340  1.00  0.00    -0.264 OA
ATOM     55  H   UNL     1     -13.218  17.294   0.496  1.00  0.00     0.236 HD
ENDBRANCH  51  54
ENDBRANCH  50  51
ENDBRANCH   8  50
TORSDOF 19
ENDMDL
MODEL 47
REMARK VINA RESULT:    -6.246      3.928      7.942
REMARK INTER + INTRA:         -16.246
REMARK INTER:                 -13.419
REMARK INTRA:                  -2.827
REMARK UNBOUND:                -3.611
REMARK SMILES CC[C@@H](C)[C@@H](NC(=O)[C@@H](O)Cc1ccc(O)c(Cl)c1)C(=O)N1[C@H](C(=O)NCCCCN=C(N)N)C[C@H]2CC[C@H](OS(=O)(=O)O)C[C@@H]21
REMARK SMILES IDX 22 1 36 2 46 3 35 4 23 5 45 6 37 7 39 8 38 9 20 10 21 11
REMARK SMILES IDX 5 12 6 13 7 14 8 15 9 17 11 18 12 19 17 20 19 21 15 22 14 23
REMARK SMILES IDX 13 24 18 25 16 26 10 28 3 30 4 31 2 32 1 33 24 34 25 35
REMARK SMILES IDX 26 36 27 38 28 39 29 40 30 41 31 42 32 43 33 44 34 45 40 50
REMARK SMILES IDX 41 51 42 52 43 53 44 54
REMARK H PARENT 6 16 16 27 10 29 26 37 33 46 33 47 34 48 34 49 44 55
ROOT
ATOM      1  N   UNL     1      -3.235  14.029   2.343  1.00  0.00    -0.326 N 
ATOM      2  C   UNL     1      -1.043  13.183   2.189  1.00  0.00     0.014 C 
ATOM      3  C   UNL     1      -2.126  13.915   1.391  1.00  0.00     0.091 C 
ATOM      4  C   UNL     1      -1.853  12.242   3.066  1.00  0.00     0.041 C 
ATOM      5  C   UNL     1      -2.962  13.198   3.542  1.00  0.00     0.175 C 
ATOM      6  C   UNL     1      -1.524  15.200   0.824  1.00  0.00     0.059 C 
ATOM      7  C   UNL     1       0.017  12.613   1.267  1.00  0.00     0.008 C 
ATOM      8  C   UNL     1      -0.020  15.087   0.492  1.00  0.00     0.143 C 
ATOM      9  C   UNL     1       0.396  13.636   0.175  1.00  0.00     0.034 C 
ENDROOT
BRANCH   1  10
ATOM     10  C   UNL     1      -4.493  14.584   2.178  1.00  0.00     0.246 C 
ATOM     11  O   UNL     1      -4.897  14.829   1.036  1.00  0.00    -0.272 OA
BRANCH  10  12
ATOM     12  C   UNL     1      -5.385  14.846   3.426  1.00  0.00     0.174 C 
BRANCH  12  13
ATOM     13  N   UNL     1      -6.785  14.574   3.104  1.00  0.00    -0.342 N 
ATOM     14  C   UNL     1      -7.355  13.322   3.048  1.00  0.00     0.249 C 
ATOM     15  O   UNL     1      -6.750  12.286   3.293  1.00  0.00    -0.272 OA
ATOM     16  H   UNL     1      -7.369  15.317   2.727  1.00  0.00     0.164 HD
BRANCH  14  17
ATOM     17  C   UNL     1      -8.849  13.364   2.664  1.00  0.00     0.207 C 
BRANCH  17  18
ATOM     18  C   UNL     1      -9.580  14.443   3.469  1.00  0.00     0.077 C 
BRANCH  18  19
ATOM     19  C   UNL     1     -10.172  15.508   2.574  1.00  0.00    -0.043 A 
ATOM     20  C   UNL     1     -12.089  16.494   1.463  1.00  0.00     0.083 A 
ATOM     21  C   UNL     1     -11.553  15.540   2.329  1.00  0.00     0.028 A 
ATOM     22  C   UNL     1     -11.252  17.418   0.838  1.00  0.00     0.134 A 
ATOM     23  C   UNL     1      -9.882  17.399   1.072  1.00  0.00     0.048 A 
ATOM     24  C   UNL     1      -9.342  16.444   1.936  1.00  0.00     0.008 A 
ATOM     25  Cl  UNL     1     -13.789  16.517   1.174  1.00  0.00    -0.080 Cl
BRANCH  22  26
ATOM     26  O   UNL     1     -11.731  18.365  -0.027  1.00  0.00    -0.506 OA
ATOM     27  H   UNL     1     -11.890  19.171   0.499  1.00  0.00     0.293 HD
ENDBRANCH  22  26
ENDBRANCH  18  19
ENDBRANCH  17  18
BRANCH  17  28
ATOM     28  O   UNL     1      -9.478  12.092   2.891  1.00  0.00    -0.383 OA
ATOM     29  H   UNL     1      -8.894  11.608   3.519  1.00  0.00     0.211 HD
ENDBRANCH  17  28
ENDBRANCH  14  17
ENDBRANCH  12  13
BRANCH  12  30
ATOM     30  C   UNL     1      -5.179  16.263   4.024  1.00  0.00     0.018 C 
ATOM     31  C   UNL     1      -6.525  16.982   4.203  1.00  0.00     0.010 C 
BRANCH  30  32
ATOM     32  C   UNL     1      -4.209  17.148   3.204  1.00  0.00     0.002 C 
ATOM     33  C   UNL     1      -4.525  18.638   3.209  1.00  0.00     0.004 C 
ENDBRANCH  30  32
ENDBRANCH  12  30
ENDBRANCH  10  12
ENDBRANCH   1  10
BRANCH   5  34
ATOM     34  C   UNL     1      -2.487  14.082   4.726  1.00  0.00     0.242 C 
ATOM     35  O   UNL     1      -2.872  13.896   5.881  1.00  0.00    -0.273 OA
ATOM     36  N   UNL     1      -1.649  15.119   4.384  1.00  0.00    -0.354 N 
ATOM     37  H   UNL     1      -1.462  15.294   3.396  1.00  0.00     0.163 HD
BRANCH  36  38
ATOM     38  C   UNL     1      -0.944  15.903   5.377  1.00  0.00     0.116 C 
BRANCH  38  39
ATOM     39  C   UNL     1      -0.177  17.034   4.695  1.00  0.00     0.023 C 
BRANCH  39  40
ATOM     40  C   UNL     1      -0.440  18.389   5.343  1.00  0.00     0.026 C 
BRANCH  40  41
ATOM     41  C   UNL     1      -0.741  19.448   4.281  1.00  0.00     0.146 C 
BRANCH  41  42
ATOM     42  N   UNL     1      -0.944  18.806   2.989  1.00  0.00    -0.254 NA
ATOM     43  C   UNL     1      -0.941  19.514   1.923  1.00  0.00     0.185 C 
ATOM     44  N   UNL     1      -0.773  20.840   1.765  1.00  0.00    -0.370 N 
ATOM     45  N   UNL     1      -1.134  18.904   0.742  1.00  0.00    -0.370 N 
ATOM     46  H   UNL     1      -1.037  21.292   0.906  1.00  0.00     0.159 HD
ATOM     47  H   UNL     1      -0.602  21.453   2.556  1.00  0.00     0.159 HD
ATOM     48  H   UNL     1      -1.260  17.901   0.771  1.00  0.00     0.159 HD
ATOM     49  H   UNL     1      -0.913  19.338  -0.137  1.00  0.00     0.159 HD
ENDBRANCH  41  42
ENDBRANCH  40  41
ENDBRANCH  39  40
ENDBRANCH  38  39
ENDBRANCH  36  38
ENDBRANCH   5  34
BRANCH   8  50
ATOM     50  O   UNL     1       0.762  15.553   1.592  1.00  0.00    -0.245 OA
BRANCH  50  51
ATOM     51  S   UNL     1       1.859  16.729   1.356  1.00  0.00     0.397 S 
ATOM     52  O   UNL     1       2.259  17.233   2.650  1.00  0.00    -0.169 OA
ATOM     53  O   UNL     1       1.404  17.614   0.303  1.00  0.00    -0.169 OA
BRANCH  51  54
ATOM     54  O   UNL     1       3.122  15.904   0.798  1.00  0.00    -0.264 OA
ATOM     55  H   UNL     1       3.554  15.468   1.561  1.00  0.00     0.236 HD
ENDBRANCH  51  54
ENDBRANCH  50  51
ENDBRANCH   8  50
TORSDOF 19
ENDMDL
MODEL 48
REMARK VINA RESULT:    -6.199      3.857      8.854
REMARK INTER + INTRA:         -16.152
REMARK INTER:                 -12.967
REMARK INTRA:                  -3.185
REMARK UNBOUND:                -3.611
REMARK SMILES CC[C@@H](C)[C@@H](NC(=O)[C@@H](O)Cc1ccc(O)c(Cl)c1)C(=O)N1[C@H](C(=O)NCCCCN=C(N)N)C[C@H]2CC[C@H](OS(=O)(=O)O)C[C@@H]21
REMARK SMILES IDX 22 1 36 2 46 3 35 4 23 5 45 6 37 7 39 8 38 9 20 10 21 11
REMARK SMILES IDX 5 12 6 13 7 14 8 15 9 17 11 18 12 19 17 20 19 21 15 22 14 23
REMARK SMILES IDX 13 24 18 25 16 26 10 28 3 30 4 31 2 32 1 33 24 34 25 35
REMARK SMILES IDX 26 36 27 38 28 39 29 40 30 41 31 42 32 43 33 44 34 45 40 50
REMARK SMILES IDX 41 51 42 52 43 53 44 54
REMARK H PARENT 6 16 16 27 10 29 26 37 33 46 33 47 34 48 34 49 44 55
ROOT
ATOM      1  N   UNL     1      -3.304  13.914   2.273  1.00  0.00    -0.326 N 
ATOM      2  C   UNL     1      -1.070  13.174   2.260  1.00  0.00     0.014 C 
ATOM      3  C   UNL     1      -2.142  13.828   1.384  1.00  0.00     0.091 C 
ATOM      4  C   UNL     1      -1.880  12.219   3.124  1.00  0.00     0.041 C 
ATOM      5  C   UNL     1      -3.057  13.133   3.510  1.00  0.00     0.175 C 
ATOM      6  C   UNL     1      -1.572  15.124   0.810  1.00  0.00     0.059 C 
ATOM      7  C   UNL     1       0.065  12.630   1.414  1.00  0.00     0.008 C 
ATOM      8  C   UNL     1      -0.049  15.076   0.560  1.00  0.00     0.143 C 
ATOM      9  C   UNL     1       0.452  13.639   0.312  1.00  0.00     0.034 C 
ENDROOT
BRANCH   1  10
ATOM     10  C   UNL     1      -4.577  14.401   2.025  1.00  0.00     0.246 C 
ATOM     11  O   UNL     1      -5.374  13.703   1.390  1.00  0.00    -0.272 OA
BRANCH  10  12
ATOM     12  C   UNL     1      -4.988  15.793   2.586  1.00  0.00     0.174 C 
BRANCH  12  13
ATOM     13  N   UNL     1      -6.028  15.634   3.602  1.00  0.00    -0.342 N 
ATOM     14  C   UNL     1      -6.057  16.290   4.812  1.00  0.00     0.249 C 
ATOM     15  O   UNL     1      -5.219  17.111   5.163  1.00  0.00    -0.272 OA
ATOM     16  H   UNL     1      -6.700  14.876   3.520  1.00  0.00     0.164 HD
BRANCH  14  17
ATOM     17  C   UNL     1      -7.276  15.896   5.674  1.00  0.00     0.207 C 
BRANCH  17  18
ATOM     18  C   UNL     1      -8.553  15.894   4.827  1.00  0.00     0.077 C 
BRANCH  18  19
ATOM     19  C   UNL     1      -8.994  14.490   4.478  1.00  0.00    -0.043 A 
ATOM     20  C   UNL     1     -10.320  12.979   3.121  1.00  0.00     0.083 A 
ATOM     21  C   UNL     1      -9.876  14.270   3.409  1.00  0.00     0.028 A 
ATOM     22  C   UNL     1      -9.888  11.903   3.897  1.00  0.00     0.134 A 
ATOM     23  C   UNL     1      -9.014  12.107   4.959  1.00  0.00     0.048 A 
ATOM     24  C   UNL     1      -8.569  13.398   5.251  1.00  0.00     0.008 A 
ATOM     25  Cl  UNL     1     -11.404  12.729   1.804  1.00  0.00    -0.080 Cl
BRANCH  22  26
ATOM     26  O   UNL     1     -10.303  10.621   3.659  1.00  0.00    -0.506 OA
ATOM     27  H   UNL     1     -10.818  10.344   4.440  1.00  0.00     0.293 HD
ENDBRANCH  22  26
ENDBRANCH  18  19
ENDBRANCH  17  18
BRANCH  17  28
ATOM     28  O   UNL     1      -7.440  16.796   6.781  1.00  0.00    -0.383 OA
ATOM     29  H   UNL     1      -7.021  17.644   6.507  1.00  0.00     0.211 HD
ENDBRANCH  17  28
ENDBRANCH  14  17
ENDBRANCH  12  13
BRANCH  12  30
ATOM     30  C   UNL     1      -5.397  16.793   1.471  1.00  0.00     0.018 C 
ATOM     31  C   UNL     1      -6.911  16.738   1.217  1.00  0.00     0.010 C 
BRANCH  30  32
ATOM     32  C   UNL     1      -4.627  16.591   0.143  1.00  0.00     0.002 C 
ATOM     33  C   UNL     1      -4.161  17.870  -0.540  1.00  0.00     0.004 C 
ENDBRANCH  30  32
ENDBRANCH  12  30
ENDBRANCH  10  12
ENDBRANCH   1  10
BRANCH   5  34
ATOM     34  C   UNL     1      -2.689  14.072   4.689  1.00  0.00     0.242 C 
ATOM     35  O   UNL     1      -1.773  14.891   4.617  1.00  0.00    -0.273 OA
ATOM     36  N   UNL     1      -3.426  13.886   5.838  1.00  0.00    -0.354 N 
ATOM     37  H   UNL     1      -4.090  13.111   5.876  1.00  0.00     0.163 HD
BRANCH  36  38
ATOM     38  C   UNL     1      -3.366  14.808   6.953  1.00  0.00     0.116 C 
BRANCH  38  39
ATOM     39  C   UNL     1      -4.547  14.566   7.890  1.00  0.00     0.023 C 
BRANCH  39  40
ATOM     40  C   UNL     1      -5.346  13.323   7.511  1.00  0.00     0.026 C 
BRANCH  40  41
ATOM     41  C   UNL     1      -5.793  12.565   8.761  1.00  0.00     0.146 C 
BRANCH  41  42
ATOM     42  N   UNL     1      -6.852  11.626   8.415  1.00  0.00    -0.254 NA
ATOM     43  C   UNL     1      -8.071  11.929   8.658  1.00  0.00     0.185 C 
ATOM     44  N   UNL     1      -8.593  13.038   9.214  1.00  0.00    -0.370 N 
ATOM     45  N   UNL     1      -9.032  11.048   8.335  1.00  0.00    -0.370 N 
ATOM     46  H   UNL     1      -9.535  13.040   9.567  1.00  0.00     0.159 HD
ATOM     47  H   UNL     1      -8.007  13.814   9.506  1.00  0.00     0.159 HD
ATOM     48  H   UNL     1      -8.725  10.188   7.902  1.00  0.00     0.159 HD
ATOM     49  H   UNL     1     -10.003  11.300   8.273  1.00  0.00     0.159 HD
ENDBRANCH  41  42
ENDBRANCH  40  41
ENDBRANCH  39  40
ENDBRANCH  38  39
ENDBRANCH  36  38
ENDBRANCH   5  34
BRANCH   8  50
ATOM     50  O   UNL     1       0.650  15.611   1.685  1.00  0.00    -0.245 OA
BRANCH  50  51
ATOM     51  S   UNL     1       1.846  16.687   1.449  1.00  0.00     0.397 S 
ATOM     52  O   UNL     1       2.907  16.023   0.725  1.00  0.00    -0.169 OA
ATOM     53  O   UNL     1       2.101  17.408   2.679  1.00  0.00    -0.169 OA
BRANCH  51  54
ATOM     54  O   UNL     1       1.177  17.710   0.405  1.00  0.00    -0.264 OA
ATOM     55  H   UNL     1       1.835  18.408   0.207  1.00  0.00     0.236 HD
ENDBRANCH  51  54
ENDBRANCH  50  51
ENDBRANCH   8  50
TORSDOF 19
ENDMDL
MODEL 49
REMARK VINA RESULT:    -6.189      2.960      7.038
REMARK INTER + INTRA:         -16.131
REMARK INTER:                 -11.524
REMARK INTRA:                  -4.607
REMARK UNBOUND:                -3.611
REMARK SMILES CC[C@@H](C)[C@@H](NC(=O)[C@@H](O)Cc1ccc(O)c(Cl)c1)C(=O)N1[C@H](C(=O)NCCCCN=C(N)N)C[C@H]2CC[C@H](OS(=O)(=O)O)C[C@@H]21
REMARK SMILES IDX 22 1 36 2 46 3 35 4 23 5 45 6 37 7 39 8 38 9 20 10 21 11
REMARK SMILES IDX 5 12 6 13 7 14 8 15 9 17 11 18 12 19 17 20 19 21 15 22 14 23
REMARK SMILES IDX 13 24 18 25 16 26 10 28 3 30 4 31 2 32 1 33 24 34 25 35
REMARK SMILES IDX 26 36 27 38 28 39 29 40 30 41 31 42 32 43 33 44 34 45 40 50
REMARK SMILES IDX 41 51 42 52 43 53 44 54
REMARK H PARENT 6 16 16 27 10 29 26 37 33 46 33 47 34 48 34 49 44 55
ROOT
ATOM      1  N   UNL     1      -1.492  17.146   1.243  1.00  0.00    -0.326 N 
ATOM      2  C   UNL     1      -0.502  15.891  -0.486  1.00  0.00     0.014 C 
ATOM      3  C   UNL     1      -0.379  16.222   1.005  1.00  0.00     0.091 C 
ATOM      4  C   UNL     1      -1.005  17.198  -1.079  1.00  0.00     0.041 C 
ATOM      5  C   UNL     1      -2.090  17.564  -0.049  1.00  0.00     0.175 C 
ATOM      6  C   UNL     1      -0.345  14.911   1.789  1.00  0.00     0.059 C 
ATOM      7  C   UNL     1       0.782  15.281  -1.013  1.00  0.00     0.008 C 
ATOM      8  C   UNL     1       0.317  13.746   1.023  1.00  0.00     0.143 C 
ATOM      9  C   UNL     1       1.341  14.244  -0.017  1.00  0.00     0.034 C 
ENDROOT
BRANCH   1  10
ATOM     10  C   UNL     1      -1.873  17.795   2.405  1.00  0.00     0.246 C 
ATOM     11  O   UNL     1      -2.736  17.281   3.125  1.00  0.00    -0.272 OA
BRANCH  10  12
ATOM     12  C   UNL     1      -1.179  19.131   2.800  1.00  0.00     0.174 C 
BRANCH  12  13
ATOM     13  N   UNL     1      -0.908  19.146   4.237  1.00  0.00    -0.342 N 
ATOM     14  C   UNL     1       0.175  18.550   4.843  1.00  0.00     0.249 C 
ATOM     15  O   UNL     1       1.057  17.958   4.234  1.00  0.00    -0.272 OA
ATOM     16  H   UNL     1      -1.628  19.461   4.882  1.00  0.00     0.164 HD
BRANCH  14  17
ATOM     17  C   UNL     1       0.171  18.727   6.377  1.00  0.00     0.207 C 
BRANCH  17  18
ATOM     18  C   UNL     1       0.270  17.365   7.073  1.00  0.00     0.077 C 
BRANCH  18  19
ATOM     19  C   UNL     1      -0.982  16.541   6.877  1.00  0.00    -0.043 A 
ATOM     20  C   UNL     1      -3.189  15.859   7.620  1.00  0.00     0.083 A 
ATOM     21  C   UNL     1      -2.054  16.657   7.775  1.00  0.00     0.028 A 
ATOM     22  C   UNL     1      -3.259  14.943   6.570  1.00  0.00     0.134 A 
ATOM     23  C   UNL     1      -2.205  14.817   5.673  1.00  0.00     0.048 A 
ATOM     24  C   UNL     1      -1.067  15.613   5.827  1.00  0.00     0.008 A 
ATOM     25  Cl  UNL     1      -4.495  16.016   8.734  1.00  0.00    -0.080 Cl
BRANCH  22  26
ATOM     26  O   UNL     1      -4.345  14.132   6.384  1.00  0.00    -0.506 OA
ATOM     27  H   UNL     1      -4.241  13.720   5.506  1.00  0.00     0.293 HD
ENDBRANCH  22  26
ENDBRANCH  18  19
ENDBRANCH  17  18
BRANCH  17  28
ATOM     28  O   UNL     1      -1.019  19.401   6.817  1.00  0.00    -0.383 OA
ATOM     29  H   UNL     1      -1.633  18.696   7.123  1.00  0.00     0.211 HD
ENDBRANCH  17  28
ENDBRANCH  14  17
ENDBRANCH  12  13
BRANCH  12  30
ATOM     30  C   UNL     1      -1.974  20.380   2.334  1.00  0.00     0.018 C 
ATOM     31  C   UNL     1      -1.647  21.596   3.216  1.00  0.00     0.010 C 
BRANCH  30  32
ATOM     32  C   UNL     1      -3.505  20.159   2.280  1.00  0.00     0.002 C 
ATOM     33  C   UNL     1      -4.222  20.844   1.125  1.00  0.00     0.004 C 
ENDBRANCH  30  32
ENDBRANCH  12  30
ENDBRANCH  10  12
ENDBRANCH   1  10
BRANCH   5  34
ATOM     34  C   UNL     1      -3.413  16.798  -0.316  1.00  0.00     0.242 C 
ATOM     35  O   UNL     1      -3.431  15.647  -0.751  1.00  0.00    -0.273 OA
ATOM     36  N   UNL     1      -4.564  17.518  -0.082  1.00  0.00    -0.354 N 
ATOM     37  H   UNL     1      -4.485  18.505   0.163  1.00  0.00     0.163 HD
BRANCH  36  38
ATOM     38  C   UNL     1      -5.874  16.899  -0.070  1.00  0.00     0.116 C 
BRANCH  38  39
ATOM     39  C   UNL     1      -6.705  17.467   1.078  1.00  0.00     0.023 C 
BRANCH  39  40
ATOM     40  C   UNL     1      -6.998  16.427   2.154  1.00  0.00     0.026 C 
BRANCH  40  41
ATOM     41  C   UNL     1      -5.837  16.329   3.144  1.00  0.00     0.146 C 
BRANCH  41  42
ATOM     42  N   UNL     1      -5.688  14.951   3.594  1.00  0.00    -0.254 NA
ATOM     43  C   UNL     1      -4.774  14.214   3.084  1.00  0.00     0.185 C 
ATOM     44  N   UNL     1      -3.857  14.500   2.141  1.00  0.00    -0.370 N 
ATOM     45  N   UNL     1      -4.657  12.946   3.509  1.00  0.00    -0.370 N 
ATOM     46  H   UNL     1      -3.366  13.763   1.664  1.00  0.00     0.159 HD
ATOM     47  H   UNL     1      -3.796  15.421   1.720  1.00  0.00     0.159 HD
ATOM     48  H   UNL     1      -5.305  12.651   4.227  1.00  0.00     0.159 HD
ATOM     49  H   UNL     1      -3.837  12.389   3.341  1.00  0.00     0.159 HD
ENDBRANCH  41  42
ENDBRANCH  40  41
ENDBRANCH  39  40
ENDBRANCH  38  39
ENDBRANCH  36  38
ENDBRANCH   5  34
BRANCH   8  50
ATOM     50  O   UNL     1      -0.677  12.975   0.348  1.00  0.00    -0.245 OA
BRANCH  50  51
ATOM     51  S   UNL     1      -1.180  11.570   0.994  1.00  0.00     0.397 S 
ATOM     52  O   UNL     1      -2.084  11.875   2.079  1.00  0.00    -0.169 OA
ATOM     53  O   UNL     1      -0.047  10.685   1.174  1.00  0.00    -0.169 OA
BRANCH  51  54
ATOM     54  O   UNL     1      -2.096  10.968  -0.183  1.00  0.00    -0.264 OA
ATOM     55  H   UNL     1      -2.681  11.685  -0.502  1.00  0.00     0.236 HD
ENDBRANCH  51  54
ENDBRANCH  50  51
ENDBRANCH   8  50
TORSDOF 19
ENDMDL
MODEL 50
REMARK VINA RESULT:    -6.177      3.714      7.240
REMARK INTER + INTRA:         -16.107
REMARK INTER:                 -13.270
REMARK INTRA:                  -2.837
REMARK UNBOUND:                -3.611
REMARK SMILES CC[C@@H](C)[C@@H](NC(=O)[C@@H](O)Cc1ccc(O)c(Cl)c1)C(=O)N1[C@H](C(=O)NCCCCN=C(N)N)C[C@H]2CC[C@H](OS(=O)(=O)O)C[C@@H]21
REMARK SMILES IDX 22 1 36 2 46 3 35 4 23 5 45 6 37 7 39 8 38 9 20 10 21 11
REMARK SMILES IDX 5 12 6 13 7 14 8 15 9 17 11 18 12 19 17 20 19 21 15 22 14 23
REMARK SMILES IDX 13 24 18 25 16 26 10 28 3 30 4 31 2 32 1 33 24 34 25 35
REMARK SMILES IDX 26 36 27 38 28 39 29 40 30 41 31 42 32 43 33 44 34 45 40 50
REMARK SMILES IDX 41 51 42 52 43 53 44 54
REMARK H PARENT 6 16 16 27 10 29 26 37 33 46 33 47 34 48 34 49 44 55
ROOT
ATOM      1  N   UNL     1      -7.367  13.999   3.994  1.00  0.00    -0.326 N 
ATOM      2  C   UNL     1      -8.765  12.204   4.600  1.00  0.00     0.014 C 
ATOM      3  C   UNL     1      -7.320  12.705   4.681  1.00  0.00     0.091 C 
ATOM      4  C   UNL     1      -9.226  12.727   3.248  1.00  0.00     0.041 C 
ATOM      5  C   UNL     1      -8.673  14.163   3.309  1.00  0.00     0.175 C 
ATOM      6  C   UNL     1      -6.879  12.677   6.143  1.00  0.00     0.059 C 
ATOM      7  C   UNL     1      -8.840  10.717   4.887  1.00  0.00     0.008 C 
ATOM      8  C   UNL     1      -7.534  11.547   6.967  1.00  0.00     0.143 C 
ATOM      9  C   UNL     1      -7.941  10.349   6.086  1.00  0.00     0.034 C 
ENDROOT
BRANCH   1  10
ATOM     10  C   UNL     1      -6.353  14.907   3.739  1.00  0.00     0.246 C 
ATOM     11  O   UNL     1      -6.069  15.748   4.598  1.00  0.00    -0.272 OA
BRANCH  10  12
ATOM     12  C   UNL     1      -5.566  14.820   2.399  1.00  0.00     0.174 C 
BRANCH  12  13
ATOM     13  N   UNL     1      -4.137  14.665   2.670  1.00  0.00    -0.342 N 
ATOM     14  C   UNL     1      -3.563  13.576   3.285  1.00  0.00     0.249 C 
ATOM     15  O   UNL     1      -4.191  12.591   3.653  1.00  0.00    -0.272 OA
ATOM     16  H   UNL     1      -3.515  15.463   2.563  1.00  0.00     0.164 HD
BRANCH  14  17
ATOM     17  C   UNL     1      -2.034  13.718   3.443  1.00  0.00     0.207 C 
BRANCH  17  18
ATOM     18  C   UNL     1      -1.306  12.800   2.455  1.00  0.00     0.077 C 
BRANCH  18  19
ATOM     19  C   UNL     1      -0.578  13.588   1.388  1.00  0.00    -0.043 A 
ATOM     20  C   UNL     1      -0.238  15.654   0.165  1.00  0.00     0.083 A 
ATOM     21  C   UNL     1      -0.875  14.944   1.183  1.00  0.00     0.028 A 
ATOM     22  C   UNL     1       0.696  15.017  -0.653  1.00  0.00     0.134 A 
ATOM     23  C   UNL     1       0.999  13.674  -0.460  1.00  0.00     0.048 A 
ATOM     24  C   UNL     1       0.362  12.960   0.557  1.00  0.00     0.008 A 
ATOM     25  Cl  UNL     1      -0.616  17.320  -0.072  1.00  0.00    -0.080 Cl
BRANCH  22  26
ATOM     26  O   UNL     1       1.338  15.669  -1.670  1.00  0.00    -0.506 OA
ATOM     27  H   UNL     1       2.270  15.763  -1.398  1.00  0.00     0.293 HD
ENDBRANCH  22  26
ENDBRANCH  18  19
ENDBRANCH  17  18
BRANCH  17  28
ATOM     28  O   UNL     1      -1.620  13.401   4.782  1.00  0.00    -0.383 OA
ATOM     29  H   UNL     1      -0.662  13.182   4.726  1.00  0.00     0.211 HD
ENDBRANCH  17  28
ENDBRANCH  14  17
ENDBRANCH  12  13
BRANCH  12  30
ATOM     30  C   UNL     1      -5.863  16.013   1.451  1.00  0.00     0.018 C 
ATOM     31  C   UNL     1      -7.129  15.748   0.621  1.00  0.00     0.010 C 
BRANCH  30  32
ATOM     32  C   UNL     1      -4.682  16.375   0.518  1.00  0.00     0.002 C 
ATOM     33  C   UNL     1      -5.035  17.269  -0.663  1.00  0.00     0.004 C 
ENDBRANCH  30  32
ENDBRANCH  12  30
ENDBRANCH  10  12
ENDBRANCH   1  10
BRANCH   5  34
ATOM     34  C   UNL     1      -9.606  15.101   4.121  1.00  0.00     0.242 C 
ATOM     35  O   UNL     1      -9.231  15.682   5.139  1.00  0.00    -0.273 OA
ATOM     36  N   UNL     1     -10.897  15.193   3.650  1.00  0.00    -0.354 N 
ATOM     37  H   UNL     1     -11.181  14.595   2.873  1.00  0.00     0.163 HD
BRANCH  36  38
ATOM     38  C   UNL     1     -11.834  16.178   4.150  1.00  0.00     0.116 C 
BRANCH  38  39
ATOM     39  C   UNL     1     -13.051  16.249   3.232  1.00  0.00     0.023 C 
BRANCH  39  40
ATOM     40  C   UNL     1     -12.754  15.730   1.829  1.00  0.00     0.026 C 
BRANCH  40  41
ATOM     41  C   UNL     1     -13.722  14.609   1.449  1.00  0.00     0.146 C 
BRANCH  41  42
ATOM     42  N   UNL     1     -13.639  13.534   2.429  1.00  0.00    -0.254 NA
ATOM     43  C   UNL     1     -12.934  12.497   2.174  1.00  0.00     0.185 C 
ATOM     44  N   UNL     1     -12.200  12.196   1.087  1.00  0.00    -0.370 N 
ATOM     45  N   UNL     1     -12.875  11.515   3.089  1.00  0.00    -0.370 N 
ATOM     46  H   UNL     1     -11.899  11.251   0.917  1.00  0.00     0.159 HD
ATOM     47  H   UNL     1     -12.122  12.835   0.302  1.00  0.00     0.159 HD
ATOM     48  H   UNL     1     -13.394  11.666   3.943  1.00  0.00     0.159 HD
ATOM     49  H   UNL     1     -12.173  10.797   3.071  1.00  0.00     0.159 HD
ENDBRANCH  41  42
ENDBRANCH  40  41
ENDBRANCH  39  40
ENDBRANCH  38  39
ENDBRANCH  36  38
ENDBRANCH   5  34
BRANCH   8  50
ATOM     50  O   UNL     1      -8.698  12.037   7.633  1.00  0.00    -0.245 OA
BRANCH  50  51
ATOM     51  S   UNL     1      -8.780  11.978   9.256  1.00  0.00     0.397 S 
ATOM     52  O   UNL     1      -9.120  10.625   9.636  1.00  0.00    -0.169 OA
ATOM     53  O   UNL     1      -9.529  13.116   9.747  1.00  0.00    -0.169 OA
BRANCH  51  54
ATOM     54  O   UNL     1      -7.241  12.178   9.677  1.00  0.00    -0.264 OA
ATOM     55  H   UNL     1      -6.722  12.305   8.857  1.00  0.00     0.236 HD
ENDBRANCH  51  54
ENDBRANCH  50  51
ENDBRANCH   8  50
TORSDOF 19
ENDMDL
