MODEL 1
REMARK VINA RESULT:    -6.521      0.000      0.000
REMARK INTER + INTRA:         -24.840
REMARK INTER:                 -18.719
REMARK INTRA:                  -6.121
REMARK UNBOUND:                -6.121
REMARK SMILES CCCCCC(=O)N[C@H](CC(=O)O)C(=O)N[C@H]1C(=O)N[C@H](CCCN=C(N)N)C(=O)N[C@@H]2CC[C@H](O)N(C2=O)[C@@H](CC(C)C)C(=O)N(C)[C@@H](Cc2ccccc2)C(=O)N[C@H](C(C)C)C(=O)O[C@@H]1C
REMARK SMILES IDX 30 1 31 2 29 3 32 5 35 6 37 7 34 8 38 9 33 10 39 11 36 12
REMARK SMILES IDX 40 14 41 15 42 16 43 17 44 18 45 19 46 20 47 21 48 22 49 23
REMARK SMILES IDX 50 24 51 25 52 26 56 27 53 28 55 29 54 30 57 31 58 32 59 33
REMARK SMILES IDX 60 35 61 36 62 37 63 38 64 39 65 40 66 41 67 42 68 43 21 45
REMARK SMILES IDX 20 46 18 47 19 48 17 50 16 52 14 53 15 54 9 56 8 57 6 58
REMARK SMILES IDX 7 59 5 61 4 62 3 63 2 64 1 65 10 66 11 67 12 68 13 69 22 71
REMARK SMILES IDX 23 72 24 73 25 74 26 75 27 76 28 77
REMARK H PARENT 31 4 36 13 59 34 20 49 16 55 8 60 13 70 27 78 27 79 28 80
REMARK H PARENT 28 81
REMARK Flexibility Score:  259.900
ROOT
ATOM      1  O   UNL     1      -1.021   0.111  -5.319  1.00  0.00    -0.273 OA
ATOM      2  N   UNL     1      -0.179   1.671  -6.764  1.00  0.00    -0.343 N 
ATOM      3  C   UNL     1      -1.099   1.224  -5.840  1.00  0.00     0.243 C 
ATOM      4  H   UNL     1      -0.267   2.598  -7.162  1.00  0.00     0.164 HD
ENDROOT
BRANCH   2   5
ATOM      5  C   UNL     1       0.871   0.785  -7.255  1.00  0.00     0.171 C 
ATOM      6  C   UNL     1       3.670   1.213  -7.879  1.00  0.00     0.214 C 
ATOM      7  N   UNL     1       2.678   1.375  -8.916  1.00  0.00    -0.303 N 
ATOM      8  C   UNL     1       3.277   0.191  -6.824  1.00  0.00     0.057 C 
ATOM      9  C   UNL     1       1.321   1.235  -8.674  1.00  0.00     0.247 C 
ATOM     10  C   UNL     1       1.956   0.583  -6.198  1.00  0.00     0.040 C 
ATOM     11  O   UNL     1       0.472   1.460  -9.547  1.00  0.00    -0.272 OA
BRANCH   6  12
ATOM     12  O   UNL     1       3.883   2.474  -7.287  1.00  0.00    -0.373 OA
ATOM     13  H   UNL     1       4.328   2.316  -6.427  1.00  0.00     0.213 HD
ENDBRANCH   6  12
BRANCH   7  14
ATOM     14  C   UNL     1       3.156   1.845 -10.234  1.00  0.00     0.177 C 
BRANCH  14  15
ATOM     15  C   UNL     1       2.992   3.356 -10.490  1.00  0.00     0.038 C 
BRANCH  15  16
ATOM     16  C   UNL     1       1.936   3.845 -11.506  1.00  0.00    -0.015 C 
ATOM     17  C   UNL     1       2.383   3.643 -12.957  1.00  0.00     0.007 C 
ATOM     18  C   UNL     1       1.663   5.339 -11.291  1.00  0.00     0.007 C 
ENDBRANCH  15  16
ENDBRANCH  14  15
BRANCH  14  19
ATOM     19  C   UNL     1       4.361   0.968 -10.719  1.00  0.00     0.245 C 
ATOM     20  O   UNL     1       4.126  -0.231 -10.944  1.00  0.00    -0.272 OA
BRANCH  19  21
ATOM     21  N   UNL     1       5.665   1.425 -10.799  1.00  0.00    -0.332 N 
ATOM     22  C   UNL     1       6.582   1.554  -9.681  1.00  0.00     0.147 C 
BRANCH  21  23
ATOM     23  C   UNL     1       6.179   1.833 -12.136  1.00  0.00     0.178 C 
BRANCH  23  24
ATOM     24  C   UNL     1       6.252   3.357 -12.362  1.00  0.00     0.070 C 
BRANCH  24  25
ATOM     25  C   UNL     1       5.764   3.880 -13.692  1.00  0.00    -0.045 A 
ATOM     26  C   UNL     1       5.585   3.016 -14.781  1.00  0.00     0.004 A 
ATOM     27  C   UNL     1       5.485   5.245 -13.857  1.00  0.00     0.004 A 
ATOM     28  C   UNL     1       5.149   3.510 -16.012  1.00  0.00     0.000 A 
ATOM     29  C   UNL     1       5.048   5.737 -15.088  1.00  0.00     0.000 A 
ATOM     30  C   UNL     1       4.884   4.869 -16.166  1.00  0.00     0.000 A 
ENDBRANCH  24  25
ENDBRANCH  23  24
BRANCH  23  31
ATOM     31  C   UNL     1       7.443   1.049 -12.561  1.00  0.00     0.243 C 
ATOM     32  O   UNL     1       7.509  -0.177 -12.605  1.00  0.00    -0.273 OA
ATOM     33  N   UNL     1       8.564   1.848 -12.713  1.00  0.00    -0.341 N 
ATOM     34  H   UNL     1       8.447   2.863 -12.659  1.00  0.00     0.164 HD
BRANCH  33  35
ATOM     35  C   UNL     1       9.897   1.308 -12.996  1.00  0.00     0.194 C 
BRANCH  35  36
ATOM     36  C   UNL     1      11.058   2.111 -12.343  1.00  0.00     0.017 C 
ATOM     37  C   UNL     1      10.607   2.783 -11.035  1.00  0.00     0.010 C 
ATOM     38  C   UNL     1      11.619   3.209 -13.254  1.00  0.00     0.010 C 
ENDBRANCH  35  36
BRANCH  35  39
ATOM     39  C   UNL     1      10.136   1.071 -14.513  1.00  0.00     0.329 C 
ATOM     40  O   UNL     1       9.556   1.682 -15.403  1.00  0.00    -0.250 OA
BRANCH  39  41
ATOM     41  O   UNL     1      11.132   0.163 -14.746  1.00  0.00    -0.458 OA
BRANCH  41  42
ATOM     42  C   UNL     1      11.948   0.395 -15.919  1.00  0.00     0.205 CG0
ATOM     43  C   UNL     1      13.364   0.699 -15.434  1.00  0.00     0.056 C 
ATOM     44  G   UNL     1      11.337   1.561 -16.722  1.00  0.00     0.000 G0
ENDBRANCH  41  42
ENDBRANCH  39  41
ENDBRANCH  35  39
ENDBRANCH  33  35
ENDBRANCH  23  31
ENDBRANCH  21  23
ENDBRANCH  19  21
ENDBRANCH  14  19
ENDBRANCH   7  14
ENDBRANCH   2   5
BRANCH   3  45
ATOM     45  C   UNL     1      -2.215   2.217  -5.491  1.00  0.00     0.171 C 
BRANCH  45  46
ATOM     46  N   UNL     1      -3.429   1.669  -6.082  1.00  0.00    -0.342 N 
ATOM     47  C   UNL     1      -4.473   1.204  -5.322  1.00  0.00     0.247 C 
ATOM     48  O   UNL     1      -4.491   1.281  -4.093  1.00  0.00    -0.273 OA
ATOM     49  H   UNL     1      -3.479   1.639  -7.099  1.00  0.00     0.164 HD
BRANCH  47  50
ATOM     50  C   UNL     1      -5.613   0.549  -6.115  1.00  0.00     0.212 CG0
ATOM     51  G   UNL     1      -6.874   0.575  -5.229  1.00  0.00     0.000 G0
BRANCH  50  52
ATOM     52  N   UNL     1      -5.747   1.344  -7.333  1.00  0.00    -0.339 N 
ATOM     53  C   UNL     1      -6.851   2.110  -7.618  1.00  0.00     0.243 C 
ATOM     54  O   UNL     1      -7.840   2.142  -6.890  1.00  0.00    -0.273 OA
ATOM     55  H   UNL     1      -5.007   1.271  -8.029  1.00  0.00     0.164 HD
BRANCH  53  56
ATOM     56  C   UNL     1      -6.803   2.791  -9.000  1.00  0.00     0.182 C 
BRANCH  56  57
ATOM     57  N   UNL     1      -6.536   4.227  -8.871  1.00  0.00    -0.344 N 
ATOM     58  C   UNL     1      -5.672   4.893  -9.706  1.00  0.00     0.220 C 
ATOM     59  O   UNL     1      -5.011   4.324 -10.567  1.00  0.00    -0.275 OA
ATOM     60  H   UNL     1      -7.136   4.752  -8.240  1.00  0.00     0.164 HD
BRANCH  58  61
ATOM     61  C   UNL     1      -5.595   6.383  -9.426  1.00  0.00     0.100 C 
BRANCH  61  62
ATOM     62  C   UNL     1      -6.437   6.830  -8.231  1.00  0.00     0.010 C 
BRANCH  62  63
ATOM     63  C   UNL     1      -5.626   7.100  -6.957  1.00  0.00     0.000 C 
BRANCH  63  64
ATOM     64  C   UNL     1      -5.631   8.561  -6.509  1.00  0.00    -0.003 C 
ATOM     65  C   UNL     1      -6.685   8.809  -5.439  1.00  0.00     0.004 C 
ENDBRANCH  63  64
ENDBRANCH  62  63
ENDBRANCH  61  62
ENDBRANCH  58  61
ENDBRANCH  56  57
BRANCH  56  66
ATOM     66  C   UNL     1      -8.069   2.511  -9.808  1.00  0.00     0.157 C 
BRANCH  66  67
ATOM     67  C   UNL     1      -7.772   2.438 -11.278  1.00  0.00     0.305 C 
ATOM     68  O   UNL     1      -8.530   2.721 -12.193  1.00  0.00    -0.252 OA
BRANCH  67  69
ATOM     69  O   UNL     1      -6.504   2.058 -11.526  1.00  0.00    -0.481 OA
ATOM     70  H   UNL     1      -5.970   2.500 -10.832  1.00  0.00     0.296 HD
ENDBRANCH  67  69
ENDBRANCH  66  67
ENDBRANCH  56  66
ENDBRANCH  53  56
ENDBRANCH  50  52
ENDBRANCH  47  50
ENDBRANCH  45  46
BRANCH  45  71
ATOM     71  C   UNL     1      -1.889   3.605  -6.053  1.00  0.00     0.037 C 
BRANCH  71  72
ATOM     72  C   UNL     1      -3.043   4.177  -6.881  1.00  0.00     0.026 C 
BRANCH  72  73
ATOM     73  C   UNL     1      -2.533   4.951  -8.094  1.00  0.00     0.146 C 
BRANCH  73  74
ATOM     74  N   UNL     1      -1.938   3.991  -9.019  1.00  0.00    -0.254 NA
ATOM     75  C   UNL     1      -1.801   4.344 -10.244  1.00  0.00     0.185 C 
ATOM     76  N   UNL     1      -1.256   3.483 -11.118  1.00  0.00    -0.370 N 
ATOM     77  N   UNL     1      -2.135   5.507 -10.830  1.00  0.00    -0.370 N 
ATOM     78  H   UNL     1      -0.982   2.579 -10.760  1.00  0.00     0.159 HD
ATOM     79  H   UNL     1      -1.250   3.632 -12.112  1.00  0.00     0.159 HD
ATOM     80  H   UNL     1      -2.553   6.251 -10.293  1.00  0.00     0.159 HD
ATOM     81  H   UNL     1      -1.874   5.714 -11.780  1.00  0.00     0.159 HD
ENDBRANCH  73  74
ENDBRANCH  72  73
ENDBRANCH  71  72
ENDBRANCH  45  71
ENDBRANCH   3  45
TORSDOF 20
ENDMDL
MODEL 2
REMARK VINA RESULT:    -6.511      1.899      2.898
REMARK INTER + INTRA:         -24.813
REMARK INTER:                 -19.057
REMARK INTRA:                  -5.756
REMARK UNBOUND:                -6.121
REMARK SMILES CCCCCC(=O)N[C@H](CC(=O)O)C(=O)N[C@H]1C(=O)N[C@H](CCCN=C(N)N)C(=O)N[C@@H]2CC[C@H](O)N(C2=O)[C@@H](CC(C)C)C(=O)N(C)[C@@H](Cc2ccccc2)C(=O)N[C@H](C(C)C)C(=O)O[C@@H]1C
REMARK SMILES IDX 30 1 31 2 29 3 32 5 35 6 37 7 34 8 38 9 33 10 39 11 36 12
REMARK SMILES IDX 40 14 41 15 42 16 43 17 44 18 45 19 46 20 47 21 48 22 49 23
REMARK SMILES IDX 50 24 51 25 52 26 56 27 53 28 55 29 54 30 57 31 58 32 59 33
REMARK SMILES IDX 60 35 61 36 62 37 63 38 64 39 65 40 66 41 67 42 68 43 21 45
REMARK SMILES IDX 20 46 18 47 19 48 17 50 16 52 14 53 15 54 9 56 8 57 6 58
REMARK SMILES IDX 7 59 5 61 4 62 3 63 2 64 1 65 10 66 11 67 12 68 13 69 22 71
REMARK SMILES IDX 23 72 24 73 25 74 26 75 27 76 28 77
REMARK H PARENT 31 4 36 13 59 34 20 49 16 55 8 60 13 70 27 78 27 79 28 80
REMARK H PARENT 28 81
REMARK Flexibility Score:  259.900
ROOT
ATOM      1  O   UNL     1       0.024  -0.079  -5.386  1.00  0.00    -0.273 OA
ATOM      2  N   UNL     1       0.340   1.478  -7.032  1.00  0.00    -0.343 N 
ATOM      3  C   UNL     1      -0.350   0.941  -5.966  1.00  0.00     0.243 C 
ATOM      4  H   UNL     1       0.010   2.327  -7.475  1.00  0.00     0.164 HD
ENDROOT
BRANCH   2   5
ATOM      5  C   UNL     1       1.490   0.782  -7.597  1.00  0.00     0.171 C 
ATOM      6  C   UNL     1       4.206   1.620  -8.168  1.00  0.00     0.214 C 
ATOM      7  N   UNL     1       3.194   1.748  -9.190  1.00  0.00    -0.303 N 
ATOM      8  C   UNL     1       3.955   0.463  -7.214  1.00  0.00     0.057 C 
ATOM      9  C   UNL     1       1.868   1.415  -8.967  1.00  0.00     0.247 C 
ATOM     10  C   UNL     1       2.600   0.624  -6.559  1.00  0.00     0.040 C 
ATOM     11  O   UNL     1       0.991   1.609  -9.819  1.00  0.00    -0.272 OA
BRANCH   6  12
ATOM     12  O   UNL     1       4.262   2.838  -7.461  1.00  0.00    -0.373 OA
ATOM     13  H   UNL     1       4.277   3.557  -8.129  1.00  0.00     0.213 HD
ENDBRANCH   6  12
BRANCH   7  14
ATOM     14  C   UNL     1       3.598   2.395 -10.456  1.00  0.00     0.177 C 
BRANCH  14  15
ATOM     15  C   UNL     1       3.270   3.897 -10.560  1.00  0.00     0.038 C 
BRANCH  15  16
ATOM     16  C   UNL     1       2.429   4.412 -11.749  1.00  0.00    -0.015 C 
ATOM     17  C   UNL     1       1.143   5.111 -11.296  1.00  0.00     0.007 C 
ATOM     18  C   UNL     1       2.042   3.238 -12.658  1.00  0.00     0.007 C 
ENDBRANCH  15  16
ENDBRANCH  14  15
BRANCH  14  19
ATOM     19  C   UNL     1       4.882   1.706 -11.033  1.00  0.00     0.245 C 
ATOM     20  O   UNL     1       4.789   0.501 -11.322  1.00  0.00    -0.272 OA
BRANCH  19  21
ATOM     21  N   UNL     1       6.115   2.327 -11.128  1.00  0.00    -0.332 N 
ATOM     22  C   UNL     1       6.729   3.142 -10.095  1.00  0.00     0.147 C 
BRANCH  21  23
ATOM     23  C   UNL     1       6.881   2.164 -12.394  1.00  0.00     0.178 C 
BRANCH  23  24
ATOM     24  C   UNL     1       6.661   3.285 -13.431  1.00  0.00     0.070 C 
BRANCH  24  25
ATOM     25  C   UNL     1       5.483   3.136 -14.364  1.00  0.00    -0.045 A 
ATOM     26  C   UNL     1       4.837   4.263 -14.890  1.00  0.00     0.004 A 
ATOM     27  C   UNL     1       5.013   1.861 -14.715  1.00  0.00     0.004 A 
ATOM     28  C   UNL     1       3.738   4.118 -15.739  1.00  0.00     0.000 A 
ATOM     29  C   UNL     1       3.915   1.718 -15.564  1.00  0.00     0.000 A 
ATOM     30  C   UNL     1       3.277   2.846 -16.073  1.00  0.00     0.000 A 
ENDBRANCH  24  25
ENDBRANCH  23  24
BRANCH  23  31
ATOM     31  C   UNL     1       8.361   1.776 -12.158  1.00  0.00     0.243 C 
ATOM     32  O   UNL     1       8.719   0.752 -11.582  1.00  0.00    -0.273 OA
ATOM     33  N   UNL     1       9.255   2.778 -12.492  1.00  0.00    -0.341 N 
ATOM     34  H   UNL     1       8.897   3.611 -12.965  1.00  0.00     0.164 HD
BRANCH  33  35
ATOM     35  C   UNL     1      10.696   2.678 -12.243  1.00  0.00     0.194 C 
BRANCH  35  36
ATOM     36  C   UNL     1      11.343   3.992 -11.721  1.00  0.00     0.017 C 
ATOM     37  C   UNL     1      12.688   3.716 -11.027  1.00  0.00     0.010 C 
ATOM     38  C   UNL     1      10.458   4.747 -10.722  1.00  0.00     0.010 C 
ENDBRANCH  35  36
BRANCH  35  39
ATOM     39  C   UNL     1      11.472   2.091 -13.455  1.00  0.00     0.329 C 
ATOM     40  O   UNL     1      11.531   2.624 -14.557  1.00  0.00    -0.250 OA
BRANCH  39  41
ATOM     41  O   UNL     1      12.157   0.952 -13.131  1.00  0.00    -0.458 OA
BRANCH  41  42
ATOM     42  C   UNL     1      13.583   0.969 -13.380  1.00  0.00     0.205 CG0
ATOM     43  C   UNL     1      13.893  -0.192 -14.323  1.00  0.00     0.056 C 
ATOM     44  G   UNL     1      14.320   0.846 -12.031  1.00  0.00     0.000 G0
ENDBRANCH  41  42
ENDBRANCH  39  41
ENDBRANCH  35  39
ENDBRANCH  33  35
ENDBRANCH  23  31
ENDBRANCH  21  23
ENDBRANCH  19  21
ENDBRANCH  14  19
ENDBRANCH   7  14
ENDBRANCH   2   5
BRANCH   3  45
ATOM     45  C   UNL     1      -1.604   1.715  -5.538  1.00  0.00     0.171 C 
BRANCH  45  46
ATOM     46  N   UNL     1      -2.734   0.887  -5.940  1.00  0.00    -0.342 N 
ATOM     47  C   UNL     1      -3.505   0.203  -5.034  1.00  0.00     0.247 C 
ATOM     48  O   UNL     1      -3.345   0.296  -3.816  1.00  0.00    -0.273 OA
ATOM     49  H   UNL     1      -2.936   0.828  -6.936  1.00  0.00     0.164 HD
BRANCH  47  50
ATOM     50  C   UNL     1      -4.571  -0.714  -5.650  1.00  0.00     0.212 CG0
ATOM     51  G   UNL     1      -5.329  -1.392  -4.491  1.00  0.00     0.000 G0
BRANCH  50  52
ATOM     52  N   UNL     1      -5.415   0.159  -6.460  1.00  0.00    -0.339 N 
ATOM     53  C   UNL     1      -6.671   0.565  -6.076  1.00  0.00     0.243 C 
ATOM     54  O   UNL     1      -7.203   0.178  -5.039  1.00  0.00    -0.273 OA
ATOM     55  H   UNL     1      -5.075   0.424  -7.382  1.00  0.00     0.164 HD
BRANCH  53  56
ATOM     56  C   UNL     1      -7.407   1.413  -7.133  1.00  0.00     0.182 C 
BRANCH  56  57
ATOM     57  N   UNL     1      -6.573   2.532  -7.583  1.00  0.00    -0.344 N 
ATOM     58  C   UNL     1      -6.365   2.807  -8.913  1.00  0.00     0.220 C 
ATOM     59  O   UNL     1      -6.799   2.096  -9.813  1.00  0.00    -0.275 OA
ATOM     60  H   UNL     1      -6.281   3.202  -6.877  1.00  0.00     0.164 HD
BRANCH  58  61
ATOM     61  C   UNL     1      -5.519   4.045  -9.146  1.00  0.00     0.100 C 
BRANCH  61  62
ATOM     62  C   UNL     1      -4.855   4.087 -10.523  1.00  0.00     0.010 C 
BRANCH  62  63
ATOM     63  C   UNL     1      -3.324   4.172 -10.478  1.00  0.00     0.000 C 
BRANCH  63  64
ATOM     64  C   UNL     1      -2.663   4.302 -11.849  1.00  0.00    -0.003 C 
ATOM     65  C   UNL     1      -2.149   5.714 -12.087  1.00  0.00     0.004 C 
ENDBRANCH  63  64
ENDBRANCH  62  63
ENDBRANCH  61  62
ENDBRANCH  58  61
ENDBRANCH  56  57
BRANCH  56  66
ATOM     66  C   UNL     1      -8.772   1.876  -6.628  1.00  0.00     0.157 C 
BRANCH  66  67
ATOM     67  C   UNL     1      -8.687   3.242  -6.009  1.00  0.00     0.305 C 
ATOM     68  O   UNL     1      -8.150   3.535  -4.952  1.00  0.00    -0.252 OA
BRANCH  67  69
ATOM     69  O   UNL     1      -9.244   4.191  -6.785  1.00  0.00    -0.481 OA
ATOM     70  H   UNL     1      -8.532   4.851  -6.924  1.00  0.00     0.296 HD
ENDBRANCH  67  69
ENDBRANCH  66  67
ENDBRANCH  56  66
ENDBRANCH  53  56
ENDBRANCH  50  52
ENDBRANCH  47  50
ENDBRANCH  45  46
BRANCH  45  71
ATOM     71  C   UNL     1      -1.640   3.089  -6.215  1.00  0.00     0.037 C 
BRANCH  71  72
ATOM     72  C   UNL     1      -2.969   3.812  -5.981  1.00  0.00     0.026 C 
BRANCH  72  73
ATOM     73  C   UNL     1      -2.798   5.329  -6.026  1.00  0.00     0.146 C 
BRANCH  73  74
ATOM     74  N   UNL     1      -2.716   5.727  -7.428  1.00  0.00    -0.254 NA
ATOM     75  C   UNL     1      -2.956   6.953  -7.718  1.00  0.00     0.185 C 
ATOM     76  N   UNL     1      -2.887   7.350  -8.998  1.00  0.00    -0.370 N 
ATOM     77  N   UNL     1      -3.286   7.966  -6.897  1.00  0.00    -0.370 N 
ATOM     78  H   UNL     1      -2.652   6.647  -9.684  1.00  0.00     0.159 HD
ATOM     79  H   UNL     1      -3.201   8.250  -9.317  1.00  0.00     0.159 HD
ATOM     80  H   UNL     1      -3.371   7.815  -5.903  1.00  0.00     0.159 HD
ATOM     81  H   UNL     1      -3.339   8.916  -7.226  1.00  0.00     0.159 HD
ENDBRANCH  73  74
ENDBRANCH  72  73
ENDBRANCH  71  72
ENDBRANCH  45  71
ENDBRANCH   3  45
TORSDOF 20
ENDMDL
MODEL 3
REMARK VINA RESULT:    -6.412      1.517      2.471
REMARK INTER + INTRA:         -24.527
REMARK INTER:                 -18.036
REMARK INTRA:                  -6.492
REMARK UNBOUND:                -6.121
REMARK SMILES CCCCCC(=O)N[C@H](CC(=O)O)C(=O)N[C@H]1C(=O)N[C@H](CCCN=C(N)N)C(=O)N[C@@H]2CC[C@H](O)N(C2=O)[C@@H](CC(C)C)C(=O)N(C)[C@@H](Cc2ccccc2)C(=O)N[C@H](C(C)C)C(=O)O[C@@H]1C
REMARK SMILES IDX 30 1 31 2 29 3 32 5 35 6 37 7 34 8 38 9 33 10 39 11 36 12
REMARK SMILES IDX 40 14 41 15 42 16 43 17 44 18 45 19 46 20 47 21 48 22 49 23
REMARK SMILES IDX 50 24 51 25 52 26 56 27 53 28 55 29 54 30 57 31 58 32 59 33
REMARK SMILES IDX 60 35 61 36 62 37 63 38 64 39 65 40 66 41 67 42 68 43 21 45
REMARK SMILES IDX 20 46 18 47 19 48 17 50 16 52 14 53 15 54 9 56 8 57 6 58
REMARK SMILES IDX 7 59 5 61 4 62 3 63 2 64 1 65 10 66 11 67 12 68 13 69 22 71
REMARK SMILES IDX 23 72 24 73 25 74 26 75 27 76 28 77
REMARK H PARENT 31 4 36 13 59 34 20 49 16 55 8 60 13 70 27 78 27 79 28 80
REMARK H PARENT 28 81
REMARK Flexibility Score:  259.900
ROOT
ATOM      1  O   UNL     1      -1.477   0.436  -6.103  1.00  0.00    -0.273 OA
ATOM      2  N   UNL     1      -0.332   2.159  -7.079  1.00  0.00    -0.343 N 
ATOM      3  C   UNL     1      -1.400   1.632  -6.385  1.00  0.00     0.243 C 
ATOM      4  H   UNL     1      -0.296   3.150  -7.281  1.00  0.00     0.164 HD
ENDROOT
BRANCH   2   5
ATOM      5  C   UNL     1       0.708   1.287  -7.615  1.00  0.00     0.171 C 
ATOM      6  C   UNL     1       3.542   1.670  -8.087  1.00  0.00     0.214 C 
ATOM      7  N   UNL     1       2.600   1.970  -9.140  1.00  0.00    -0.303 N 
ATOM      8  C   UNL     1       3.072   0.564  -7.155  1.00  0.00     0.057 C 
ATOM      9  C   UNL     1       1.230   1.858  -8.964  1.00  0.00     0.247 C 
ATOM     10  C   UNL     1       1.741   0.942  -6.543  1.00  0.00     0.040 C 
ATOM     11  O   UNL     1       0.427   2.199  -9.842  1.00  0.00    -0.272 OA
BRANCH   6  12
ATOM     12  O   UNL     1       3.773   2.858  -7.365  1.00  0.00    -0.373 OA
ATOM     13  H   UNL     1       3.275   2.783  -6.523  1.00  0.00     0.213 HD
ENDBRANCH   6  12
BRANCH   7  14
ATOM     14  C   UNL     1       3.148   2.549 -10.385  1.00  0.00     0.177 C 
BRANCH  14  15
ATOM     15  C   UNL     1       3.008   4.078 -10.514  1.00  0.00     0.038 C 
BRANCH  15  16
ATOM     16  C   UNL     1       2.231   4.673 -11.709  1.00  0.00    -0.015 C 
ATOM     17  C   UNL     1       0.881   5.264 -11.292  1.00  0.00     0.007 C 
ATOM     18  C   UNL     1       1.976   3.582 -12.756  1.00  0.00     0.007 C 
ENDBRANCH  15  16
ENDBRANCH  14  15
BRANCH  14  19
ATOM     19  C   UNL     1       4.370   1.704 -10.885  1.00  0.00     0.245 C 
ATOM     20  O   UNL     1       4.146   0.519 -11.184  1.00  0.00    -0.272 OA
BRANCH  19  21
ATOM     21  N   UNL     1       5.673   2.169 -10.903  1.00  0.00    -0.332 N 
ATOM     22  C   UNL     1       6.326   2.887  -9.823  1.00  0.00     0.147 C 
BRANCH  21  23
ATOM     23  C   UNL     1       6.481   1.928 -12.130  1.00  0.00     0.178 C 
BRANCH  23  24
ATOM     24  C   UNL     1       6.445   3.073 -13.162  1.00  0.00     0.070 C 
BRANCH  24  25
ATOM     25  C   UNL     1       5.370   3.011 -14.222  1.00  0.00    -0.045 A 
ATOM     26  C   UNL     1       4.912   4.177 -14.850  1.00  0.00     0.004 A 
ATOM     27  C   UNL     1       4.808   1.779 -14.589  1.00  0.00     0.004 A 
ATOM     28  C   UNL     1       3.906   4.112 -15.816  1.00  0.00     0.000 A 
ATOM     29  C   UNL     1       3.803   1.716 -15.555  1.00  0.00     0.000 A 
ATOM     30  C   UNL     1       3.351   2.884 -16.166  1.00  0.00     0.000 A 
ENDBRANCH  24  25
ENDBRANCH  23  24
BRANCH  23  31
ATOM     31  C   UNL     1       7.892   1.371 -11.824  1.00  0.00     0.243 C 
ATOM     32  O   UNL     1       8.101   0.310 -11.241  1.00  0.00    -0.273 OA
ATOM     33  N   UNL     1       8.912   2.267 -12.100  1.00  0.00    -0.341 N 
ATOM     34  H   UNL     1       8.676   3.138 -12.582  1.00  0.00     0.164 HD
BRANCH  33  35
ATOM     35  C   UNL     1      10.317   2.001 -11.780  1.00  0.00     0.194 C 
BRANCH  35  36
ATOM     36  C   UNL     1      11.039   3.177 -11.064  1.00  0.00     0.017 C 
ATOM     37  C   UNL     1      10.153   3.791  -9.966  1.00  0.00     0.010 C 
ATOM     38  C   UNL     1      11.439   4.310 -12.017  1.00  0.00     0.010 C 
ENDBRANCH  35  36
BRANCH  35  39
ATOM     39  C   UNL     1      11.122   1.485 -13.005  1.00  0.00     0.329 C 
ATOM     40  O   UNL     1      12.210   0.927 -12.925  1.00  0.00    -0.250 OA
BRANCH  39  41
ATOM     41  O   UNL     1      10.441   1.646 -14.180  1.00  0.00    -0.458 OA
BRANCH  41  42
ATOM     42  C   UNL     1      11.173   2.263 -15.266  1.00  0.00     0.205 CG0
ATOM     43  C   UNL     1      10.240   3.279 -15.922  1.00  0.00     0.056 C 
ATOM     44  G   UNL     1      11.625   1.160 -16.244  1.00  0.00     0.000 G0
ENDBRANCH  41  42
ENDBRANCH  39  41
ENDBRANCH  35  39
ENDBRANCH  33  35
ENDBRANCH  23  31
ENDBRANCH  21  23
ENDBRANCH  19  21
ENDBRANCH  14  19
ENDBRANCH   7  14
ENDBRANCH   2   5
BRANCH   3  45
ATOM     45  C   UNL     1      -2.478   2.644  -5.972  1.00  0.00     0.171 C 
BRANCH  45  46
ATOM     46  N   UNL     1      -3.753   1.991  -6.236  1.00  0.00    -0.342 N 
ATOM     47  C   UNL     1      -4.561   1.521  -5.231  1.00  0.00     0.247 C 
ATOM     48  O   UNL     1      -4.305   1.680  -4.037  1.00  0.00    -0.273 OA
ATOM     49  H   UNL     1      -4.031   1.888  -7.210  1.00  0.00     0.164 HD
BRANCH  47  50
ATOM     50  C   UNL     1      -5.804   0.752  -5.703  1.00  0.00     0.212 CG0
ATOM     51  G   UNL     1      -6.938   1.036  -4.699  1.00  0.00     0.000 G0
BRANCH  50  52
ATOM     52  N   UNL     1      -6.084   1.250  -7.047  1.00  0.00    -0.339 N 
ATOM     53  C   UNL     1      -7.067   2.168  -7.322  1.00  0.00     0.243 C 
ATOM     54  O   UNL     1      -7.827   2.603  -6.461  1.00  0.00    -0.273 OA
ATOM     55  H   UNL     1      -5.561   0.844  -7.820  1.00  0.00     0.164 HD
BRANCH  53  56
ATOM     56  C   UNL     1      -7.234   2.478  -8.824  1.00  0.00     0.182 C 
BRANCH  56  57
ATOM     57  N   UNL     1      -6.088   3.237  -9.335  1.00  0.00    -0.344 N 
ATOM     58  C   UNL     1      -5.532   2.989 -10.566  1.00  0.00     0.220 C 
ATOM     59  O   UNL     1      -5.905   2.073 -11.291  1.00  0.00    -0.275 OA
ATOM     60  H   UNL     1      -5.815   4.066  -8.814  1.00  0.00     0.164 HD
BRANCH  58  61
ATOM     61  C   UNL     1      -4.395   3.933 -10.913  1.00  0.00     0.100 C 
BRANCH  61  62
ATOM     62  C   UNL     1      -4.381   5.214 -10.079  1.00  0.00     0.010 C 
BRANCH  62  63
ATOM     63  C   UNL     1      -3.302   6.222 -10.495  1.00  0.00     0.000 C 
BRANCH  63  64
ATOM     64  C   UNL     1      -3.651   7.677 -10.186  1.00  0.00    -0.003 C 
ATOM     65  C   UNL     1      -2.772   8.638 -10.974  1.00  0.00     0.004 C 
ENDBRANCH  63  64
ENDBRANCH  62  63
ENDBRANCH  61  62
ENDBRANCH  58  61
ENDBRANCH  56  57
BRANCH  56  66
ATOM     66  C   UNL     1      -8.562   3.178  -9.107  1.00  0.00     0.157 C 
BRANCH  66  67
ATOM     67  C   UNL     1      -8.355   4.435  -9.902  1.00  0.00     0.305 C 
ATOM     68  O   UNL     1      -8.196   4.521 -11.110  1.00  0.00    -0.252 OA
BRANCH  67  69
ATOM     69  O   UNL     1      -8.411   5.541  -9.135  1.00  0.00    -0.481 OA
ATOM     70  H   UNL     1      -8.184   6.278  -9.741  1.00  0.00     0.296 HD
ENDBRANCH  67  69
ENDBRANCH  66  67
ENDBRANCH  56  66
ENDBRANCH  53  56
ENDBRANCH  50  52
ENDBRANCH  47  50
ENDBRANCH  45  46
BRANCH  45  71
ATOM     71  C   UNL     1      -2.329   3.940  -6.775  1.00  0.00     0.037 C 
BRANCH  71  72
ATOM     72  C   UNL     1      -2.685   5.176  -5.945  1.00  0.00     0.026 C 
BRANCH  72  73
ATOM     73  C   UNL     1      -3.704   6.059  -6.663  1.00  0.00     0.146 C 
BRANCH  73  74
ATOM     74  N   UNL     1      -5.023   5.463  -6.475  1.00  0.00    -0.254 NA
ATOM     75  C   UNL     1      -6.049   6.188  -6.732  1.00  0.00     0.185 C 
ATOM     76  N   UNL     1      -7.276   5.667  -6.570  1.00  0.00    -0.370 N 
ATOM     77  N   UNL     1      -6.099   7.460  -7.162  1.00  0.00    -0.370 N 
ATOM     78  H   UNL     1      -7.329   4.714  -6.240  1.00  0.00     0.159 HD
ATOM     79  H   UNL     1      -8.119   6.212  -6.610  1.00  0.00     0.159 HD
ATOM     80  H   UNL     1      -5.251   7.979  -7.332  1.00  0.00     0.159 HD
ATOM     81  H   UNL     1      -6.966   7.890  -7.441  1.00  0.00     0.159 HD
ENDBRANCH  73  74
ENDBRANCH  72  73
ENDBRANCH  71  72
ENDBRANCH  45  71
ENDBRANCH   3  45
TORSDOF 20
ENDMDL
MODEL 4
REMARK VINA RESULT:    -6.362     10.359     18.887
REMARK INTER + INTRA:         -24.384
REMARK INTER:                 -17.938
REMARK INTRA:                  -6.446
REMARK UNBOUND:                -6.121
REMARK SMILES CCCCCC(=O)N[C@H](CC(=O)O)C(=O)N[C@H]1C(=O)N[C@H](CCCN=C(N)N)C(=O)N[C@@H]2CC[C@H](O)N(C2=O)[C@@H](CC(C)C)C(=O)N(C)[C@@H](Cc2ccccc2)C(=O)N[C@H](C(C)C)C(=O)O[C@@H]1C
REMARK SMILES IDX 30 1 31 2 29 3 32 5 35 6 37 7 34 8 38 9 33 10 39 11 36 12
REMARK SMILES IDX 40 14 41 15 42 16 43 17 44 18 45 19 46 20 47 21 48 22 49 23
REMARK SMILES IDX 50 24 51 25 52 26 56 27 53 28 55 29 54 30 57 31 58 32 59 33
REMARK SMILES IDX 60 35 61 36 62 37 63 38 64 39 65 40 66 41 67 42 68 43 21 45
REMARK SMILES IDX 20 46 18 47 19 48 17 50 16 52 14 53 15 54 9 56 8 57 6 58
REMARK SMILES IDX 7 59 5 61 4 62 3 63 2 64 1 65 10 66 11 67 12 68 13 69 22 71
REMARK SMILES IDX 23 72 24 73 25 74 26 75 27 76 28 77
REMARK H PARENT 31 4 36 13 59 34 20 49 16 55 8 60 13 70 27 78 27 79 28 80
REMARK H PARENT 28 81
REMARK Flexibility Score:  259.900
ROOT
ATOM      1  O   UNL     1      -3.535   2.488  -1.717  1.00  0.00    -0.273 OA
ATOM      2  N   UNL     1      -2.578   2.387   0.358  1.00  0.00    -0.343 N 
ATOM      3  C   UNL     1      -2.530   2.561  -1.008  1.00  0.00     0.243 C 
ATOM      4  H   UNL     1      -1.734   2.468   0.911  1.00  0.00     0.164 HD
ENDROOT
BRANCH   2   5
ATOM      5  C   UNL     1      -3.819   1.987   1.012  1.00  0.00     0.171 C 
ATOM      6  C   UNL     1      -4.730   2.143   3.760  1.00  0.00     0.214 C 
ATOM      7  N   UNL     1      -4.043   0.957   3.306  1.00  0.00    -0.303 N 
ATOM      8  C   UNL     1      -5.515   2.841   2.661  1.00  0.00     0.057 C 
ATOM      9  C   UNL     1      -3.537   0.838   2.022  1.00  0.00     0.247 C 
ATOM     10  C   UNL     1      -4.588   3.205   1.521  1.00  0.00     0.040 C 
ATOM     11  O   UNL     1      -2.874  -0.146   1.667  1.00  0.00    -0.272 OA
BRANCH   6  12
ATOM     12  O   UNL     1      -3.769   3.015   4.308  1.00  0.00    -0.373 OA
ATOM     13  H   UNL     1      -4.234   3.582   4.960  1.00  0.00     0.213 HD
ENDBRANCH   6  12
BRANCH   7  14
ATOM     14  C   UNL     1      -3.764  -0.084   4.318  1.00  0.00     0.177 C 
BRANCH  14  15
ATOM     15  C   UNL     1      -2.492   0.141   5.158  1.00  0.00     0.038 C 
BRANCH  15  16
ATOM     16  C   UNL     1      -1.916  -1.023   5.995  1.00  0.00    -0.015 C 
ATOM     17  C   UNL     1      -0.966  -0.538   7.094  1.00  0.00     0.007 C 
ATOM     18  C   UNL     1      -1.144  -1.985   5.083  1.00  0.00     0.007 C 
ENDBRANCH  15  16
ENDBRANCH  14  15
BRANCH  14  19
ATOM     19  C   UNL     1      -5.104  -0.699   4.849  1.00  0.00     0.245 C 
ATOM     20  O   UNL     1      -5.684  -1.505   4.102  1.00  0.00    -0.272 OA
BRANCH  19  21
ATOM     21  N   UNL     1      -5.716  -0.313   6.028  1.00  0.00    -0.332 N 
ATOM     22  C   UNL     1      -6.272   1.001   6.298  1.00  0.00     0.147 C 
BRANCH  21  23
ATOM     23  C   UNL     1      -5.809  -1.316   7.125  1.00  0.00     0.178 C 
BRANCH  23  24
ATOM     24  C   UNL     1      -4.735  -1.174   8.223  1.00  0.00     0.070 C 
BRANCH  24  25
ATOM     25  C   UNL     1      -3.949  -2.413   8.582  1.00  0.00    -0.045 A 
ATOM     26  C   UNL     1      -3.901  -3.510   7.712  1.00  0.00     0.004 A 
ATOM     27  C   UNL     1      -3.257  -2.484   9.800  1.00  0.00     0.004 A 
ATOM     28  C   UNL     1      -3.186  -4.658   8.058  1.00  0.00     0.000 A 
ATOM     29  C   UNL     1      -2.542  -3.632  10.145  1.00  0.00     0.000 A 
ATOM     30  C   UNL     1      -2.510  -4.720   9.275  1.00  0.00     0.000 A 
ENDBRANCH  24  25
ENDBRANCH  23  24
BRANCH  23  31
ATOM     31  C   UNL     1      -7.253  -1.508   7.647  1.00  0.00     0.243 C 
ATOM     32  O   UNL     1      -8.142  -2.071   7.015  1.00  0.00    -0.273 OA
ATOM     33  N   UNL     1      -7.511  -0.822   8.822  1.00  0.00    -0.341 N 
ATOM     34  H   UNL     1      -6.730  -0.367   9.300  1.00  0.00     0.164 HD
BRANCH  33  35
ATOM     35  C   UNL     1      -8.841  -0.763   9.435  1.00  0.00     0.194 C 
BRANCH  35  36
ATOM     36  C   UNL     1      -9.626   0.543   9.124  1.00  0.00     0.017 C 
ATOM     37  C   UNL     1     -10.390   0.433   7.794  1.00  0.00     0.010 C 
ATOM     38  C   UNL     1      -8.726   1.782   9.035  1.00  0.00     0.010 C 
ENDBRANCH  35  36
BRANCH  35  39
ATOM     39  C   UNL     1      -8.811  -1.073  10.958  1.00  0.00     0.329 C 
ATOM     40  O   UNL     1      -7.837  -0.885  11.678  1.00  0.00    -0.250 OA
BRANCH  39  41
ATOM     41  O   UNL     1     -10.024  -1.499  11.426  1.00  0.00    -0.458 OA
BRANCH  41  42
ATOM     42  C   UNL     1     -10.457  -0.938  12.688  1.00  0.00     0.205 CG0
ATOM     43  C   UNL     1     -11.346   0.262  12.370  1.00  0.00     0.056 C 
ATOM     44  G   UNL     1      -9.210  -0.549  13.507  1.00  0.00     0.000 G0
ENDBRANCH  41  42
ENDBRANCH  39  41
ENDBRANCH  35  39
ENDBRANCH  33  35
ENDBRANCH  23  31
ENDBRANCH  21  23
ENDBRANCH  19  21
ENDBRANCH  14  19
ENDBRANCH   7  14
ENDBRANCH   2   5
BRANCH   3  45
ATOM     45  C   UNL     1      -1.142   2.873  -1.582  1.00  0.00     0.171 C 
BRANCH  45  46
ATOM     46  N   UNL     1      -1.018   2.055  -2.781  1.00  0.00    -0.342 N 
ATOM     47  C   UNL     1      -1.025   2.592  -4.044  1.00  0.00     0.247 C 
ATOM     48  O   UNL     1      -1.063   3.805  -4.253  1.00  0.00    -0.273 OA
ATOM     49  H   UNL     1      -0.928   1.049  -2.651  1.00  0.00     0.164 HD
BRANCH  47  50
ATOM     50  C   UNL     1      -1.011   1.568  -5.187  1.00  0.00     0.212 CG0
ATOM     51  G   UNL     1       0.252   0.700  -5.021  1.00  0.00     0.000 G0
BRANCH  50  52
ATOM     52  N   UNL     1      -2.253   0.812  -5.048  1.00  0.00    -0.339 N 
ATOM     53  C   UNL     1      -2.318  -0.438  -4.482  1.00  0.00     0.243 C 
ATOM     54  O   UNL     1      -1.321  -1.042  -4.094  1.00  0.00    -0.273 OA
ATOM     55  H   UNL     1      -3.098   1.212  -5.451  1.00  0.00     0.164 HD
BRANCH  53  56
ATOM     56  C   UNL     1      -3.722  -1.074  -4.524  1.00  0.00     0.182 C 
BRANCH  56  57
ATOM     57  N   UNL     1      -3.637  -2.527  -4.705  1.00  0.00    -0.344 N 
ATOM     58  C   UNL     1      -3.866  -3.411  -3.679  1.00  0.00     0.220 C 
ATOM     59  O   UNL     1      -4.085  -3.049  -2.528  1.00  0.00    -0.275 OA
ATOM     60  H   UNL     1      -3.559  -2.868  -5.659  1.00  0.00     0.164 HD
BRANCH  58  61
ATOM     61  C   UNL     1      -3.782  -4.864  -4.108  1.00  0.00     0.100 C 
BRANCH  61  62
ATOM     62  C   UNL     1      -4.612  -5.811  -3.242  1.00  0.00     0.010 C 
BRANCH  62  63
ATOM     63  C   UNL     1      -5.948  -6.228  -3.870  1.00  0.00     0.000 C 
BRANCH  63  64
ATOM     64  C   UNL     1      -6.893  -5.063  -4.162  1.00  0.00    -0.003 C 
ATOM     65  C   UNL     1      -7.392  -4.418  -2.878  1.00  0.00     0.004 C 
ENDBRANCH  63  64
ENDBRANCH  62  63
ENDBRANCH  61  62
ENDBRANCH  58  61
ENDBRANCH  56  57
BRANCH  56  66
ATOM     66  C   UNL     1      -4.605  -0.412  -5.580  1.00  0.00     0.157 C 
BRANCH  66  67
ATOM     67  C   UNL     1      -6.062  -0.587  -5.259  1.00  0.00     0.305 C 
ATOM     68  O   UNL     1      -6.539  -1.292  -4.383  1.00  0.00    -0.252 OA
BRANCH  67  69
ATOM     69  O   UNL     1      -6.852   0.182  -6.031  1.00  0.00    -0.481 OA
ATOM     70  H   UNL     1      -6.277   0.921  -6.321  1.00  0.00     0.296 HD
ENDBRANCH  67  69
ENDBRANCH  66  67
ENDBRANCH  56  66
ENDBRANCH  53  56
ENDBRANCH  50  52
ENDBRANCH  47  50
ENDBRANCH  45  46
BRANCH  45  71
ATOM     71  C   UNL     1      -0.053   2.540  -0.556  1.00  0.00     0.037 C 
BRANCH  71  72
ATOM     72  C   UNL     1       1.011   1.601  -1.130  1.00  0.00     0.026 C 
BRANCH  72  73
ATOM     73  C   UNL     1       0.869   0.187  -0.572  1.00  0.00     0.146 C 
BRANCH  73  74
ATOM     74  N   UNL     1      -0.331  -0.405  -1.154  1.00  0.00    -0.254 NA
ATOM     75  C   UNL     1      -0.933  -1.319  -0.487  1.00  0.00     0.185 C 
ATOM     76  N   UNL     1      -2.041  -1.881  -0.996  1.00  0.00    -0.370 N 
ATOM     77  N   UNL     1      -0.617  -1.836   0.713  1.00  0.00    -0.370 N 
ATOM     78  H   UNL     1      -2.345  -1.554  -1.902  1.00  0.00     0.159 HD
ATOM     79  H   UNL     1      -2.480  -2.695  -0.603  1.00  0.00     0.159 HD
ATOM     80  H   UNL     1       0.192  -1.505   1.218  1.00  0.00     0.159 HD
ATOM     81  H   UNL     1      -1.232  -2.471   1.194  1.00  0.00     0.159 HD
ENDBRANCH  73  74
ENDBRANCH  72  73
ENDBRANCH  71  72
ENDBRANCH  45  71
ENDBRANCH   3  45
TORSDOF 20
ENDMDL
MODEL 5
REMARK VINA RESULT:    -6.352     10.330     16.199
REMARK INTER + INTRA:         -24.354
REMARK INTER:                 -18.211
REMARK INTRA:                  -6.144
REMARK UNBOUND:                -6.121
REMARK SMILES CCCCCC(=O)N[C@H](CC(=O)O)C(=O)N[C@H]1C(=O)N[C@H](CCCN=C(N)N)C(=O)N[C@@H]2CC[C@H](O)N(C2=O)[C@@H](CC(C)C)C(=O)N(C)[C@@H](Cc2ccccc2)C(=O)N[C@H](C(C)C)C(=O)O[C@@H]1C
REMARK SMILES IDX 30 1 31 2 29 3 32 5 35 6 37 7 34 8 38 9 33 10 39 11 36 12
REMARK SMILES IDX 40 14 41 15 42 16 43 17 44 18 45 19 46 20 47 21 48 22 49 23
REMARK SMILES IDX 50 24 51 25 52 26 56 27 53 28 55 29 54 30 57 31 58 32 59 33
REMARK SMILES IDX 60 35 61 36 62 37 63 38 64 39 65 40 66 41 67 42 68 43 21 45
REMARK SMILES IDX 20 46 18 47 19 48 17 50 16 52 14 53 15 54 9 56 8 57 6 58
REMARK SMILES IDX 7 59 5 61 4 62 3 63 2 64 1 65 10 66 11 67 12 68 13 69 22 71
REMARK SMILES IDX 23 72 24 73 25 74 26 75 27 76 28 77
REMARK H PARENT 31 4 36 13 59 34 20 49 16 55 8 60 13 70 27 78 27 79 28 80
REMARK H PARENT 28 81
REMARK Flexibility Score:  259.900
ROOT
ATOM      1  O   UNL     1      -2.363   3.879  -1.397  1.00  0.00    -0.273 OA
ATOM      2  N   UNL     1      -0.150   3.829  -0.822  1.00  0.00    -0.343 N 
ATOM      3  C   UNL     1      -1.256   3.348  -1.490  1.00  0.00     0.243 C 
ATOM      4  H   UNL     1       0.748   3.376  -0.933  1.00  0.00     0.164 HD
ENDROOT
BRANCH   2   5
ATOM      5  C   UNL     1      -0.277   4.931   0.127  1.00  0.00     0.171 C 
ATOM      6  C   UNL     1       1.664   6.399   1.702  1.00  0.00     0.214 C 
ATOM      7  N   UNL     1       1.032   5.229   2.265  1.00  0.00    -0.303 N 
ATOM      8  C   UNL     1       0.785   7.136   0.703  1.00  0.00     0.057 C 
ATOM      9  C   UNL     1       0.135   4.453   1.549  1.00  0.00     0.247 C 
ATOM     10  C   UNL     1       0.383   6.198  -0.414  1.00  0.00     0.040 C 
ATOM     11  O   UNL     1      -0.336   3.403   2.006  1.00  0.00    -0.272 OA
BRANCH   6  12
ATOM     12  O   UNL     1       2.865   5.989   1.092  1.00  0.00    -0.373 OA
ATOM     13  H   UNL     1       3.458   6.770   1.071  1.00  0.00     0.213 HD
ENDBRANCH   6  12
BRANCH   7  14
ATOM     14  C   UNL     1       1.492   4.795   3.601  1.00  0.00     0.177 C 
BRANCH  14  15
ATOM     15  C   UNL     1       3.020   4.685   3.765  1.00  0.00     0.038 C 
BRANCH  15  16
ATOM     16  C   UNL     1       3.606   4.107   5.072  1.00  0.00    -0.015 C 
ATOM     17  C   UNL     1       4.472   5.122   5.824  1.00  0.00     0.007 C 
ATOM     18  C   UNL     1       4.469   2.879   4.756  1.00  0.00     0.007 C 
ENDBRANCH  15  16
ENDBRANCH  14  15
BRANCH  14  19
ATOM     19  C   UNL     1       0.494   5.288   4.705  1.00  0.00     0.245 C 
ATOM     20  O   UNL     1      -0.261   4.434   5.198  1.00  0.00    -0.272 OA
BRANCH  19  21
ATOM     21  N   UNL     1       0.339   6.615   5.068  1.00  0.00    -0.332 N 
ATOM     22  C   UNL     1      -0.735   7.488   4.629  1.00  0.00     0.147 C 
BRANCH  21  23
ATOM     23  C   UNL     1       1.358   7.212   5.975  1.00  0.00     0.178 C 
BRANCH  23  24
ATOM     24  C   UNL     1       1.718   8.679   5.664  1.00  0.00     0.070 C 
BRANCH  24  25
ATOM     25  C   UNL     1       2.528   8.938   4.415  1.00  0.00    -0.045 A 
ATOM     26  C   UNL     1       2.005   9.707   3.367  1.00  0.00     0.004 A 
ATOM     27  C   UNL     1       3.820   8.405   4.285  1.00  0.00     0.004 A 
ATOM     28  C   UNL     1       2.753   9.928   2.209  1.00  0.00     0.000 A 
ATOM     29  C   UNL     1       4.567   8.628   3.128  1.00  0.00     0.000 A 
ATOM     30  C   UNL     1       4.031   9.387   2.089  1.00  0.00     0.000 A 
ENDBRANCH  24  25
ENDBRANCH  23  24
BRANCH  23  31
ATOM     31  C   UNL     1       1.087   6.910   7.469  1.00  0.00     0.243 C 
ATOM     32  O   UNL     1       1.410   5.866   8.028  1.00  0.00    -0.273 OA
ATOM     33  N   UNL     1       0.277   7.850   8.084  1.00  0.00    -0.341 N 
ATOM     34  H   UNL     1       0.036   8.697   7.565  1.00  0.00     0.164 HD
BRANCH  33  35
ATOM     35  C   UNL     1      -0.207   7.708   9.460  1.00  0.00     0.194 C 
BRANCH  35  36
ATOM     36  C   UNL     1      -1.653   8.235   9.683  1.00  0.00     0.017 C 
ATOM     37  C   UNL     1      -2.439   7.324  10.642  1.00  0.00     0.010 C 
ATOM     38  C   UNL     1      -2.463   8.343   8.385  1.00  0.00     0.010 C 
ENDBRANCH  35  36
BRANCH  35  39
ATOM     39  C   UNL     1       0.788   8.283  10.506  1.00  0.00     0.329 C 
ATOM     40  O   UNL     1       1.761   7.675  10.935  1.00  0.00    -0.250 OA
BRANCH  39  41
ATOM     41  O   UNL     1       0.506   9.581  10.832  1.00  0.00    -0.458 OA
BRANCH  41  42
ATOM     42  C   UNL     1       0.565   9.916  12.239  1.00  0.00     0.205 CG0
ATOM     43  C   UNL     1      -0.873  10.029  12.740  1.00  0.00     0.056 C 
ATOM     44  G   UNL     1       1.350  11.234  12.399  1.00  0.00     0.000 G0
ENDBRANCH  41  42
ENDBRANCH  39  41
ENDBRANCH  35  39
ENDBRANCH  33  35
ENDBRANCH  23  31
ENDBRANCH  21  23
ENDBRANCH  19  21
ENDBRANCH  14  19
ENDBRANCH   7  14
ENDBRANCH   2   5
BRANCH   3  45
ATOM     45  C   UNL     1      -1.006   2.118  -2.373  1.00  0.00     0.171 C 
BRANCH  45  46
ATOM     46  N   UNL     1      -2.051   2.143  -3.387  1.00  0.00    -0.342 N 
ATOM     47  C   UNL     1      -1.776   2.267  -4.725  1.00  0.00     0.247 C 
ATOM     48  O   UNL     1      -0.629   2.293  -5.172  1.00  0.00    -0.273 OA
ATOM     49  H   UNL     1      -3.015   2.067  -3.064  1.00  0.00     0.164 HD
BRANCH  47  50
ATOM     50  C   UNL     1      -3.008   2.400  -5.633  1.00  0.00     0.212 CG0
ATOM     51  G   UNL     1      -2.603   1.923  -7.042  1.00  0.00     0.000 G0
BRANCH  50  52
ATOM     52  N   UNL     1      -4.038   1.568  -5.015  1.00  0.00    -0.339 N 
ATOM     53  C   UNL     1      -5.145   1.113  -5.689  1.00  0.00     0.243 C 
ATOM     54  O   UNL     1      -5.382   1.416  -6.855  1.00  0.00    -0.273 OA
ATOM     55  H   UNL     1      -3.955   1.374  -4.019  1.00  0.00     0.164 HD
BRANCH  53  56
ATOM     56  C   UNL     1      -6.136   0.326  -4.807  1.00  0.00     0.182 C 
BRANCH  56  57
ATOM     57  N   UNL     1      -6.108  -1.104  -5.131  1.00  0.00    -0.344 N 
ATOM     58  C   UNL     1      -5.169  -1.959  -4.608  1.00  0.00     0.220 C 
ATOM     59  O   UNL     1      -4.248  -1.576  -3.895  1.00  0.00    -0.275 OA
ATOM     60  H   UNL     1      -6.909  -1.478  -5.634  1.00  0.00     0.164 HD
BRANCH  58  61
ATOM     61  C   UNL     1      -5.367  -3.402  -5.034  1.00  0.00     0.100 C 
BRANCH  61  62
ATOM     62  C   UNL     1      -4.060  -4.156  -5.282  1.00  0.00     0.010 C 
BRANCH  62  63
ATOM     63  C   UNL     1      -3.643  -5.084  -4.134  1.00  0.00     0.000 C 
BRANCH  63  64
ATOM     64  C   UNL     1      -4.234  -6.491  -4.219  1.00  0.00    -0.003 C 
ATOM     65  C   UNL     1      -4.396  -6.938  -5.665  1.00  0.00     0.004 C 
ENDBRANCH  63  64
ENDBRANCH  62  63
ENDBRANCH  61  62
ENDBRANCH  58  61
ENDBRANCH  56  57
BRANCH  56  66
ATOM     66  C   UNL     1      -7.546   0.909  -4.891  1.00  0.00     0.157 C 
BRANCH  66  67
ATOM     67  C   UNL     1      -7.870   1.725  -3.673  1.00  0.00     0.305 C 
ATOM     68  O   UNL     1      -8.861   2.417  -3.498  1.00  0.00    -0.252 OA
BRANCH  67  69
ATOM     69  O   UNL     1      -6.946   1.588  -2.704  1.00  0.00    -0.481 OA
ATOM     70  H   UNL     1      -6.697   2.505  -2.464  1.00  0.00     0.296 HD
ENDBRANCH  67  69
ENDBRANCH  66  67
ENDBRANCH  56  66
ENDBRANCH  53  56
ENDBRANCH  50  52
ENDBRANCH  47  50
ENDBRANCH  45  46
BRANCH  45  71
ATOM     71  C   UNL     1      -1.062   0.838  -1.533  1.00  0.00     0.037 C 
BRANCH  71  72
ATOM     72  C   UNL     1       0.155  -0.060  -1.769  1.00  0.00     0.026 C 
BRANCH  72  73
ATOM     73  C   UNL     1       1.438   0.588  -1.253  1.00  0.00     0.146 C 
BRANCH  73  74
ATOM     74  N   UNL     1       1.207   0.998   0.129  1.00  0.00    -0.254 NA
ATOM     75  C   UNL     1       2.197   0.951   0.941  1.00  0.00     0.185 C 
ATOM     76  N   UNL     1       2.016   1.324   2.219  1.00  0.00    -0.370 N 
ATOM     77  N   UNL     1       3.465   0.568   0.707  1.00  0.00    -0.370 N 
ATOM     78  H   UNL     1       1.087   1.620   2.481  1.00  0.00     0.159 HD
ATOM     79  H   UNL     1       2.700   1.178   2.940  1.00  0.00     0.159 HD
ATOM     80  H   UNL     1       3.748   0.265  -0.212  1.00  0.00     0.159 HD
ATOM     81  H   UNL     1       4.188   0.683   1.398  1.00  0.00     0.159 HD
ENDBRANCH  73  74
ENDBRANCH  72  73
ENDBRANCH  71  72
ENDBRANCH  45  71
ENDBRANCH   3  45
TORSDOF 20
ENDMDL
MODEL 6
REMARK VINA RESULT:    -6.183     10.254     16.255
REMARK INTER + INTRA:         -23.871
REMARK INTER:                 -18.015
REMARK INTRA:                  -5.856
REMARK UNBOUND:                -6.121
REMARK SMILES CCCCCC(=O)N[C@H](CC(=O)O)C(=O)N[C@H]1C(=O)N[C@H](CCCN=C(N)N)C(=O)N[C@@H]2CC[C@H](O)N(C2=O)[C@@H](CC(C)C)C(=O)N(C)[C@@H](Cc2ccccc2)C(=O)N[C@H](C(C)C)C(=O)O[C@@H]1C
REMARK SMILES IDX 30 1 31 2 29 3 32 5 35 6 37 7 34 8 38 9 33 10 39 11 36 12
REMARK SMILES IDX 40 14 41 15 42 16 43 17 44 18 45 19 46 20 47 21 48 22 49 23
REMARK SMILES IDX 50 24 51 25 52 26 56 27 53 28 55 29 54 30 57 31 58 32 59 33
REMARK SMILES IDX 60 35 61 36 62 37 63 38 64 39 65 40 66 41 67 42 68 43 21 45
REMARK SMILES IDX 20 46 18 47 19 48 17 50 16 52 14 53 15 54 9 56 8 57 6 58
REMARK SMILES IDX 7 59 5 61 4 62 3 63 2 64 1 65 10 66 11 67 12 68 13 69 22 71
REMARK SMILES IDX 23 72 24 73 25 74 26 75 27 76 28 77
REMARK H PARENT 31 4 36 13 59 34 20 49 16 55 8 60 13 70 27 78 27 79 28 80
REMARK H PARENT 28 81
REMARK Flexibility Score:  259.900
ROOT
ATOM      1  O   UNL     1      -2.287   4.063  -1.579  1.00  0.00    -0.273 OA
ATOM      2  N   UNL     1      -0.131   3.866  -0.841  1.00  0.00    -0.343 N 
ATOM      3  C   UNL     1      -1.215   3.457  -1.587  1.00  0.00     0.243 C 
ATOM      4  H   UNL     1       0.740   3.351  -0.883  1.00  0.00     0.164 HD
ENDROOT
BRANCH   2   5
ATOM      5  C   UNL     1      -0.251   4.982   0.092  1.00  0.00     0.171 C 
ATOM      6  C   UNL     1       1.695   6.438   1.672  1.00  0.00     0.214 C 
ATOM      7  N   UNL     1       1.037   5.285   2.242  1.00  0.00    -0.303 N 
ATOM      8  C   UNL     1       0.841   7.176   0.654  1.00  0.00     0.057 C 
ATOM      9  C   UNL     1       0.136   4.515   1.525  1.00  0.00     0.247 C 
ATOM     10  C   UNL     1       0.436   6.231  -0.457  1.00  0.00     0.040 C 
ATOM     11  O   UNL     1      -0.358   3.479   1.990  1.00  0.00    -0.272 OA
BRANCH   6  12
ATOM     12  O   UNL     1       2.897   6.000   1.082  1.00  0.00    -0.373 OA
ATOM     13  H   UNL     1       3.095   6.614   0.343  1.00  0.00     0.213 HD
ENDBRANCH   6  12
BRANCH   7  14
ATOM     14  C   UNL     1       1.474   4.862   3.589  1.00  0.00     0.177 C 
BRANCH  14  15
ATOM     15  C   UNL     1       2.999   4.778   3.788  1.00  0.00     0.038 C 
BRANCH  15  16
ATOM     16  C   UNL     1       3.565   4.185   5.098  1.00  0.00    -0.015 C 
ATOM     17  C   UNL     1       4.098   5.264   6.046  1.00  0.00     0.007 C 
ATOM     18  C   UNL     1       4.711   3.218   4.777  1.00  0.00     0.007 C 
ENDBRANCH  15  16
ENDBRANCH  14  15
BRANCH  14  19
ATOM     19  C   UNL     1       0.443   5.338   4.670  1.00  0.00     0.245 C 
ATOM     20  O   UNL     1      -0.238   4.457   5.221  1.00  0.00    -0.272 OA
BRANCH  19  21
ATOM     21  N   UNL     1       0.179   6.667   4.951  1.00  0.00    -0.332 N 
ATOM     22  C   UNL     1      -0.879   7.461   4.352  1.00  0.00     0.147 C 
BRANCH  21  23
ATOM     23  C   UNL     1       1.053   7.355   5.941  1.00  0.00     0.178 C 
BRANCH  23  24
ATOM     24  C   UNL     1       1.423   8.807   5.574  1.00  0.00     0.070 C 
BRANCH  24  25
ATOM     25  C   UNL     1       2.351   9.005   4.398  1.00  0.00    -0.045 A 
ATOM     26  C   UNL     1       1.955   9.768   3.292  1.00  0.00     0.004 A 
ATOM     27  C   UNL     1       3.626   8.419   4.396  1.00  0.00     0.004 A 
ATOM     28  C   UNL     1       2.812   9.932   2.202  1.00  0.00     0.000 A 
ATOM     29  C   UNL     1       4.481   8.585   3.306  1.00  0.00     0.000 A 
ATOM     30  C   UNL     1       4.072   9.339   2.208  1.00  0.00     0.000 A 
ENDBRANCH  24  25
ENDBRANCH  23  24
BRANCH  23  31
ATOM     31  C   UNL     1       0.588   7.151   7.402  1.00  0.00     0.243 C 
ATOM     32  O   UNL     1       0.922   6.198   8.102  1.00  0.00    -0.273 OA
ATOM     33  N   UNL     1      -0.394   8.042   7.800  1.00  0.00    -0.341 N 
ATOM     34  H   UNL     1      -0.635   8.812   7.171  1.00  0.00     0.164 HD
BRANCH  33  35
ATOM     35  C   UNL     1      -1.067   7.962   9.100  1.00  0.00     0.194 C 
BRANCH  35  36
ATOM     36  C   UNL     1      -2.594   8.249   9.044  1.00  0.00     0.017 C 
ATOM     37  C   UNL     1      -2.935   9.591   9.715  1.00  0.00     0.010 C 
ATOM     38  C   UNL     1      -3.438   7.166   9.727  1.00  0.00     0.010 C 
ENDBRANCH  35  36
BRANCH  35  39
ATOM     39  C   UNL     1      -0.357   8.808  10.193  1.00  0.00     0.329 C 
ATOM     40  O   UNL     1       0.093   9.932  10.007  1.00  0.00    -0.250 OA
BRANCH  39  41
ATOM     41  O   UNL     1      -0.366   8.192  11.415  1.00  0.00    -0.458 OA
BRANCH  41  42
ATOM     42  C   UNL     1       0.927   7.862  11.975  1.00  0.00     0.205 CG0
ATOM     43  C   UNL     1       1.223   6.408  11.611  1.00  0.00     0.056 C 
ATOM     44  G   UNL     1       0.875   8.089  13.499  1.00  0.00     0.000 G0
ENDBRANCH  41  42
ENDBRANCH  39  41
ENDBRANCH  35  39
ENDBRANCH  33  35
ENDBRANCH  23  31
ENDBRANCH  21  23
ENDBRANCH  19  21
ENDBRANCH  14  19
ENDBRANCH   7  14
ENDBRANCH   2   5
BRANCH   3  45
ATOM     45  C   UNL     1      -0.986   2.205  -2.445  1.00  0.00     0.171 C 
BRANCH  45  46
ATOM     46  N   UNL     1      -2.015   2.241  -3.476  1.00  0.00    -0.342 N 
ATOM     47  C   UNL     1      -1.753   2.634  -4.764  1.00  0.00     0.247 C 
ATOM     48  O   UNL     1      -0.621   2.913  -5.161  1.00  0.00    -0.273 OA
ATOM     49  H   UNL     1      -2.957   1.964  -3.204  1.00  0.00     0.164 HD
BRANCH  47  50
ATOM     50  C   UNL     1      -2.983   2.729  -5.678  1.00  0.00     0.212 CG0
ATOM     51  G   UNL     1      -2.484   2.702  -7.137  1.00  0.00     0.000 G0
BRANCH  50  52
ATOM     52  N   UNL     1      -3.815   1.580  -5.332  1.00  0.00    -0.339 N 
ATOM     53  C   UNL     1      -3.420   0.277  -5.516  1.00  0.00     0.243 C 
ATOM     54  O   UNL     1      -2.351  -0.022  -6.039  1.00  0.00    -0.273 OA
ATOM     55  H   UNL     1      -4.759   1.764  -4.996  1.00  0.00     0.164 HD
BRANCH  53  56
ATOM     56  C   UNL     1      -4.501  -0.763  -5.157  1.00  0.00     0.182 C 
BRANCH  56  57
ATOM     57  N   UNL     1      -3.959  -1.801  -4.275  1.00  0.00    -0.344 N 
ATOM     58  C   UNL     1      -4.708  -2.390  -3.285  1.00  0.00     0.220 C 
ATOM     59  O   UNL     1      -5.853  -2.039  -3.022  1.00  0.00    -0.275 OA
ATOM     60  H   UNL     1      -3.054  -2.190  -4.523  1.00  0.00     0.164 HD
BRANCH  58  61
ATOM     61  C   UNL     1      -3.964  -3.479  -2.535  1.00  0.00     0.100 C 
BRANCH  61  62
ATOM     62  C   UNL     1      -4.808  -4.723  -2.256  1.00  0.00     0.010 C 
BRANCH  62  63
ATOM     63  C   UNL     1      -5.168  -5.530  -3.509  1.00  0.00     0.000 C 
BRANCH  63  64
ATOM     64  C   UNL     1      -3.967  -6.146  -4.225  1.00  0.00    -0.003 C 
ATOM     65  C   UNL     1      -4.399  -6.943  -5.448  1.00  0.00     0.004 C 
ENDBRANCH  63  64
ENDBRANCH  62  63
ENDBRANCH  61  62
ENDBRANCH  58  61
ENDBRANCH  56  57
BRANCH  56  66
ATOM     66  C   UNL     1      -5.150  -1.351  -6.409  1.00  0.00     0.157 C 
BRANCH  66  67
ATOM     67  C   UNL     1      -4.568  -2.694  -6.743  1.00  0.00     0.305 C 
ATOM     68  O   UNL     1      -5.101  -3.782  -6.590  1.00  0.00    -0.252 OA
BRANCH  67  69
ATOM     69  O   UNL     1      -3.351  -2.597  -7.310  1.00  0.00    -0.481 OA
ATOM     70  H   UNL     1      -2.781  -3.197  -6.783  1.00  0.00     0.296 HD
ENDBRANCH  67  69
ENDBRANCH  66  67
ENDBRANCH  56  66
ENDBRANCH  53  56
ENDBRANCH  50  52
ENDBRANCH  47  50
ENDBRANCH  45  46
BRANCH  45  71
ATOM     71  C   UNL     1      -1.092   0.941  -1.585  1.00  0.00     0.037 C 
BRANCH  71  72
ATOM     72  C   UNL     1       0.085  -0.010  -1.812  1.00  0.00     0.026 C 
BRANCH  72  73
ATOM     73  C   UNL     1       1.382   0.557  -1.240  1.00  0.00     0.146 C 
BRANCH  73  74
ATOM     74  N   UNL     1       1.165   0.829   0.178  1.00  0.00    -0.254 NA
ATOM     75  C   UNL     1       2.171   1.205   0.877  1.00  0.00     0.185 C 
ATOM     76  N   UNL     1       2.002   1.464   2.183  1.00  0.00    -0.370 N 
ATOM     77  N   UNL     1       3.445   1.395   0.490  1.00  0.00    -0.370 N 
ATOM     78  H   UNL     1       1.073   1.339   2.558  1.00  0.00     0.159 HD
ATOM     79  H   UNL     1       2.764   1.621   2.820  1.00  0.00     0.159 HD
ATOM     80  H   UNL     1       3.719   1.241  -0.468  1.00  0.00     0.159 HD
ATOM     81  H   UNL     1       4.128   1.805   1.106  1.00  0.00     0.159 HD
ENDBRANCH  73  74
ENDBRANCH  72  73
ENDBRANCH  71  72
ENDBRANCH  45  71
ENDBRANCH   3  45
TORSDOF 20
ENDMDL
MODEL 7
REMARK VINA RESULT:    -6.064      1.890      2.932
REMARK INTER + INTRA:         -23.530
REMARK INTER:                 -18.457
REMARK INTRA:                  -5.073
REMARK UNBOUND:                -6.121
REMARK SMILES CCCCCC(=O)N[C@H](CC(=O)O)C(=O)N[C@H]1C(=O)N[C@H](CCCN=C(N)N)C(=O)N[C@@H]2CC[C@H](O)N(C2=O)[C@@H](CC(C)C)C(=O)N(C)[C@@H](Cc2ccccc2)C(=O)N[C@H](C(C)C)C(=O)O[C@@H]1C
REMARK SMILES IDX 30 1 31 2 29 3 32 5 35 6 37 7 34 8 38 9 33 10 39 11 36 12
REMARK SMILES IDX 40 14 41 15 42 16 43 17 44 18 45 19 46 20 47 21 48 22 49 23
REMARK SMILES IDX 50 24 51 25 52 26 56 27 53 28 55 29 54 30 57 31 58 32 59 33
REMARK SMILES IDX 60 35 61 36 62 37 63 38 64 39 65 40 66 41 67 42 68 43 21 45
REMARK SMILES IDX 20 46 18 47 19 48 17 50 16 52 14 53 15 54 9 56 8 57 6 58
REMARK SMILES IDX 7 59 5 61 4 62 3 63 2 64 1 65 10 66 11 67 12 68 13 69 22 71
REMARK SMILES IDX 23 72 24 73 25 74 26 75 27 76 28 77
REMARK H PARENT 31 4 36 13 59 34 20 49 16 55 8 60 13 70 27 78 27 79 28 80
REMARK H PARENT 28 81
REMARK Flexibility Score:  259.900
ROOT
ATOM      1  O   UNL     1      -0.718  -0.074  -6.190  1.00  0.00    -0.273 OA
ATOM      2  N   UNL     1       0.396   1.794  -6.897  1.00  0.00    -0.343 N 
ATOM      3  C   UNL     1      -0.640   1.153  -6.252  1.00  0.00     0.243 C 
ATOM      4  H   UNL     1       0.435   2.805  -6.915  1.00  0.00     0.164 HD
ENDROOT
BRANCH   2   5
ATOM      5  C   UNL     1       1.390   1.031  -7.643  1.00  0.00     0.171 C 
ATOM      6  C   UNL     1       4.115   1.612  -8.444  1.00  0.00     0.214 C 
ATOM      7  N   UNL     1       3.027   1.948  -9.332  1.00  0.00    -0.303 N 
ATOM      8  C   UNL     1       3.825   0.405  -7.566  1.00  0.00     0.057 C 
ATOM      9  C   UNL     1       1.700   1.745  -8.991  1.00  0.00     0.247 C 
ATOM     10  C   UNL     1       2.573   0.653  -6.753  1.00  0.00     0.040 C 
ATOM     11  O   UNL     1       0.771   2.115  -9.720  1.00  0.00    -0.272 OA
BRANCH   6  12
ATOM     12  O   UNL     1       4.389   2.744  -7.651  1.00  0.00    -0.373 OA
ATOM     13  H   UNL     1       4.099   3.530  -8.162  1.00  0.00     0.213 HD
ENDBRANCH   6  12
BRANCH   7  14
ATOM     14  C   UNL     1       3.375   2.663 -10.579  1.00  0.00     0.177 C 
BRANCH  14  15
ATOM     15  C   UNL     1       2.995   4.156 -10.607  1.00  0.00     0.038 C 
BRANCH  15  16
ATOM     16  C   UNL     1       2.230   4.724 -11.823  1.00  0.00    -0.015 C 
ATOM     17  C   UNL     1       0.789   5.109 -11.479  1.00  0.00     0.007 C 
ATOM     18  C   UNL     1       2.193   3.679 -12.946  1.00  0.00     0.007 C 
ENDBRANCH  15  16
ENDBRANCH  14  15
BRANCH  14  19
ATOM     19  C   UNL     1       4.665   2.043 -11.218  1.00  0.00     0.245 C 
ATOM     20  O   UNL     1       4.662   0.815 -11.406  1.00  0.00    -0.272 OA
BRANCH  19  21
ATOM     21  N   UNL     1       5.821   2.760 -11.473  1.00  0.00    -0.332 N 
ATOM     22  C   UNL     1       6.083   4.119 -11.034  1.00  0.00     0.147 C 
BRANCH  21  23
ATOM     23  C   UNL     1       6.888   2.099 -12.273  1.00  0.00     0.178 C 
BRANCH  23  24
ATOM     24  C   UNL     1       7.037   2.628 -13.714  1.00  0.00     0.070 C 
BRANCH  24  25
ATOM     25  C   UNL     1       5.799   2.618 -14.581  1.00  0.00    -0.045 A 
ATOM     26  C   UNL     1       5.247   3.815 -15.057  1.00  0.00     0.004 A 
ATOM     27  C   UNL     1       5.182   1.405 -14.919  1.00  0.00     0.004 A 
ATOM     28  C   UNL     1       4.093   3.798 -15.843  1.00  0.00     0.000 A 
ATOM     29  C   UNL     1       4.029   1.390 -15.707  1.00  0.00     0.000 A 
ATOM     30  C   UNL     1       3.484   2.588 -16.166  1.00  0.00     0.000 A 
ENDBRANCH  24  25
ENDBRANCH  23  24
BRANCH  23  31
ATOM     31  C   UNL     1       8.217   1.945 -11.496  1.00  0.00     0.243 C 
ATOM     32  O   UNL     1       8.326   1.333 -10.436  1.00  0.00    -0.273 OA
ATOM     33  N   UNL     1       9.248   2.717 -12.004  1.00  0.00    -0.341 N 
ATOM     34  H   UNL     1       9.095   3.210 -12.887  1.00  0.00     0.164 HD
BRANCH  33  35
ATOM     35  C   UNL     1      10.561   2.821 -11.360  1.00  0.00     0.194 C 
BRANCH  35  36
ATOM     36  C   UNL     1      10.984   4.276 -11.011  1.00  0.00     0.017 C 
ATOM     37  C   UNL     1      12.314   4.302 -10.239  1.00  0.00     0.010 C 
ATOM     38  C   UNL     1       9.946   5.020 -10.162  1.00  0.00     0.010 C 
ENDBRANCH  35  36
BRANCH  35  39
ATOM     39  C   UNL     1      11.671   2.066 -12.142  1.00  0.00     0.329 C 
ATOM     40  O   UNL     1      12.205   1.034 -11.751  1.00  0.00    -0.250 OA
BRANCH  39  41
ATOM     41  O   UNL     1      11.928   2.633 -13.359  1.00  0.00    -0.458 OA
BRANCH  41  42
ATOM     42  C   UNL     1      13.286   2.519 -13.846  1.00  0.00     0.205 CG0
ATOM     43  C   UNL     1      14.026   3.788 -13.430  1.00  0.00     0.056 C 
ATOM     44  G   UNL     1      13.246   2.335 -15.377  1.00  0.00     0.000 G0
ENDBRANCH  41  42
ENDBRANCH  39  41
ENDBRANCH  35  39
ENDBRANCH  33  35
ENDBRANCH  23  31
ENDBRANCH  21  23
ENDBRANCH  19  21
ENDBRANCH  14  19
ENDBRANCH   7  14
ENDBRANCH   2   5
BRANCH   3  45
ATOM     45  C   UNL     1      -1.678   2.075  -5.598  1.00  0.00     0.171 C 
BRANCH  45  46
ATOM     46  N   UNL     1      -2.973   1.614  -6.078  1.00  0.00    -0.342 N 
ATOM     47  C   UNL     1      -4.028   1.371  -5.234  1.00  0.00     0.247 C 
ATOM     48  O   UNL     1      -3.980   1.594  -4.024  1.00  0.00    -0.273 OA
ATOM     49  H   UNL     1      -3.074   1.470  -7.081  1.00  0.00     0.164 HD
BRANCH  47  50
ATOM     50  C   UNL     1      -5.272   0.771  -5.904  1.00  0.00     0.212 CG0
ATOM     51  G   UNL     1      -6.421   0.810  -4.877  1.00  0.00     0.000 G0
BRANCH  50  52
ATOM     52  N   UNL     1      -5.521   1.603  -7.079  1.00  0.00    -0.339 N 
ATOM     53  C   UNL     1      -6.331   2.712  -7.062  1.00  0.00     0.243 C 
ATOM     54  O   UNL     1      -6.955   3.060  -6.064  1.00  0.00    -0.273 OA
ATOM     55  H   UNL     1      -5.120   1.301  -7.965  1.00  0.00     0.164 HD
BRANCH  53  56
ATOM     56  C   UNL     1      -6.511   3.378  -8.441  1.00  0.00     0.182 C 
BRANCH  56  57
ATOM     57  N   UNL     1      -7.901   3.278  -8.898  1.00  0.00    -0.344 N 
ATOM     58  C   UNL     1      -8.604   4.363  -9.361  1.00  0.00     0.220 C 
ATOM     59  O   UNL     1      -8.147   5.500  -9.357  1.00  0.00    -0.275 OA
ATOM     60  H   UNL     1      -8.281   2.342  -9.012  1.00  0.00     0.164 HD
BRANCH  58  61
ATOM     61  C   UNL     1     -10.003   4.015  -9.835  1.00  0.00     0.100 C 
BRANCH  61  62
ATOM     62  C   UNL     1     -10.032   3.225 -11.144  1.00  0.00     0.010 C 
BRANCH  62  63
ATOM     63  C   UNL     1     -10.353   4.073 -12.381  1.00  0.00     0.000 C 
BRANCH  63  64
ATOM     64  C   UNL     1      -9.342   5.184 -12.659  1.00  0.00    -0.003 C 
ATOM     65  C   UNL     1      -9.780   6.054 -13.829  1.00  0.00     0.004 C 
ENDBRANCH  63  64
ENDBRANCH  62  63
ENDBRANCH  61  62
ENDBRANCH  58  61
ENDBRANCH  56  57
BRANCH  56  66
ATOM     66  C   UNL     1      -5.525   2.820  -9.466  1.00  0.00     0.157 C 
BRANCH  66  67
ATOM     67  C   UNL     1      -4.912   3.919 -10.286  1.00  0.00     0.305 C 
ATOM     68  O   UNL     1      -3.721   4.120 -10.467  1.00  0.00    -0.252 OA
BRANCH  67  69
ATOM     69  O   UNL     1      -5.840   4.687 -10.887  1.00  0.00    -0.481 OA
ATOM     70  H   UNL     1      -6.527   4.832 -10.202  1.00  0.00     0.296 HD
ENDBRANCH  67  69
ENDBRANCH  66  67
ENDBRANCH  56  66
ENDBRANCH  53  56
ENDBRANCH  50  52
ENDBRANCH  47  50
ENDBRANCH  45  46
BRANCH  45  71
ATOM     71  C   UNL     1      -1.417   3.534  -5.989  1.00  0.00     0.037 C 
BRANCH  71  72
ATOM     72  C   UNL     1      -2.424   4.491  -5.346  1.00  0.00     0.026 C 
BRANCH  72  73
ATOM     73  C   UNL     1      -3.298   5.173  -6.396  1.00  0.00     0.146 C 
BRANCH  73  74
ATOM     74  N   UNL     1      -2.524   5.265  -7.631  1.00  0.00    -0.254 NA
ATOM     75  C   UNL     1      -2.534   6.380  -8.263  1.00  0.00     0.185 C 
ATOM     76  N   UNL     1      -1.830   6.495  -9.401  1.00  0.00    -0.370 N 
ATOM     77  N   UNL     1      -3.171   7.522  -7.952  1.00  0.00    -0.370 N 
ATOM     78  H   UNL     1      -1.325   5.678  -9.711  1.00  0.00     0.159 HD
ATOM     79  H   UNL     1      -1.905   7.283 -10.021  1.00  0.00     0.159 HD
ATOM     80  H   UNL     1      -3.737   7.584  -7.118  1.00  0.00     0.159 HD
ATOM     81  H   UNL     1      -3.011   8.373  -8.465  1.00  0.00     0.159 HD
ENDBRANCH  73  74
ENDBRANCH  72  73
ENDBRANCH  71  72
ENDBRANCH  45  71
ENDBRANCH   3  45
TORSDOF 20
ENDMDL
MODEL 8
REMARK VINA RESULT:    -6.032      1.956      3.073
REMARK INTER + INTRA:         -23.438
REMARK INTER:                 -19.430
REMARK INTRA:                  -4.008
REMARK UNBOUND:                -6.121
REMARK SMILES CCCCCC(=O)N[C@H](CC(=O)O)C(=O)N[C@H]1C(=O)N[C@H](CCCN=C(N)N)C(=O)N[C@@H]2CC[C@H](O)N(C2=O)[C@@H](CC(C)C)C(=O)N(C)[C@@H](Cc2ccccc2)C(=O)N[C@H](C(C)C)C(=O)O[C@@H]1C
REMARK SMILES IDX 30 1 31 2 29 3 32 5 35 6 37 7 34 8 38 9 33 10 39 11 36 12
REMARK SMILES IDX 40 14 41 15 42 16 43 17 44 18 45 19 46 20 47 21 48 22 49 23
REMARK SMILES IDX 50 24 51 25 52 26 56 27 53 28 55 29 54 30 57 31 58 32 59 33
REMARK SMILES IDX 60 35 61 36 62 37 63 38 64 39 65 40 66 41 67 42 68 43 21 45
REMARK SMILES IDX 20 46 18 47 19 48 17 50 16 52 14 53 15 54 9 56 8 57 6 58
REMARK SMILES IDX 7 59 5 61 4 62 3 63 2 64 1 65 10 66 11 67 12 68 13 69 22 71
REMARK SMILES IDX 23 72 24 73 25 74 26 75 27 76 28 77
REMARK H PARENT 31 4 36 13 59 34 20 49 16 55 8 60 13 70 27 78 27 79 28 80
REMARK H PARENT 28 81
REMARK Flexibility Score:  259.900
ROOT
ATOM      1  O   UNL     1      -0.729   0.044  -6.205  1.00  0.00    -0.273 OA
ATOM      2  N   UNL     1       0.347   1.909  -6.977  1.00  0.00    -0.343 N 
ATOM      3  C   UNL     1      -0.680   1.270  -6.316  1.00  0.00     0.243 C 
ATOM      4  H   UNL     1       0.362   2.920  -7.036  1.00  0.00     0.164 HD
ENDROOT
BRANCH   2   5
ATOM      5  C   UNL     1       1.367   1.141  -7.683  1.00  0.00     0.171 C 
ATOM      6  C   UNL     1       4.098   1.741  -8.448  1.00  0.00     0.214 C 
ATOM      7  N   UNL     1       3.023   2.036  -9.365  1.00  0.00    -0.303 N 
ATOM      8  C   UNL     1       3.808   0.555  -7.542  1.00  0.00     0.057 C 
ATOM      9  C   UNL     1       1.692   1.822  -9.044  1.00  0.00     0.247 C 
ATOM     10  C   UNL     1       2.537   0.806  -6.760  1.00  0.00     0.040 C 
ATOM     11  O   UNL     1       0.772   2.157  -9.801  1.00  0.00    -0.272 OA
BRANCH   6  12
ATOM     12  O   UNL     1       4.340   2.899  -7.681  1.00  0.00    -0.373 OA
ATOM     13  H   UNL     1       4.048   3.666  -8.219  1.00  0.00     0.213 HD
ENDBRANCH   6  12
BRANCH   7  14
ATOM     14  C   UNL     1       3.384   2.721 -10.624  1.00  0.00     0.177 C 
BRANCH  14  15
ATOM     15  C   UNL     1       3.048   4.224 -10.674  1.00  0.00     0.038 C 
BRANCH  15  16
ATOM     16  C   UNL     1       2.135   4.764 -11.797  1.00  0.00    -0.015 C 
ATOM     17  C   UNL     1       0.778   5.240 -11.270  1.00  0.00     0.007 C 
ATOM     18  C   UNL     1       1.888   3.664 -12.837  1.00  0.00     0.007 C 
ENDBRANCH  15  16
ENDBRANCH  14  15
BRANCH  14  19
ATOM     19  C   UNL     1       4.652   2.054 -11.261  1.00  0.00     0.245 C 
ATOM     20  O   UNL     1       4.648   0.815 -11.348  1.00  0.00    -0.272 OA
BRANCH  19  21
ATOM     21  N   UNL     1       5.793   2.751 -11.619  1.00  0.00    -0.332 N 
ATOM     22  C   UNL     1       6.111   4.110 -11.217  1.00  0.00     0.147 C 
BRANCH  21  23
ATOM     23  C   UNL     1       6.780   2.066 -12.498  1.00  0.00     0.178 C 
BRANCH  23  24
ATOM     24  C   UNL     1       6.888   2.647 -13.923  1.00  0.00     0.070 C 
BRANCH  24  25
ATOM     25  C   UNL     1       5.607   2.772 -14.714  1.00  0.00    -0.045 A 
ATOM     26  C   UNL     1       5.090   4.031 -15.048  1.00  0.00     0.004 A 
ATOM     27  C   UNL     1       4.913   1.624 -15.123  1.00  0.00     0.004 A 
ATOM     28  C   UNL     1       3.896   4.138 -15.765  1.00  0.00     0.000 A 
ATOM     29  C   UNL     1       3.720   1.733 -15.841  1.00  0.00     0.000 A 
ATOM     30  C   UNL     1       3.212   2.991 -16.158  1.00  0.00     0.000 A 
ENDBRANCH  24  25
ENDBRANCH  23  24
BRANCH  23  31
ATOM     31  C   UNL     1       8.134   1.804 -11.797  1.00  0.00     0.243 C 
ATOM     32  O   UNL     1       8.301   0.961 -10.919  1.00  0.00    -0.273 OA
ATOM     33  N   UNL     1       9.110   2.734 -12.114  1.00  0.00    -0.341 N 
ATOM     34  H   UNL     1       8.910   3.415 -12.850  1.00  0.00     0.164 HD
BRANCH  33  35
ATOM     35  C   UNL     1      10.430   2.753 -11.479  1.00  0.00     0.194 C 
BRANCH  35  36
ATOM     36  C   UNL     1      10.995   4.180 -11.231  1.00  0.00     0.017 C 
ATOM     37  C   UNL     1      12.471   4.131 -10.799  1.00  0.00     0.010 C 
ATOM     38  C   UNL     1      10.227   4.955 -10.153  1.00  0.00     0.010 C 
ENDBRANCH  35  36
BRANCH  35  39
ATOM     39  C   UNL     1      11.457   1.842 -12.208  1.00  0.00     0.329 C 
ATOM     40  O   UNL     1      12.092   0.949 -11.659  1.00  0.00    -0.250 OA
BRANCH  39  41
ATOM     41  O   UNL     1      11.510   2.089 -13.552  1.00  0.00    -0.458 OA
BRANCH  41  42
ATOM     42  C   UNL     1      12.832   2.180 -14.135  1.00  0.00     0.205 CG0
ATOM     43  C   UNL     1      12.960   1.046 -15.149  1.00  0.00     0.056 C 
ATOM     44  G   UNL     1      13.876   2.081 -13.005  1.00  0.00     0.000 G0
ENDBRANCH  41  42
ENDBRANCH  39  41
ENDBRANCH  35  39
ENDBRANCH  33  35
ENDBRANCH  23  31
ENDBRANCH  21  23
ENDBRANCH  19  21
ENDBRANCH  14  19
ENDBRANCH   7  14
ENDBRANCH   2   5
BRANCH   3  45
ATOM     45  C   UNL     1      -1.746   2.192  -5.710  1.00  0.00     0.171 C 
BRANCH  45  46
ATOM     46  N   UNL     1      -3.028   1.592  -6.053  1.00  0.00    -0.342 N 
ATOM     47  C   UNL     1      -3.994   1.332  -5.114  1.00  0.00     0.247 C 
ATOM     48  O   UNL     1      -3.879   1.652  -3.931  1.00  0.00    -0.273 OA
ATOM     49  H   UNL     1      -3.187   1.362  -7.032  1.00  0.00     0.164 HD
BRANCH  47  50
ATOM     50  C   UNL     1      -5.227   0.583  -5.640  1.00  0.00     0.212 CG0
ATOM     51  G   UNL     1      -6.284   0.576  -4.518  1.00  0.00     0.000 G0
BRANCH  50  52
ATOM     52  N   UNL     1      -5.652   1.319  -6.828  1.00  0.00    -0.339 N 
ATOM     53  C   UNL     1      -6.450   2.437  -6.780  1.00  0.00     0.243 C 
ATOM     54  O   UNL     1      -6.913   2.875  -5.730  1.00  0.00    -0.273 OA
ATOM     55  H   UNL     1      -5.392   0.941  -7.737  1.00  0.00     0.164 HD
BRANCH  53  56
ATOM     56  C   UNL     1      -6.838   2.991  -8.165  1.00  0.00     0.182 C 
BRANCH  56  57
ATOM     57  N   UNL     1      -8.269   3.305  -8.225  1.00  0.00    -0.344 N 
ATOM     58  C   UNL     1      -9.239   2.336  -8.143  1.00  0.00     0.220 C 
ATOM     59  O   UNL     1      -8.978   1.139  -8.088  1.00  0.00    -0.275 OA
ATOM     60  H   UNL     1      -8.528   4.286  -8.167  1.00  0.00     0.164 HD
BRANCH  58  61
ATOM     61  C   UNL     1     -10.650   2.893  -8.167  1.00  0.00     0.100 C 
BRANCH  61  62
ATOM     62  C   UNL     1     -11.264   3.076  -6.779  1.00  0.00     0.010 C 
BRANCH  62  63
ATOM     63  C   UNL     1     -12.057   1.862  -6.278  1.00  0.00     0.000 C 
BRANCH  63  64
ATOM     64  C   UNL     1     -11.263   0.925  -5.370  1.00  0.00    -0.003 C 
ATOM     65  C   UNL     1     -10.091   1.645  -4.719  1.00  0.00     0.004 C 
ENDBRANCH  63  64
ENDBRANCH  62  63
ENDBRANCH  61  62
ENDBRANCH  58  61
ENDBRANCH  56  57
BRANCH  56  66
ATOM     66  C   UNL     1      -6.407   2.047  -9.287  1.00  0.00     0.157 C 
BRANCH  66  67
ATOM     67  C   UNL     1      -6.141   2.800 -10.559  1.00  0.00     0.305 C 
ATOM     68  O   UNL     1      -5.713   3.939 -10.660  1.00  0.00    -0.252 OA
BRANCH  67  69
ATOM     69  O   UNL     1      -6.382   2.054 -11.654  1.00  0.00    -0.481 OA
ATOM     70  H   UNL     1      -5.576   2.152 -12.205  1.00  0.00     0.296 HD
ENDBRANCH  67  69
ENDBRANCH  66  67
ENDBRANCH  56  66
ENDBRANCH  53  56
ENDBRANCH  50  52
ENDBRANCH  47  50
ENDBRANCH  45  46
BRANCH  45  71
ATOM     71  C   UNL     1      -1.614   3.608  -6.281  1.00  0.00     0.037 C 
BRANCH  71  72
ATOM     72  C   UNL     1      -2.542   4.602  -5.577  1.00  0.00     0.026 C 
BRANCH  72  73
ATOM     73  C   UNL     1      -3.683   5.045  -6.490  1.00  0.00     0.146 C 
BRANCH  73  74
ATOM     74  N   UNL     1      -3.133   5.972  -7.475  1.00  0.00    -0.254 NA
ATOM     75  C   UNL     1      -3.765   7.068  -7.684  1.00  0.00     0.185 C 
ATOM     76  N   UNL     1      -3.284   7.941  -8.583  1.00  0.00    -0.370 N 
ATOM     77  N   UNL     1      -4.900   7.510  -7.116  1.00  0.00    -0.370 N 
ATOM     78  H   UNL     1      -2.434   7.682  -9.064  1.00  0.00     0.159 HD
ATOM     79  H   UNL     1      -3.795   8.745  -8.904  1.00  0.00     0.159 HD
ATOM     80  H   UNL     1      -5.374   6.958  -6.417  1.00  0.00     0.159 HD
ATOM     81  H   UNL     1      -5.243   8.443  -7.277  1.00  0.00     0.159 HD
ENDBRANCH  73  74
ENDBRANCH  72  73
ENDBRANCH  71  72
ENDBRANCH  45  71
ENDBRANCH   3  45
TORSDOF 20
ENDMDL
MODEL 9
REMARK VINA RESULT:    -6.002     12.126     15.752
REMARK INTER + INTRA:         -23.351
REMARK INTER:                 -16.739
REMARK INTRA:                  -6.613
REMARK UNBOUND:                -6.121
REMARK SMILES CCCCCC(=O)N[C@H](CC(=O)O)C(=O)N[C@H]1C(=O)N[C@H](CCCN=C(N)N)C(=O)N[C@@H]2CC[C@H](O)N(C2=O)[C@@H](CC(C)C)C(=O)N(C)[C@@H](Cc2ccccc2)C(=O)N[C@H](C(C)C)C(=O)O[C@@H]1C
REMARK SMILES IDX 30 1 31 2 29 3 32 5 35 6 37 7 34 8 38 9 33 10 39 11 36 12
REMARK SMILES IDX 40 14 41 15 42 16 43 17 44 18 45 19 46 20 47 21 48 22 49 23
REMARK SMILES IDX 50 24 51 25 52 26 56 27 53 28 55 29 54 30 57 31 58 32 59 33
REMARK SMILES IDX 60 35 61 36 62 37 63 38 64 39 65 40 66 41 67 42 68 43 21 45
REMARK SMILES IDX 20 46 18 47 19 48 17 50 16 52 14 53 15 54 9 56 8 57 6 58
REMARK SMILES IDX 7 59 5 61 4 62 3 63 2 64 1 65 10 66 11 67 12 68 13 69 22 71
REMARK SMILES IDX 23 72 24 73 25 74 26 75 27 76 28 77
REMARK H PARENT 31 4 36 13 59 34 20 49 16 55 8 60 13 70 27 78 27 79 28 80
REMARK H PARENT 28 81
REMARK Flexibility Score:  259.900
ROOT
ATOM      1  O   UNL     1      -4.729   2.827   4.491  1.00  0.00    -0.273 OA
ATOM      2  N   UNL     1      -3.273   3.438   2.837  1.00  0.00    -0.343 N 
ATOM      3  C   UNL     1      -4.407   2.808   3.303  1.00  0.00     0.243 C 
ATOM      4  H   UNL     1      -3.047   3.414   1.850  1.00  0.00     0.164 HD
ENDROOT
BRANCH   2   5
ATOM      5  C   UNL     1      -2.335   4.061   3.765  1.00  0.00     0.171 C 
ATOM      6  C   UNL     1      -0.285   6.082   3.425  1.00  0.00     0.214 C 
ATOM      7  N   UNL     1       0.062   4.687   3.282  1.00  0.00    -0.303 N 
ATOM      8  C   UNL     1      -1.430   6.321   4.396  1.00  0.00     0.057 C 
ATOM      9  C   UNL     1      -0.878   3.674   3.381  1.00  0.00     0.247 C 
ATOM     10  C   UNL     1      -2.650   5.544   3.950  1.00  0.00     0.040 C 
ATOM     11  O   UNL     1      -0.590   2.489   3.172  1.00  0.00    -0.272 OA
BRANCH   6  12
ATOM     12  O   UNL     1      -0.611   6.578   2.147  1.00  0.00    -0.373 OA
ATOM     13  H   UNL     1      -1.082   5.860   1.672  1.00  0.00     0.213 HD
ENDBRANCH   6  12
BRANCH   7  14
ATOM     14  C   UNL     1       1.449   4.380   2.875  1.00  0.00     0.177 C 
BRANCH  14  15
ATOM     15  C   UNL     1       1.833   4.837   1.454  1.00  0.00     0.038 C 
BRANCH  15  16
ATOM     16  C   UNL     1       1.352   4.019   0.235  1.00  0.00    -0.015 C 
ATOM     17  C   UNL     1       2.484   3.219  -0.416  1.00  0.00     0.007 C 
ATOM     18  C   UNL     1       0.760   4.961  -0.821  1.00  0.00     0.007 C 
ENDBRANCH  15  16
ENDBRANCH  14  15
BRANCH  14  19
ATOM     19  C   UNL     1       2.399   4.401   4.122  1.00  0.00     0.245 C 
ATOM     20  O   UNL     1       2.678   5.516   4.593  1.00  0.00    -0.272 OA
BRANCH  19  21
ATOM     21  N   UNL     1       3.017   3.277   4.640  1.00  0.00    -0.332 N 
ATOM     22  C   UNL     1       2.357   2.222   5.389  1.00  0.00     0.147 C 
BRANCH  21  23
ATOM     23  C   UNL     1       4.483   3.128   4.428  1.00  0.00     0.178 C 
BRANCH  23  24
ATOM     24  C   UNL     1       5.005   3.711   3.098  1.00  0.00     0.070 C 
BRANCH  24  25
ATOM     25  C   UNL     1       5.245   2.738   1.967  1.00  0.00    -0.045 A 
ATOM     26  C   UNL     1       4.696   1.449   2.001  1.00  0.00     0.004 A 
ATOM     27  C   UNL     1       6.028   3.113   0.865  1.00  0.00     0.004 A 
ATOM     28  C   UNL     1       4.937   0.550   0.960  1.00  0.00     0.000 A 
ATOM     29  C   UNL     1       6.266   2.213  -0.175  1.00  0.00     0.000 A 
ATOM     30  C   UNL     1       5.722   0.931  -0.125  1.00  0.00     0.000 A 
ENDBRANCH  24  25
ENDBRANCH  23  24
BRANCH  23  31
ATOM     31  C   UNL     1       5.315   3.507   5.676  1.00  0.00     0.243 C 
ATOM     32  O   UNL     1       5.725   2.694   6.501  1.00  0.00    -0.273 OA
ATOM     33  N   UNL     1       5.404   4.872   5.888  1.00  0.00    -0.341 N 
ATOM     34  H   UNL     1       5.039   5.500   5.168  1.00  0.00     0.164 HD
BRANCH  33  35
ATOM     35  C   UNL     1       6.042   5.457   7.072  1.00  0.00     0.194 C 
BRANCH  35  36
ATOM     36  C   UNL     1       5.236   6.619   7.718  1.00  0.00     0.017 C 
ATOM     37  C   UNL     1       3.963   6.101   8.409  1.00  0.00     0.010 C 
ATOM     38  C   UNL     1       4.806   7.690   6.708  1.00  0.00     0.010 C 
ENDBRANCH  35  36
BRANCH  35  39
ATOM     39  C   UNL     1       7.525   5.848   6.820  1.00  0.00     0.329 C 
ATOM     40  O   UNL     1       7.972   6.176   5.727  1.00  0.00    -0.250 OA
BRANCH  39  41
ATOM     41  O   UNL     1       8.259   5.871   7.973  1.00  0.00    -0.458 OA
BRANCH  41  42
ATOM     42  C   UNL     1       9.624   5.400   7.873  1.00  0.00     0.205 CG0
ATOM     43  C   UNL     1       9.575   3.874   7.822  1.00  0.00     0.056 C 
ATOM     44  G   UNL     1      10.415   5.923   9.088  1.00  0.00     0.000 G0
ENDBRANCH  41  42
ENDBRANCH  39  41
ENDBRANCH  35  39
ENDBRANCH  33  35
ENDBRANCH  23  31
ENDBRANCH  21  23
ENDBRANCH  19  21
ENDBRANCH  14  19
ENDBRANCH   7  14
ENDBRANCH   2   5
BRANCH   3  45
ATOM     45  C   UNL     1      -5.250   2.099   2.234  1.00  0.00     0.171 C 
BRANCH  45  46
ATOM     46  N   UNL     1      -6.516   1.778   2.881  1.00  0.00    -0.342 N 
ATOM     47  C   UNL     1      -7.684   2.433   2.579  1.00  0.00     0.247 C 
ATOM     48  O   UNL     1      -7.763   3.284   1.693  1.00  0.00    -0.273 OA
ATOM     49  H   UNL     1      -6.506   1.040   3.582  1.00  0.00     0.164 HD
BRANCH  47  50
ATOM     50  C   UNL     1      -8.889   2.046   3.449  1.00  0.00     0.212 CG0
ATOM     51  G   UNL     1     -10.125   1.977   2.530  1.00  0.00     0.000 G0
BRANCH  50  52
ATOM     52  N   UNL     1      -8.541   0.760   4.047  1.00  0.00    -0.339 N 
ATOM     53  C   UNL     1      -9.321   0.127   4.984  1.00  0.00     0.243 C 
ATOM     54  O   UNL     1     -10.352   0.623   5.431  1.00  0.00    -0.273 OA
ATOM     55  H   UNL     1      -7.642   0.351   3.799  1.00  0.00     0.164 HD
BRANCH  53  56
ATOM     56  C   UNL     1      -8.708  -1.176   5.534  1.00  0.00     0.182 C 
BRANCH  56  57
ATOM     57  N   UNL     1      -7.570  -0.891   6.415  1.00  0.00    -0.344 N 
ATOM     58  C   UNL     1      -7.478  -1.402   7.687  1.00  0.00     0.220 C 
ATOM     59  O   UNL     1      -8.370  -2.068   8.200  1.00  0.00    -0.275 OA
ATOM     60  H   UNL     1      -6.767  -0.430   5.995  1.00  0.00     0.164 HD
BRANCH  58  61
ATOM     61  C   UNL     1      -6.189  -1.025   8.394  1.00  0.00     0.100 C 
BRANCH  61  62
ATOM     62  C   UNL     1      -5.089  -2.079   8.274  1.00  0.00     0.010 C 
BRANCH  62  63
ATOM     63  C   UNL     1      -4.122  -1.847   7.106  1.00  0.00     0.000 C 
BRANCH  63  64
ATOM     64  C   UNL     1      -3.309  -3.079   6.711  1.00  0.00    -0.003 C 
ATOM     65  C   UNL     1      -3.648  -4.273   7.592  1.00  0.00     0.004 C 
ENDBRANCH  63  64
ENDBRANCH  62  63
ENDBRANCH  61  62
ENDBRANCH  58  61
ENDBRANCH  56  57
BRANCH  56  66
ATOM     66  C   UNL     1      -8.338  -2.140   4.409  1.00  0.00     0.157 C 
BRANCH  66  67
ATOM     67  C   UNL     1      -6.851  -2.201   4.211  1.00  0.00     0.305 C 
ATOM     68  O   UNL     1      -6.143  -1.343   3.706  1.00  0.00    -0.252 OA
BRANCH  67  69
ATOM     69  O   UNL     1      -6.313  -3.330   4.711  1.00  0.00    -0.481 OA
ATOM     70  H   UNL     1      -6.804  -3.492   5.545  1.00  0.00     0.296 HD
ENDBRANCH  67  69
ENDBRANCH  66  67
ENDBRANCH  56  66
ENDBRANCH  53  56
ENDBRANCH  50  52
ENDBRANCH  47  50
ENDBRANCH  45  46
BRANCH  45  71
ATOM     71  C   UNL     1      -4.534   0.839   1.737  1.00  0.00     0.037 C 
BRANCH  71  72
ATOM     72  C   UNL     1      -3.940   1.028   0.339  1.00  0.00     0.026 C 
BRANCH  72  73
ATOM     73  C   UNL     1      -2.418   0.911   0.356  1.00  0.00     0.146 C 
BRANCH  73  74
ATOM     74  N   UNL     1      -2.077  -0.507   0.296  1.00  0.00    -0.254 NA
ATOM     75  C   UNL     1      -0.989  -0.886   0.858  1.00  0.00     0.185 C 
ATOM     76  N   UNL     1      -0.649  -2.185   0.820  1.00  0.00    -0.370 N 
ATOM     77  N   UNL     1      -0.078  -0.150   1.518  1.00  0.00    -0.370 N 
ATOM     78  H   UNL     1      -1.278  -2.808   0.334  1.00  0.00     0.159 HD
ATOM     79  H   UNL     1       0.249  -2.531   1.108  1.00  0.00     0.159 HD
ATOM     80  H   UNL     1      -0.204   0.844   1.630  1.00  0.00     0.159 HD
ATOM     81  H   UNL     1       0.683  -0.578   2.019  1.00  0.00     0.159 HD
ENDBRANCH  73  74
ENDBRANCH  72  73
ENDBRANCH  71  72
ENDBRANCH  45  71
ENDBRANCH   3  45
TORSDOF 20
ENDMDL
MODEL 10
REMARK VINA RESULT:    -5.850     10.708     16.904
REMARK INTER + INTRA:         -22.916
REMARK INTER:                 -17.702
REMARK INTRA:                  -5.214
REMARK UNBOUND:                -6.121
REMARK SMILES CCCCCC(=O)N[C@H](CC(=O)O)C(=O)N[C@H]1C(=O)N[C@H](CCCN=C(N)N)C(=O)N[C@@H]2CC[C@H](O)N(C2=O)[C@@H](CC(C)C)C(=O)N(C)[C@@H](Cc2ccccc2)C(=O)N[C@H](C(C)C)C(=O)O[C@@H]1C
REMARK SMILES IDX 30 1 31 2 29 3 32 5 35 6 37 7 34 8 38 9 33 10 39 11 36 12
REMARK SMILES IDX 40 14 41 15 42 16 43 17 44 18 45 19 46 20 47 21 48 22 49 23
REMARK SMILES IDX 50 24 51 25 52 26 56 27 53 28 55 29 54 30 57 31 58 32 59 33
REMARK SMILES IDX 60 35 61 36 62 37 63 38 64 39 65 40 66 41 67 42 68 43 21 45
REMARK SMILES IDX 20 46 18 47 19 48 17 50 16 52 14 53 15 54 9 56 8 57 6 58
REMARK SMILES IDX 7 59 5 61 4 62 3 63 2 64 1 65 10 66 11 67 12 68 13 69 22 71
REMARK SMILES IDX 23 72 24 73 25 74 26 75 27 76 28 77
REMARK H PARENT 31 4 36 13 59 34 20 49 16 55 8 60 13 70 27 78 27 79 28 80
REMARK H PARENT 28 81
REMARK Flexibility Score:  259.900
ROOT
ATOM      1  O   UNL     1       0.442   2.941  -1.470  1.00  0.00    -0.273 OA
ATOM      2  N   UNL     1       1.505   2.519   0.511  1.00  0.00    -0.343 N 
ATOM      3  C   UNL     1       0.617   2.208  -0.497  1.00  0.00     0.243 C 
ATOM      4  H   UNL     1       1.633   1.885   1.289  1.00  0.00     0.164 HD
ENDROOT
BRANCH   2   5
ATOM      5  C   UNL     1       2.193   3.805   0.522  1.00  0.00     0.171 C 
ATOM      6  C   UNL     1       3.617   5.253   2.592  1.00  0.00     0.214 C 
ATOM      7  N   UNL     1       2.203   5.486   2.406  1.00  0.00    -0.303 N 
ATOM      8  C   UNL     1       4.335   4.861   1.311  1.00  0.00     0.057 C 
ATOM      9  C   UNL     1       1.453   4.792   1.470  1.00  0.00     0.247 C 
ATOM     10  C   UNL     1       3.696   3.621   0.724  1.00  0.00     0.040 C 
ATOM     11  O   UNL     1       0.227   4.934   1.376  1.00  0.00    -0.272 OA
BRANCH   6  12
ATOM     12  O   UNL     1       3.762   4.247   3.567  1.00  0.00    -0.373 OA
ATOM     13  H   UNL     1       3.349   4.583   4.390  1.00  0.00     0.213 HD
ENDBRANCH   6  12
BRANCH   7  14
ATOM     14  C   UNL     1       1.543   6.401   3.361  1.00  0.00     0.177 C 
BRANCH  14  15
ATOM     15  C   UNL     1       1.009   7.712   2.753  1.00  0.00     0.038 C 
BRANCH  15  16
ATOM     16  C   UNL     1       1.560   9.064   3.256  1.00  0.00    -0.015 C 
ATOM     17  C   UNL     1       0.476  10.144   3.334  1.00  0.00     0.007 C 
ATOM     18  C   UNL     1       2.663   9.559   2.312  1.00  0.00     0.007 C 
ENDBRANCH  15  16
ENDBRANCH  14  15
BRANCH  14  19
ATOM     19  C   UNL     1       0.850   5.583   4.505  1.00  0.00     0.245 C 
ATOM     20  O   UNL     1       0.892   4.345   4.413  1.00  0.00    -0.272 OA
BRANCH  19  21
ATOM     21  N   UNL     1       0.114   6.157   5.526  1.00  0.00    -0.332 N 
ATOM     22  C   UNL     1      -1.293   6.511   5.456  1.00  0.00     0.147 C 
BRANCH  21  23
ATOM     23  C   UNL     1       0.814   6.454   6.807  1.00  0.00     0.178 C 
BRANCH  23  24
ATOM     24  C   UNL     1       1.760   7.671   6.759  1.00  0.00     0.070 C 
BRANCH  24  25
ATOM     25  C   UNL     1       3.244   7.389   6.756  1.00  0.00    -0.045 A 
ATOM     26  C   UNL     1       3.825   6.592   7.751  1.00  0.00     0.004 A 
ATOM     27  C   UNL     1       4.065   7.928   5.754  1.00  0.00     0.004 A 
ATOM     28  C   UNL     1       5.201   6.350   7.751  1.00  0.00     0.000 A 
ATOM     29  C   UNL     1       5.439   7.685   5.755  1.00  0.00     0.000 A 
ATOM     30  C   UNL     1       6.006   6.898   6.756  1.00  0.00     0.000 A 
ENDBRANCH  24  25
ENDBRANCH  23  24
BRANCH  23  31
ATOM     31  C   UNL     1      -0.128   6.409   8.034  1.00  0.00     0.243 C 
ATOM     32  O   UNL     1      -0.660   5.384   8.454  1.00  0.00    -0.273 OA
ATOM     33  N   UNL     1      -0.472   7.661   8.513  1.00  0.00    -0.341 N 
ATOM     34  H   UNL     1       0.000   8.478   8.119  1.00  0.00     0.164 HD
BRANCH  33  35
ATOM     35  C   UNL     1      -1.443   7.864   9.592  1.00  0.00     0.194 C 
BRANCH  35  36
ATOM     36  C   UNL     1      -2.869   8.242   9.100  1.00  0.00     0.017 C 
ATOM     37  C   UNL     1      -3.858   7.082   9.310  1.00  0.00     0.010 C 
ATOM     38  C   UNL     1      -2.915   8.621   7.615  1.00  0.00     0.010 C 
ENDBRANCH  35  36
BRANCH  35  39
ATOM     39  C   UNL     1      -0.928   8.844  10.684  1.00  0.00     0.329 C 
ATOM     40  O   UNL     1       0.253   8.978  10.983  1.00  0.00    -0.250 OA
BRANCH  39  41
ATOM     41  O   UNL     1      -1.932   9.605  11.215  1.00  0.00    -0.458 OA
BRANCH  41  42
ATOM     42  C   UNL     1      -2.148   9.477  12.641  1.00  0.00     0.205 CG0
ATOM     43  C   UNL     1      -3.243   8.432  12.842  1.00  0.00     0.056 C 
ATOM     44  G   UNL     1      -2.539  10.858  13.204  1.00  0.00     0.000 G0
ENDBRANCH  41  42
ENDBRANCH  39  41
ENDBRANCH  35  39
ENDBRANCH  33  35
ENDBRANCH  23  31
ENDBRANCH  21  23
ENDBRANCH  19  21
ENDBRANCH  14  19
ENDBRANCH   7  14
ENDBRANCH   2   5
BRANCH   3  45
ATOM     45  C   UNL     1      -0.121   0.873  -0.332  1.00  0.00     0.171 C 
BRANCH  45  46
ATOM     46  N   UNL     1      -0.860   0.676  -1.572  1.00  0.00    -0.342 N 
ATOM     47  C   UNL     1      -0.618  -0.382  -2.413  1.00  0.00     0.247 C 
ATOM     48  O   UNL     1       0.185  -1.277  -2.147  1.00  0.00    -0.273 OA
ATOM     49  H   UNL     1      -1.574   1.364  -1.803  1.00  0.00     0.164 HD
BRANCH  47  50
ATOM     50  C   UNL     1      -1.405  -0.357  -3.731  1.00  0.00     0.212 CG0
ATOM     51  G   UNL     1      -0.872  -1.502  -4.615  1.00  0.00     0.000 G0
BRANCH  50  52
ATOM     52  N   UNL     1      -2.805  -0.523  -3.352  1.00  0.00    -0.339 N 
ATOM     53  C   UNL     1      -3.774  -0.973  -4.217  1.00  0.00     0.243 C 
ATOM     54  O   UNL     1      -3.544  -1.220  -5.398  1.00  0.00    -0.273 OA
ATOM     55  H   UNL     1      -3.081  -0.229  -2.417  1.00  0.00     0.164 HD
BRANCH  53  56
ATOM     56  C   UNL     1      -5.194  -0.984  -3.617  1.00  0.00     0.182 C 
BRANCH  56  57
ATOM     57  N   UNL     1      -5.679  -2.356  -3.437  1.00  0.00    -0.344 N 
ATOM     58  C   UNL     1      -6.067  -2.845  -2.213  1.00  0.00     0.220 C 
ATOM     59  O   UNL     1      -5.967  -2.196  -1.178  1.00  0.00    -0.275 OA
ATOM     60  H   UNL     1      -5.872  -2.891  -4.280  1.00  0.00     0.164 HD
BRANCH  58  61
ATOM     61  C   UNL     1      -6.588  -4.269  -2.272  1.00  0.00     0.100 C 
BRANCH  61  62
ATOM     62  C   UNL     1      -6.992  -4.720  -3.676  1.00  0.00     0.010 C 
BRANCH  62  63
ATOM     63  C   UNL     1      -6.273  -5.985  -4.161  1.00  0.00     0.000 C 
BRANCH  63  64
ATOM     64  C   UNL     1      -4.751  -5.861  -4.210  1.00  0.00    -0.003 C 
ATOM     65  C   UNL     1      -4.156  -6.756  -5.287  1.00  0.00     0.004 C 
ENDBRANCH  63  64
ENDBRANCH  62  63
ENDBRANCH  61  62
ENDBRANCH  58  61
ENDBRANCH  56  57
BRANCH  56  66
ATOM     66  C   UNL     1      -6.159  -0.136  -4.445  1.00  0.00     0.157 C 
BRANCH  66  67
ATOM     67  C   UNL     1      -6.799   0.934  -3.607  1.00  0.00     0.305 C 
ATOM     68  O   UNL     1      -7.437   1.895  -4.008  1.00  0.00    -0.252 OA
BRANCH  67  69
ATOM     69  O   UNL     1      -6.646   0.710  -2.288  1.00  0.00    -0.481 OA
ATOM     70  H   UNL     1      -6.768   1.589  -1.870  1.00  0.00     0.296 HD
ENDBRANCH  67  69
ENDBRANCH  66  67
ENDBRANCH  56  66
ENDBRANCH  53  56
ENDBRANCH  50  52
ENDBRANCH  47  50
ENDBRANCH  45  46
BRANCH  45  71
ATOM     71  C   UNL     1      -1.057   0.927   0.881  1.00  0.00     0.037 C 
BRANCH  71  72
ATOM     72  C   UNL     1      -1.947   2.173   0.867  1.00  0.00     0.026 C 
BRANCH  72  73
ATOM     73  C   UNL     1      -3.126   2.030   1.827  1.00  0.00     0.146 C 
BRANCH  73  74
ATOM     74  N   UNL     1      -3.947   0.916   1.364  1.00  0.00    -0.254 NA
ATOM     75  C   UNL     1      -5.119   1.182   0.918  1.00  0.00     0.185 C 
ATOM     76  N   UNL     1      -5.899   0.178   0.483  1.00  0.00    -0.370 N 
ATOM     77  N   UNL     1      -5.731   2.374   0.807  1.00  0.00    -0.370 N 
ATOM     78  H   UNL     1      -5.516  -0.755   0.538  1.00  0.00     0.159 HD
ATOM     79  H   UNL     1      -6.871   0.291   0.257  1.00  0.00     0.159 HD
ATOM     80  H   UNL     1      -5.263   3.220   1.092  1.00  0.00     0.159 HD
ATOM     81  H   UNL     1      -6.613   2.473   0.332  1.00  0.00     0.159 HD
ENDBRANCH  73  74
ENDBRANCH  72  73
ENDBRANCH  71  72
ENDBRANCH  45  71
ENDBRANCH   3  45
TORSDOF 20
ENDMDL
MODEL 11
REMARK VINA RESULT:    -5.711     10.975     16.952
REMARK INTER + INTRA:         -22.515
REMARK INTER:                 -18.003
REMARK INTRA:                  -4.512
REMARK UNBOUND:                -6.121
REMARK SMILES CCCCCC(=O)N[C@H](CC(=O)O)C(=O)N[C@H]1C(=O)N[C@H](CCCN=C(N)N)C(=O)N[C@@H]2CC[C@H](O)N(C2=O)[C@@H](CC(C)C)C(=O)N(C)[C@@H](Cc2ccccc2)C(=O)N[C@H](C(C)C)C(=O)O[C@@H]1C
REMARK SMILES IDX 30 1 31 2 29 3 32 5 35 6 37 7 34 8 38 9 33 10 39 11 36 12
REMARK SMILES IDX 40 14 41 15 42 16 43 17 44 18 45 19 46 20 47 21 48 22 49 23
REMARK SMILES IDX 50 24 51 25 52 26 56 27 53 28 55 29 54 30 57 31 58 32 59 33
REMARK SMILES IDX 60 35 61 36 62 37 63 38 64 39 65 40 66 41 67 42 68 43 21 45
REMARK SMILES IDX 20 46 18 47 19 48 17 50 16 52 14 53 15 54 9 56 8 57 6 58
REMARK SMILES IDX 7 59 5 61 4 62 3 63 2 64 1 65 10 66 11 67 12 68 13 69 22 71
REMARK SMILES IDX 23 72 24 73 25 74 26 75 27 76 28 77
REMARK H PARENT 31 4 36 13 59 34 20 49 16 55 8 60 13 70 27 78 27 79 28 80
REMARK H PARENT 28 81
REMARK Flexibility Score:  259.900
ROOT
ATOM      1  O   UNL     1       0.114   3.501  -1.678  1.00  0.00    -0.273 OA
ATOM      2  N   UNL     1       0.975   3.022   0.386  1.00  0.00    -0.343 N 
ATOM      3  C   UNL     1       0.180   2.748  -0.706  1.00  0.00     0.243 C 
ATOM      4  H   UNL     1       1.016   2.372   1.161  1.00  0.00     0.164 HD
ENDROOT
BRANCH   2   5
ATOM      5  C   UNL     1       1.688   4.291   0.485  1.00  0.00     0.171 C 
ATOM      6  C   UNL     1       3.029   5.624   2.682  1.00  0.00     0.214 C 
ATOM      7  N   UNL     1       1.633   5.895   2.433  1.00  0.00    -0.303 N 
ATOM      8  C   UNL     1       3.807   5.267   1.425  1.00  0.00     0.057 C 
ATOM      9  C   UNL     1       0.919   5.255   1.433  1.00  0.00     0.247 C 
ATOM     10  C   UNL     1       3.175   4.065   0.756  1.00  0.00     0.040 C 
ATOM     11  O   UNL     1      -0.297   5.429   1.281  1.00  0.00    -0.272 OA
BRANCH   6  12
ATOM     12  O   UNL     1       3.104   4.577   3.622  1.00  0.00    -0.373 OA
ATOM     13  H   UNL     1       4.054   4.434   3.818  1.00  0.00     0.213 HD
ENDBRANCH   6  12
BRANCH   7  14
ATOM     14  C   UNL     1       0.942   6.786   3.390  1.00  0.00     0.177 C 
BRANCH  14  15
ATOM     15  C   UNL     1       0.471   8.133   2.809  1.00  0.00     0.038 C 
BRANCH  15  16
ATOM     16  C   UNL     1       1.353   9.389   2.988  1.00  0.00    -0.015 C 
ATOM     17  C   UNL     1       2.658   9.304   2.191  1.00  0.00     0.007 C 
ATOM     18  C   UNL     1       1.706   9.568   4.470  1.00  0.00     0.007 C 
ENDBRANCH  15  16
ENDBRANCH  14  15
BRANCH  14  19
ATOM     19  C   UNL     1       0.169   5.939   4.459  1.00  0.00     0.245 C 
ATOM     20  O   UNL     1       0.008   4.733   4.208  1.00  0.00    -0.272 OA
BRANCH  19  21
ATOM     21  N   UNL     1      -0.427   6.478   5.586  1.00  0.00    -0.332 N 
ATOM     22  C   UNL     1      -1.599   7.335   5.591  1.00  0.00     0.147 C 
BRANCH  21  23
ATOM     23  C   UNL     1       0.181   6.169   6.909  1.00  0.00     0.178 C 
BRANCH  23  24
ATOM     24  C   UNL     1       1.464   5.314   6.847  1.00  0.00     0.070 C 
BRANCH  24  25
ATOM     25  C   UNL     1       2.778   6.028   7.068  1.00  0.00    -0.045 A 
ATOM     26  C   UNL     1       3.320   6.855   6.076  1.00  0.00     0.004 A 
ATOM     27  C   UNL     1       3.477   5.866   8.273  1.00  0.00     0.004 A 
ATOM     28  C   UNL     1       4.543   7.497   6.281  1.00  0.00     0.000 A 
ATOM     29  C   UNL     1       4.699   6.509   8.477  1.00  0.00     0.000 A 
ATOM     30  C   UNL     1       5.232   7.322   7.479  1.00  0.00     0.000 A 
ENDBRANCH  24  25
ENDBRANCH  23  24
BRANCH  23  31
ATOM     31  C   UNL     1       0.266   7.404   7.838  1.00  0.00     0.243 C 
ATOM     32  O   UNL     1       0.830   8.453   7.536  1.00  0.00    -0.273 OA
ATOM     33  N   UNL     1      -0.192   7.163   9.122  1.00  0.00    -0.341 N 
ATOM     34  H   UNL     1      -0.648   6.268   9.315  1.00  0.00     0.164 HD
BRANCH  33  35
ATOM     35  C   UNL     1      -0.099   8.150  10.201  1.00  0.00     0.194 C 
BRANCH  35  36
ATOM     36  C   UNL     1       0.654   7.641  11.463  1.00  0.00     0.017 C 
ATOM     37  C   UNL     1       1.608   8.715  12.016  1.00  0.00     0.010 C 
ATOM     38  C   UNL     1       1.485   6.379  11.203  1.00  0.00     0.010 C 
ENDBRANCH  35  36
BRANCH  35  39
ATOM     39  C   UNL     1      -1.475   8.776  10.560  1.00  0.00     0.329 C 
ATOM     40  O   UNL     1      -2.119   9.496   9.806  1.00  0.00    -0.250 OA
BRANCH  39  41
ATOM     41  O   UNL     1      -1.932   8.363  11.781  1.00  0.00    -0.458 OA
BRANCH  41  42
ATOM     42  C   UNL     1      -2.543   9.377  12.613  1.00  0.00     0.205 CG0
ATOM     43  C   UNL     1      -1.429  10.308  13.087  1.00  0.00     0.056 C 
ATOM     44  G   UNL     1      -3.268   8.683  13.783  1.00  0.00     0.000 G0
ENDBRANCH  41  42
ENDBRANCH  39  41
ENDBRANCH  35  39
ENDBRANCH  33  35
ENDBRANCH  23  31
ENDBRANCH  21  23
ENDBRANCH  19  21
ENDBRANCH  14  19
ENDBRANCH   7  14
ENDBRANCH   2   5
BRANCH   3  45
ATOM     45  C   UNL     1      -0.600   1.428  -0.636  1.00  0.00     0.171 C 
BRANCH  45  46
ATOM     46  N   UNL     1      -1.126   1.210  -1.976  1.00  0.00    -0.342 N 
ATOM     47  C   UNL     1      -0.579   0.296  -2.842  1.00  0.00     0.247 C 
ATOM     48  O   UNL     1       0.345  -0.453  -2.527  1.00  0.00    -0.273 OA
ATOM     49  H   UNL     1      -1.928   1.770  -2.259  1.00  0.00     0.164 HD
BRANCH  47  50
ATOM     50  C   UNL     1      -1.186   0.293  -4.253  1.00  0.00     0.212 CG0
ATOM     51  G   UNL     1      -0.215  -0.466  -5.178  1.00  0.00     0.000 G0
BRANCH  50  52
ATOM     52  N   UNL     1      -2.484  -0.362  -4.116  1.00  0.00    -0.339 N 
ATOM     53  C   UNL     1      -3.493  -0.239  -5.041  1.00  0.00     0.243 C 
ATOM     54  O   UNL     1      -3.399   0.478  -6.033  1.00  0.00    -0.273 OA
ATOM     55  H   UNL     1      -2.664  -0.882  -3.260  1.00  0.00     0.164 HD
BRANCH  53  56
ATOM     56  C   UNL     1      -4.801  -0.951  -4.640  1.00  0.00     0.182 C 
BRANCH  56  57
ATOM     57  N   UNL     1      -4.977  -2.195  -5.396  1.00  0.00    -0.344 N 
ATOM     58  C   UNL     1      -4.227  -3.319  -5.149  1.00  0.00     0.220 C 
ATOM     59  O   UNL     1      -3.311  -3.339  -4.334  1.00  0.00    -0.275 OA
ATOM     60  H   UNL     1      -5.788  -2.252  -6.006  1.00  0.00     0.164 HD
BRANCH  58  61
ATOM     61  C   UNL     1      -4.619  -4.505  -6.010  1.00  0.00     0.100 C 
BRANCH  61  62
ATOM     62  C   UNL     1      -4.574  -5.844  -5.272  1.00  0.00     0.010 C 
BRANCH  62  63
ATOM     63  C   UNL     1      -5.598  -5.969  -4.137  1.00  0.00     0.000 C 
BRANCH  63  64
ATOM     64  C   UNL     1      -4.990  -5.923  -2.737  1.00  0.00    -0.003 C 
ATOM     65  C   UNL     1      -5.939  -5.274  -1.740  1.00  0.00     0.004 C 
ENDBRANCH  63  64
ENDBRANCH  62  63
ENDBRANCH  61  62
ENDBRANCH  58  61
ENDBRANCH  56  57
BRANCH  56  66
ATOM     66  C   UNL     1      -6.007  -0.022  -4.770  1.00  0.00     0.157 C 
BRANCH  66  67
ATOM     67  C   UNL     1      -6.423   0.520  -3.433  1.00  0.00     0.305 C 
ATOM     68  O   UNL     1      -6.684   1.683  -3.162  1.00  0.00    -0.252 OA
BRANCH  67  69
ATOM     69  O   UNL     1      -6.541  -0.446  -2.503  1.00  0.00    -0.481 OA
ATOM     70  H   UNL     1      -5.927  -1.152  -2.796  1.00  0.00     0.296 HD
ENDBRANCH  67  69
ENDBRANCH  66  67
ENDBRANCH  56  66
ENDBRANCH  53  56
ENDBRANCH  50  52
ENDBRANCH  47  50
ENDBRANCH  45  46
BRANCH  45  71
ATOM     71  C   UNL     1      -1.722   1.527   0.403  1.00  0.00     0.037 C 
BRANCH  71  72
ATOM     72  C   UNL     1      -2.704   2.657   0.085  1.00  0.00     0.026 C 
BRANCH  72  73
ATOM     73  C   UNL     1      -3.431   3.138   1.339  1.00  0.00     0.146 C 
BRANCH  73  74
ATOM     74  N   UNL     1      -4.298   4.248   0.955  1.00  0.00    -0.254 NA
ATOM     75  C   UNL     1      -3.988   5.421   1.371  1.00  0.00     0.185 C 
ATOM     76  N   UNL     1      -4.765   6.463   1.033  1.00  0.00    -0.370 N 
ATOM     77  N   UNL     1      -2.949   5.800   2.135  1.00  0.00    -0.370 N 
ATOM     78  H   UNL     1      -5.575   6.264   0.464  1.00  0.00     0.159 HD
ATOM     79  H   UNL     1      -4.670   7.378   1.436  1.00  0.00     0.159 HD
ATOM     80  H   UNL     1      -2.277   5.121   2.461  1.00  0.00     0.159 HD
ATOM     81  H   UNL     1      -2.743   6.771   2.303  1.00  0.00     0.159 HD
ENDBRANCH  73  74
ENDBRANCH  72  73
ENDBRANCH  71  72
ENDBRANCH  45  71
ENDBRANCH   3  45
TORSDOF 20
ENDMDL
MODEL 12
REMARK VINA RESULT:    -5.605     12.325     17.070
REMARK INTER + INTRA:         -22.212
REMARK INTER:                 -13.847
REMARK INTRA:                  -8.365
REMARK UNBOUND:                -6.121
REMARK SMILES CCCCCC(=O)N[C@H](CC(=O)O)C(=O)N[C@H]1C(=O)N[C@H](CCCN=C(N)N)C(=O)N[C@@H]2CC[C@H](O)N(C2=O)[C@@H](CC(C)C)C(=O)N(C)[C@@H](Cc2ccccc2)C(=O)N[C@H](C(C)C)C(=O)O[C@@H]1C
REMARK SMILES IDX 30 1 31 2 29 3 32 5 35 6 37 7 34 8 38 9 33 10 39 11 36 12
REMARK SMILES IDX 40 14 41 15 42 16 43 17 44 18 45 19 46 20 47 21 48 22 49 23
REMARK SMILES IDX 50 24 51 25 52 26 56 27 53 28 55 29 54 30 57 31 58 32 59 33
REMARK SMILES IDX 60 35 61 36 62 37 63 38 64 39 65 40 66 41 67 42 68 43 21 45
REMARK SMILES IDX 20 46 18 47 19 48 17 50 16 52 14 53 15 54 9 56 8 57 6 58
REMARK SMILES IDX 7 59 5 61 4 62 3 63 2 64 1 65 10 66 11 67 12 68 13 69 22 71
REMARK SMILES IDX 23 72 24 73 25 74 26 75 27 76 28 77
REMARK H PARENT 31 4 36 13 59 34 20 49 16 55 8 60 13 70 27 78 27 79 28 80
REMARK H PARENT 28 81
REMARK Flexibility Score:  259.900
ROOT
ATOM      1  O   UNL     1       2.110   7.816   0.958  1.00  0.00    -0.273 OA
ATOM      2  N   UNL     1       1.076   5.910   1.688  1.00  0.00    -0.343 N 
ATOM      3  C   UNL     1       1.364   7.256   1.763  1.00  0.00     0.243 C 
ATOM      4  H   UNL     1       0.446   5.487   2.358  1.00  0.00     0.164 HD
ENDROOT
BRANCH   2   5
ATOM      5  C   UNL     1       1.747   5.061   0.710  1.00  0.00     0.171 C 
ATOM      6  C   UNL     1       2.422   2.242   0.691  1.00  0.00     0.214 C 
ATOM      7  N   UNL     1       3.375   3.197   1.207  1.00  0.00    -0.303 N 
ATOM      8  C   UNL     1       1.525   2.813  -0.395  1.00  0.00     0.057 C 
ATOM      9  C   UNL     1       3.097   4.551   1.292  1.00  0.00     0.247 C 
ATOM     10  C   UNL     1       0.786   4.023   0.134  1.00  0.00     0.040 C 
ATOM     11  O   UNL     1       3.884   5.351   1.815  1.00  0.00    -0.272 OA
BRANCH   6  12
ATOM     12  O   UNL     1       1.649   1.777   1.774  1.00  0.00    -0.373 OA
ATOM     13  H   UNL     1       1.116   1.023   1.443  1.00  0.00     0.213 HD
ENDBRANCH   6  12
BRANCH   7  14
ATOM     14  C   UNL     1       4.622   2.654   1.786  1.00  0.00     0.177 C 
BRANCH  14  15
ATOM     15  C   UNL     1       5.914   3.034   1.037  1.00  0.00     0.038 C 
BRANCH  15  16
ATOM     16  C   UNL     1       6.314   2.253  -0.235  1.00  0.00    -0.015 C 
ATOM     17  C   UNL     1       6.019   0.755  -0.117  1.00  0.00     0.007 C 
ATOM     18  C   UNL     1       7.814   2.429  -0.501  1.00  0.00     0.007 C 
ENDBRANCH  15  16
ENDBRANCH  14  15
BRANCH  14  19
ATOM     19  C   UNL     1       4.483   2.515   3.342  1.00  0.00     0.245 C 
ATOM     20  O   UNL     1       3.956   1.472   3.765  1.00  0.00    -0.272 OA
BRANCH  19  21
ATOM     21  N   UNL     1       4.807   3.518   4.238  1.00  0.00    -0.332 N 
ATOM     22  C   UNL     1       5.947   4.411   4.127  1.00  0.00     0.147 C 
BRANCH  21  23
ATOM     23  C   UNL     1       3.926   3.702   5.424  1.00  0.00     0.178 C 
BRANCH  23  24
ATOM     24  C   UNL     1       4.615   4.345   6.646  1.00  0.00     0.070 C 
BRANCH  24  25
ATOM     25  C   UNL     1       3.726   4.780   7.787  1.00  0.00    -0.045 A 
ATOM     26  C   UNL     1       3.456   6.137   8.009  1.00  0.00     0.004 A 
ATOM     27  C   UNL     1       3.160   3.827   8.647  1.00  0.00     0.004 A 
ATOM     28  C   UNL     1       2.647   6.532   9.077  1.00  0.00     0.000 A 
ATOM     29  C   UNL     1       2.351   4.223   9.712  1.00  0.00     0.000 A 
ATOM     30  C   UNL     1       2.097   5.576   9.928  1.00  0.00     0.000 A 
ENDBRANCH  24  25
ENDBRANCH  23  24
BRANCH  23  31
ATOM     31  C   UNL     1       2.546   4.301   5.065  1.00  0.00     0.243 C 
ATOM     32  O   UNL     1       2.389   5.399   4.537  1.00  0.00    -0.273 OA
ATOM     33  N   UNL     1       1.480   3.569   5.560  1.00  0.00    -0.341 N 
ATOM     34  H   UNL     1       1.673   2.664   5.996  1.00  0.00     0.164 HD
BRANCH  33  35
ATOM     35  C   UNL     1       0.086   4.008   5.444  1.00  0.00     0.194 C 
BRANCH  35  36
ATOM     36  C   UNL     1      -0.813   3.591   6.642  1.00  0.00     0.017 C 
ATOM     37  C   UNL     1      -1.075   4.778   7.585  1.00  0.00     0.010 C 
ATOM     38  C   UNL     1      -0.211   2.459   7.484  1.00  0.00     0.010 C 
ENDBRANCH  35  36
BRANCH  35  39
ATOM     39  C   UNL     1      -0.550   3.625   4.079  1.00  0.00     0.329 C 
ATOM     40  O   UNL     1      -0.544   2.491   3.614  1.00  0.00    -0.250 OA
BRANCH  39  41
ATOM     41  O   UNL     1      -1.196   4.677   3.492  1.00  0.00    -0.458 OA
BRANCH  41  42
ATOM     42  C   UNL     1      -2.521   4.976   3.993  1.00  0.00     0.205 CG0
ATOM     43  C   UNL     1      -3.519   4.238   3.104  1.00  0.00     0.056 C 
ATOM     44  G   UNL     1      -2.724   6.504   3.964  1.00  0.00     0.000 G0
ENDBRANCH  41  42
ENDBRANCH  39  41
ENDBRANCH  35  39
ENDBRANCH  33  35
ENDBRANCH  23  31
ENDBRANCH  21  23
ENDBRANCH  19  21
ENDBRANCH  14  19
ENDBRANCH   7  14
ENDBRANCH   2   5
BRANCH   3  45
ATOM     45  C   UNL     1       0.673   8.013   2.905  1.00  0.00     0.171 C 
BRANCH  45  46
ATOM     46  N   UNL     1      -0.693   7.508   2.942  1.00  0.00    -0.342 N 
ATOM     47  C   UNL     1      -1.324   7.178   4.116  1.00  0.00     0.247 C 
ATOM     48  O   UNL     1      -0.811   7.352   5.222  1.00  0.00    -0.273 OA
ATOM     49  H   UNL     1      -1.175   7.401   2.052  1.00  0.00     0.164 HD
BRANCH  47  50
ATOM     50  C   UNL     1      -2.713   6.545   3.951  1.00  0.00     0.212 CG0
ATOM     51  G   UNL     1      -2.541   5.015   4.025  1.00  0.00     0.000 G0
BRANCH  50  52
ATOM     52  N   UNL     1      -3.520   7.088   5.040  1.00  0.00    -0.339 N 
ATOM     53  C   UNL     1      -4.421   8.112   4.875  1.00  0.00     0.243 C 
ATOM     54  O   UNL     1      -4.579   8.689   3.803  1.00  0.00    -0.273 OA
ATOM     55  H   UNL     1      -3.354   6.727   5.978  1.00  0.00     0.164 HD
BRANCH  53  56
ATOM     56  C   UNL     1      -5.092   8.575   6.185  1.00  0.00     0.182 C 
BRANCH  56  57
ATOM     57  N   UNL     1      -4.165   8.470   7.317  1.00  0.00    -0.344 N 
ATOM     58  C   UNL     1      -3.925   9.519   8.170  1.00  0.00     0.220 C 
ATOM     59  O   UNL     1      -4.409  10.633   8.005  1.00  0.00    -0.275 OA
ATOM     60  H   UNL     1      -3.824   7.541   7.548  1.00  0.00     0.164 HD
BRANCH  58  61
ATOM     61  C   UNL     1      -2.978   9.167   9.303  1.00  0.00     0.100 C 
BRANCH  61  62
ATOM     62  C   UNL     1      -2.185   7.882   9.066  1.00  0.00     0.010 C 
BRANCH  62  63
ATOM     63  C   UNL     1      -0.821   7.848   9.768  1.00  0.00     0.000 C 
BRANCH  63  64
ATOM     64  C   UNL     1      -0.057   9.171   9.717  1.00  0.00    -0.003 C 
ATOM     65  C   UNL     1       0.480   9.554  11.088  1.00  0.00     0.004 C 
ENDBRANCH  63  64
ENDBRANCH  62  63
ENDBRANCH  61  62
ENDBRANCH  58  61
ENDBRANCH  56  57
BRANCH  56  66
ATOM     66  C   UNL     1      -6.399   7.826   6.439  1.00  0.00     0.157 C 
BRANCH  66  67
ATOM     67  C   UNL     1      -7.586   8.730   6.264  1.00  0.00     0.305 C 
ATOM     68  O   UNL     1      -8.316   9.159   7.144  1.00  0.00    -0.252 OA
BRANCH  67  69
ATOM     69  O   UNL     1      -7.766   9.095   4.981  1.00  0.00    -0.481 OA
ATOM     70  H   UNL     1      -8.307   9.912   5.026  1.00  0.00     0.296 HD
ENDBRANCH  67  69
ENDBRANCH  66  67
ENDBRANCH  56  66
ENDBRANCH  53  56
ENDBRANCH  50  52
ENDBRANCH  47  50
ENDBRANCH  45  46
BRANCH  45  71
ATOM     71  C   UNL     1       0.710   9.523   2.644  1.00  0.00     0.037 C 
BRANCH  71  72
ATOM     72  C   UNL     1       0.890  10.326   3.934  1.00  0.00     0.026 C 
BRANCH  72  73
ATOM     73  C   UNL     1       2.125   9.872   4.709  1.00  0.00     0.146 C 
BRANCH  73  74
ATOM     74  N   UNL     1       3.170   9.558   3.740  1.00  0.00    -0.254 NA
ATOM     75  C   UNL     1       3.976   8.600   4.018  1.00  0.00     0.185 C 
ATOM     76  N   UNL     1       4.947   8.286   3.145  1.00  0.00    -0.370 N 
ATOM     77  N   UNL     1       4.008   7.811   5.106  1.00  0.00    -0.370 N 
ATOM     78  H   UNL     1       4.999   8.837   2.300  1.00  0.00     0.159 HD
ATOM     79  H   UNL     1       5.698   7.652   3.356  1.00  0.00     0.159 HD
ATOM     80  H   UNL     1       3.333   7.930   5.846  1.00  0.00     0.159 HD
ATOM     81  H   UNL     1       4.619   7.013   5.162  1.00  0.00     0.159 HD
ENDBRANCH  73  74
ENDBRANCH  72  73
ENDBRANCH  71  72
ENDBRANCH  45  71
ENDBRANCH   3  45
TORSDOF 20
ENDMDL
MODEL 13
REMARK VINA RESULT:    -5.555     11.660     15.192
REMARK INTER + INTRA:         -22.069
REMARK INTER:                 -16.716
REMARK INTRA:                  -5.352
REMARK UNBOUND:                -6.121
REMARK SMILES CCCCCC(=O)N[C@H](CC(=O)O)C(=O)N[C@H]1C(=O)N[C@H](CCCN=C(N)N)C(=O)N[C@@H]2CC[C@H](O)N(C2=O)[C@@H](CC(C)C)C(=O)N(C)[C@@H](Cc2ccccc2)C(=O)N[C@H](C(C)C)C(=O)O[C@@H]1C
REMARK SMILES IDX 30 1 31 2 29 3 32 5 35 6 37 7 34 8 38 9 33 10 39 11 36 12
REMARK SMILES IDX 40 14 41 15 42 16 43 17 44 18 45 19 46 20 47 21 48 22 49 23
REMARK SMILES IDX 50 24 51 25 52 26 56 27 53 28 55 29 54 30 57 31 58 32 59 33
REMARK SMILES IDX 60 35 61 36 62 37 63 38 64 39 65 40 66 41 67 42 68 43 21 45
REMARK SMILES IDX 20 46 18 47 19 48 17 50 16 52 14 53 15 54 9 56 8 57 6 58
REMARK SMILES IDX 7 59 5 61 4 62 3 63 2 64 1 65 10 66 11 67 12 68 13 69 22 71
REMARK SMILES IDX 23 72 24 73 25 74 26 75 27 76 28 77
REMARK H PARENT 31 4 36 13 59 34 20 49 16 55 8 60 13 70 27 78 27 79 28 80
REMARK H PARENT 28 81
REMARK Flexibility Score:  259.900
ROOT
ATOM      1  O   UNL     1      -4.917   2.661   3.328  1.00  0.00    -0.273 OA
ATOM      2  N   UNL     1      -3.514   3.730   1.872  1.00  0.00    -0.343 N 
ATOM      3  C   UNL     1      -4.627   2.974   2.173  1.00  0.00     0.243 C 
ATOM      4  H   UNL     1      -3.314   3.981   0.912  1.00  0.00     0.164 HD
ENDROOT
BRANCH   2   5
ATOM      5  C   UNL     1      -2.559   4.093   2.914  1.00  0.00     0.171 C 
ATOM      6  C   UNL     1      -0.257   5.854   2.941  1.00  0.00     0.214 C 
ATOM      7  N   UNL     1      -0.079   4.458   2.616  1.00  0.00    -0.303 N 
ATOM      8  C   UNL     1      -1.416   6.108   3.892  1.00  0.00     0.057 C 
ATOM      9  C   UNL     1      -1.142   3.574   2.535  1.00  0.00     0.247 C 
ATOM     10  C   UNL     1      -2.697   5.566   3.294  1.00  0.00     0.040 C 
ATOM     11  O   UNL     1      -0.993   2.400   2.172  1.00  0.00    -0.272 OA
BRANCH   6  12
ATOM     12  O   UNL     1      -0.447   6.557   1.735  1.00  0.00    -0.373 OA
ATOM     13  H   UNL     1      -1.161   6.097   1.244  1.00  0.00     0.213 HD
ENDBRANCH   6  12
BRANCH   7  14
ATOM     14  C   UNL     1       1.280   4.029   2.223  1.00  0.00     0.177 C 
BRANCH  14  15
ATOM     15  C   UNL     1       1.797   4.622   0.898  1.00  0.00     0.038 C 
BRANCH  15  16
ATOM     16  C   UNL     1       1.601   3.834  -0.416  1.00  0.00    -0.015 C 
ATOM     17  C   UNL     1       0.185   3.982  -0.981  1.00  0.00     0.007 C 
ATOM     18  C   UNL     1       1.867   2.343  -0.171  1.00  0.00     0.007 C 
ENDBRANCH  15  16
ENDBRANCH  14  15
BRANCH  14  19
ATOM     19  C   UNL     1       2.152   3.755   3.496  1.00  0.00     0.245 C 
ATOM     20  O   UNL     1       1.758   2.859   4.262  1.00  0.00    -0.272 OA
BRANCH  19  21
ATOM     21  N   UNL     1       3.249   4.516   3.858  1.00  0.00    -0.332 N 
ATOM     22  C   UNL     1       3.264   5.962   3.990  1.00  0.00     0.147 C 
BRANCH  21  23
ATOM     23  C   UNL     1       4.530   3.808   4.128  1.00  0.00     0.178 C 
BRANCH  23  24
ATOM     24  C   UNL     1       5.586   3.935   3.010  1.00  0.00     0.070 C 
BRANCH  24  25
ATOM     25  C   UNL     1       5.535   2.915   1.896  1.00  0.00    -0.045 A 
ATOM     26  C   UNL     1       6.004   3.229   0.614  1.00  0.00     0.004 A 
ATOM     27  C   UNL     1       5.010   1.636   2.132  1.00  0.00     0.004 A 
ATOM     28  C   UNL     1       5.938   2.287  -0.414  1.00  0.00     0.000 A 
ATOM     29  C   UNL     1       4.945   0.695   1.103  1.00  0.00     0.000 A 
ATOM     30  C   UNL     1       5.407   1.023  -0.170  1.00  0.00     0.000 A 
ENDBRANCH  24  25
ENDBRANCH  23  24
BRANCH  23  31
ATOM     31  C   UNL     1       5.065   4.050   5.560  1.00  0.00     0.243 C 
ATOM     32  O   UNL     1       4.473   3.710   6.581  1.00  0.00    -0.273 OA
ATOM     33  N   UNL     1       6.191   4.855   5.601  1.00  0.00    -0.341 N 
ATOM     34  H   UNL     1       6.637   5.111   4.717  1.00  0.00     0.164 HD
BRANCH  33  35
ATOM     35  C   UNL     1       6.799   5.314   6.853  1.00  0.00     0.194 C 
BRANCH  35  36
ATOM     36  C   UNL     1       6.913   6.859   6.974  1.00  0.00     0.017 C 
ATOM     37  C   UNL     1       6.855   7.310   8.444  1.00  0.00     0.010 C 
ATOM     38  C   UNL     1       5.806   7.608   6.221  1.00  0.00     0.010 C 
ENDBRANCH  35  36
BRANCH  35  39
ATOM     39  C   UNL     1       8.151   4.607   7.154  1.00  0.00     0.329 C 
ATOM     40  O   UNL     1       8.254   3.425   7.459  1.00  0.00    -0.250 OA
BRANCH  39  41
ATOM     41  O   UNL     1       9.224   5.431   6.956  1.00  0.00    -0.458 OA
BRANCH  41  42
ATOM     42  C   UNL     1      10.487   4.982   7.503  1.00  0.00     0.205 CG0
ATOM     43  C   UNL     1      10.753   5.803   8.764  1.00  0.00     0.056 C 
ATOM     44  G   UNL     1      11.581   5.172   6.434  1.00  0.00     0.000 G0
ENDBRANCH  41  42
ENDBRANCH  39  41
ENDBRANCH  35  39
ENDBRANCH  33  35
ENDBRANCH  23  31
ENDBRANCH  21  23
ENDBRANCH  19  21
ENDBRANCH  14  19
ENDBRANCH   7  14
ENDBRANCH   2   5
BRANCH   3  45
ATOM     45  C   UNL     1      -5.490   2.569   0.971  1.00  0.00     0.171 C 
BRANCH  45  46
ATOM     46  N   UNL     1      -6.846   2.434   1.487  1.00  0.00    -0.342 N 
ATOM     47  C   UNL     1      -7.728   3.484   1.522  1.00  0.00     0.247 C 
ATOM     48  O   UNL     1      -7.466   4.593   1.055  1.00  0.00    -0.273 OA
ATOM     49  H   UNL     1      -7.123   1.517   1.832  1.00  0.00     0.164 HD
BRANCH  47  50
ATOM     50  C   UNL     1      -9.066   3.186   2.213  1.00  0.00     0.212 CG0
ATOM     51  G   UNL     1     -10.133   3.019   1.114  1.00  0.00     0.000 G0
BRANCH  50  52
ATOM     52  N   UNL     1      -8.841   1.970   2.989  1.00  0.00    -0.339 N 
ATOM     53  C   UNL     1      -9.265   1.811   4.286  1.00  0.00     0.243 C 
ATOM     54  O   UNL     1      -9.822   2.707   4.914  1.00  0.00    -0.273 OA
ATOM     55  H   UNL     1      -8.286   1.232   2.561  1.00  0.00     0.164 HD
BRANCH  53  56
ATOM     56  C   UNL     1      -8.837   0.476   4.928  1.00  0.00     0.182 C 
BRANCH  56  57
ATOM     57  N   UNL     1      -7.458   0.547   5.422  1.00  0.00    -0.344 N 
ATOM     58  C   UNL     1      -7.056  -0.084   6.574  1.00  0.00     0.220 C 
ATOM     59  O   UNL     1      -7.833  -0.687   7.306  1.00  0.00    -0.275 OA
ATOM     60  H   UNL     1      -6.765   0.948   4.796  1.00  0.00     0.164 HD
BRANCH  58  61
ATOM     61  C   UNL     1      -5.575   0.077   6.862  1.00  0.00     0.100 C 
BRANCH  61  62
ATOM     62  C   UNL     1      -4.790  -1.234   6.805  1.00  0.00     0.010 C 
BRANCH  62  63
ATOM     63  C   UNL     1      -5.621  -2.443   6.354  1.00  0.00     0.000 C 
BRANCH  63  64
ATOM     64  C   UNL     1      -5.680  -2.633   4.840  1.00  0.00    -0.003 C 
ATOM     65  C   UNL     1      -6.648  -3.744   4.457  1.00  0.00     0.004 C 
ENDBRANCH  63  64
ENDBRANCH  62  63
ENDBRANCH  61  62
ENDBRANCH  58  61
ENDBRANCH  56  57
BRANCH  56  66
ATOM     66  C   UNL     1      -9.047  -0.697   3.971  1.00  0.00     0.157 C 
BRANCH  66  67
ATOM     67  C   UNL     1     -10.203  -1.552   4.404  1.00  0.00     0.305 C 
ATOM     68  O   UNL     1     -11.268  -1.692   3.823  1.00  0.00    -0.252 OA
BRANCH  67  69
ATOM     69  O   UNL     1      -9.939  -2.235   5.534  1.00  0.00    -0.481 OA
ATOM     70  H   UNL     1      -9.953  -3.178   5.265  1.00  0.00     0.296 HD
ENDBRANCH  67  69
ENDBRANCH  66  67
ENDBRANCH  56  66
ENDBRANCH  53  56
ENDBRANCH  50  52
ENDBRANCH  47  50
ENDBRANCH  45  46
BRANCH  45  71
ATOM     71  C   UNL     1      -4.981   1.255   0.367  1.00  0.00     0.037 C 
BRANCH  71  72
ATOM     72  C   UNL     1      -5.038   1.264  -1.162  1.00  0.00     0.026 C 
BRANCH  72  73
ATOM     73  C   UNL     1      -5.075  -0.154  -1.730  1.00  0.00     0.146 C 
BRANCH  73  74
ATOM     74  N   UNL     1      -5.840  -0.985  -0.806  1.00  0.00    -0.254 NA
ATOM     75  C   UNL     1      -6.315  -2.091  -1.249  1.00  0.00     0.185 C 
ATOM     76  N   UNL     1      -7.023  -2.878  -0.423  1.00  0.00    -0.370 N 
ATOM     77  N   UNL     1      -6.212  -2.622  -2.479  1.00  0.00    -0.370 N 
ATOM     78  H   UNL     1      -7.155  -2.548   0.523  1.00  0.00     0.159 HD
ATOM     79  H   UNL     1      -7.544  -3.680  -0.733  1.00  0.00     0.159 HD
ATOM     80  H   UNL     1      -5.703  -2.142  -3.206  1.00  0.00     0.159 HD
ATOM     81  H   UNL     1      -6.530  -3.556  -2.680  1.00  0.00     0.159 HD
ENDBRANCH  73  74
ENDBRANCH  72  73
ENDBRANCH  71  72
ENDBRANCH  45  71
ENDBRANCH   3  45
TORSDOF 20
ENDMDL
MODEL 14
REMARK VINA RESULT:    -5.503      2.500      3.903
REMARK INTER + INTRA:         -21.918
REMARK INTER:                 -18.530
REMARK INTRA:                  -3.389
REMARK UNBOUND:                -6.121
REMARK SMILES CCCCCC(=O)N[C@H](CC(=O)O)C(=O)N[C@H]1C(=O)N[C@H](CCCN=C(N)N)C(=O)N[C@@H]2CC[C@H](O)N(C2=O)[C@@H](CC(C)C)C(=O)N(C)[C@@H](Cc2ccccc2)C(=O)N[C@H](C(C)C)C(=O)O[C@@H]1C
REMARK SMILES IDX 30 1 31 2 29 3 32 5 35 6 37 7 34 8 38 9 33 10 39 11 36 12
REMARK SMILES IDX 40 14 41 15 42 16 43 17 44 18 45 19 46 20 47 21 48 22 49 23
REMARK SMILES IDX 50 24 51 25 52 26 56 27 53 28 55 29 54 30 57 31 58 32 59 33
REMARK SMILES IDX 60 35 61 36 62 37 63 38 64 39 65 40 66 41 67 42 68 43 21 45
REMARK SMILES IDX 20 46 18 47 19 48 17 50 16 52 14 53 15 54 9 56 8 57 6 58
REMARK SMILES IDX 7 59 5 61 4 62 3 63 2 64 1 65 10 66 11 67 12 68 13 69 22 71
REMARK SMILES IDX 23 72 24 73 25 74 26 75 27 76 28 77
REMARK H PARENT 31 4 36 13 59 34 20 49 16 55 8 60 13 70 27 78 27 79 28 80
REMARK H PARENT 28 81
REMARK Flexibility Score:  259.900
ROOT
ATOM      1  O   UNL     1      -0.533  -0.677  -7.558  1.00  0.00    -0.273 OA
ATOM      2  N   UNL     1       1.074   0.941  -7.388  1.00  0.00    -0.343 N 
ATOM      3  C   UNL     1      -0.046   0.271  -6.942  1.00  0.00     0.243 C 
ATOM      4  H   UNL     1       1.455   1.708  -6.847  1.00  0.00     0.164 HD
ENDROOT
BRANCH   2   5
ATOM      5  C   UNL     1       1.663   0.624  -8.684  1.00  0.00     0.171 C 
ATOM      6  C   UNL     1       4.289   1.095  -9.816  1.00  0.00     0.214 C 
ATOM      7  N   UNL     1       3.247   2.076 -10.009  1.00  0.00    -0.303 N 
ATOM      8  C   UNL     1       3.763  -0.325  -9.689  1.00  0.00     0.057 C 
ATOM      9  C   UNL     1       1.985   1.938  -9.452  1.00  0.00     0.247 C 
ATOM     10  C   UNL     1       2.781  -0.407  -8.541  1.00  0.00     0.040 C 
ATOM     11  O   UNL     1       1.125   2.823  -9.549  1.00  0.00    -0.272 OA
BRANCH   6  12
ATOM     12  O   UNL     1       5.014   1.457  -8.664  1.00  0.00    -0.373 OA
ATOM     13  H   UNL     1       4.369   1.518  -7.926  1.00  0.00     0.213 HD
ENDBRANCH   6  12
BRANCH   7  14
ATOM     14  C   UNL     1       3.620   3.323 -10.709  1.00  0.00     0.177 C 
BRANCH  14  15
ATOM     15  C   UNL     1       2.539   4.422 -10.715  1.00  0.00     0.038 C 
BRANCH  15  16
ATOM     16  C   UNL     1       1.976   4.928 -12.061  1.00  0.00    -0.015 C 
ATOM     17  C   UNL     1       0.452   5.076 -12.038  1.00  0.00     0.007 C 
ATOM     18  C   UNL     1       2.346   3.946 -13.180  1.00  0.00     0.007 C 
ENDBRANCH  15  16
ENDBRANCH  14  15
BRANCH  14  19
ATOM     19  C   UNL     1       5.164   3.571 -10.592  1.00  0.00     0.245 C 
ATOM     20  O   UNL     1       5.625   3.693  -9.445  1.00  0.00    -0.272 OA
BRANCH  19  21
ATOM     21  N   UNL     1       5.998   3.768 -11.678  1.00  0.00    -0.332 N 
ATOM     22  C   UNL     1       6.369   5.058 -12.233  1.00  0.00     0.147 C 
BRANCH  21  23
ATOM     23  C   UNL     1       6.560   2.565 -12.351  1.00  0.00     0.178 C 
BRANCH  23  24
ATOM     24  C   UNL     1       6.496   2.598 -13.892  1.00  0.00     0.070 C 
BRANCH  24  25
ATOM     25  C   UNL     1       6.959   1.362 -14.627  1.00  0.00    -0.045 A 
ATOM     26  C   UNL     1       8.072   1.406 -15.476  1.00  0.00     0.004 A 
ATOM     27  C   UNL     1       6.272   0.148 -14.472  1.00  0.00     0.004 A 
ATOM     28  C   UNL     1       8.483   0.263 -16.165  1.00  0.00     0.000 A 
ATOM     29  C   UNL     1       6.685  -0.994 -15.160  1.00  0.00     0.000 A 
ATOM     30  C   UNL     1       7.789  -0.935 -16.008  1.00  0.00     0.000 A 
ENDBRANCH  24  25
ENDBRANCH  23  24
BRANCH  23  31
ATOM     31  C   UNL     1       7.923   2.126 -11.765  1.00  0.00     0.243 C 
ATOM     32  O   UNL     1       8.094   1.094 -11.123  1.00  0.00    -0.273 OA
ATOM     33  N   UNL     1       8.906   3.096 -11.868  1.00  0.00    -0.341 N 
ATOM     34  H   UNL     1       8.702   3.938 -12.411  1.00  0.00     0.164 HD
BRANCH  33  35
ATOM     35  C   UNL     1      10.239   2.947 -11.277  1.00  0.00     0.194 C 
BRANCH  35  36
ATOM     36  C   UNL     1      10.526   3.924 -10.103  1.00  0.00     0.017 C 
ATOM     37  C   UNL     1       9.652   3.600  -8.879  1.00  0.00     0.010 C 
ATOM     38  C   UNL     1      10.280   5.394 -10.466  1.00  0.00     0.010 C 
ENDBRANCH  35  36
BRANCH  35  39
ATOM     39  C   UNL     1      11.371   2.972 -12.343  1.00  0.00     0.329 C 
ATOM     40  O   UNL     1      11.177   3.071 -13.548  1.00  0.00    -0.250 OA
BRANCH  39  41
ATOM     41  O   UNL     1      12.617   2.958 -11.778  1.00  0.00    -0.458 OA
BRANCH  41  42
ATOM     42  C   UNL     1      13.662   3.636 -12.515  1.00  0.00     0.205 CG0
ATOM     43  C   UNL     1      13.690   5.085 -12.032  1.00  0.00     0.056 C 
ATOM     44  G   UNL     1      13.355   3.523 -14.021  1.00  0.00     0.000 G0
ENDBRANCH  41  42
ENDBRANCH  39  41
ENDBRANCH  35  39
ENDBRANCH  33  35
ENDBRANCH  23  31
ENDBRANCH  21  23
ENDBRANCH  19  21
ENDBRANCH  14  19
ENDBRANCH   7  14
ENDBRANCH   2   5
BRANCH   3  45
ATOM     45  C   UNL     1      -0.629   0.775  -5.616  1.00  0.00     0.171 C 
BRANCH  45  46
ATOM     46  N   UNL     1      -1.977   0.226  -5.545  1.00  0.00    -0.342 N 
ATOM     47  C   UNL     1      -2.316  -0.783  -4.679  1.00  0.00     0.247 C 
ATOM     48  O   UNL     1      -1.530  -1.246  -3.851  1.00  0.00    -0.273 OA
ATOM     49  H   UNL     1      -2.674   0.620  -6.174  1.00  0.00     0.164 HD
BRANCH  47  50
ATOM     50  C   UNL     1      -3.747  -1.318  -4.832  1.00  0.00     0.212 CG0
ATOM     51  G   UNL     1      -4.204  -1.832  -3.452  1.00  0.00     0.000 G0
BRANCH  50  52
ATOM     52  N   UNL     1      -4.535  -0.188  -5.317  1.00  0.00    -0.339 N 
ATOM     53  C   UNL     1      -5.875  -0.035  -5.057  1.00  0.00     0.243 C 
ATOM     54  O   UNL     1      -6.529  -0.869  -4.437  1.00  0.00    -0.273 OA
ATOM     55  H   UNL     1      -4.074   0.481  -5.931  1.00  0.00     0.164 HD
BRANCH  53  56
ATOM     56  C   UNL     1      -6.512   1.189  -5.746  1.00  0.00     0.182 C 
BRANCH  56  57
ATOM     57  N   UNL     1      -7.975   1.096  -5.737  1.00  0.00    -0.344 N 
ATOM     58  C   UNL     1      -8.762   1.954  -5.008  1.00  0.00     0.220 C 
ATOM     59  O   UNL     1      -8.297   2.807  -4.260  1.00  0.00    -0.275 OA
ATOM     60  H   UNL     1      -8.402   0.474  -6.418  1.00  0.00     0.164 HD
BRANCH  58  61
ATOM     61  C   UNL     1     -10.249   1.712  -5.194  1.00  0.00     0.100 C 
BRANCH  61  62
ATOM     62  C   UNL     1     -10.631   1.284  -6.611  1.00  0.00     0.010 C 
BRANCH  62  63
ATOM     63  C   UNL     1     -11.840   2.031  -7.187  1.00  0.00     0.000 C 
BRANCH  63  64
ATOM     64  C   UNL     1     -11.633   2.558  -8.606  1.00  0.00    -0.003 C 
ATOM     65  C   UNL     1     -10.154   2.667  -8.948  1.00  0.00     0.004 C 
ENDBRANCH  63  64
ENDBRANCH  62  63
ENDBRANCH  61  62
ENDBRANCH  58  61
ENDBRANCH  56  57
BRANCH  56  66
ATOM     66  C   UNL     1      -5.956   1.391  -7.155  1.00  0.00     0.157 C 
BRANCH  66  67
ATOM     67  C   UNL     1      -6.187   2.795  -7.635  1.00  0.00     0.305 C 
ATOM     68  O   UNL     1      -6.301   3.164  -8.794  1.00  0.00    -0.252 OA
BRANCH  67  69
ATOM     69  O   UNL     1      -6.317   3.668  -6.618  1.00  0.00    -0.481 OA
ATOM     70  H   UNL     1      -7.115   4.194  -6.840  1.00  0.00     0.296 HD
ENDBRANCH  67  69
ENDBRANCH  66  67
ENDBRANCH  56  66
ENDBRANCH  53  56
ENDBRANCH  50  52
ENDBRANCH  47  50
ENDBRANCH  45  46
BRANCH  45  71
ATOM     71  C   UNL     1      -0.641   2.308  -5.586  1.00  0.00     0.037 C 
BRANCH  71  72
ATOM     72  C   UNL     1      -1.997   2.865  -5.146  1.00  0.00     0.026 C 
BRANCH  72  73
ATOM     73  C   UNL     1      -2.562   3.842  -6.175  1.00  0.00     0.146 C 
BRANCH  73  74
ATOM     74  N   UNL     1      -1.949   3.537  -7.464  1.00  0.00    -0.254 NA
ATOM     75  C   UNL     1      -2.234   4.296  -8.457  1.00  0.00     0.185 C 
ATOM     76  N   UNL     1      -1.685   4.042  -9.656  1.00  0.00    -0.370 N 
ATOM     77  N   UNL     1      -3.042   5.370  -8.495  1.00  0.00    -0.370 N 
ATOM     78  H   UNL     1      -1.068   3.245  -9.717  1.00  0.00     0.159 HD
ATOM     79  H   UNL     1      -1.970   4.499 -10.504  1.00  0.00     0.159 HD
ATOM     80  H   UNL     1      -3.521   5.682  -7.664  1.00  0.00     0.159 HD
ATOM     81  H   UNL     1      -3.099   5.959  -9.309  1.00  0.00     0.159 HD
ENDBRANCH  73  74
ENDBRANCH  72  73
ENDBRANCH  71  72
ENDBRANCH  45  71
ENDBRANCH   3  45
TORSDOF 20
ENDMDL
MODEL 15
REMARK VINA RESULT:    -5.500     11.835     15.996
REMARK INTER + INTRA:         -21.910
REMARK INTER:                 -17.313
REMARK INTRA:                  -4.597
REMARK UNBOUND:                -6.121
REMARK SMILES CCCCCC(=O)N[C@H](CC(=O)O)C(=O)N[C@H]1C(=O)N[C@H](CCCN=C(N)N)C(=O)N[C@@H]2CC[C@H](O)N(C2=O)[C@@H](CC(C)C)C(=O)N(C)[C@@H](Cc2ccccc2)C(=O)N[C@H](C(C)C)C(=O)O[C@@H]1C
REMARK SMILES IDX 30 1 31 2 29 3 32 5 35 6 37 7 34 8 38 9 33 10 39 11 36 12
REMARK SMILES IDX 40 14 41 15 42 16 43 17 44 18 45 19 46 20 47 21 48 22 49 23
REMARK SMILES IDX 50 24 51 25 52 26 56 27 53 28 55 29 54 30 57 31 58 32 59 33
REMARK SMILES IDX 60 35 61 36 62 37 63 38 64 39 65 40 66 41 67 42 68 43 21 45
REMARK SMILES IDX 20 46 18 47 19 48 17 50 16 52 14 53 15 54 9 56 8 57 6 58
REMARK SMILES IDX 7 59 5 61 4 62 3 63 2 64 1 65 10 66 11 67 12 68 13 69 22 71
REMARK SMILES IDX 23 72 24 73 25 74 26 75 27 76 28 77
REMARK H PARENT 31 4 36 13 59 34 20 49 16 55 8 60 13 70 27 78 27 79 28 80
REMARK H PARENT 28 81
REMARK Flexibility Score:  259.900
ROOT
ATOM      1  O   UNL     1      -4.125   4.372   2.393  1.00  0.00    -0.273 OA
ATOM      2  N   UNL     1      -2.088   3.669   1.627  1.00  0.00    -0.343 N 
ATOM      3  C   UNL     1      -3.317   3.460   2.215  1.00  0.00     0.243 C 
ATOM      4  H   UNL     1      -1.454   2.892   1.484  1.00  0.00     0.164 HD
ENDROOT
BRANCH   2   5
ATOM      5  C   UNL     1      -1.642   5.018   1.297  1.00  0.00     0.171 C 
ATOM      6  C   UNL     1       0.849   6.062   0.245  1.00  0.00     0.214 C 
ATOM      7  N   UNL     1       0.664   5.972   1.675  1.00  0.00    -0.303 N 
ATOM      8  C   UNL     1      -0.447   6.286  -0.517  1.00  0.00     0.057 C 
ATOM      9  C   UNL     1      -0.480   5.437   2.243  1.00  0.00     0.247 C 
ATOM     10  C   UNL     1      -1.422   5.170  -0.207  1.00  0.00     0.040 C 
ATOM     11  O   UNL     1      -0.595   5.283   3.466  1.00  0.00    -0.272 OA
BRANCH   6  12
ATOM     12  O   UNL     1       1.474   4.874  -0.184  1.00  0.00    -0.373 OA
ATOM     13  H   UNL     1       1.439   4.869  -1.164  1.00  0.00     0.213 HD
ENDBRANCH   6  12
BRANCH   7  14
ATOM     14  C   UNL     1       1.816   6.342   2.525  1.00  0.00     0.177 C 
BRANCH  14  15
ATOM     15  C   UNL     1       1.515   7.384   3.620  1.00  0.00     0.038 C 
BRANCH  15  16
ATOM     16  C   UNL     1       2.291   8.720   3.633  1.00  0.00    -0.015 C 
ATOM     17  C   UNL     1       1.581   9.800   4.454  1.00  0.00     0.007 C 
ATOM     18  C   UNL     1       2.456   9.238   2.198  1.00  0.00     0.007 C 
ENDBRANCH  15  16
ENDBRANCH  14  15
BRANCH  14  19
ATOM     19  C   UNL     1       2.795   5.127   2.673  1.00  0.00     0.245 C 
ATOM     20  O   UNL     1       2.280   3.997   2.721  1.00  0.00    -0.272 OA
BRANCH  19  21
ATOM     21  N   UNL     1       4.159   5.254   2.863  1.00  0.00    -0.332 N 
ATOM     22  C   UNL     1       4.971   6.372   2.418  1.00  0.00     0.147 C 
BRANCH  21  23
ATOM     23  C   UNL     1       4.868   4.154   3.574  1.00  0.00     0.178 C 
BRANCH  23  24
ATOM     24  C   UNL     1       6.094   3.589   2.827  1.00  0.00     0.070 C 
BRANCH  24  25
ATOM     25  C   UNL     1       5.835   2.527   1.784  1.00  0.00    -0.045 A 
ATOM     26  C   UNL     1       6.512   2.545   0.558  1.00  0.00     0.004 A 
ATOM     27  C   UNL     1       4.904   1.506   2.030  1.00  0.00     0.004 A 
ATOM     28  C   UNL     1       6.254   1.570  -0.408  1.00  0.00     0.000 A 
ATOM     29  C   UNL     1       4.649   0.531   1.064  1.00  0.00     0.000 A 
ATOM     30  C   UNL     1       5.322   0.566  -0.155  1.00  0.00     0.000 A 
ENDBRANCH  24  25
ENDBRANCH  23  24
BRANCH  23  31
ATOM     31  C   UNL     1       5.101   4.455   5.074  1.00  0.00     0.243 C 
ATOM     32  O   UNL     1       4.211   4.457   5.920  1.00  0.00    -0.273 OA
ATOM     33  N   UNL     1       6.379   4.909   5.355  1.00  0.00    -0.341 N 
ATOM     34  H   UNL     1       7.076   4.889   4.607  1.00  0.00     0.164 HD
BRANCH  33  35
ATOM     35  C   UNL     1       6.789   5.366   6.686  1.00  0.00     0.194 C 
BRANCH  35  36
ATOM     36  C   UNL     1       6.839   6.912   6.838  1.00  0.00     0.017 C 
ATOM     37  C   UNL     1       6.307   7.357   8.211  1.00  0.00     0.010 C 
ATOM     38  C   UNL     1       6.026   7.652   5.769  1.00  0.00     0.010 C 
ENDBRANCH  35  36
BRANCH  35  39
ATOM     39  C   UNL     1       8.103   4.692   7.171  1.00  0.00     0.329 C 
ATOM     40  O   UNL     1       8.185   3.519   7.517  1.00  0.00    -0.250 OA
BRANCH  39  41
ATOM     41  O   UNL     1       9.179   5.531   7.086  1.00  0.00    -0.458 OA
BRANCH  41  42
ATOM     42  C   UNL     1      10.156   5.430   8.150  1.00  0.00     0.205 CG0
ATOM     43  C   UNL     1       9.638   6.262   9.321  1.00  0.00     0.056 C 
ATOM     44  G   UNL     1      11.513   5.936   7.621  1.00  0.00     0.000 G0
ENDBRANCH  41  42
ENDBRANCH  39  41
ENDBRANCH  35  39
ENDBRANCH  33  35
ENDBRANCH  23  31
ENDBRANCH  21  23
ENDBRANCH  19  21
ENDBRANCH  14  19
ENDBRANCH   7  14
ENDBRANCH   2   5
BRANCH   3  45
ATOM     45  C   UNL     1      -3.617   2.009   2.612  1.00  0.00     0.171 C 
BRANCH  45  46
ATOM     46  N   UNL     1      -5.017   1.993   3.016  1.00  0.00    -0.342 N 
ATOM     47  C   UNL     1      -5.925   1.108   2.490  1.00  0.00     0.247 C 
ATOM     48  O   UNL     1      -5.611   0.220   1.697  1.00  0.00    -0.273 OA
ATOM     49  H   UNL     1      -5.308   2.675   3.713  1.00  0.00     0.164 HD
BRANCH  47  50
ATOM     50  C   UNL     1      -7.377   1.322   2.942  1.00  0.00     0.212 CG0
ATOM     51  G   UNL     1      -8.252   0.286   2.209  1.00  0.00     0.000 G0
BRANCH  50  52
ATOM     52  N   UNL     1      -7.364   1.143   4.392  1.00  0.00    -0.339 N 
ATOM     53  C   UNL     1      -8.492   0.881   5.131  1.00  0.00     0.243 C 
ATOM     54  O   UNL     1      -9.613   0.829   4.632  1.00  0.00    -0.273 OA
ATOM     55  H   UNL     1      -6.480   1.285   4.878  1.00  0.00     0.164 HD
BRANCH  53  56
ATOM     56  C   UNL     1      -8.244   0.818   6.652  1.00  0.00     0.182 C 
BRANCH  56  57
ATOM     57  N   UNL     1      -7.908  -0.545   7.075  1.00  0.00    -0.344 N 
ATOM     58  C   UNL     1      -6.611  -0.972   7.219  1.00  0.00     0.220 C 
ATOM     59  O   UNL     1      -5.646  -0.270   6.935  1.00  0.00    -0.275 OA
ATOM     60  H   UNL     1      -8.672  -1.122   7.416  1.00  0.00     0.164 HD
BRANCH  58  61
ATOM     61  C   UNL     1      -6.500  -2.399   7.723  1.00  0.00     0.100 C 
BRANCH  61  62
ATOM     62  C   UNL     1      -5.754  -3.333   6.769  1.00  0.00     0.010 C 
BRANCH  62  63
ATOM     63  C   UNL     1      -5.743  -2.861   5.310  1.00  0.00     0.000 C 
BRANCH  63  64
ATOM     64  C   UNL     1      -6.776  -3.550   4.420  1.00  0.00    -0.003 C 
ATOM     65  C   UNL     1      -6.647  -5.065   4.492  1.00  0.00     0.004 C 
ENDBRANCH  63  64
ENDBRANCH  62  63
ENDBRANCH  61  62
ENDBRANCH  58  61
ENDBRANCH  56  57
BRANCH  56  66
ATOM     66  C   UNL     1      -9.425   1.391   7.435  1.00  0.00     0.157 C 
BRANCH  66  67
ATOM     67  C   UNL     1     -10.188   0.306   8.138  1.00  0.00     0.305 C 
ATOM     68  O   UNL     1     -10.344   0.182   9.343  1.00  0.00    -0.252 OA
BRANCH  67  69
ATOM     69  O   UNL     1     -10.769  -0.551   7.277  1.00  0.00    -0.481 OA
ATOM     70  H   UNL     1     -10.411  -0.305   6.398  1.00  0.00     0.296 HD
ENDBRANCH  67  69
ENDBRANCH  66  67
ENDBRANCH  56  66
ENDBRANCH  53  56
ENDBRANCH  50  52
ENDBRANCH  47  50
ENDBRANCH  45  46
BRANCH  45  71
ATOM     71  C   UNL     1      -2.694   1.565   3.752  1.00  0.00     0.037 C 
BRANCH  71  72
ATOM     72  C   UNL     1      -1.914   0.296   3.400  1.00  0.00     0.026 C 
BRANCH  72  73
ATOM     73  C   UNL     1      -0.688   0.126   4.295  1.00  0.00     0.146 C 
BRANCH  73  74
ATOM     74  N   UNL     1      -0.634  -1.270   4.718  1.00  0.00    -0.254 NA
ATOM     75  C   UNL     1      -1.056  -1.557   5.894  1.00  0.00     0.185 C 
ATOM     76  N   UNL     1      -1.020  -2.833   6.311  1.00  0.00    -0.370 N 
ATOM     77  N   UNL     1      -1.560  -0.738   6.834  1.00  0.00    -0.370 N 
ATOM     78  H   UNL     1      -0.648  -3.515   5.666  1.00  0.00     0.159 HD
ATOM     79  H   UNL     1      -1.196  -3.110   7.261  1.00  0.00     0.159 HD
ATOM     80  H   UNL     1      -1.651   0.251   6.658  1.00  0.00     0.159 HD
ATOM     81  H   UNL     1      -1.968  -1.095   7.682  1.00  0.00     0.159 HD
ENDBRANCH  73  74
ENDBRANCH  72  73
ENDBRANCH  71  72
ENDBRANCH  45  71
ENDBRANCH   3  45
TORSDOF 20
ENDMDL
MODEL 16
REMARK VINA RESULT:    -5.469     11.344     15.392
REMARK INTER + INTRA:         -21.820
REMARK INTER:                 -16.848
REMARK INTRA:                  -4.972
REMARK UNBOUND:                -6.121
REMARK SMILES CCCCCC(=O)N[C@H](CC(=O)O)C(=O)N[C@H]1C(=O)N[C@H](CCCN=C(N)N)C(=O)N[C@@H]2CC[C@H](O)N(C2=O)[C@@H](CC(C)C)C(=O)N(C)[C@@H](Cc2ccccc2)C(=O)N[C@H](C(C)C)C(=O)O[C@@H]1C
REMARK SMILES IDX 30 1 31 2 29 3 32 5 35 6 37 7 34 8 38 9 33 10 39 11 36 12
REMARK SMILES IDX 40 14 41 15 42 16 43 17 44 18 45 19 46 20 47 21 48 22 49 23
REMARK SMILES IDX 50 24 51 25 52 26 56 27 53 28 55 29 54 30 57 31 58 32 59 33
REMARK SMILES IDX 60 35 61 36 62 37 63 38 64 39 65 40 66 41 67 42 68 43 21 45
REMARK SMILES IDX 20 46 18 47 19 48 17 50 16 52 14 53 15 54 9 56 8 57 6 58
REMARK SMILES IDX 7 59 5 61 4 62 3 63 2 64 1 65 10 66 11 67 12 68 13 69 22 71
REMARK SMILES IDX 23 72 24 73 25 74 26 75 27 76 28 77
REMARK H PARENT 31 4 36 13 59 34 20 49 16 55 8 60 13 70 27 78 27 79 28 80
REMARK H PARENT 28 81
REMARK Flexibility Score:  259.900
ROOT
ATOM      1  O   UNL     1      -3.950   4.958   2.108  1.00  0.00    -0.273 OA
ATOM      2  N   UNL     1      -1.943   4.085   1.442  1.00  0.00    -0.343 N 
ATOM      3  C   UNL     1      -3.223   3.978   1.943  1.00  0.00     0.243 C 
ATOM      4  H   UNL     1      -1.379   3.255   1.306  1.00  0.00     0.164 HD
ENDROOT
BRANCH   2   5
ATOM      5  C   UNL     1      -1.351   5.395   1.194  1.00  0.00     0.171 C 
ATOM      6  C   UNL     1       1.342   6.238   0.528  1.00  0.00     0.214 C 
ATOM      7  N   UNL     1       0.943   6.164   1.914  1.00  0.00    -0.303 N 
ATOM      8  C   UNL     1       0.192   6.562  -0.413  1.00  0.00     0.057 C 
ATOM      9  C   UNL     1      -0.310   5.721   2.304  1.00  0.00     0.247 C 
ATOM     10  C   UNL     1      -0.902   5.527  -0.260  1.00  0.00     0.040 C 
ATOM     11  O   UNL     1      -0.615   5.579   3.495  1.00  0.00    -0.272 OA
BRANCH   6  12
ATOM     12  O   UNL     1       1.928   5.004   0.183  1.00  0.00    -0.373 OA
ATOM     13  H   UNL     1       2.736   4.906   0.731  1.00  0.00     0.213 HD
ENDBRANCH   6  12
BRANCH   7  14
ATOM     14  C   UNL     1       1.983   6.444   2.927  1.00  0.00     0.177 C 
BRANCH  14  15
ATOM     15  C   UNL     1       1.594   7.479   3.999  1.00  0.00     0.038 C 
BRANCH  15  16
ATOM     16  C   UNL     1       2.441   8.761   4.163  1.00  0.00    -0.015 C 
ATOM     17  C   UNL     1       2.028   9.581   5.389  1.00  0.00     0.007 C 
ATOM     18  C   UNL     1       2.288   9.646   2.920  1.00  0.00     0.007 C 
ENDBRANCH  15  16
ENDBRANCH  14  15
BRANCH  14  19
ATOM     19  C   UNL     1       2.858   5.167   3.174  1.00  0.00     0.245 C 
ATOM     20  O   UNL     1       2.276   4.171   3.637  1.00  0.00    -0.272 OA
BRANCH  19  21
ATOM     21  N   UNL     1       4.232   5.129   3.014  1.00  0.00    -0.332 N 
ATOM     22  C   UNL     1       5.024   6.115   2.300  1.00  0.00     0.147 C 
BRANCH  21  23
ATOM     23  C   UNL     1       4.971   3.982   3.610  1.00  0.00     0.178 C 
BRANCH  23  24
ATOM     24  C   UNL     1       6.149   3.462   2.761  1.00  0.00     0.070 C 
BRANCH  24  25
ATOM     25  C   UNL     1       5.831   2.432   1.702  1.00  0.00    -0.045 A 
ATOM     26  C   UNL     1       4.738   1.568   1.847  1.00  0.00     0.004 A 
ATOM     27  C   UNL     1       6.635   2.323   0.557  1.00  0.00     0.004 A 
ATOM     28  C   UNL     1       4.462   0.606   0.873  1.00  0.00     0.000 A 
ATOM     29  C   UNL     1       6.356   1.362  -0.416  1.00  0.00     0.000 A 
ATOM     30  C   UNL     1       5.271   0.503  -0.256  1.00  0.00     0.000 A 
ENDBRANCH  24  25
ENDBRANCH  23  24
BRANCH  23  31
ATOM     31  C   UNL     1       5.289   4.183   5.111  1.00  0.00     0.243 C 
ATOM     32  O   UNL     1       4.535   3.854   6.023  1.00  0.00    -0.273 OA
ATOM     33  N   UNL     1       6.426   4.941   5.339  1.00  0.00    -0.341 N 
ATOM     34  H   UNL     1       7.011   5.190   4.538  1.00  0.00     0.164 HD
BRANCH  33  35
ATOM     35  C   UNL     1       6.853   5.357   6.677  1.00  0.00     0.194 C 
BRANCH  35  36
ATOM     36  C   UNL     1       6.945   6.898   6.864  1.00  0.00     0.017 C 
ATOM     37  C   UNL     1       6.361   7.333   8.219  1.00  0.00     0.010 C 
ATOM     38  C   UNL     1       6.209   7.684   5.772  1.00  0.00     0.010 C 
ENDBRANCH  35  36
BRANCH  35  39
ATOM     39  C   UNL     1       8.150   4.638   7.142  1.00  0.00     0.329 C 
ATOM     40  O   UNL     1       8.199   3.461   7.479  1.00  0.00    -0.250 OA
BRANCH  39  41
ATOM     41  O   UNL     1       9.252   5.442   7.049  1.00  0.00    -0.458 OA
BRANCH  41  42
ATOM     42  C   UNL     1      10.222   5.326   8.118  1.00  0.00     0.205 CG0
ATOM     43  C   UNL     1       9.720   6.178   9.281  1.00  0.00     0.056 C 
ATOM     44  G   UNL     1      11.593   5.795   7.591  1.00  0.00     0.000 G0
ENDBRANCH  41  42
ENDBRANCH  39  41
ENDBRANCH  35  39
ENDBRANCH  33  35
ENDBRANCH  23  31
ENDBRANCH  21  23
ENDBRANCH  19  21
ENDBRANCH  14  19
ENDBRANCH   7  14
ENDBRANCH   2   5
BRANCH   3  45
ATOM     45  C   UNL     1      -3.686   2.550   2.262  1.00  0.00     0.171 C 
BRANCH  45  46
ATOM     46  N   UNL     1      -5.094   2.663   2.620  1.00  0.00    -0.342 N 
ATOM     47  C   UNL     1      -6.102   2.485   1.707  1.00  0.00     0.247 C 
ATOM     48  O   UNL     1      -5.895   2.146   0.541  1.00  0.00    -0.273 OA
ATOM     49  H   UNL     1      -5.311   2.888   3.589  1.00  0.00     0.164 HD
BRANCH  47  50
ATOM     50  C   UNL     1      -7.516   2.766   2.235  1.00  0.00     0.212 CG0
ATOM     51  G   UNL     1      -8.491   2.651   1.047  1.00  0.00     0.000 G0
BRANCH  50  52
ATOM     52  N   UNL     1      -7.750   1.766   3.273  1.00  0.00    -0.339 N 
ATOM     53  C   UNL     1      -8.052   2.083   4.575  1.00  0.00     0.243 C 
ATOM     54  O   UNL     1      -8.096   3.241   4.981  1.00  0.00    -0.273 OA
ATOM     55  H   UNL     1      -7.618   0.787   3.025  1.00  0.00     0.164 HD
BRANCH  53  56
ATOM     56  C   UNL     1      -8.170   0.861   5.508  1.00  0.00     0.182 C 
BRANCH  56  57
ATOM     57  N   UNL     1      -7.445  -0.290   4.961  1.00  0.00    -0.344 N 
ATOM     58  C   UNL     1      -6.709  -1.139   5.752  1.00  0.00     0.220 C 
ATOM     59  O   UNL     1      -6.546  -0.954   6.953  1.00  0.00    -0.275 OA
ATOM     60  H   UNL     1      -7.635  -0.537   3.994  1.00  0.00     0.164 HD
BRANCH  58  61
ATOM     61  C   UNL     1      -6.094  -2.294   4.983  1.00  0.00     0.100 C 
BRANCH  61  62
ATOM     62  C   UNL     1      -5.769  -3.509   5.852  1.00  0.00     0.010 C 
BRANCH  62  63
ATOM     63  C   UNL     1      -4.312  -3.569   6.328  1.00  0.00     0.000 C 
BRANCH  63  64
ATOM     64  C   UNL     1      -4.149  -3.582   7.847  1.00  0.00    -0.003 C 
ATOM     65  C   UNL     1      -2.900  -4.345   8.265  1.00  0.00     0.004 C 
ENDBRANCH  63  64
ENDBRANCH  62  63
ENDBRANCH  61  62
ENDBRANCH  58  61
ENDBRANCH  56  57
BRANCH  56  66
ATOM     66  C   UNL     1      -9.629   0.531   5.816  1.00  0.00     0.157 C 
BRANCH  66  67
ATOM     67  C   UNL     1     -10.120  -0.607   4.967  1.00  0.00     0.305 C 
ATOM     68  O   UNL     1     -10.306  -1.760   5.323  1.00  0.00    -0.252 OA
BRANCH  67  69
ATOM     69  O   UNL     1     -10.406  -0.220   3.709  1.00  0.00    -0.481 OA
ATOM     70  H   UNL     1     -11.265  -0.647   3.505  1.00  0.00     0.296 HD
ENDBRANCH  67  69
ENDBRANCH  66  67
ENDBRANCH  56  66
ENDBRANCH  53  56
ENDBRANCH  50  52
ENDBRANCH  47  50
ENDBRANCH  45  46
BRANCH  45  71
ATOM     71  C   UNL     1      -2.856   1.964   3.410  1.00  0.00     0.037 C 
BRANCH  71  72
ATOM     72  C   UNL     1      -1.781   0.997   2.908  1.00  0.00     0.026 C 
BRANCH  72  73
ATOM     73  C   UNL     1      -2.098   0.487   1.504  1.00  0.00     0.146 C 
BRANCH  73  74
ATOM     74  N   UNL     1      -1.014   0.906   0.621  1.00  0.00    -0.254 NA
ATOM     75  C   UNL     1      -1.327   1.358  -0.538  1.00  0.00     0.185 C 
ATOM     76  N   UNL     1      -0.352   1.753  -1.372  1.00  0.00    -0.370 N 
ATOM     77  N   UNL     1      -2.545   1.511  -1.085  1.00  0.00    -0.370 N 
ATOM     78  H   UNL     1       0.598   1.665  -1.041  1.00  0.00     0.159 HD
ATOM     79  H   UNL     1      -0.508   1.979  -2.339  1.00  0.00     0.159 HD
ATOM     80  H   UNL     1      -3.375   1.258  -0.570  1.00  0.00     0.159 HD
ATOM     81  H   UNL     1      -2.674   1.986  -1.963  1.00  0.00     0.159 HD
ENDBRANCH  73  74
ENDBRANCH  72  73
ENDBRANCH  71  72
ENDBRANCH  45  71
ENDBRANCH   3  45
TORSDOF 20
ENDMDL
MODEL 17
REMARK VINA RESULT:    -5.431      9.874     14.314
REMARK INTER + INTRA:         -21.713
REMARK INTER:                 -17.537
REMARK INTRA:                  -4.176
REMARK UNBOUND:                -6.121
REMARK SMILES CCCCCC(=O)N[C@H](CC(=O)O)C(=O)N[C@H]1C(=O)N[C@H](CCCN=C(N)N)C(=O)N[C@@H]2CC[C@H](O)N(C2=O)[C@@H](CC(C)C)C(=O)N(C)[C@@H](Cc2ccccc2)C(=O)N[C@H](C(C)C)C(=O)O[C@@H]1C
REMARK SMILES IDX 30 1 31 2 29 3 32 5 35 6 37 7 34 8 38 9 33 10 39 11 36 12
REMARK SMILES IDX 40 14 41 15 42 16 43 17 44 18 45 19 46 20 47 21 48 22 49 23
REMARK SMILES IDX 50 24 51 25 52 26 56 27 53 28 55 29 54 30 57 31 58 32 59 33
REMARK SMILES IDX 60 35 61 36 62 37 63 38 64 39 65 40 66 41 67 42 68 43 21 45
REMARK SMILES IDX 20 46 18 47 19 48 17 50 16 52 14 53 15 54 9 56 8 57 6 58
REMARK SMILES IDX 7 59 5 61 4 62 3 63 2 64 1 65 10 66 11 67 12 68 13 69 22 71
REMARK SMILES IDX 23 72 24 73 25 74 26 75 27 76 28 77
REMARK H PARENT 31 4 36 13 59 34 20 49 16 55 8 60 13 70 27 78 27 79 28 80
REMARK H PARENT 28 81
REMARK Flexibility Score:  259.900
ROOT
ATOM      1  O   UNL     1      -2.517   1.626  -2.134  1.00  0.00    -0.273 OA
ATOM      2  N   UNL     1      -1.436   0.911  -0.249  1.00  0.00    -0.343 N 
ATOM      3  C   UNL     1      -2.542   1.014  -1.065  1.00  0.00     0.243 C 
ATOM      4  H   UNL     1      -1.489   0.387   0.616  1.00  0.00     0.164 HD
ENDROOT
BRANCH   2   5
ATOM      5  C   UNL     1      -0.209   1.632  -0.567  1.00  0.00     0.171 C 
ATOM      6  C   UNL     1       2.417   1.680   0.662  1.00  0.00     0.214 C 
ATOM      7  N   UNL     1       1.416   2.631   1.087  1.00  0.00    -0.303 N 
ATOM      8  C   UNL     1       2.268   1.258  -0.791  1.00  0.00     0.057 C 
ATOM      9  C   UNL     1       0.128   2.631   0.578  1.00  0.00     0.247 C 
ATOM     10  C   UNL     1       0.891   0.672  -1.017  1.00  0.00     0.040 C 
ATOM     11  O   UNL     1      -0.748   3.392   1.009  1.00  0.00    -0.272 OA
BRANCH   6  12
ATOM     12  O   UNL     1       2.332   0.558   1.511  1.00  0.00    -0.373 OA
ATOM     13  H   UNL     1       1.393   0.275   1.520  1.00  0.00     0.213 HD
ENDBRANCH   6  12
BRANCH   7  14
ATOM     14  C   UNL     1       1.776   3.527   2.206  1.00  0.00     0.177 C 
BRANCH  14  15
ATOM     15  C   UNL     1       1.662   2.901   3.610  1.00  0.00     0.038 C 
BRANCH  15  16
ATOM     16  C   UNL     1       0.551   3.383   4.570  1.00  0.00    -0.015 C 
ATOM     17  C   UNL     1       0.980   3.318   6.039  1.00  0.00     0.007 C 
ATOM     18  C   UNL     1      -0.699   2.511   4.395  1.00  0.00     0.007 C 
ENDBRANCH  15  16
ENDBRANCH  14  15
BRANCH  14  19
ATOM     19  C   UNL     1       2.878   4.546   1.755  1.00  0.00     0.245 C 
ATOM     20  O   UNL     1       2.520   5.449   0.980  1.00  0.00    -0.272 OA
BRANCH  19  21
ATOM     21  N   UNL     1       4.218   4.427   2.077  1.00  0.00    -0.332 N 
ATOM     22  C   UNL     1       5.110   3.385   1.600  1.00  0.00     0.147 C 
BRANCH  21  23
ATOM     23  C   UNL     1       4.805   5.438   2.999  1.00  0.00     0.178 C 
BRANCH  23  24
ATOM     24  C   UNL     1       4.208   6.854   2.868  1.00  0.00     0.070 C 
BRANCH  24  25
ATOM     25  C   UNL     1       3.289   7.319   3.974  1.00  0.00    -0.045 A 
ATOM     26  C   UNL     1       2.231   6.513   4.414  1.00  0.00     0.004 A 
ATOM     27  C   UNL     1       3.481   8.573   4.574  1.00  0.00     0.004 A 
ATOM     28  C   UNL     1       1.376   6.957   5.424  1.00  0.00     0.000 A 
ATOM     29  C   UNL     1       2.627   9.014   5.585  1.00  0.00     0.000 A 
ATOM     30  C   UNL     1       1.572   8.207   6.007  1.00  0.00     0.000 A 
ENDBRANCH  24  25
ENDBRANCH  23  24
BRANCH  23  31
ATOM     31  C   UNL     1       4.945   4.922   4.451  1.00  0.00     0.243 C 
ATOM     32  O   UNL     1       4.189   4.102   4.965  1.00  0.00    -0.273 OA
ATOM     33  N   UNL     1       5.893   5.607   5.192  1.00  0.00    -0.341 N 
ATOM     34  H   UNL     1       6.490   6.284   4.710  1.00  0.00     0.164 HD
BRANCH  33  35
ATOM     35  C   UNL     1       6.114   5.370   6.621  1.00  0.00     0.194 C 
BRANCH  35  36
ATOM     36  C   UNL     1       5.736   6.573   7.530  1.00  0.00     0.017 C 
ATOM     37  C   UNL     1       4.239   6.559   7.883  1.00  0.00     0.010 C 
ATOM     38  C   UNL     1       6.044   7.933   6.892  1.00  0.00     0.010 C 
ENDBRANCH  35  36
BRANCH  35  39
ATOM     39  C   UNL     1       7.543   4.839   6.926  1.00  0.00     0.329 C 
ATOM     40  O   UNL     1       8.268   4.306   6.094  1.00  0.00    -0.250 OA
BRANCH  39  41
ATOM     41  O   UNL     1       7.937   5.111   8.207  1.00  0.00    -0.458 OA
BRANCH  41  42
ATOM     42  C   UNL     1       9.198   5.805   8.356  1.00  0.00     0.205 CG0
ATOM     43  C   UNL     1      10.041   5.007   9.348  1.00  0.00     0.056 C 
ATOM     44  G   UNL     1       8.915   7.240   8.843  1.00  0.00     0.000 G0
ENDBRANCH  41  42
ENDBRANCH  39  41
ENDBRANCH  35  39
ENDBRANCH  33  35
ENDBRANCH  23  31
ENDBRANCH  21  23
ENDBRANCH  19  21
ENDBRANCH  14  19
ENDBRANCH   7  14
ENDBRANCH   2   5
BRANCH   3  45
ATOM     45  C   UNL     1      -3.800   0.295  -0.561  1.00  0.00     0.171 C 
BRANCH  45  46
ATOM     46  N   UNL     1      -4.621   0.063  -1.741  1.00  0.00    -0.342 N 
ATOM     47  C   UNL     1      -5.585  -0.913  -1.787  1.00  0.00     0.247 C 
ATOM     48  O   UNL     1      -5.876  -1.611  -0.816  1.00  0.00    -0.273 OA
ATOM     49  H   UNL     1      -4.452   0.657  -2.551  1.00  0.00     0.164 HD
BRANCH  47  50
ATOM     50  C   UNL     1      -6.262  -1.093  -3.153  1.00  0.00     0.212 CG0
ATOM     51  G   UNL     1      -6.556   0.310  -3.719  1.00  0.00     0.000 G0
BRANCH  50  52
ATOM     52  N   UNL     1      -5.313  -1.854  -3.961  1.00  0.00    -0.339 N 
ATOM     53  C   UNL     1      -5.379  -1.932  -5.331  1.00  0.00     0.243 C 
ATOM     54  O   UNL     1      -6.278  -1.407  -5.982  1.00  0.00    -0.273 OA
ATOM     55  H   UNL     1      -4.609  -2.403  -3.472  1.00  0.00     0.164 HD
BRANCH  53  56
ATOM     56  C   UNL     1      -4.322  -2.863  -5.958  1.00  0.00     0.182 C 
BRANCH  56  57
ATOM     57  N   UNL     1      -4.644  -4.271  -5.705  1.00  0.00    -0.344 N 
ATOM     58  C   UNL     1      -3.819  -5.095  -4.979  1.00  0.00     0.220 C 
ATOM     59  O   UNL     1      -2.727  -4.735  -4.555  1.00  0.00    -0.275 OA
ATOM     60  H   UNL     1      -5.581  -4.580  -5.950  1.00  0.00     0.164 HD
BRANCH  58  61
ATOM     61  C   UNL     1      -4.379  -6.494  -4.793  1.00  0.00     0.100 C 
BRANCH  61  62
ATOM     62  C   UNL     1      -5.522  -6.570  -3.780  1.00  0.00     0.010 C 
BRANCH  62  63
ATOM     63  C   UNL     1      -5.304  -5.719  -2.523  1.00  0.00     0.000 C 
BRANCH  63  64
ATOM     64  C   UNL     1      -6.472  -4.794  -2.182  1.00  0.00    -0.003 C 
ATOM     65  C   UNL     1      -7.436  -4.663  -3.351  1.00  0.00     0.004 C 
ENDBRANCH  63  64
ENDBRANCH  62  63
ENDBRANCH  61  62
ENDBRANCH  58  61
ENDBRANCH  56  57
BRANCH  56  66
ATOM     66  C   UNL     1      -2.911  -2.502  -5.495  1.00  0.00     0.157 C 
BRANCH  66  67
ATOM     67  C   UNL     1      -2.188  -1.694  -6.534  1.00  0.00     0.305 C 
ATOM     68  O   UNL     1      -1.772  -0.552  -6.415  1.00  0.00    -0.252 OA
BRANCH  67  69
ATOM     69  O   UNL     1      -1.975  -2.390  -7.667  1.00  0.00    -0.481 OA
ATOM     70  H   UNL     1      -1.456  -1.786  -8.238  1.00  0.00     0.296 HD
ENDBRANCH  67  69
ENDBRANCH  66  67
ENDBRANCH  56  66
ENDBRANCH  53  56
ENDBRANCH  50  52
ENDBRANCH  47  50
ENDBRANCH  45  46
BRANCH  45  71
ATOM     71  C   UNL     1      -4.529   1.159   0.474  1.00  0.00     0.037 C 
BRANCH  71  72
ATOM     72  C   UNL     1      -5.253   2.343  -0.172  1.00  0.00     0.026 C 
BRANCH  72  73
ATOM     73  C   UNL     1      -5.584   3.425   0.854  1.00  0.00     0.146 C 
BRANCH  73  74
ATOM     74  N   UNL     1      -4.726   4.575   0.583  1.00  0.00    -0.254 NA
ATOM     75  C   UNL     1      -3.712   4.759   1.344  1.00  0.00     0.185 C 
ATOM     76  N   UNL     1      -2.904   5.808   1.119  1.00  0.00    -0.370 N 
ATOM     77  N   UNL     1      -3.301   4.029   2.395  1.00  0.00    -0.370 N 
ATOM     78  H   UNL     1      -3.146   6.415   0.349  1.00  0.00     0.159 HD
ATOM     79  H   UNL     1      -2.181   6.097   1.755  1.00  0.00     0.159 HD
ATOM     80  H   UNL     1      -3.811   3.206   2.680  1.00  0.00     0.159 HD
ATOM     81  H   UNL     1      -2.420   4.205   2.849  1.00  0.00     0.159 HD
ENDBRANCH  73  74
ENDBRANCH  72  73
ENDBRANCH  71  72
ENDBRANCH  45  71
ENDBRANCH   3  45
TORSDOF 20
ENDMDL
MODEL 18
REMARK VINA RESULT:    -5.287     15.791     19.659
REMARK INTER + INTRA:         -21.298
REMARK INTER:                 -16.063
REMARK INTRA:                  -5.236
REMARK UNBOUND:                -6.121
REMARK SMILES CCCCCC(=O)N[C@H](CC(=O)O)C(=O)N[C@H]1C(=O)N[C@H](CCCN=C(N)N)C(=O)N[C@@H]2CC[C@H](O)N(C2=O)[C@@H](CC(C)C)C(=O)N(C)[C@@H](Cc2ccccc2)C(=O)N[C@H](C(C)C)C(=O)O[C@@H]1C
REMARK SMILES IDX 30 1 31 2 29 3 32 5 35 6 37 7 34 8 38 9 33 10 39 11 36 12
REMARK SMILES IDX 40 14 41 15 42 16 43 17 44 18 45 19 46 20 47 21 48 22 49 23
REMARK SMILES IDX 50 24 51 25 52 26 56 27 53 28 55 29 54 30 57 31 58 32 59 33
REMARK SMILES IDX 60 35 61 36 62 37 63 38 64 39 65 40 66 41 67 42 68 43 21 45
REMARK SMILES IDX 20 46 18 47 19 48 17 50 16 52 14 53 15 54 9 56 8 57 6 58
REMARK SMILES IDX 7 59 5 61 4 62 3 63 2 64 1 65 10 66 11 67 12 68 13 69 22 71
REMARK SMILES IDX 23 72 24 73 25 74 26 75 27 76 28 77
REMARK H PARENT 31 4 36 13 59 34 20 49 16 55 8 60 13 70 27 78 27 79 28 80
REMARK H PARENT 28 81
REMARK Flexibility Score:  259.900
ROOT
ATOM      1  O   UNL     1       6.375   5.115   5.461  1.00  0.00    -0.273 OA
ATOM      2  N   UNL     1       5.143   4.086   7.090  1.00  0.00    -0.343 N 
ATOM      3  C   UNL     1       5.735   5.188   6.511  1.00  0.00     0.243 C 
ATOM      4  H   UNL     1       4.611   4.186   7.946  1.00  0.00     0.164 HD
ENDROOT
BRANCH   2   5
ATOM      5  C   UNL     1       5.354   2.753   6.537  1.00  0.00     0.171 C 
ATOM      6  C   UNL     1       4.657   0.102   7.481  1.00  0.00     0.214 C 
ATOM      7  N   UNL     1       5.939   0.666   7.831  1.00  0.00    -0.303 N 
ATOM      8  C   UNL     1       4.129   0.592   6.141  1.00  0.00     0.057 C 
ATOM      9  C   UNL     1       6.314   1.946   7.457  1.00  0.00     0.247 C 
ATOM     10  C   UNL     1       4.026   2.102   6.153  1.00  0.00     0.040 C 
ATOM     11  O   UNL     1       7.378   2.455   7.834  1.00  0.00    -0.272 OA
BRANCH   6  12
ATOM     12  O   UNL     1       3.750   0.418   8.512  1.00  0.00    -0.373 OA
ATOM     13  H   UNL     1       4.192   0.197   9.360  1.00  0.00     0.213 HD
ENDBRANCH   6  12
BRANCH   7  14
ATOM     14  C   UNL     1       6.793  -0.125   8.742  1.00  0.00     0.177 C 
BRANCH  14  15
ATOM     15  C   UNL     1       6.129  -0.541  10.069  1.00  0.00     0.038 C 
BRANCH  15  16
ATOM     16  C   UNL     1       5.855  -2.036  10.346  1.00  0.00    -0.015 C 
ATOM     17  C   UNL     1       4.408  -2.295  10.777  1.00  0.00     0.007 C 
ATOM     18  C   UNL     1       6.784  -2.536  11.460  1.00  0.00     0.007 C 
ENDBRANCH  15  16
ENDBRANCH  14  15
BRANCH  14  19
ATOM     19  C   UNL     1       7.801  -0.999   7.919  1.00  0.00     0.245 C 
ATOM     20  O   UNL     1       7.327  -1.968   7.302  1.00  0.00    -0.272 OA
BRANCH  19  21
ATOM     21  N   UNL     1       9.173  -0.818   7.937  1.00  0.00    -0.332 N 
ATOM     22  C   UNL     1       9.866   0.303   8.547  1.00  0.00     0.147 C 
BRANCH  21  23
ATOM     23  C   UNL     1      10.020  -1.845   7.270  1.00  0.00     0.178 C 
BRANCH  23  24
ATOM     24  C   UNL     1      11.102  -1.277   6.329  1.00  0.00     0.070 C 
BRANCH  24  25
ATOM     25  C   UNL     1      11.138  -1.814   4.918  1.00  0.00    -0.045 A 
ATOM     26  C   UNL     1      10.597  -3.070   4.614  1.00  0.00     0.004 A 
ATOM     27  C   UNL     1      11.721  -1.060   3.888  1.00  0.00     0.004 A 
ATOM     28  C   UNL     1      10.649  -3.566   3.310  1.00  0.00     0.000 A 
ATOM     29  C   UNL     1      11.771  -1.557   2.585  1.00  0.00     0.000 A 
ATOM     30  C   UNL     1      11.238  -2.811   2.297  1.00  0.00     0.000 A 
ENDBRANCH  24  25
ENDBRANCH  23  24
BRANCH  23  31
ATOM     31  C   UNL     1      10.512  -2.945   8.240  1.00  0.00     0.243 C 
ATOM     32  O   UNL     1       9.846  -3.926   8.561  1.00  0.00    -0.273 OA
ATOM     33  N   UNL     1      11.706  -2.634   8.868  1.00  0.00    -0.341 N 
ATOM     34  H   UNL     1      12.213  -1.800   8.563  1.00  0.00     0.164 HD
BRANCH  33  35
ATOM     35  C   UNL     1      12.300  -3.472   9.913  1.00  0.00     0.194 C 
BRANCH  35  36
ATOM     36  C   UNL     1      12.649  -2.706  11.220  1.00  0.00     0.017 C 
ATOM     37  C   UNL     1      13.321  -3.632  12.249  1.00  0.00     0.010 C 
ATOM     38  C   UNL     1      11.425  -2.078  11.898  1.00  0.00     0.010 C 
ENDBRANCH  35  36
BRANCH  35  39
ATOM     39  C   UNL     1      13.501  -4.313   9.395  1.00  0.00     0.329 C 
ATOM     40  O   UNL     1      14.570  -3.833   9.036  1.00  0.00    -0.250 OA
BRANCH  39  41
ATOM     41  O   UNL     1      13.264  -5.658   9.466  1.00  0.00    -0.458 OA
BRANCH  41  42
ATOM     42  C   UNL     1      14.049  -6.495   8.584  1.00  0.00     0.205 CG0
ATOM     43  C   UNL     1      13.226  -6.714   7.315  1.00  0.00     0.056 C 
ATOM     44  G   UNL     1      14.370  -7.814   9.314  1.00  0.00     0.000 G0
ENDBRANCH  41  42
ENDBRANCH  39  41
ENDBRANCH  35  39
ENDBRANCH  33  35
ENDBRANCH  23  31
ENDBRANCH  21  23
ENDBRANCH  19  21
ENDBRANCH  14  19
ENDBRANCH   7  14
ENDBRANCH   2   5
BRANCH   3  45
ATOM     45  C   UNL     1       5.523   6.514   7.253  1.00  0.00     0.171 C 
BRANCH  45  46
ATOM     46  N   UNL     1       4.567   7.266   6.452  1.00  0.00    -0.342 N 
ATOM     47  C   UNL     1       3.220   7.261   6.716  1.00  0.00     0.247 C 
ATOM     48  O   UNL     1       2.732   6.684   7.689  1.00  0.00    -0.273 OA
ATOM     49  H   UNL     1       4.936   7.803   5.670  1.00  0.00     0.164 HD
BRANCH  47  50
ATOM     50  C   UNL     1       2.354   8.009   5.693  1.00  0.00     0.212 CG0
ATOM     51  G   UNL     1       2.042   9.402   6.273  1.00  0.00     0.000 G0
BRANCH  50  52
ATOM     52  N   UNL     1       3.151   8.058   4.470  1.00  0.00    -0.339 N 
ATOM     53  C   UNL     1       2.605   8.037   3.210  1.00  0.00     0.243 C 
ATOM     54  O   UNL     1       1.398   7.921   3.014  1.00  0.00    -0.273 OA
ATOM     55  H   UNL     1       4.165   8.043   4.566  1.00  0.00     0.164 HD
BRANCH  53  56
ATOM     56  C   UNL     1       3.647   8.011   2.074  1.00  0.00     0.182 C 
BRANCH  56  57
ATOM     57  N   UNL     1       4.421   6.766   2.099  1.00  0.00    -0.344 N 
ATOM     58  C   UNL     1       3.949   5.595   1.557  1.00  0.00     0.220 C 
ATOM     59  O   UNL     1       2.823   5.490   1.082  1.00  0.00    -0.275 OA
ATOM     60  H   UNL     1       5.393   6.833   2.389  1.00  0.00     0.164 HD
BRANCH  58  61
ATOM     61  C   UNL     1       4.941   4.450   1.643  1.00  0.00     0.100 C 
BRANCH  61  62
ATOM     62  C   UNL     1       4.359   3.175   2.254  1.00  0.00     0.010 C 
BRANCH  62  63
ATOM     63  C   UNL     1       5.249   1.937   2.089  1.00  0.00     0.000 C 
BRANCH  63  64
ATOM     64  C   UNL     1       5.875   1.795   0.703  1.00  0.00    -0.003 C 
ATOM     65  C   UNL     1       5.350   0.562  -0.020  1.00  0.00     0.004 C 
ENDBRANCH  63  64
ENDBRANCH  62  63
ENDBRANCH  61  62
ENDBRANCH  58  61
ENDBRANCH  56  57
BRANCH  56  66
ATOM     66  C   UNL     1       4.543   9.248   2.108  1.00  0.00     0.157 C 
BRANCH  66  67
ATOM     67  C   UNL     1       5.869   8.941   2.743  1.00  0.00     0.305 C 
ATOM     68  O   UNL     1       6.092   8.785   3.934  1.00  0.00    -0.252 OA
BRANCH  67  69
ATOM     69  O   UNL     1       6.851   8.794   1.833  1.00  0.00    -0.481 OA
ATOM     70  H   UNL     1       7.210   7.896   1.995  1.00  0.00     0.296 HD
ENDBRANCH  67  69
ENDBRANCH  66  67
ENDBRANCH  56  66
ENDBRANCH  53  56
ENDBRANCH  50  52
ENDBRANCH  47  50
ENDBRANCH  45  46
BRANCH  45  71
ATOM     71  C   UNL     1       6.853   7.263   7.397  1.00  0.00     0.037 C 
BRANCH  71  72
ATOM     72  C   UNL     1       7.459   7.097   8.793  1.00  0.00     0.026 C 
BRANCH  72  73
ATOM     73  C   UNL     1       8.853   6.476   8.728  1.00  0.00     0.146 C 
BRANCH  73  74
ATOM     74  N   UNL     1       9.101   5.802   9.999  1.00  0.00    -0.254 NA
ATOM     75  C   UNL     1       9.771   6.433  10.891  1.00  0.00     0.185 C 
ATOM     76  N   UNL     1      10.015   5.840  12.071  1.00  0.00    -0.370 N 
ATOM     77  N   UNL     1      10.301   7.667  10.834  1.00  0.00    -0.370 N 
ATOM     78  H   UNL     1       9.656   4.904  12.195  1.00  0.00     0.159 HD
ATOM     79  H   UNL     1      10.649   6.210  12.756  1.00  0.00     0.159 HD
ATOM     80  H   UNL     1      10.194   8.234  10.006  1.00  0.00     0.159 HD
ATOM     81  H   UNL     1      10.711   8.105  11.643  1.00  0.00     0.159 HD
ENDBRANCH  73  74
ENDBRANCH  72  73
ENDBRANCH  71  72
ENDBRANCH  45  71
ENDBRANCH   3  45
TORSDOF 20
ENDMDL
MODEL 19
REMARK VINA RESULT:    -5.274     11.760     17.191
REMARK INTER + INTRA:         -21.261
REMARK INTER:                 -13.928
REMARK INTRA:                  -7.332
REMARK UNBOUND:                -6.121
REMARK SMILES CCCCCC(=O)N[C@H](CC(=O)O)C(=O)N[C@H]1C(=O)N[C@H](CCCN=C(N)N)C(=O)N[C@@H]2CC[C@H](O)N(C2=O)[C@@H](CC(C)C)C(=O)N(C)[C@@H](Cc2ccccc2)C(=O)N[C@H](C(C)C)C(=O)O[C@@H]1C
REMARK SMILES IDX 30 1 31 2 29 3 32 5 35 6 37 7 34 8 38 9 33 10 39 11 36 12
REMARK SMILES IDX 40 14 41 15 42 16 43 17 44 18 45 19 46 20 47 21 48 22 49 23
REMARK SMILES IDX 50 24 51 25 52 26 56 27 53 28 55 29 54 30 57 31 58 32 59 33
REMARK SMILES IDX 60 35 61 36 62 37 63 38 64 39 65 40 66 41 67 42 68 43 21 45
REMARK SMILES IDX 20 46 18 47 19 48 17 50 16 52 14 53 15 54 9 56 8 57 6 58
REMARK SMILES IDX 7 59 5 61 4 62 3 63 2 64 1 65 10 66 11 67 12 68 13 69 22 71
REMARK SMILES IDX 23 72 24 73 25 74 26 75 27 76 28 77
REMARK H PARENT 31 4 36 13 59 34 20 49 16 55 8 60 13 70 27 78 27 79 28 80
REMARK H PARENT 28 81
REMARK Flexibility Score:  259.900
ROOT
ATOM      1  O   UNL     1       1.563   8.751   1.591  1.00  0.00    -0.273 OA
ATOM      2  N   UNL     1       0.310   6.854   1.843  1.00  0.00    -0.343 N 
ATOM      3  C   UNL     1       0.822   8.055   2.286  1.00  0.00     0.243 C 
ATOM      4  H   UNL     1      -0.309   6.315   2.436  1.00  0.00     0.164 HD
ENDROOT
BRANCH   2   5
ATOM      5  C   UNL     1       0.726   6.298   0.560  1.00  0.00     0.171 C 
ATOM      6  C   UNL     1       0.491   3.652  -0.602  1.00  0.00     0.214 C 
ATOM      7  N   UNL     1       1.670   3.991   0.161  1.00  0.00    -0.303 N 
ATOM      8  C   UNL     1      -0.135   4.846  -1.304  1.00  0.00     0.057 C 
ATOM      9  C   UNL     1       1.823   5.218   0.785  1.00  0.00     0.247 C 
ATOM     10  C   UNL     1      -0.484   5.913  -0.289  1.00  0.00     0.040 C 
ATOM     11  O   UNL     1       2.796   5.469   1.508  1.00  0.00    -0.272 OA
BRANCH   6  12
ATOM     12  O   UNL     1      -0.435   3.058   0.278  1.00  0.00    -0.373 OA
ATOM     13  H   UNL     1      -1.328   3.344  -0.008  1.00  0.00     0.213 HD
ENDBRANCH   6  12
BRANCH   7  14
ATOM     14  C   UNL     1       2.659   2.914   0.379  1.00  0.00     0.177 C 
BRANCH  14  15
ATOM     15  C   UNL     1       4.124   3.302   0.096  1.00  0.00     0.038 C 
BRANCH  15  16
ATOM     16  C   UNL     1       5.177   2.193  -0.121  1.00  0.00    -0.015 C 
ATOM     17  C   UNL     1       4.539   0.831  -0.411  1.00  0.00     0.007 C 
ATOM     18  C   UNL     1       6.052   2.056   1.131  1.00  0.00     0.007 C 
ENDBRANCH  15  16
ENDBRANCH  14  15
BRANCH  14  19
ATOM     19  C   UNL     1       2.179   1.958   1.525  1.00  0.00     0.245 C 
ATOM     20  O   UNL     1       1.570   0.932   1.179  1.00  0.00    -0.272 OA
BRANCH  19  21
ATOM     21  N   UNL     1       2.298   2.250   2.872  1.00  0.00    -0.332 N 
ATOM     22  C   UNL     1       3.448   2.874   3.502  1.00  0.00     0.147 C 
BRANCH  21  23
ATOM     23  C   UNL     1       1.162   1.889   3.765  1.00  0.00     0.178 C 
BRANCH  23  24
ATOM     24  C   UNL     1       1.553   1.055   5.002  1.00  0.00     0.070 C 
BRANCH  24  25
ATOM     25  C   UNL     1       0.661  -0.113   5.355  1.00  0.00    -0.045 A 
ATOM     26  C   UNL     1      -0.282  -0.598   4.440  1.00  0.00     0.004 A 
ATOM     27  C   UNL     1       0.763  -0.726   6.613  1.00  0.00     0.004 A 
ATOM     28  C   UNL     1      -1.114  -1.667   4.780  1.00  0.00     0.000 A 
ATOM     29  C   UNL     1      -0.069  -1.795   6.951  1.00  0.00     0.000 A 
ATOM     30  C   UNL     1      -1.009  -2.262   6.035  1.00  0.00     0.000 A 
ENDBRANCH  24  25
ENDBRANCH  23  24
BRANCH  23  31
ATOM     31  C   UNL     1       0.218   3.081   4.054  1.00  0.00     0.243 C 
ATOM     32  O   UNL     1       0.509   4.026   4.783  1.00  0.00    -0.273 OA
ATOM     33  N   UNL     1      -1.065   2.902   3.565  1.00  0.00    -0.341 N 
ATOM     34  H   UNL     1      -1.248   2.092   2.968  1.00  0.00     0.164 HD
BRANCH  33  35
ATOM     35  C   UNL     1      -2.156   3.846   3.822  1.00  0.00     0.194 C 
BRANCH  35  36
ATOM     36  C   UNL     1      -3.425   3.196   4.443  1.00  0.00     0.017 C 
ATOM     37  C   UNL     1      -3.264   2.992   5.959  1.00  0.00     0.010 C 
ATOM     38  C   UNL     1      -3.766   1.832   3.830  1.00  0.00     0.010 C 
ENDBRANCH  35  36
BRANCH  35  39
ATOM     39  C   UNL     1      -2.498   4.716   2.581  1.00  0.00     0.329 C 
ATOM     40  O   UNL     1      -2.767   4.260   1.476  1.00  0.00    -0.250 OA
BRANCH  39  41
ATOM     41  O   UNL     1      -2.552   6.050   2.880  1.00  0.00    -0.458 OA
BRANCH  41  42
ATOM     42  C   UNL     1      -3.686   6.484   3.669  1.00  0.00     0.205 CG0
ATOM     43  C   UNL     1      -4.858   6.680   2.710  1.00  0.00     0.056 C 
ATOM     44  G   UNL     1      -3.303   7.784   4.405  1.00  0.00     0.000 G0
ENDBRANCH  41  42
ENDBRANCH  39  41
ENDBRANCH  35  39
ENDBRANCH  33  35
ENDBRANCH  23  31
ENDBRANCH  21  23
ENDBRANCH  19  21
ENDBRANCH  14  19
ENDBRANCH   7  14
ENDBRANCH   2   5
BRANCH   3  45
ATOM     45  C   UNL     1       0.388   8.473   3.697  1.00  0.00     0.171 C 
BRANCH  45  46
ATOM     46  N   UNL     1      -1.068   8.449   3.684  1.00  0.00    -0.342 N 
ATOM     47  C   UNL     1      -1.803   7.841   4.671  1.00  0.00     0.247 C 
ATOM     48  O   UNL     1      -1.291   7.338   5.672  1.00  0.00    -0.273 OA
ATOM     49  H   UNL     1      -1.535   8.903   2.902  1.00  0.00     0.164 HD
BRANCH  47  50
ATOM     50  C   UNL     1      -3.318   7.807   4.426  1.00  0.00     0.212 CG0
ATOM     51  G   UNL     1      -3.640   6.504   3.668  1.00  0.00     0.000 G0
BRANCH  50  52
ATOM     52  N   UNL     1      -3.929   7.869   5.751  1.00  0.00    -0.339 N 
ATOM     53  C   UNL     1      -4.955   8.724   6.071  1.00  0.00     0.243 C 
ATOM     54  O   UNL     1      -5.406   9.544   5.276  1.00  0.00    -0.273 OA
ATOM     55  H   UNL     1      -3.524   7.291   6.486  1.00  0.00     0.164 HD
BRANCH  53  56
ATOM     56  C   UNL     1      -5.377   8.670   7.554  1.00  0.00     0.182 C 
BRANCH  56  57
ATOM     57  N   UNL     1      -4.206   8.604   8.433  1.00  0.00    -0.344 N 
ATOM     58  C   UNL     1      -3.607   9.728   8.947  1.00  0.00     0.220 C 
ATOM     59  O   UNL     1      -3.962  10.864   8.650  1.00  0.00    -0.275 OA
ATOM     60  H   UNL     1      -3.944   7.686   8.783  1.00  0.00     0.164 HD
BRANCH  58  61
ATOM     61  C   UNL     1      -2.448   9.420   9.877  1.00  0.00     0.100 C 
BRANCH  61  62
ATOM     62  C   UNL     1      -1.610   8.219   9.441  1.00  0.00     0.010 C 
BRANCH  62  63
ATOM     63  C   UNL     1      -0.177   8.573   9.023  1.00  0.00     0.000 C 
BRANCH  63  64
ATOM     64  C   UNL     1       0.906   7.928   9.888  1.00  0.00    -0.003 C 
ATOM     65  C   UNL     1       0.428   7.732  11.319  1.00  0.00     0.004 C 
ENDBRANCH  63  64
ENDBRANCH  62  63
ENDBRANCH  61  62
ENDBRANCH  58  61
ENDBRANCH  56  57
BRANCH  56  66
ATOM     66  C   UNL     1      -6.360   7.530   7.816  1.00  0.00     0.157 C 
BRANCH  66  67
ATOM     67  C   UNL     1      -7.090   7.729   9.113  1.00  0.00     0.305 C 
ATOM     68  O   UNL     1      -6.594   7.832  10.224  1.00  0.00    -0.252 OA
BRANCH  67  69
ATOM     69  O   UNL     1      -8.421   7.841   8.939  1.00  0.00    -0.481 OA
ATOM     70  H   UNL     1      -8.642   8.737   9.270  1.00  0.00     0.296 HD
ENDBRANCH  67  69
ENDBRANCH  66  67
ENDBRANCH  56  66
ENDBRANCH  53  56
ENDBRANCH  50  52
ENDBRANCH  47  50
ENDBRANCH  45  46
BRANCH  45  71
ATOM     71  C   UNL     1       0.928   9.869   4.029  1.00  0.00     0.037 C 
BRANCH  71  72
ATOM     72  C   UNL     1       2.053   9.820   5.066  1.00  0.00     0.026 C 
BRANCH  72  73
ATOM     73  C   UNL     1       1.772   8.780   6.149  1.00  0.00     0.146 C 
BRANCH  73  74
ATOM     74  N   UNL     1       2.697   7.668   5.951  1.00  0.00    -0.254 NA
ATOM     75  C   UNL     1       2.296   6.492   6.266  1.00  0.00     0.185 C 
ATOM     76  N   UNL     1       3.124   5.449   6.095  1.00  0.00    -0.370 N 
ATOM     77  N   UNL     1       1.109   6.110   6.769  1.00  0.00    -0.370 N 
ATOM     78  H   UNL     1       4.042   5.649   5.726  1.00  0.00     0.159 HD
ATOM     79  H   UNL     1       2.935   4.528   6.450  1.00  0.00     0.159 HD
ATOM     80  H   UNL     1       0.384   6.789   6.947  1.00  0.00     0.159 HD
ATOM     81  H   UNL     1       0.865   5.139   6.869  1.00  0.00     0.159 HD
ENDBRANCH  73  74
ENDBRANCH  72  73
ENDBRANCH  71  72
ENDBRANCH  45  71
ENDBRANCH   3  45
TORSDOF 20
ENDMDL
MODEL 20
REMARK VINA RESULT:    -5.259     11.922     15.944
REMARK INTER + INTRA:         -21.218
REMARK INTER:                 -16.504
REMARK INTRA:                  -4.713
REMARK UNBOUND:                -6.121
REMARK SMILES CCCCCC(=O)N[C@H](CC(=O)O)C(=O)N[C@H]1C(=O)N[C@H](CCCN=C(N)N)C(=O)N[C@@H]2CC[C@H](O)N(C2=O)[C@@H](CC(C)C)C(=O)N(C)[C@@H](Cc2ccccc2)C(=O)N[C@H](C(C)C)C(=O)O[C@@H]1C
REMARK SMILES IDX 30 1 31 2 29 3 32 5 35 6 37 7 34 8 38 9 33 10 39 11 36 12
REMARK SMILES IDX 40 14 41 15 42 16 43 17 44 18 45 19 46 20 47 21 48 22 49 23
REMARK SMILES IDX 50 24 51 25 52 26 56 27 53 28 55 29 54 30 57 31 58 32 59 33
REMARK SMILES IDX 60 35 61 36 62 37 63 38 64 39 65 40 66 41 67 42 68 43 21 45
REMARK SMILES IDX 20 46 18 47 19 48 17 50 16 52 14 53 15 54 9 56 8 57 6 58
REMARK SMILES IDX 7 59 5 61 4 62 3 63 2 64 1 65 10 66 11 67 12 68 13 69 22 71
REMARK SMILES IDX 23 72 24 73 25 74 26 75 27 76 28 77
REMARK H PARENT 31 4 36 13 59 34 20 49 16 55 8 60 13 70 27 78 27 79 28 80
REMARK H PARENT 28 81
REMARK Flexibility Score:  259.900
ROOT
ATOM      1  O   UNL     1      -3.550   5.020   2.031  1.00  0.00    -0.273 OA
ATOM      2  N   UNL     1      -1.473   4.361   1.338  1.00  0.00    -0.343 N 
ATOM      3  C   UNL     1      -2.781   4.118   1.698  1.00  0.00     0.243 C 
ATOM      4  H   UNL     1      -0.873   3.595   1.056  1.00  0.00     0.164 HD
ENDROOT
BRANCH   2   5
ATOM      5  C   UNL     1      -0.907   5.701   1.453  1.00  0.00     0.171 C 
ATOM      6  C   UNL     1       1.819   6.684   1.515  1.00  0.00     0.214 C 
ATOM      7  N   UNL     1       1.155   6.353   2.754  1.00  0.00    -0.303 N 
ATOM      8  C   UNL     1       0.867   7.160   0.430  1.00  0.00     0.057 C 
ATOM      9  C   UNL     1      -0.128   5.831   2.793  1.00  0.00     0.247 C 
ATOM     10  C   UNL     1      -0.183   6.102   0.169  1.00  0.00     0.040 C 
ATOM     11  O   UNL     1      -0.658   5.470   3.852  1.00  0.00    -0.272 OA
BRANCH   6  12
ATOM     12  O   UNL     1       2.523   5.541   1.086  1.00  0.00    -0.373 OA
ATOM     13  H   UNL     1       3.392   5.551   1.540  1.00  0.00     0.213 HD
ENDBRANCH   6  12
BRANCH   7  14
ATOM     14  C   UNL     1       1.956   6.455   3.993  1.00  0.00     0.177 C 
BRANCH  14  15
ATOM     15  C   UNL     1       1.223   7.073   5.199  1.00  0.00     0.038 C 
BRANCH  15  16
ATOM     16  C   UNL     1       2.024   7.882   6.244  1.00  0.00    -0.015 C 
ATOM     17  C   UNL     1       3.192   8.649   5.618  1.00  0.00     0.007 C 
ATOM     18  C   UNL     1       2.587   6.935   7.311  1.00  0.00     0.007 C 
ENDBRANCH  15  16
ENDBRANCH  14  15
BRANCH  14  19
ATOM     19  C   UNL     1       2.996   5.285   4.065  1.00  0.00     0.245 C 
ATOM     20  O   UNL     1       2.569   4.180   4.443  1.00  0.00    -0.272 OA
BRANCH  19  21
ATOM     21  N   UNL     1       4.352   5.443   3.845  1.00  0.00    -0.332 N 
ATOM     22  C   UNL     1       4.999   6.672   3.420  1.00  0.00     0.147 C 
BRANCH  21  23
ATOM     23  C   UNL     1       5.233   4.259   4.046  1.00  0.00     0.178 C 
BRANCH  23  24
ATOM     24  C   UNL     1       6.239   4.002   2.906  1.00  0.00     0.070 C 
BRANCH  24  25
ATOM     25  C   UNL     1       5.881   2.931   1.902  1.00  0.00    -0.045 A 
ATOM     26  C   UNL     1       5.110   1.824   2.278  1.00  0.00     0.004 A 
ATOM     27  C   UNL     1       6.323   3.030   0.574  1.00  0.00     0.004 A 
ATOM     28  C   UNL     1       4.798   0.829   1.348  1.00  0.00     0.000 A 
ATOM     29  C   UNL     1       6.010   2.036  -0.355  1.00  0.00     0.000 A 
ATOM     30  C   UNL     1       5.250   0.935   0.034  1.00  0.00     0.000 A 
ENDBRANCH  24  25
ENDBRANCH  23  24
BRANCH  23  31
ATOM     31  C   UNL     1       5.832   4.188   5.471  1.00  0.00     0.243 C 
ATOM     32  O   UNL     1       5.269   3.660   6.427  1.00  0.00    -0.273 OA
ATOM     33  N   UNL     1       6.986   4.937   5.625  1.00  0.00    -0.341 N 
ATOM     34  H   UNL     1       7.405   5.358   4.792  1.00  0.00     0.164 HD
BRANCH  33  35
ATOM     35  C   UNL     1       7.659   5.112   6.915  1.00  0.00     0.194 C 
BRANCH  35  36
ATOM     36  C   UNL     1       7.628   6.570   7.455  1.00  0.00     0.017 C 
ATOM     37  C   UNL     1       8.200   6.650   8.881  1.00  0.00     0.010 C 
ATOM     38  C   UNL     1       6.218   7.171   7.491  1.00  0.00     0.010 C 
ENDBRANCH  35  36
BRANCH  35  39
ATOM     39  C   UNL     1       9.096   4.520   6.924  1.00  0.00     0.329 C 
ATOM     40  O   UNL     1       9.352   3.343   7.151  1.00  0.00    -0.250 OA
BRANCH  39  41
ATOM     41  O   UNL     1      10.040   5.441   6.565  1.00  0.00    -0.458 OA
BRANCH  41  42
ATOM     42  C   UNL     1      11.421   5.058   6.771  1.00  0.00     0.205 CG0
ATOM     43  C   UNL     1      11.739   5.284   8.248  1.00  0.00     0.056 C 
ATOM     44  G   UNL     1      12.311   5.906   5.840  1.00  0.00     0.000 G0
ENDBRANCH  41  42
ENDBRANCH  39  41
ENDBRANCH  35  39
ENDBRANCH  33  35
ENDBRANCH  23  31
ENDBRANCH  21  23
ENDBRANCH  19  21
ENDBRANCH  14  19
ENDBRANCH   7  14
ENDBRANCH   2   5
BRANCH   3  45
ATOM     45  C   UNL     1      -3.218   2.648   1.635  1.00  0.00     0.171 C 
BRANCH  45  46
ATOM     46  N   UNL     1      -4.575   2.618   2.164  1.00  0.00    -0.342 N 
ATOM     47  C   UNL     1      -5.609   2.005   1.503  1.00  0.00     0.247 C 
ATOM     48  O   UNL     1      -5.454   1.376   0.456  1.00  0.00    -0.273 OA
ATOM     49  H   UNL     1      -4.736   3.078   3.058  1.00  0.00     0.164 HD
BRANCH  47  50
ATOM     50  C   UNL     1      -6.990   2.182   2.151  1.00  0.00     0.212 CG0
ATOM     51  G   UNL     1      -7.984   2.562   1.036  1.00  0.00     0.000 G0
BRANCH  50  52
ATOM     52  N   UNL     1      -7.292   0.900   2.781  1.00  0.00    -0.339 N 
ATOM     53  C   UNL     1      -7.213   0.686   4.136  1.00  0.00     0.243 C 
ATOM     54  O   UNL     1      -6.827   1.548   4.920  1.00  0.00    -0.273 OA
ATOM     55  H   UNL     1      -7.511   0.114   2.172  1.00  0.00     0.164 HD
BRANCH  53  56
ATOM     56  C   UNL     1      -7.494  -0.770   4.559  1.00  0.00     0.182 C 
BRANCH  56  57
ATOM     57  N   UNL     1      -6.245  -1.496   4.811  1.00  0.00    -0.344 N 
ATOM     58  C   UNL     1      -6.076  -2.312   5.903  1.00  0.00     0.220 C 
ATOM     59  O   UNL     1      -6.925  -2.433   6.778  1.00  0.00    -0.275 OA
ATOM     60  H   UNL     1      -5.558  -1.503   4.062  1.00  0.00     0.164 HD
BRANCH  58  61
ATOM     61  C   UNL     1      -4.727  -3.007   5.931  1.00  0.00     0.100 C 
BRANCH  61  62
ATOM     62  C   UNL     1      -4.564  -3.989   7.091  1.00  0.00     0.010 C 
BRANCH  62  63
ATOM     63  C   UNL     1      -3.509  -3.572   8.123  1.00  0.00     0.000 C 
BRANCH  63  64
ATOM     64  C   UNL     1      -2.770  -4.741   8.772  1.00  0.00    -0.003 C 
ATOM     65  C   UNL     1      -2.148  -4.335  10.101  1.00  0.00     0.004 C 
ENDBRANCH  63  64
ENDBRANCH  62  63
ENDBRANCH  61  62
ENDBRANCH  58  61
ENDBRANCH  56  57
BRANCH  56  66
ATOM     66  C   UNL     1      -8.382  -1.487   3.543  1.00  0.00     0.157 C 
BRANCH  66  67
ATOM     67  C   UNL     1      -9.628  -2.020   4.190  1.00  0.00     0.305 C 
ATOM     68  O   UNL     1     -10.744  -1.525   4.150  1.00  0.00    -0.252 OA
BRANCH  67  69
ATOM     69  O   UNL     1      -9.416  -3.191   4.821  1.00  0.00    -0.481 OA
ATOM     70  H   UNL     1      -9.462  -2.973   5.775  1.00  0.00     0.296 HD
ENDBRANCH  67  69
ENDBRANCH  66  67
ENDBRANCH  56  66
ENDBRANCH  53  56
ENDBRANCH  50  52
ENDBRANCH  47  50
ENDBRANCH  45  46
BRANCH  45  71
ATOM     71  C   UNL     1      -2.269   1.773   2.461  1.00  0.00     0.037 C 
BRANCH  71  72
ATOM     72  C   UNL     1      -2.960   1.171   3.686  1.00  0.00     0.026 C 
BRANCH  72  73
ATOM     73  C   UNL     1      -2.598   1.927   4.962  1.00  0.00     0.146 C 
BRANCH  73  74
ATOM     74  N   UNL     1      -3.837   2.422   5.556  1.00  0.00    -0.254 NA
ATOM     75  C   UNL     1      -4.038   3.688   5.554  1.00  0.00     0.185 C 
ATOM     76  N   UNL     1      -5.169   4.173   6.091  1.00  0.00    -0.370 N 
ATOM     77  N   UNL     1      -3.254   4.667   5.072  1.00  0.00    -0.370 N 
ATOM     78  H   UNL     1      -5.813   3.502   6.485  1.00  0.00     0.159 HD
ATOM     79  H   UNL     1      -5.329   5.151   6.256  1.00  0.00     0.159 HD
ATOM     80  H   UNL     1      -2.371   4.450   4.634  1.00  0.00     0.159 HD
ATOM     81  H   UNL     1      -3.571   5.622   5.023  1.00  0.00     0.159 HD
ENDBRANCH  73  74
ENDBRANCH  72  73
ENDBRANCH  71  72
ENDBRANCH  45  71
ENDBRANCH   3  45
TORSDOF 20
ENDMDL
MODEL 21
REMARK VINA RESULT:    -5.173     13.178     15.653
REMARK INTER + INTRA:         -20.970
REMARK INTER:                 -14.163
REMARK INTRA:                  -6.807
REMARK UNBOUND:                -6.121
REMARK SMILES CCCCCC(=O)N[C@H](CC(=O)O)C(=O)N[C@H]1C(=O)N[C@H](CCCN=C(N)N)C(=O)N[C@@H]2CC[C@H](O)N(C2=O)[C@@H](CC(C)C)C(=O)N(C)[C@@H](Cc2ccccc2)C(=O)N[C@H](C(C)C)C(=O)O[C@@H]1C
REMARK SMILES IDX 30 1 31 2 29 3 32 5 35 6 37 7 34 8 38 9 33 10 39 11 36 12
REMARK SMILES IDX 40 14 41 15 42 16 43 17 44 18 45 19 46 20 47 21 48 22 49 23
REMARK SMILES IDX 50 24 51 25 52 26 56 27 53 28 55 29 54 30 57 31 58 32 59 33
REMARK SMILES IDX 60 35 61 36 62 37 63 38 64 39 65 40 66 41 67 42 68 43 21 45
REMARK SMILES IDX 20 46 18 47 19 48 17 50 16 52 14 53 15 54 9 56 8 57 6 58
REMARK SMILES IDX 7 59 5 61 4 62 3 63 2 64 1 65 10 66 11 67 12 68 13 69 22 71
REMARK SMILES IDX 23 72 24 73 25 74 26 75 27 76 28 77
REMARK H PARENT 31 4 36 13 59 34 20 49 16 55 8 60 13 70 27 78 27 79 28 80
REMARK H PARENT 28 81
REMARK Flexibility Score:  259.900
ROOT
ATOM      1  O   UNL     1      -6.525   4.949   4.404  1.00  0.00    -0.273 OA
ATOM      2  N   UNL     1      -5.205   6.649   3.630  1.00  0.00    -0.343 N 
ATOM      3  C   UNL     1      -6.298   5.812   3.556  1.00  0.00     0.243 C 
ATOM      4  H   UNL     1      -5.057   7.357   2.922  1.00  0.00     0.164 HD
ENDROOT
BRANCH   2   5
ATOM      5  C   UNL     1      -4.197   6.462   4.668  1.00  0.00     0.171 C 
ATOM      6  C   UNL     1      -1.531   7.543   5.034  1.00  0.00     0.214 C 
ATOM      7  N   UNL     1      -1.701   6.296   4.324  1.00  0.00    -0.303 N 
ATOM      8  C   UNL     1      -2.599   7.784   6.090  1.00  0.00     0.057 C 
ATOM      9  C   UNL     1      -2.949   5.751   4.070  1.00  0.00     0.247 C 
ATOM     10  C   UNL     1      -3.969   7.755   5.450  1.00  0.00     0.040 C 
ATOM     11  O   UNL     1      -3.091   4.728   3.387  1.00  0.00    -0.272 OA
BRANCH   6  12
ATOM     12  O   UNL     1      -1.535   8.583   4.084  1.00  0.00    -0.373 OA
ATOM     13  H   UNL     1      -1.429   8.167   3.202  1.00  0.00     0.213 HD
ENDBRANCH   6  12
BRANCH   7  14
ATOM     14  C   UNL     1      -0.488   5.686   3.741  1.00  0.00     0.177 C 
BRANCH  14  15
ATOM     15  C   UNL     1      -0.007   6.316   2.420  1.00  0.00     0.038 C 
BRANCH  15  16
ATOM     16  C   UNL     1       0.683   5.428   1.360  1.00  0.00    -0.015 C 
ATOM     17  C   UNL     1       2.170   5.758   1.201  1.00  0.00     0.007 C 
ATOM     18  C   UNL     1       0.000   5.618  -0.000  1.00  0.00     0.007 C 
ENDBRANCH  15  16
ENDBRANCH  14  15
BRANCH  14  19
ATOM     19  C   UNL     1       0.444   5.138   4.876  1.00  0.00     0.245 C 
ATOM     20  O   UNL     1      -0.041   5.078   6.019  1.00  0.00    -0.272 OA
BRANCH  19  21
ATOM     21  N   UNL     1       1.781   4.832   4.696  1.00  0.00    -0.332 N 
ATOM     22  C   UNL     1       2.298   3.563   4.215  1.00  0.00     0.147 C 
BRANCH  21  23
ATOM     23  C   UNL     1       2.786   5.880   5.030  1.00  0.00     0.178 C 
BRANCH  23  24
ATOM     24  C   UNL     1       2.248   7.325   4.991  1.00  0.00     0.070 C 
BRANCH  24  25
ATOM     25  C   UNL     1       2.771   8.225   3.896  1.00  0.00    -0.045 A 
ATOM     26  C   UNL     1       1.919   9.117   3.232  1.00  0.00     0.004 A 
ATOM     27  C   UNL     1       4.123   8.174   3.523  1.00  0.00     0.004 A 
ATOM     28  C   UNL     1       2.407   9.933   2.209  1.00  0.00     0.000 A 
ATOM     29  C   UNL     1       4.609   8.991   2.501  1.00  0.00     0.000 A 
ATOM     30  C   UNL     1       3.749   9.868   1.843  1.00  0.00     0.000 A 
ENDBRANCH  24  25
ENDBRANCH  23  24
BRANCH  23  31
ATOM     31  C   UNL     1       3.629   5.531   6.279  1.00  0.00     0.243 C 
ATOM     32  O   UNL     1       3.150   5.246   7.374  1.00  0.00    -0.273 OA
ATOM     33  N   UNL     1       4.986   5.750   6.109  1.00  0.00    -0.341 N 
ATOM     34  H   UNL     1       5.325   5.992   5.175  1.00  0.00     0.164 HD
BRANCH  33  35
ATOM     35  C   UNL     1       5.961   5.601   7.193  1.00  0.00     0.194 C 
BRANCH  35  36
ATOM     36  C   UNL     1       6.879   6.840   7.396  1.00  0.00     0.017 C 
ATOM     37  C   UNL     1       6.871   7.308   8.861  1.00  0.00     0.010 C 
ATOM     38  C   UNL     1       6.476   8.039   6.529  1.00  0.00     0.010 C 
ENDBRANCH  35  36
BRANCH  35  39
ATOM     39  C   UNL     1       6.779   4.284   7.085  1.00  0.00     0.329 C 
ATOM     40  O   UNL     1       6.479   3.348   6.354  1.00  0.00    -0.250 OA
BRANCH  39  41
ATOM     41  O   UNL     1       7.923   4.320   7.834  1.00  0.00    -0.458 OA
BRANCH  41  42
ATOM     42  C   UNL     1       9.146   3.953   7.153  1.00  0.00     0.205 CG0
ATOM     43  C   UNL     1      10.013   3.193   8.154  1.00  0.00     0.056 C 
ATOM     44  G   UNL     1       9.827   5.237   6.639  1.00  0.00     0.000 G0
ENDBRANCH  41  42
ENDBRANCH  39  41
ENDBRANCH  35  39
ENDBRANCH  33  35
ENDBRANCH  23  31
ENDBRANCH  21  23
ENDBRANCH  19  21
ENDBRANCH  14  19
ENDBRANCH   7  14
ENDBRANCH   2   5
BRANCH   3  45
ATOM     45  C   UNL     1      -7.223   6.045   2.354  1.00  0.00     0.171 C 
BRANCH  45  46
ATOM     46  N   UNL     1      -8.045   4.847   2.251  1.00  0.00    -0.342 N 
ATOM     47  C   UNL     1      -9.358   4.886   1.854  1.00  0.00     0.247 C 
ATOM     48  O   UNL     1      -9.914   5.922   1.487  1.00  0.00    -0.273 OA
ATOM     49  H   UNL     1      -7.606   3.960   2.491  1.00  0.00     0.164 HD
BRANCH  47  50
ATOM     50  C   UNL     1     -10.099   3.544   1.926  1.00  0.00     0.212 CG0
ATOM     51  G   UNL     1     -10.803   3.326   0.571  1.00  0.00     0.000 G0
BRANCH  50  52
ATOM     52  N   UNL     1      -9.071   2.546   2.209  1.00  0.00    -0.339 N 
ATOM     53  C   UNL     1      -8.940   1.920   3.425  1.00  0.00     0.243 C 
ATOM     54  O   UNL     1      -9.649   2.193   4.389  1.00  0.00    -0.273 OA
ATOM     55  H   UNL     1      -8.382   2.357   1.483  1.00  0.00     0.164 HD
BRANCH  53  56
ATOM     56  C   UNL     1      -7.729   0.969   3.514  1.00  0.00     0.182 C 
BRANCH  56  57
ATOM     57  N   UNL     1      -6.847   1.129   2.353  1.00  0.00    -0.344 N 
ATOM     58  C   UNL     1      -5.575   1.637   2.459  1.00  0.00     0.220 C 
ATOM     59  O   UNL     1      -5.115   2.058   3.515  1.00  0.00    -0.275 OA
ATOM     60  H   UNL     1      -7.150   0.701   1.482  1.00  0.00     0.164 HD
BRANCH  58  61
ATOM     61  C   UNL     1      -4.824   1.657   1.141  1.00  0.00     0.100 C 
BRANCH  61  62
ATOM     62  C   UNL     1      -4.758   3.039   0.491  1.00  0.00     0.010 C 
BRANCH  62  63
ATOM     63  C   UNL     1      -3.386   3.391  -0.098  1.00  0.00     0.000 C 
BRANCH  63  64
ATOM     64  C   UNL     1      -2.209   2.726   0.615  1.00  0.00    -0.003 C 
ATOM     65  C   UNL     1      -1.285   2.028  -0.373  1.00  0.00     0.004 C 
ENDBRANCH  63  64
ENDBRANCH  62  63
ENDBRANCH  61  62
ENDBRANCH  58  61
ENDBRANCH  56  57
BRANCH  56  66
ATOM     66  C   UNL     1      -8.168  -0.481   3.709  1.00  0.00     0.157 C 
BRANCH  66  67
ATOM     67  C   UNL     1      -7.239  -1.429   3.007  1.00  0.00     0.305 C 
ATOM     68  O   UNL     1      -7.399  -1.931   1.905  1.00  0.00    -0.252 OA
BRANCH  67  69
ATOM     69  O   UNL     1      -6.117  -1.663   3.714  1.00  0.00    -0.481 OA
ATOM     70  H   UNL     1      -6.307  -1.311   4.609  1.00  0.00     0.296 HD
ENDBRANCH  67  69
ENDBRANCH  66  67
ENDBRANCH  56  66
ENDBRANCH  53  56
ENDBRANCH  50  52
ENDBRANCH  47  50
ENDBRANCH  45  46
BRANCH  45  71
ATOM     71  C   UNL     1      -6.399   6.277   1.083  1.00  0.00     0.037 C 
BRANCH  71  72
ATOM     72  C   UNL     1      -6.836   7.539   0.334  1.00  0.00     0.026 C 
BRANCH  72  73
ATOM     73  C   UNL     1      -6.059   8.766   0.804  1.00  0.00     0.146 C 
BRANCH  73  74
ATOM     74  N   UNL     1      -7.025   9.814   1.117  1.00  0.00    -0.254 NA
ATOM     75  C   UNL     1      -7.040  10.278   2.312  1.00  0.00     0.185 C 
ATOM     76  N   UNL     1      -7.917  11.243   2.631  1.00  0.00    -0.370 N 
ATOM     77  N   UNL     1      -6.274   9.933   3.362  1.00  0.00    -0.370 N 
ATOM     78  H   UNL     1      -8.539  11.556   1.899  1.00  0.00     0.159 HD
ATOM     79  H   UNL     1      -8.085  11.550   3.573  1.00  0.00     0.159 HD
ATOM     80  H   UNL     1      -5.565   9.221   3.268  1.00  0.00     0.159 HD
ATOM     81  H   UNL     1      -6.298  10.449   4.226  1.00  0.00     0.159 HD
ENDBRANCH  73  74
ENDBRANCH  72  73
ENDBRANCH  71  72
ENDBRANCH  45  71
ENDBRANCH   3  45
TORSDOF 20
ENDMDL
MODEL 22
REMARK VINA RESULT:    -5.157      8.418     13.682
REMARK INTER + INTRA:         -20.926
REMARK INTER:                 -15.544
REMARK INTRA:                  -5.382
REMARK UNBOUND:                -6.121
REMARK SMILES CCCCCC(=O)N[C@H](CC(=O)O)C(=O)N[C@H]1C(=O)N[C@H](CCCN=C(N)N)C(=O)N[C@@H]2CC[C@H](O)N(C2=O)[C@@H](CC(C)C)C(=O)N(C)[C@@H](Cc2ccccc2)C(=O)N[C@H](C(C)C)C(=O)O[C@@H]1C
REMARK SMILES IDX 30 1 31 2 29 3 32 5 35 6 37 7 34 8 38 9 33 10 39 11 36 12
REMARK SMILES IDX 40 14 41 15 42 16 43 17 44 18 45 19 46 20 47 21 48 22 49 23
REMARK SMILES IDX 50 24 51 25 52 26 56 27 53 28 55 29 54 30 57 31 58 32 59 33
REMARK SMILES IDX 60 35 61 36 62 37 63 38 64 39 65 40 66 41 67 42 68 43 21 45
REMARK SMILES IDX 20 46 18 47 19 48 17 50 16 52 14 53 15 54 9 56 8 57 6 58
REMARK SMILES IDX 7 59 5 61 4 62 3 63 2 64 1 65 10 66 11 67 12 68 13 69 22 71
REMARK SMILES IDX 23 72 24 73 25 74 26 75 27 76 28 77
REMARK H PARENT 31 4 36 13 59 34 20 49 16 55 8 60 13 70 27 78 27 79 28 80
REMARK H PARENT 28 81
REMARK Flexibility Score:  259.900
ROOT
ATOM      1  O   UNL     1       1.552   6.358   0.171  1.00  0.00    -0.273 OA
ATOM      2  N   UNL     1      -0.266   6.935   1.432  1.00  0.00    -0.343 N 
ATOM      3  C   UNL     1       0.330   6.385   0.318  1.00  0.00     0.243 C 
ATOM      4  H   UNL     1      -1.275   6.926   1.525  1.00  0.00     0.164 HD
ENDROOT
BRANCH   2   5
ATOM      5  C   UNL     1       0.534   7.621   2.440  1.00  0.00     0.171 C 
ATOM      6  C   UNL     1       3.393   7.938   2.797  1.00  0.00     0.214 C 
ATOM      7  N   UNL     1       2.719   6.823   3.421  1.00  0.00    -0.303 N 
ATOM      8  C   UNL     1       2.509   9.165   2.639  1.00  0.00     0.057 C 
ATOM      9  C   UNL     1       1.365   6.584   3.249  1.00  0.00     0.247 C 
ATOM     10  C   UNL     1       1.279   8.809   1.834  1.00  0.00     0.040 C 
ATOM     11  O   UNL     1       0.812   5.580   3.716  1.00  0.00    -0.272 OA
BRANCH   6  12
ATOM     12  O   UNL     1       3.866   7.507   1.542  1.00  0.00    -0.373 OA
ATOM     13  H   UNL     1       4.418   8.232   1.178  1.00  0.00     0.213 HD
ENDBRANCH   6  12
BRANCH   7  14
ATOM     14  C   UNL     1       3.563   5.847   4.141  1.00  0.00     0.177 C 
BRANCH  14  15
ATOM     15  C   UNL     1       3.146   5.567   5.598  1.00  0.00     0.038 C 
BRANCH  15  16
ATOM     16  C   UNL     1       4.230   5.263   6.655  1.00  0.00    -0.015 C 
ATOM     17  C   UNL     1       4.017   3.909   7.338  1.00  0.00     0.007 C 
ATOM     18  C   UNL     1       4.220   6.353   7.735  1.00  0.00     0.007 C 
ENDBRANCH  15  16
ENDBRANCH  14  15
BRANCH  14  19
ATOM     19  C   UNL     1       4.138   4.784   3.142  1.00  0.00     0.245 C 
ATOM     20  O   UNL     1       5.071   5.152   2.410  1.00  0.00    -0.272 OA
BRANCH  19  21
ATOM     21  N   UNL     1       3.596   3.524   2.961  1.00  0.00    -0.332 N 
ATOM     22  C   UNL     1       4.036   2.313   3.631  1.00  0.00     0.147 C 
BRANCH  21  23
ATOM     23  C   UNL     1       2.474   3.381   1.993  1.00  0.00     0.178 C 
BRANCH  23  24
ATOM     24  C   UNL     1       2.903   3.322   0.512  1.00  0.00     0.070 C 
BRANCH  24  25
ATOM     25  C   UNL     1       4.140   2.518   0.186  1.00  0.00    -0.045 A 
ATOM     26  C   UNL     1       4.083   1.122   0.085  1.00  0.00     0.004 A 
ATOM     27  C   UNL     1       5.370   3.163  -0.017  1.00  0.00     0.004 A 
ATOM     28  C   UNL     1       5.235   0.385  -0.200  1.00  0.00     0.000 A 
ATOM     29  C   UNL     1       6.519   2.425  -0.304  1.00  0.00     0.000 A 
ATOM     30  C   UNL     1       6.451   1.036  -0.392  1.00  0.00     0.000 A 
ENDBRANCH  24  25
ENDBRANCH  23  24
BRANCH  23  31
ATOM     31  C   UNL     1       1.444   2.307   2.416  1.00  0.00     0.243 C 
ATOM     32  O   UNL     1       1.223   1.279   1.780  1.00  0.00    -0.273 OA
ATOM     33  N   UNL     1       0.652   2.691   3.484  1.00  0.00    -0.341 N 
ATOM     34  H   UNL     1       0.882   3.561   3.971  1.00  0.00     0.164 HD
BRANCH  33  35
ATOM     35  C   UNL     1      -0.467   1.884   3.980  1.00  0.00     0.194 C 
BRANCH  35  36
ATOM     36  C   UNL     1      -0.123   0.383   4.191  1.00  0.00     0.017 C 
ATOM     37  C   UNL     1      -1.370  -0.427   4.584  1.00  0.00     0.010 C 
ATOM     38  C   UNL     1       0.935   0.152   5.276  1.00  0.00     0.010 C 
ENDBRANCH  35  36
BRANCH  35  39
ATOM     39  C   UNL     1      -1.758   2.071   3.135  1.00  0.00     0.329 C 
ATOM     40  O   UNL     1      -2.610   2.922   3.362  1.00  0.00    -0.250 OA
BRANCH  39  41
ATOM     41  O   UNL     1      -1.798   1.234   2.055  1.00  0.00    -0.458 OA
BRANCH  41  42
ATOM     42  C   UNL     1      -2.520   1.716   0.896  1.00  0.00     0.205 CG0
ATOM     43  C   UNL     1      -3.480   0.609   0.466  1.00  0.00     0.056 C 
ATOM     44  G   UNL     1      -1.502   2.074  -0.204  1.00  0.00     0.000 G0
ENDBRANCH  41  42
ENDBRANCH  39  41
ENDBRANCH  35  39
ENDBRANCH  33  35
ENDBRANCH  23  31
ENDBRANCH  21  23
ENDBRANCH  19  21
ENDBRANCH  14  19
ENDBRANCH   7  14
ENDBRANCH   2   5
BRANCH   3  45
ATOM     45  C   UNL     1      -0.634   5.790  -0.717  1.00  0.00     0.171 C 
BRANCH  45  46
ATOM     46  N   UNL     1      -0.589   4.348  -0.515  1.00  0.00    -0.342 N 
ATOM     47  C   UNL     1      -1.709   3.559  -0.587  1.00  0.00     0.247 C 
ATOM     48  O   UNL     1      -2.817   3.998  -0.898  1.00  0.00    -0.273 OA
ATOM     49  H   UNL     1       0.319   3.935  -0.310  1.00  0.00     0.164 HD
BRANCH  47  50
ATOM     50  C   UNL     1      -1.490   2.084  -0.222  1.00  0.00     0.212 CG0
ATOM     51  G   UNL     1      -2.521   1.712   0.862  1.00  0.00     0.000 G0
BRANCH  50  52
ATOM     52  N   UNL     1      -1.670   1.344  -1.468  1.00  0.00    -0.339 N 
ATOM     53  C   UNL     1      -0.657   0.656  -2.092  1.00  0.00     0.243 C 
ATOM     54  O   UNL     1       0.498   0.655  -1.674  1.00  0.00    -0.273 OA
ATOM     55  H   UNL     1      -2.579   1.398  -1.923  1.00  0.00     0.164 HD
BRANCH  53  56
ATOM     56  C   UNL     1      -1.064   0.024  -3.439  1.00  0.00     0.182 C 
BRANCH  56  57
ATOM     57  N   UNL     1      -1.643  -1.308  -3.241  1.00  0.00    -0.344 N 
ATOM     58  C   UNL     1      -2.908  -1.632  -3.669  1.00  0.00     0.220 C 
ATOM     59  O   UNL     1      -3.666  -0.813  -4.178  1.00  0.00    -0.275 OA
ATOM     60  H   UNL     1      -1.016  -2.040  -2.918  1.00  0.00     0.164 HD
BRANCH  58  61
ATOM     61  C   UNL     1      -3.277  -3.081  -3.413  1.00  0.00     0.100 C 
BRANCH  61  62
ATOM     62  C   UNL     1      -4.783  -3.345  -3.423  1.00  0.00     0.010 C 
BRANCH  62  63
ATOM     63  C   UNL     1      -5.501  -2.934  -2.131  1.00  0.00     0.000 C 
BRANCH  63  64
ATOM     64  C   UNL     1      -6.648  -3.860  -1.730  1.00  0.00    -0.003 C 
ATOM     65  C   UNL     1      -7.425  -4.340  -2.948  1.00  0.00     0.004 C 
ENDBRANCH  63  64
ENDBRANCH  62  63
ENDBRANCH  61  62
ENDBRANCH  58  61
ENDBRANCH  56  57
BRANCH  56  66
ATOM     66  C   UNL     1       0.103   0.006  -4.424  1.00  0.00     0.157 C 
BRANCH  66  67
ATOM     67  C   UNL     1      -0.364   0.273  -5.826  1.00  0.00     0.305 C 
ATOM     68  O   UNL     1      -1.371  -0.167  -6.359  1.00  0.00    -0.252 OA
BRANCH  67  69
ATOM     69  O   UNL     1       0.441   1.133  -6.478  1.00  0.00    -0.481 OA
ATOM     70  H   UNL     1       0.004   1.277  -7.344  1.00  0.00     0.296 HD
ENDBRANCH  67  69
ENDBRANCH  66  67
ENDBRANCH  56  66
ENDBRANCH  53  56
ENDBRANCH  50  52
ENDBRANCH  47  50
ENDBRANCH  45  46
BRANCH  45  71
ATOM     71  C   UNL     1      -0.199   6.176  -2.135  1.00  0.00     0.037 C 
BRANCH  71  72
ATOM     72  C   UNL     1      -1.222   5.745  -3.189  1.00  0.00     0.026 C 
BRANCH  72  73
ATOM     73  C   UNL     1      -0.714   4.564  -4.013  1.00  0.00     0.146 C 
BRANCH  73  74
ATOM     74  N   UNL     1      -1.774   3.561  -4.057  1.00  0.00    -0.254 NA
ATOM     75  C   UNL     1      -2.187   3.176  -5.208  1.00  0.00     0.185 C 
ATOM     76  N   UNL     1      -3.160   2.253  -5.281  1.00  0.00    -0.370 N 
ATOM     77  N   UNL     1      -1.779   3.569  -6.427  1.00  0.00    -0.370 N 
ATOM     78  H   UNL     1      -3.530   1.908  -4.406  1.00  0.00     0.159 HD
ATOM     79  H   UNL     1      -3.632   2.012  -6.135  1.00  0.00     0.159 HD
ATOM     80  H   UNL     1      -1.048   4.257  -6.527  1.00  0.00     0.159 HD
ATOM     81  H   UNL     1      -2.098   3.110  -7.264  1.00  0.00     0.159 HD
ENDBRANCH  73  74
ENDBRANCH  72  73
ENDBRANCH  71  72
ENDBRANCH  45  71
ENDBRANCH   3  45
TORSDOF 20
ENDMDL
MODEL 23
REMARK VINA RESULT:    -5.123     11.869     17.076
REMARK INTER + INTRA:         -20.829
REMARK INTER:                 -13.406
REMARK INTRA:                  -7.423
REMARK UNBOUND:                -6.121
REMARK SMILES CCCCCC(=O)N[C@H](CC(=O)O)C(=O)N[C@H]1C(=O)N[C@H](CCCN=C(N)N)C(=O)N[C@@H]2CC[C@H](O)N(C2=O)[C@@H](CC(C)C)C(=O)N(C)[C@@H](Cc2ccccc2)C(=O)N[C@H](C(C)C)C(=O)O[C@@H]1C
REMARK SMILES IDX 30 1 31 2 29 3 32 5 35 6 37 7 34 8 38 9 33 10 39 11 36 12
REMARK SMILES IDX 40 14 41 15 42 16 43 17 44 18 45 19 46 20 47 21 48 22 49 23
REMARK SMILES IDX 50 24 51 25 52 26 56 27 53 28 55 29 54 30 57 31 58 32 59 33
REMARK SMILES IDX 60 35 61 36 62 37 63 38 64 39 65 40 66 41 67 42 68 43 21 45
REMARK SMILES IDX 20 46 18 47 19 48 17 50 16 52 14 53 15 54 9 56 8 57 6 58
REMARK SMILES IDX 7 59 5 61 4 62 3 63 2 64 1 65 10 66 11 67 12 68 13 69 22 71
REMARK SMILES IDX 23 72 24 73 25 74 26 75 27 76 28 77
REMARK H PARENT 31 4 36 13 59 34 20 49 16 55 8 60 13 70 27 78 27 79 28 80
REMARK H PARENT 28 81
REMARK Flexibility Score:  259.900
ROOT
ATOM      1  O   UNL     1       1.694   8.456   1.379  1.00  0.00    -0.273 OA
ATOM      2  N   UNL     1       0.376   6.615   1.700  1.00  0.00    -0.343 N 
ATOM      3  C   UNL     1       0.897   7.833   2.081  1.00  0.00     0.243 C 
ATOM      4  H   UNL     1      -0.288   6.137   2.296  1.00  0.00     0.164 HD
ENDROOT
BRANCH   2   5
ATOM      5  C   UNL     1       0.846   5.952   0.488  1.00  0.00     0.171 C 
ATOM      6  C   UNL     1       0.899   3.174  -0.337  1.00  0.00     0.214 C 
ATOM      7  N   UNL     1       2.036   3.730   0.358  1.00  0.00    -0.303 N 
ATOM      8  C   UNL     1       0.142   4.197  -1.169  1.00  0.00     0.057 C 
ATOM      9  C   UNL     1       2.056   5.034   0.824  1.00  0.00     0.247 C 
ATOM     10  C   UNL     1      -0.318   5.336  -0.286  1.00  0.00     0.040 C 
ATOM     11  O   UNL     1       2.998   5.477   1.494  1.00  0.00    -0.272 OA
BRANCH   6  12
ATOM     12  O   UNL     1       0.047   2.595   0.625  1.00  0.00    -0.373 OA
ATOM     13  H   UNL     1       0.621   2.171   1.298  1.00  0.00     0.213 HD
ENDBRANCH   6  12
BRANCH   7  14
ATOM     14  C   UNL     1       3.139   2.803   0.688  1.00  0.00     0.177 C 
BRANCH  14  15
ATOM     15  C   UNL     1       4.478   3.099  -0.014  1.00  0.00     0.038 C 
BRANCH  15  16
ATOM     16  C   UNL     1       5.490   1.954  -0.238  1.00  0.00    -0.015 C 
ATOM     17  C   UNL     1       4.828   0.573  -0.195  1.00  0.00     0.007 C 
ATOM     18  C   UNL     1       6.575   2.000   0.845  1.00  0.00     0.007 C 
ENDBRANCH  15  16
ENDBRANCH  14  15
BRANCH  14  19
ATOM     19  C   UNL     1       2.982   2.272   2.155  1.00  0.00     0.245 C 
ATOM     20  O   UNL     1       2.198   1.323   2.325  1.00  0.00    -0.272 OA
BRANCH  19  21
ATOM     21  N   UNL     1       3.570   2.866   3.257  1.00  0.00    -0.332 N 
ATOM     22  C   UNL     1       4.890   3.471   3.284  1.00  0.00     0.147 C 
BRANCH  21  23
ATOM     23  C   UNL     1       2.802   2.882   4.533  1.00  0.00     0.178 C 
BRANCH  23  24
ATOM     24  C   UNL     1       3.656   3.096   5.799  1.00  0.00     0.070 C 
BRANCH  24  25
ATOM     25  C   UNL     1       3.782   1.929   6.750  1.00  0.00    -0.045 A 
ATOM     26  C   UNL     1       4.801   1.892   7.710  1.00  0.00     0.004 A 
ATOM     27  C   UNL     1       2.878   0.858   6.680  1.00  0.00     0.004 A 
ATOM     28  C   UNL     1       4.921   0.802   8.575  1.00  0.00     0.000 A 
ATOM     29  C   UNL     1       2.998  -0.230   7.545  1.00  0.00     0.000 A 
ATOM     30  C   UNL     1       4.022  -0.259   8.490  1.00  0.00     0.000 A 
ENDBRANCH  24  25
ENDBRANCH  23  24
BRANCH  23  31
ATOM     31  C   UNL     1       1.523   3.749   4.456  1.00  0.00     0.243 C 
ATOM     32  O   UNL     1       1.527   4.975   4.383  1.00  0.00    -0.273 OA
ATOM     33  N   UNL     1       0.356   3.033   4.664  1.00  0.00    -0.341 N 
ATOM     34  H   UNL     1       0.416   2.013   4.723  1.00  0.00     0.164 HD
BRANCH  33  35
ATOM     35  C   UNL     1      -0.964   3.664   4.753  1.00  0.00     0.194 C 
BRANCH  35  36
ATOM     36  C   UNL     1      -1.909   3.014   5.802  1.00  0.00     0.017 C 
ATOM     37  C   UNL     1      -1.891   3.792   7.129  1.00  0.00     0.010 C 
ATOM     38  C   UNL     1      -1.550   1.558   6.119  1.00  0.00     0.010 C 
ENDBRANCH  35  36
BRANCH  35  39
ATOM     39  C   UNL     1      -1.650   3.812   3.366  1.00  0.00     0.329 C 
ATOM     40  O   UNL     1      -1.808   2.889   2.576  1.00  0.00    -0.250 OA
BRANCH  39  41
ATOM     41  O   UNL     1      -2.139   5.073   3.159  1.00  0.00    -0.458 OA
BRANCH  41  42
ATOM     42  C   UNL     1      -3.228   5.487   4.018  1.00  0.00     0.205 CG0
ATOM     43  C   UNL     1      -4.530   5.162   3.289  1.00  0.00     0.056 C 
ATOM     44  G   UNL     1      -3.077   6.993   4.313  1.00  0.00     0.000 G0
ENDBRANCH  41  42
ENDBRANCH  39  41
ENDBRANCH  35  39
ENDBRANCH  33  35
ENDBRANCH  23  31
ENDBRANCH  21  23
ENDBRANCH  19  21
ENDBRANCH  14  19
ENDBRANCH   7  14
ENDBRANCH   2   5
BRANCH   3  45
ATOM     45  C   UNL     1       0.399   8.368   3.430  1.00  0.00     0.171 C 
BRANCH  45  46
ATOM     46  N   UNL     1      -1.024   8.061   3.474  1.00  0.00    -0.342 N 
ATOM     47  C   UNL     1      -1.590   7.334   4.491  1.00  0.00     0.247 C 
ATOM     48  O   UNL     1      -0.953   6.951   5.473  1.00  0.00    -0.273 OA
ATOM     49  H   UNL     1      -1.599   8.407   2.708  1.00  0.00     0.164 HD
BRANCH  47  50
ATOM     50  C   UNL     1      -3.078   7.004   4.304  1.00  0.00     0.212 CG0
ATOM     51  G   UNL     1      -3.189   5.492   4.022  1.00  0.00     0.000 G0
BRANCH  50  52
ATOM     52  N   UNL     1      -3.725   7.408   5.549  1.00  0.00    -0.339 N 
ATOM     53  C   UNL     1      -4.355   8.617   5.716  1.00  0.00     0.243 C 
ATOM     54  O   UNL     1      -4.375   9.479   4.842  1.00  0.00    -0.273 OA
ATOM     55  H   UNL     1      -3.647   6.781   6.348  1.00  0.00     0.164 HD
BRANCH  53  56
ATOM     56  C   UNL     1      -4.889   8.855   7.143  1.00  0.00     0.182 C 
BRANCH  56  57
ATOM     57  N   UNL     1      -3.800   8.821   8.125  1.00  0.00    -0.344 N 
ATOM     58  C   UNL     1      -3.558   9.859   8.991  1.00  0.00     0.220 C 
ATOM     59  O   UNL     1      -4.184  10.913   8.956  1.00  0.00    -0.275 OA
ATOM     60  H   UNL     1      -3.326   7.932   8.256  1.00  0.00     0.164 HD
BRANCH  58  61
ATOM     61  C   UNL     1      -2.421   9.583   9.958  1.00  0.00     0.100 C 
BRANCH  61  62
ATOM     62  C   UNL     1      -1.672   8.281   9.673  1.00  0.00     0.010 C 
BRANCH  62  63
ATOM     63  C   UNL     1      -0.297   8.478   9.022  1.00  0.00     0.000 C 
BRANCH  63  64
ATOM     64  C   UNL     1       0.770   7.497   9.504  1.00  0.00    -0.003 C 
ATOM     65  C   UNL     1       1.530   6.885   8.336  1.00  0.00     0.004 C 
ENDBRANCH  63  64
ENDBRANCH  62  63
ENDBRANCH  61  62
ENDBRANCH  58  61
ENDBRANCH  56  57
BRANCH  56  66
ATOM     66  C   UNL     1      -6.011   7.879   7.491  1.00  0.00     0.157 C 
BRANCH  66  67
ATOM     67  C   UNL     1      -7.360   8.507   7.293  1.00  0.00     0.305 C 
ATOM     68  O   UNL     1      -7.719   9.186   6.343  1.00  0.00    -0.252 OA
BRANCH  67  69
ATOM     69  O   UNL     1      -8.217   8.202   8.285  1.00  0.00    -0.481 OA
ATOM     70  H   UNL     1      -7.646   7.999   9.056  1.00  0.00     0.296 HD
ENDBRANCH  67  69
ENDBRANCH  66  67
ENDBRANCH  56  66
ENDBRANCH  53  56
ENDBRANCH  50  52
ENDBRANCH  47  50
ENDBRANCH  45  46
BRANCH  45  71
ATOM     71  C   UNL     1       0.656   9.875   3.534  1.00  0.00     0.037 C 
BRANCH  71  72
ATOM     72  C   UNL     1       1.542  10.226   4.732  1.00  0.00     0.026 C 
BRANCH  72  73
ATOM     73  C   UNL     1       2.256   8.993   5.282  1.00  0.00     0.146 C 
BRANCH  73  74
ATOM     74  N   UNL     1       3.671   9.106   4.941  1.00  0.00    -0.254 NA
ATOM     75  C   UNL     1       4.237   8.098   4.388  1.00  0.00     0.185 C 
ATOM     76  N   UNL     1       5.537   8.172   4.062  1.00  0.00    -0.370 N 
ATOM     77  N   UNL     1       3.707   6.906   4.061  1.00  0.00    -0.370 N 
ATOM     78  H   UNL     1       6.015   9.035   4.281  1.00  0.00     0.159 HD
ATOM     79  H   UNL     1       6.079   7.381   3.762  1.00  0.00     0.159 HD
ATOM     80  H   UNL     1       2.735   6.709   4.244  1.00  0.00     0.159 HD
ATOM     81  H   UNL     1       4.222   6.229   3.522  1.00  0.00     0.159 HD
ENDBRANCH  73  74
ENDBRANCH  72  73
ENDBRANCH  71  72
ENDBRANCH  45  71
ENDBRANCH   3  45
TORSDOF 20
ENDMDL
MODEL 24
REMARK VINA RESULT:    -5.115      2.192      3.640
REMARK INTER + INTRA:         -20.804
REMARK INTER:                 -16.995
REMARK INTRA:                  -3.808
REMARK UNBOUND:                -6.121
REMARK SMILES CCCCCC(=O)N[C@H](CC(=O)O)C(=O)N[C@H]1C(=O)N[C@H](CCCN=C(N)N)C(=O)N[C@@H]2CC[C@H](O)N(C2=O)[C@@H](CC(C)C)C(=O)N(C)[C@@H](Cc2ccccc2)C(=O)N[C@H](C(C)C)C(=O)O[C@@H]1C
REMARK SMILES IDX 30 1 31 2 29 3 32 5 35 6 37 7 34 8 38 9 33 10 39 11 36 12
REMARK SMILES IDX 40 14 41 15 42 16 43 17 44 18 45 19 46 20 47 21 48 22 49 23
REMARK SMILES IDX 50 24 51 25 52 26 56 27 53 28 55 29 54 30 57 31 58 32 59 33
REMARK SMILES IDX 60 35 61 36 62 37 63 38 64 39 65 40 66 41 67 42 68 43 21 45
REMARK SMILES IDX 20 46 18 47 19 48 17 50 16 52 14 53 15 54 9 56 8 57 6 58
REMARK SMILES IDX 7 59 5 61 4 62 3 63 2 64 1 65 10 66 11 67 12 68 13 69 22 71
REMARK SMILES IDX 23 72 24 73 25 74 26 75 27 76 28 77
REMARK H PARENT 31 4 36 13 59 34 20 49 16 55 8 60 13 70 27 78 27 79 28 80
REMARK H PARENT 28 81
REMARK Flexibility Score:  259.900
ROOT
ATOM      1  O   UNL     1      -1.052  -1.215  -7.404  1.00  0.00    -0.273 OA
ATOM      2  N   UNL     1       0.352   0.578  -7.195  1.00  0.00    -0.343 N 
ATOM      3  C   UNL     1      -0.668  -0.239  -6.758  1.00  0.00     0.243 C 
ATOM      4  H   UNL     1       0.652   1.363  -6.629  1.00  0.00     0.164 HD
ENDROOT
BRANCH   2   5
ATOM      5  C   UNL     1       0.945   0.386  -8.514  1.00  0.00     0.171 C 
ATOM      6  C   UNL     1       3.503   1.146  -9.647  1.00  0.00     0.214 C 
ATOM      7  N   UNL     1       2.377   2.041  -9.771  1.00  0.00    -0.303 N 
ATOM      8  C   UNL     1       3.103  -0.320  -9.595  1.00  0.00     0.057 C 
ATOM      9  C   UNL     1       1.141   1.763  -9.209  1.00  0.00     0.247 C 
ATOM     10  C   UNL     1       2.150  -0.551  -8.442  1.00  0.00     0.040 C 
ATOM     11  O   UNL     1       0.206   2.574  -9.246  1.00  0.00    -0.272 OA
BRANCH   6  12
ATOM     12  O   UNL     1       4.212   1.505  -8.484  1.00  0.00    -0.373 OA
ATOM     13  H   UNL     1       4.942   0.857  -8.381  1.00  0.00     0.213 HD
ENDBRANCH   6  12
BRANCH   7  14
ATOM     14  C   UNL     1       2.630   3.354 -10.403  1.00  0.00     0.177 C 
BRANCH  14  15
ATOM     15  C   UNL     1       1.510   4.396 -10.222  1.00  0.00     0.038 C 
BRANCH  15  16
ATOM     16  C   UNL     1       1.034   5.221 -11.439  1.00  0.00    -0.015 C 
ATOM     17  C   UNL     1      -0.491   5.232 -11.576  1.00  0.00     0.007 C 
ATOM     18  C   UNL     1       1.627   4.635 -12.727  1.00  0.00     0.007 C 
ENDBRANCH  15  16
ENDBRANCH  14  15
BRANCH  14  19
ATOM     19  C   UNL     1       4.166   3.665 -10.412  1.00  0.00     0.245 C 
ATOM     20  O   UNL     1       4.670   4.024  -9.335  1.00  0.00    -0.272 OA
BRANCH  19  21
ATOM     21  N   UNL     1       4.946   3.670 -11.555  1.00  0.00    -0.332 N 
ATOM     22  C   UNL     1       5.444   4.854 -12.231  1.00  0.00     0.147 C 
BRANCH  21  23
ATOM     23  C   UNL     1       5.302   2.356 -12.160  1.00  0.00     0.178 C 
BRANCH  23  24
ATOM     24  C   UNL     1       5.137   2.285 -13.692  1.00  0.00     0.070 C 
BRANCH  24  25
ATOM     25  C   UNL     1       6.006   1.296 -14.432  1.00  0.00    -0.045 A 
ATOM     26  C   UNL     1       7.080   1.732 -15.219  1.00  0.00     0.004 A 
ATOM     27  C   UNL     1       5.745  -0.080 -14.345  1.00  0.00     0.004 A 
ATOM     28  C   UNL     1       7.868   0.812 -15.914  1.00  0.00     0.000 A 
ATOM     29  C   UNL     1       6.534  -0.998 -15.039  1.00  0.00     0.000 A 
ATOM     30  C   UNL     1       7.594  -0.551 -15.826  1.00  0.00     0.000 A 
ENDBRANCH  24  25
ENDBRANCH  23  24
BRANCH  23  31
ATOM     31  C   UNL     1       6.635   1.785 -11.621  1.00  0.00     0.243 C 
ATOM     32  O   UNL     1       6.723   0.754 -10.960  1.00  0.00    -0.273 OA
ATOM     33  N   UNL     1       7.712   2.639 -11.791  1.00  0.00    -0.341 N 
ATOM     34  H   UNL     1       7.575   3.487 -12.346  1.00  0.00     0.164 HD
BRANCH  33  35
ATOM     35  C   UNL     1       9.046   2.359 -11.254  1.00  0.00     0.194 C 
BRANCH  35  36
ATOM     36  C   UNL     1       9.719   3.575 -10.557  1.00  0.00     0.017 C 
ATOM     37  C   UNL     1       9.479   3.552  -9.037  1.00  0.00     0.010 C 
ATOM     38  C   UNL     1       9.215   4.926 -11.081  1.00  0.00     0.010 C 
ENDBRANCH  35  36
BRANCH  35  39
ATOM     39  C   UNL     1       9.985   1.698 -12.301  1.00  0.00     0.329 C 
ATOM     40  O   UNL     1       9.716   0.671 -12.913  1.00  0.00    -0.250 OA
BRANCH  39  41
ATOM     41  O   UNL     1      11.112   2.438 -12.529  1.00  0.00    -0.458 OA
BRANCH  41  42
ATOM     42  C   UNL     1      12.150   1.801 -13.312  1.00  0.00     0.205 CG0
ATOM     43  C   UNL     1      13.218   1.311 -12.336  1.00  0.00     0.056 C 
ATOM     44  G   UNL     1      12.701   2.825 -14.324  1.00  0.00     0.000 G0
ENDBRANCH  41  42
ENDBRANCH  39  41
ENDBRANCH  35  39
ENDBRANCH  33  35
ENDBRANCH  23  31
ENDBRANCH  21  23
ENDBRANCH  19  21
ENDBRANCH  14  19
ENDBRANCH   7  14
ENDBRANCH   2   5
BRANCH   3  45
ATOM     45  C   UNL     1      -1.277   0.138  -5.401  1.00  0.00     0.171 C 
BRANCH  45  46
ATOM     46  N   UNL     1      -2.684   0.409  -5.663  1.00  0.00    -0.342 N 
ATOM     47  C   UNL     1      -3.691  -0.383  -5.170  1.00  0.00     0.247 C 
ATOM     48  O   UNL     1      -3.485  -1.333  -4.414  1.00  0.00    -0.273 OA
ATOM     49  H   UNL     1      -2.903   1.220  -6.239  1.00  0.00     0.164 HD
BRANCH  47  50
ATOM     50  C   UNL     1      -5.102  -0.016  -5.653  1.00  0.00     0.212 CG0
ATOM     51  G   UNL     1      -5.919   0.420  -4.420  1.00  0.00     0.000 G0
BRANCH  50  52
ATOM     52  N   UNL     1      -4.914   1.055  -6.628  1.00  0.00    -0.339 N 
ATOM     53  C   UNL     1      -5.950   1.786  -7.157  1.00  0.00     0.243 C 
ATOM     54  O   UNL     1      -7.126   1.557  -6.888  1.00  0.00    -0.273 OA
ATOM     55  H   UNL     1      -3.971   1.218  -6.975  1.00  0.00     0.164 HD
BRANCH  53  56
ATOM     56  C   UNL     1      -5.516   2.803  -8.232  1.00  0.00     0.182 C 
BRANCH  56  57
ATOM     57  N   UNL     1      -4.794   3.928  -7.630  1.00  0.00    -0.344 N 
ATOM     58  C   UNL     1      -3.636   4.433  -8.170  1.00  0.00     0.220 C 
ATOM     59  O   UNL     1      -3.087   3.934  -9.147  1.00  0.00    -0.275 OA
ATOM     60  H   UNL     1      -5.266   4.432  -6.884  1.00  0.00     0.164 HD
BRANCH  58  61
ATOM     61  C   UNL     1      -3.094   5.633  -7.416  1.00  0.00     0.100 C 
BRANCH  61  62
ATOM     62  C   UNL     1      -4.168   6.642  -7.010  1.00  0.00     0.010 C 
BRANCH  62  63
ATOM     63  C   UNL     1      -3.909   8.070  -7.509  1.00  0.00     0.000 C 
BRANCH  63  64
ATOM     64  C   UNL     1      -4.324   8.312  -8.959  1.00  0.00    -0.003 C 
ATOM     65  C   UNL     1      -4.025   9.740  -9.391  1.00  0.00     0.004 C 
ENDBRANCH  63  64
ENDBRANCH  62  63
ENDBRANCH  61  62
ENDBRANCH  58  61
ENDBRANCH  56  57
BRANCH  56  66
ATOM     66  C   UNL     1      -6.701   3.264  -9.078  1.00  0.00     0.157 C 
BRANCH  66  67
ATOM     67  C   UNL     1      -6.368   3.239 -10.541  1.00  0.00     0.305 C 
ATOM     68  O   UNL     1      -6.763   2.433 -11.369  1.00  0.00    -0.252 OA
BRANCH  67  69
ATOM     69  O   UNL     1      -5.585   4.272 -10.906  1.00  0.00    -0.481 OA
ATOM     70  H   UNL     1      -4.711   4.077 -10.507  1.00  0.00     0.296 HD
ENDBRANCH  67  69
ENDBRANCH  66  67
ENDBRANCH  56  66
ENDBRANCH  53  56
ENDBRANCH  50  52
ENDBRANCH  47  50
ENDBRANCH  45  46
BRANCH  45  71
ATOM     71  C   UNL     1      -0.564   1.362  -4.818  1.00  0.00     0.037 C 
BRANCH  71  72
ATOM     72  C   UNL     1      -1.431   2.101  -3.795  1.00  0.00     0.026 C 
BRANCH  72  73
ATOM     73  C   UNL     1      -1.051   1.726  -2.364  1.00  0.00     0.146 C 
BRANCH  73  74
ATOM     74  N   UNL     1      -2.182   1.017  -1.772  1.00  0.00    -0.254 NA
ATOM     75  C   UNL     1      -2.131  -0.263  -1.731  1.00  0.00     0.185 C 
ATOM     76  N   UNL     1      -3.156  -0.943  -1.192  1.00  0.00    -0.370 N 
ATOM     77  N   UNL     1      -1.161  -1.084  -2.167  1.00  0.00    -0.370 N 
ATOM     78  H   UNL     1      -3.934  -0.400  -0.845  1.00  0.00     0.159 HD
ATOM     79  H   UNL     1      -3.252  -1.941  -1.255  1.00  0.00     0.159 HD
ATOM     80  H   UNL     1      -0.325  -0.712  -2.593  1.00  0.00     0.159 HD
ATOM     81  H   UNL     1      -1.180  -2.073  -1.976  1.00  0.00     0.159 HD
ENDBRANCH  73  74
ENDBRANCH  72  73
ENDBRANCH  71  72
ENDBRANCH  45  71
ENDBRANCH   3  45
TORSDOF 20
ENDMDL
MODEL 25
REMARK VINA RESULT:    -5.109     14.718     17.507
REMARK INTER + INTRA:         -20.788
REMARK INTER:                 -14.649
REMARK INTRA:                  -6.139
REMARK UNBOUND:                -6.121
REMARK SMILES CCCCCC(=O)N[C@H](CC(=O)O)C(=O)N[C@H]1C(=O)N[C@H](CCCN=C(N)N)C(=O)N[C@@H]2CC[C@H](O)N(C2=O)[C@@H](CC(C)C)C(=O)N(C)[C@@H](Cc2ccccc2)C(=O)N[C@H](C(C)C)C(=O)O[C@@H]1C
REMARK SMILES IDX 30 1 31 2 29 3 32 5 35 6 37 7 34 8 38 9 33 10 39 11 36 12
REMARK SMILES IDX 40 14 41 15 42 16 43 17 44 18 45 19 46 20 47 21 48 22 49 23
REMARK SMILES IDX 50 24 51 25 52 26 56 27 53 28 55 29 54 30 57 31 58 32 59 33
REMARK SMILES IDX 60 35 61 36 62 37 63 38 64 39 65 40 66 41 67 42 68 43 21 45
REMARK SMILES IDX 20 46 18 47 19 48 17 50 16 52 14 53 15 54 9 56 8 57 6 58
REMARK SMILES IDX 7 59 5 61 4 62 3 63 2 64 1 65 10 66 11 67 12 68 13 69 22 71
REMARK SMILES IDX 23 72 24 73 25 74 26 75 27 76 28 77
REMARK H PARENT 31 4 36 13 59 34 20 49 16 55 8 60 13 70 27 78 27 79 28 80
REMARK H PARENT 28 81
REMARK Flexibility Score:  259.900
ROOT
ATOM      1  O   UNL     1      -2.751   1.601   7.646  1.00  0.00    -0.273 OA
ATOM      2  N   UNL     1      -2.628   3.880   7.499  1.00  0.00    -0.343 N 
ATOM      3  C   UNL     1      -3.244   2.667   7.276  1.00  0.00     0.243 C 
ATOM      4  H   UNL     1      -3.070   4.738   7.193  1.00  0.00     0.164 HD
ENDROOT
BRANCH   2   5
ATOM      5  C   UNL     1      -1.293   3.939   8.085  1.00  0.00     0.171 C 
ATOM      6  C   UNL     1       0.495   6.141   8.682  1.00  0.00     0.214 C 
ATOM      7  N   UNL     1       0.581   5.484   7.399  1.00  0.00    -0.303 N 
ATOM      8  C   UNL     1       0.026   5.221   9.799  1.00  0.00     0.057 C 
ATOM      9  C   UNL     1      -0.276   4.460   7.030  1.00  0.00     0.247 C 
ATOM     10  C   UNL     1      -1.322   4.633   9.446  1.00  0.00     0.040 C 
ATOM     11  O   UNL     1      -0.253   3.961   5.897  1.00  0.00    -0.272 OA
BRANCH   6  12
ATOM     12  O   UNL     1      -0.380   7.237   8.547  1.00  0.00    -0.373 OA
ATOM     13  H   UNL     1       0.159   8.001   8.251  1.00  0.00     0.213 HD
ENDBRANCH   6  12
BRANCH   7  14
ATOM     14  C   UNL     1       1.535   6.047   6.420  1.00  0.00     0.177 C 
BRANCH  14  15
ATOM     15  C   UNL     1       1.308   7.529   6.061  1.00  0.00     0.038 C 
BRANCH  15  16
ATOM     16  C   UNL     1       0.451   7.891   4.827  1.00  0.00    -0.015 C 
ATOM     17  C   UNL     1      -1.033   8.048   5.172  1.00  0.00     0.007 C 
ATOM     18  C   UNL     1       0.584   6.793   3.764  1.00  0.00     0.007 C 
ENDBRANCH  15  16
ENDBRANCH  14  15
BRANCH  14  19
ATOM     19  C   UNL     1       2.932   5.352   6.560  1.00  0.00     0.245 C 
ATOM     20  O   UNL     1       3.519   5.489   7.647  1.00  0.00    -0.272 OA
BRANCH  19  21
ATOM     21  N   UNL     1       3.579   4.705   5.523  1.00  0.00    -0.332 N 
ATOM     22  C   UNL     1       3.086   3.532   4.822  1.00  0.00     0.147 C 
BRANCH  21  23
ATOM     23  C   UNL     1       4.899   5.238   5.085  1.00  0.00     0.178 C 
BRANCH  23  24
ATOM     24  C   UNL     1       4.961   6.773   4.949  1.00  0.00     0.070 C 
BRANCH  24  25
ATOM     25  C   UNL     1       4.316   7.383   3.726  1.00  0.00    -0.045 A 
ATOM     26  C   UNL     1       3.939   8.732   3.710  1.00  0.00     0.004 A 
ATOM     27  C   UNL     1       4.080   6.600   2.586  1.00  0.00     0.004 A 
ATOM     28  C   UNL     1       3.327   9.283   2.582  1.00  0.00     0.000 A 
ATOM     29  C   UNL     1       3.469   7.153   1.459  1.00  0.00     0.000 A 
ATOM     30  C   UNL     1       3.091   8.494   1.459  1.00  0.00     0.000 A 
ENDBRANCH  24  25
ENDBRANCH  23  24
BRANCH  23  31
ATOM     31  C   UNL     1       6.089   4.602   5.842  1.00  0.00     0.243 C 
ATOM     32  O   UNL     1       6.089   3.456   6.283  1.00  0.00    -0.273 OA
ATOM     33  N   UNL     1       7.095   5.503   6.147  1.00  0.00    -0.341 N 
ATOM     34  H   UNL     1       7.037   6.447   5.756  1.00  0.00     0.164 HD
BRANCH  33  35
ATOM     35  C   UNL     1       8.262   5.152   6.961  1.00  0.00     0.194 C 
BRANCH  35  36
ATOM     36  C   UNL     1       8.614   6.201   8.053  1.00  0.00     0.017 C 
ATOM     37  C   UNL     1       9.109   5.522   9.342  1.00  0.00     0.010 C 
ATOM     38  C   UNL     1       7.429   7.098   8.433  1.00  0.00     0.010 C 
ENDBRANCH  35  36
BRANCH  35  39
ATOM     39  C   UNL     1       9.499   4.773   6.100  1.00  0.00     0.329 C 
ATOM     40  O   UNL     1       9.484   3.933   5.208  1.00  0.00    -0.250 OA
BRANCH  39  41
ATOM     41  O   UNL     1      10.590   5.545   6.390  1.00  0.00    -0.458 OA
BRANCH  41  42
ATOM     42  C   UNL     1      11.878   4.888   6.320  1.00  0.00     0.205 CG0
ATOM     43  C   UNL     1      12.025   4.042   7.584  1.00  0.00     0.056 C 
ATOM     44  G   UNL     1      12.974   5.965   6.201  1.00  0.00     0.000 G0
ENDBRANCH  41  42
ENDBRANCH  39  41
ENDBRANCH  35  39
ENDBRANCH  33  35
ENDBRANCH  23  31
ENDBRANCH  21  23
ENDBRANCH  19  21
ENDBRANCH  14  19
ENDBRANCH   7  14
ENDBRANCH   2   5
BRANCH   3  45
ATOM     45  C   UNL     1      -4.596   2.739   6.554  1.00  0.00     0.171 C 
BRANCH  45  46
ATOM     46  N   UNL     1      -5.531   2.006   7.396  1.00  0.00    -0.342 N 
ATOM     47  C   UNL     1      -6.277   2.616   8.373  1.00  0.00     0.247 C 
ATOM     48  O   UNL     1      -6.264   3.833   8.561  1.00  0.00    -0.273 OA
ATOM     49  H   UNL     1      -5.615   1.004   7.235  1.00  0.00     0.164 HD
BRANCH  47  50
ATOM     50  C   UNL     1      -7.113   1.665   9.241  1.00  0.00     0.212 CG0
ATOM     51  G   UNL     1      -8.128   2.520  10.026  1.00  0.00     0.000 G0
BRANCH  50  52
ATOM     52  N   UNL     1      -7.742   0.736   8.307  1.00  0.00    -0.339 N 
ATOM     53  C   UNL     1      -8.273  -0.473   8.686  1.00  0.00     0.243 C 
ATOM     54  O   UNL     1      -8.212  -0.891   9.839  1.00  0.00    -0.273 OA
ATOM     55  H   UNL     1      -7.725   0.976   7.318  1.00  0.00     0.164 HD
BRANCH  53  56
ATOM     56  C   UNL     1      -8.805  -1.320   7.512  1.00  0.00     0.182 C 
BRANCH  56  57
ATOM     57  N   UNL     1      -7.897  -2.431   7.211  1.00  0.00    -0.344 N 
ATOM     58  C   UNL     1      -6.532  -2.281   7.188  1.00  0.00     0.220 C 
ATOM     59  O   UNL     1      -5.981  -1.196   7.345  1.00  0.00    -0.275 OA
ATOM     60  H   UNL     1      -8.304  -3.362   7.176  1.00  0.00     0.164 HD
BRANCH  58  61
ATOM     61  C   UNL     1      -5.789  -3.575   6.913  1.00  0.00     0.100 C 
BRANCH  61  62
ATOM     62  C   UNL     1      -4.443  -3.677   7.631  1.00  0.00     0.010 C 
BRANCH  62  63
ATOM     63  C   UNL     1      -3.228  -3.461   6.721  1.00  0.00     0.000 C 
BRANCH  63  64
ATOM     64  C   UNL     1      -2.355  -2.270   7.113  1.00  0.00    -0.003 C 
ATOM     65  C   UNL     1      -2.652  -1.808   8.533  1.00  0.00     0.004 C 
ENDBRANCH  63  64
ENDBRANCH  62  63
ENDBRANCH  61  62
ENDBRANCH  58  61
ENDBRANCH  56  57
BRANCH  56  66
ATOM     66  C   UNL     1      -9.089  -0.458   6.283  1.00  0.00     0.157 C 
BRANCH  66  67
ATOM     67  C   UNL     1      -9.861  -1.225   5.247  1.00  0.00     0.305 C 
ATOM     68  O   UNL     1     -10.025  -2.434   5.203  1.00  0.00    -0.252 OA
BRANCH  67  69
ATOM     69  O   UNL     1     -10.438  -0.417   4.337  1.00  0.00    -0.481 OA
ATOM     70  H   UNL     1      -9.749   0.246   4.119  1.00  0.00     0.296 HD
ENDBRANCH  67  69
ENDBRANCH  66  67
ENDBRANCH  56  66
ENDBRANCH  53  56
ENDBRANCH  50  52
ENDBRANCH  47  50
ENDBRANCH  45  46
BRANCH  45  71
ATOM     71  C   UNL     1      -4.488   2.120   5.156  1.00  0.00     0.037 C 
BRANCH  71  72
ATOM     72  C   UNL     1      -4.857   0.635   5.154  1.00  0.00     0.026 C 
BRANCH  72  73
ATOM     73  C   UNL     1      -5.466   0.211   3.818  1.00  0.00     0.146 C 
BRANCH  73  74
ATOM     74  N   UNL     1      -5.886  -1.182   3.941  1.00  0.00    -0.254 NA
ATOM     75  C   UNL     1      -6.956  -1.540   3.334  1.00  0.00     0.185 C 
ATOM     76  N   UNL     1      -7.368  -2.815   3.427  1.00  0.00    -0.370 N 
ATOM     77  N   UNL     1      -7.784  -0.802   2.574  1.00  0.00    -0.370 N 
ATOM     78  H   UNL     1      -6.804  -3.438   3.988  1.00  0.00     0.159 HD
ATOM     79  H   UNL     1      -8.264  -3.133   3.103  1.00  0.00     0.159 HD
ATOM     80  H   UNL     1      -7.598   0.176   2.412  1.00  0.00     0.159 HD
ATOM     81  H   UNL     1      -8.536  -1.221   2.051  1.00  0.00     0.159 HD
ENDBRANCH  73  74
ENDBRANCH  72  73
ENDBRANCH  71  72
ENDBRANCH  45  71
ENDBRANCH   3  45
TORSDOF 20
ENDMDL
MODEL 26
REMARK VINA RESULT:    -5.093      9.683     15.122
REMARK INTER + INTRA:         -20.742
REMARK INTER:                 -14.269
REMARK INTRA:                  -6.473
REMARK UNBOUND:                -6.121
REMARK SMILES CCCCCC(=O)N[C@H](CC(=O)O)C(=O)N[C@H]1C(=O)N[C@H](CCCN=C(N)N)C(=O)N[C@@H]2CC[C@H](O)N(C2=O)[C@@H](CC(C)C)C(=O)N(C)[C@@H](Cc2ccccc2)C(=O)N[C@H](C(C)C)C(=O)O[C@@H]1C
REMARK SMILES IDX 30 1 31 2 29 3 32 5 35 6 37 7 34 8 38 9 33 10 39 11 36 12
REMARK SMILES IDX 40 14 41 15 42 16 43 17 44 18 45 19 46 20 47 21 48 22 49 23
REMARK SMILES IDX 50 24 51 25 52 26 56 27 53 28 55 29 54 30 57 31 58 32 59 33
REMARK SMILES IDX 60 35 61 36 62 37 63 38 64 39 65 40 66 41 67 42 68 43 21 45
REMARK SMILES IDX 20 46 18 47 19 48 17 50 16 52 14 53 15 54 9 56 8 57 6 58
REMARK SMILES IDX 7 59 5 61 4 62 3 63 2 64 1 65 10 66 11 67 12 68 13 69 22 71
REMARK SMILES IDX 23 72 24 73 25 74 26 75 27 76 28 77
REMARK H PARENT 31 4 36 13 59 34 20 49 16 55 8 60 13 70 27 78 27 79 28 80
REMARK H PARENT 28 81
REMARK Flexibility Score:  259.900
ROOT
ATOM      1  O   UNL     1       0.762   4.587   0.017  1.00  0.00    -0.273 OA
ATOM      2  N   UNL     1      -0.595   6.345   0.563  1.00  0.00    -0.343 N 
ATOM      3  C   UNL     1      -0.291   5.204  -0.148  1.00  0.00     0.243 C 
ATOM      4  H   UNL     1      -1.478   6.818   0.412  1.00  0.00     0.164 HD
ENDROOT
BRANCH   2   5
ATOM      5  C   UNL     1       0.384   6.941   1.465  1.00  0.00     0.171 C 
ATOM      6  C   UNL     1       3.041   6.129   2.293  1.00  0.00     0.214 C 
ATOM      7  N   UNL     1       1.897   5.706   3.065  1.00  0.00    -0.303 N 
ATOM      8  C   UNL     1       2.839   7.468   1.601  1.00  0.00     0.057 C 
ATOM      9  C   UNL     1       0.597   6.016   2.698  1.00  0.00     0.247 C 
ATOM     10  C   UNL     1       1.624   7.402   0.702  1.00  0.00     0.040 C 
ATOM     11  O   UNL     1      -0.381   5.577   3.316  1.00  0.00    -0.272 OA
BRANCH   6  12
ATOM     12  O   UNL     1       3.318   5.123   1.346  1.00  0.00    -0.373 OA
ATOM     13  H   UNL     1       2.596   5.147   0.682  1.00  0.00     0.213 HD
ENDBRANCH   6  12
BRANCH   7  14
ATOM     14  C   UNL     1       2.154   4.794   4.200  1.00  0.00     0.177 C 
BRANCH  14  15
ATOM     15  C   UNL     1       1.808   5.362   5.590  1.00  0.00     0.038 C 
BRANCH  15  16
ATOM     16  C   UNL     1       2.939   5.611   6.613  1.00  0.00    -0.015 C 
ATOM     17  C   UNL     1       2.989   7.067   7.086  1.00  0.00     0.007 C 
ATOM     18  C   UNL     1       4.294   5.264   5.983  1.00  0.00     0.007 C 
ENDBRANCH  15  16
ENDBRANCH  14  15
BRANCH  14  19
ATOM     19  C   UNL     1       1.957   3.304   3.754  1.00  0.00     0.245 C 
ATOM     20  O   UNL     1       1.513   3.116   2.609  1.00  0.00    -0.272 OA
BRANCH  19  21
ATOM     21  N   UNL     1       2.140   2.218   4.592  1.00  0.00    -0.332 N 
ATOM     22  C   UNL     1       3.419   1.743   5.089  1.00  0.00     0.147 C 
BRANCH  21  23
ATOM     23  C   UNL     1       0.933   1.457   5.019  1.00  0.00     0.178 C 
BRANCH  23  24
ATOM     24  C   UNL     1       1.160   0.501   6.208  1.00  0.00     0.070 C 
BRANCH  24  25
ATOM     25  C   UNL     1       0.165  -0.622   6.388  1.00  0.00    -0.045 A 
ATOM     26  C   UNL     1      -0.224  -1.416   5.302  1.00  0.00     0.004 A 
ATOM     27  C   UNL     1      -0.389  -0.881   7.650  1.00  0.00     0.004 A 
ATOM     28  C   UNL     1      -1.157  -2.441   5.473  1.00  0.00     0.000 A 
ATOM     29  C   UNL     1      -1.320  -1.907   7.820  1.00  0.00     0.000 A 
ATOM     30  C   UNL     1      -1.706  -2.684   6.730  1.00  0.00     0.000 A 
ENDBRANCH  24  25
ENDBRANCH  23  24
BRANCH  23  31
ATOM     31  C   UNL     1      -0.332   2.342   5.126  1.00  0.00     0.243 C 
ATOM     32  O   UNL     1      -0.589   3.058   6.090  1.00  0.00    -0.273 OA
ATOM     33  N   UNL     1      -1.251   2.117   4.115  1.00  0.00    -0.341 N 
ATOM     34  H   UNL     1      -0.982   1.504   3.342  1.00  0.00     0.164 HD
BRANCH  33  35
ATOM     35  C   UNL     1      -2.571   2.754   4.080  1.00  0.00     0.194 C 
BRANCH  35  36
ATOM     36  C   UNL     1      -3.640   2.050   4.962  1.00  0.00     0.017 C 
ATOM     37  C   UNL     1      -3.964   2.879   6.217  1.00  0.00     0.010 C 
ATOM     38  C   UNL     1      -3.212   0.654   5.432  1.00  0.00     0.010 C 
ENDBRANCH  35  36
BRANCH  35  39
ATOM     39  C   UNL     1      -3.080   2.993   2.630  1.00  0.00     0.329 C 
ATOM     40  O   UNL     1      -4.044   3.695   2.349  1.00  0.00    -0.250 OA
BRANCH  39  41
ATOM     41  O   UNL     1      -2.278   2.402   1.694  1.00  0.00    -0.458 OA
BRANCH  41  42
ATOM     42  C   UNL     1      -2.756   1.154   1.136  1.00  0.00     0.205 CG0
ATOM     43  C   UNL     1      -1.792   0.058   1.583  1.00  0.00     0.056 C 
ATOM     44  G   UNL     1      -2.819   1.294  -0.398  1.00  0.00     0.000 G0
ENDBRANCH  41  42
ENDBRANCH  39  41
ENDBRANCH  35  39
ENDBRANCH  33  35
ENDBRANCH  23  31
ENDBRANCH  21  23
ENDBRANCH  19  21
ENDBRANCH  14  19
ENDBRANCH   7  14
ENDBRANCH   2   5
BRANCH   3  45
ATOM     45  C   UNL     1      -1.365   4.744  -1.142  1.00  0.00     0.171 C 
BRANCH  45  46
ATOM     46  N   UNL     1      -1.556   3.323  -0.886  1.00  0.00    -0.342 N 
ATOM     47  C   UNL     1      -2.800   2.745  -0.835  1.00  0.00     0.247 C 
ATOM     48  O   UNL     1      -3.836   3.366  -1.073  1.00  0.00    -0.273 OA
ATOM     49  H   UNL     1      -0.721   2.759  -0.738  1.00  0.00     0.164 HD
BRANCH  47  50
ATOM     50  C   UNL     1      -2.813   1.264  -0.429  1.00  0.00     0.212 CG0
ATOM     51  G   UNL     1      -2.761   1.200   1.110  1.00  0.00     0.000 G0
BRANCH  50  52
ATOM     52  N   UNL     1      -4.046   0.717  -0.988  1.00  0.00    -0.339 N 
ATOM     53  C   UNL     1      -4.083  -0.395  -1.794  1.00  0.00     0.243 C 
ATOM     54  O   UNL     1      -3.069  -0.987  -2.152  1.00  0.00    -0.273 OA
ATOM     55  H   UNL     1      -4.910   1.230  -0.819  1.00  0.00     0.164 HD
BRANCH  53  56
ATOM     56  C   UNL     1      -5.488  -0.732  -2.334  1.00  0.00     0.182 C 
BRANCH  56  57
ATOM     57  N   UNL     1      -5.664  -2.181  -2.474  1.00  0.00    -0.344 N 
ATOM     58  C   UNL     1      -6.404  -2.921  -1.584  1.00  0.00     0.220 C 
ATOM     59  O   UNL     1      -6.905  -2.438  -0.575  1.00  0.00    -0.275 OA
ATOM     60  H   UNL     1      -5.353  -2.601  -3.346  1.00  0.00     0.164 HD
BRANCH  58  61
ATOM     61  C   UNL     1      -6.500  -4.389  -1.957  1.00  0.00     0.100 C 
BRANCH  61  62
ATOM     62  C   UNL     1      -5.224  -5.182  -1.672  1.00  0.00     0.010 C 
BRANCH  62  63
ATOM     63  C   UNL     1      -4.732  -6.025  -2.856  1.00  0.00     0.000 C 
BRANCH  63  64
ATOM     64  C   UNL     1      -5.589  -5.899  -4.114  1.00  0.00    -0.003 C 
ATOM     65  C   UNL     1      -4.752  -6.062  -5.375  1.00  0.00     0.004 C 
ENDBRANCH  63  64
ENDBRANCH  62  63
ENDBRANCH  61  62
ENDBRANCH  58  61
ENDBRANCH  56  57
BRANCH  56  66
ATOM     66  C   UNL     1      -5.781   0.013  -3.636  1.00  0.00     0.157 C 
BRANCH  66  67
ATOM     67  C   UNL     1      -6.681   1.191  -3.398  1.00  0.00     0.305 C 
ATOM     68  O   UNL     1      -7.423   1.722  -4.210  1.00  0.00    -0.252 OA
BRANCH  67  69
ATOM     69  O   UNL     1      -6.641   1.615  -2.120  1.00  0.00    -0.481 OA
ATOM     70  H   UNL     1      -6.865   0.823  -1.587  1.00  0.00     0.296 HD
ENDBRANCH  67  69
ENDBRANCH  66  67
ENDBRANCH  56  66
ENDBRANCH  53  56
ENDBRANCH  50  52
ENDBRANCH  47  50
ENDBRANCH  45  46
BRANCH  45  71
ATOM     71  C   UNL     1      -0.905   5.001  -2.582  1.00  0.00     0.037 C 
BRANCH  71  72
ATOM     72  C   UNL     1      -2.005   4.696  -3.601  1.00  0.00     0.026 C 
BRANCH  72  73
ATOM     73  C   UNL     1      -1.541   3.677  -4.639  1.00  0.00     0.146 C 
BRANCH  73  74
ATOM     74  N   UNL     1      -0.805   2.629  -3.938  1.00  0.00    -0.254 NA
ATOM     75  C   UNL     1      -1.259   1.432  -4.005  1.00  0.00     0.185 C 
ATOM     76  N   UNL     1      -0.603   0.446  -3.372  1.00  0.00    -0.370 N 
ATOM     77  N   UNL     1      -2.349   0.976  -4.645  1.00  0.00    -0.370 N 
ATOM     78  H   UNL     1       0.227   0.705  -2.858  1.00  0.00     0.159 HD
ATOM     79  H   UNL     1      -0.973  -0.481  -3.258  1.00  0.00     0.159 HD
ATOM     80  H   UNL     1      -2.939   1.606  -5.169  1.00  0.00     0.159 HD
ATOM     81  H   UNL     1      -2.543  -0.009  -4.723  1.00  0.00     0.159 HD
ENDBRANCH  73  74
ENDBRANCH  72  73
ENDBRANCH  71  72
ENDBRANCH  45  71
ENDBRANCH   3  45
TORSDOF 20
ENDMDL
MODEL 27
REMARK VINA RESULT:    -5.093     10.909     16.608
REMARK INTER + INTRA:         -20.741
REMARK INTER:                 -15.268
REMARK INTRA:                  -5.473
REMARK UNBOUND:                -6.121
REMARK SMILES CCCCCC(=O)N[C@H](CC(=O)O)C(=O)N[C@H]1C(=O)N[C@H](CCCN=C(N)N)C(=O)N[C@@H]2CC[C@H](O)N(C2=O)[C@@H](CC(C)C)C(=O)N(C)[C@@H](Cc2ccccc2)C(=O)N[C@H](C(C)C)C(=O)O[C@@H]1C
REMARK SMILES IDX 30 1 31 2 29 3 32 5 35 6 37 7 34 8 38 9 33 10 39 11 36 12
REMARK SMILES IDX 40 14 41 15 42 16 43 17 44 18 45 19 46 20 47 21 48 22 49 23
REMARK SMILES IDX 50 24 51 25 52 26 56 27 53 28 55 29 54 30 57 31 58 32 59 33
REMARK SMILES IDX 60 35 61 36 62 37 63 38 64 39 65 40 66 41 67 42 68 43 21 45
REMARK SMILES IDX 20 46 18 47 19 48 17 50 16 52 14 53 15 54 9 56 8 57 6 58
REMARK SMILES IDX 7 59 5 61 4 62 3 63 2 64 1 65 10 66 11 67 12 68 13 69 22 71
REMARK SMILES IDX 23 72 24 73 25 74 26 75 27 76 28 77
REMARK H PARENT 31 4 36 13 59 34 20 49 16 55 8 60 13 70 27 78 27 79 28 80
REMARK H PARENT 28 81
REMARK Flexibility Score:  259.900
ROOT
ATOM      1  O   UNL     1       4.868   5.538   2.346  1.00  0.00    -0.273 OA
ATOM      2  N   UNL     1       2.978   5.844   1.096  1.00  0.00    -0.343 N 
ATOM      3  C   UNL     1       4.114   5.151   1.453  1.00  0.00     0.243 C 
ATOM      4  H   UNL     1       2.373   5.488   0.366  1.00  0.00     0.164 HD
ENDROOT
BRANCH   2   5
ATOM      5  C   UNL     1       2.683   7.144   1.690  1.00  0.00     0.171 C 
ATOM      6  C   UNL     1       4.020   8.723   3.720  1.00  0.00     0.214 C 
ATOM      7  N   UNL     1       2.988   7.791   4.111  1.00  0.00    -0.303 N 
ATOM      8  C   UNL     1       3.818   9.296   2.326  1.00  0.00     0.057 C 
ATOM      9  C   UNL     1       2.346   6.970   3.198  1.00  0.00     0.247 C 
ATOM     10  C   UNL     1       3.750   8.172   1.316  1.00  0.00     0.040 C 
ATOM     11  O   UNL     1       1.525   6.113   3.551  1.00  0.00    -0.272 OA
BRANCH   6  12
ATOM     12  O   UNL     1       5.258   8.055   3.804  1.00  0.00    -0.373 OA
ATOM     13  H   UNL     1       5.936   8.731   4.016  1.00  0.00     0.213 HD
ENDBRANCH   6  12
BRANCH   7  14
ATOM     14  C   UNL     1       2.738   7.635   5.559  1.00  0.00     0.177 C 
BRANCH  14  15
ATOM     15  C   UNL     1       3.993   7.693   6.452  1.00  0.00     0.038 C 
BRANCH  15  16
ATOM     16  C   UNL     1       4.475   6.414   7.171  1.00  0.00    -0.015 C 
ATOM     17  C   UNL     1       3.753   6.186   8.503  1.00  0.00     0.007 C 
ATOM     18  C   UNL     1       5.980   6.512   7.451  1.00  0.00     0.007 C 
ENDBRANCH  15  16
ENDBRANCH  14  15
BRANCH  14  19
ATOM     19  C   UNL     1       1.332   8.217   5.934  1.00  0.00     0.245 C 
ATOM     20  O   UNL     1       1.276   9.435   6.172  1.00  0.00    -0.272 OA
BRANCH  19  21
ATOM     21  N   UNL     1       0.201   7.442   6.119  1.00  0.00    -0.332 N 
ATOM     22  C   UNL     1      -1.035   7.561   5.366  1.00  0.00     0.147 C 
BRANCH  21  23
ATOM     23  C   UNL     1       0.237   6.401   7.183  1.00  0.00     0.178 C 
BRANCH  23  24
ATOM     24  C   UNL     1      -0.639   6.708   8.416  1.00  0.00     0.070 C 
BRANCH  24  25
ATOM     25  C   UNL     1       0.005   7.486   9.540  1.00  0.00    -0.045 A 
ATOM     26  C   UNL     1      -0.249   8.854   9.704  1.00  0.00     0.004 A 
ATOM     27  C   UNL     1       0.874   6.846  10.436  1.00  0.00     0.004 A 
ATOM     28  C   UNL     1       0.363   9.569  10.736  1.00  0.00     0.000 A 
ATOM     29  C   UNL     1       1.484   7.561  11.468  1.00  0.00     0.000 A 
ATOM     30  C   UNL     1       1.230   8.923  11.615  1.00  0.00     0.000 A 
ENDBRANCH  24  25
ENDBRANCH  23  24
BRANCH  23  31
ATOM     31  C   UNL     1       0.098   4.964   6.627  1.00  0.00     0.243 C 
ATOM     32  O   UNL     1      -0.950   4.323   6.634  1.00  0.00    -0.273 OA
ATOM     33  N   UNL     1       1.308   4.384   6.285  1.00  0.00    -0.341 N 
ATOM     34  H   UNL     1       2.148   4.967   6.305  1.00  0.00     0.164 HD
BRANCH  33  35
ATOM     35  C   UNL     1       1.430   2.990   5.849  1.00  0.00     0.194 C 
BRANCH  35  36
ATOM     36  C   UNL     1       2.091   2.052   6.899  1.00  0.00     0.017 C 
ATOM     37  C   UNL     1       1.248   0.785   7.125  1.00  0.00     0.010 C 
ATOM     38  C   UNL     1       2.291   2.720   8.265  1.00  0.00     0.010 C 
ENDBRANCH  35  36
BRANCH  35  39
ATOM     39  C   UNL     1       2.097   2.858   4.452  1.00  0.00     0.329 C 
ATOM     40  O   UNL     1       3.143   3.413   4.135  1.00  0.00    -0.250 OA
BRANCH  39  41
ATOM     41  O   UNL     1       1.433   1.981   3.640  1.00  0.00    -0.458 OA
BRANCH  41  42
ATOM     42  C   UNL     1       0.679   2.562   2.549  1.00  0.00     0.205 CG0
ATOM     43  C   UNL     1      -0.802   2.357   2.861  1.00  0.00     0.056 C 
ATOM     44  G   UNL     1       1.105   1.877   1.236  1.00  0.00     0.000 G0
ENDBRANCH  41  42
ENDBRANCH  39  41
ENDBRANCH  35  39
ENDBRANCH  33  35
ENDBRANCH  23  31
ENDBRANCH  21  23
ENDBRANCH  19  21
ENDBRANCH  14  19
ENDBRANCH   7  14
ENDBRANCH   2   5
BRANCH   3  45
ATOM     45  C   UNL     1       4.362   3.852   0.675  1.00  0.00     0.171 C 
BRANCH  45  46
ATOM     46  N   UNL     1       3.343   2.917   1.133  1.00  0.00    -0.342 N 
ATOM     47  C   UNL     1       2.117   2.808   0.526  1.00  0.00     0.247 C 
ATOM     48  O   UNL     1       1.817   3.436  -0.490  1.00  0.00    -0.273 OA
ATOM     49  H   UNL     1       3.571   2.337   1.939  1.00  0.00     0.164 HD
BRANCH  47  50
ATOM     50  C   UNL     1       1.129   1.863   1.222  1.00  0.00     0.212 CG0
ATOM     51  G   UNL     1       0.668   2.545   2.526  1.00  0.00     0.000 G0
BRANCH  50  52
ATOM     52  N   UNL     1       0.045   1.658   0.264  1.00  0.00    -0.339 N 
ATOM     53  C   UNL     1      -0.018   0.581  -0.586  1.00  0.00     0.243 C 
ATOM     54  O   UNL     1       0.865  -0.270  -0.644  1.00  0.00    -0.273 OA
ATOM     55  H   UNL     1      -0.661   2.387   0.186  1.00  0.00     0.164 HD
BRANCH  53  56
ATOM     56  C   UNL     1      -1.208   0.625  -1.566  1.00  0.00     0.182 C 
BRANCH  56  57
ATOM     57  N   UNL     1      -1.725  -0.723  -1.827  1.00  0.00    -0.344 N 
ATOM     58  C   UNL     1      -2.974  -0.943  -2.355  1.00  0.00     0.220 C 
ATOM     59  O   UNL     1      -3.770  -0.036  -2.576  1.00  0.00    -0.275 OA
ATOM     60  H   UNL     1      -1.064  -1.491  -1.754  1.00  0.00     0.164 HD
BRANCH  58  61
ATOM     61  C   UNL     1      -3.275  -2.410  -2.595  1.00  0.00     0.100 C 
BRANCH  61  62
ATOM     62  C   UNL     1      -3.268  -2.807  -4.072  1.00  0.00     0.010 C 
BRANCH  62  63
ATOM     63  C   UNL     1      -4.513  -2.358  -4.848  1.00  0.00     0.000 C 
BRANCH  63  64
ATOM     64  C   UNL     1      -5.834  -2.657  -4.140  1.00  0.00    -0.003 C 
ATOM     65  C   UNL     1      -6.361  -4.037  -4.507  1.00  0.00     0.004 C 
ENDBRANCH  63  64
ENDBRANCH  62  63
ENDBRANCH  61  62
ENDBRANCH  58  61
ENDBRANCH  56  57
BRANCH  56  66
ATOM     66  C   UNL     1      -0.847   1.363  -2.854  1.00  0.00     0.157 C 
BRANCH  66  67
ATOM     67  C   UNL     1      -1.466   2.731  -2.889  1.00  0.00     0.305 C 
ATOM     68  O   UNL     1      -0.878   3.800  -2.935  1.00  0.00    -0.252 OA
BRANCH  67  69
ATOM     69  O   UNL     1      -2.812   2.683  -2.916  1.00  0.00    -0.481 OA
ATOM     70  H   UNL     1      -3.025   2.061  -3.643  1.00  0.00     0.296 HD
ENDBRANCH  67  69
ENDBRANCH  66  67
ENDBRANCH  56  66
ENDBRANCH  53  56
ENDBRANCH  50  52
ENDBRANCH  47  50
ENDBRANCH  45  46
BRANCH  45  71
ATOM     71  C   UNL     1       5.776   3.327   0.950  1.00  0.00     0.037 C 
BRANCH  71  72
ATOM     72  C   UNL     1       6.786   3.819  -0.089  1.00  0.00     0.026 C 
BRANCH  72  73
ATOM     73  C   UNL     1       7.328   2.668  -0.934  1.00  0.00     0.146 C 
BRANCH  73  74
ATOM     74  N   UNL     1       7.988   3.243  -2.101  1.00  0.00    -0.254 NA
ATOM     75  C   UNL     1       9.254   3.075  -2.217  1.00  0.00     0.185 C 
ATOM     76  N   UNL     1       9.890   3.590  -3.281  1.00  0.00    -0.370 N 
ATOM     77  N   UNL     1      10.099   2.426  -1.396  1.00  0.00    -0.370 N 
ATOM     78  H   UNL     1       9.328   4.102  -3.946  1.00  0.00     0.159 HD
ATOM     79  H   UNL     1      10.891   3.625  -3.365  1.00  0.00     0.159 HD
ATOM     80  H   UNL     1       9.759   1.983  -0.555  1.00  0.00     0.159 HD
ATOM     81  H   UNL     1      11.058   2.260  -1.650  1.00  0.00     0.159 HD
ENDBRANCH  73  74
ENDBRANCH  72  73
ENDBRANCH  71  72
ENDBRANCH  45  71
ENDBRANCH   3  45
TORSDOF 20
ENDMDL
MODEL 28
REMARK VINA RESULT:    -5.076     10.334     15.306
REMARK INTER + INTRA:         -20.693
REMARK INTER:                 -14.024
REMARK INTRA:                  -6.669
REMARK UNBOUND:                -6.121
REMARK SMILES CCCCCC(=O)N[C@H](CC(=O)O)C(=O)N[C@H]1C(=O)N[C@H](CCCN=C(N)N)C(=O)N[C@@H]2CC[C@H](O)N(C2=O)[C@@H](CC(C)C)C(=O)N(C)[C@@H](Cc2ccccc2)C(=O)N[C@H](C(C)C)C(=O)O[C@@H]1C
REMARK SMILES IDX 30 1 31 2 29 3 32 5 35 6 37 7 34 8 38 9 33 10 39 11 36 12
REMARK SMILES IDX 40 14 41 15 42 16 43 17 44 18 45 19 46 20 47 21 48 22 49 23
REMARK SMILES IDX 50 24 51 25 52 26 56 27 53 28 55 29 54 30 57 31 58 32 59 33
REMARK SMILES IDX 60 35 61 36 62 37 63 38 64 39 65 40 66 41 67 42 68 43 21 45
REMARK SMILES IDX 20 46 18 47 19 48 17 50 16 52 14 53 15 54 9 56 8 57 6 58
REMARK SMILES IDX 7 59 5 61 4 62 3 63 2 64 1 65 10 66 11 67 12 68 13 69 22 71
REMARK SMILES IDX 23 72 24 73 25 74 26 75 27 76 28 77
REMARK H PARENT 31 4 36 13 59 34 20 49 16 55 8 60 13 70 27 78 27 79 28 80
REMARK H PARENT 28 81
REMARK Flexibility Score:  259.900
ROOT
ATOM      1  O   UNL     1      -0.159  -0.465   4.200  1.00  0.00    -0.273 OA
ATOM      2  N   UNL     1      -1.085   0.928   5.760  1.00  0.00    -0.343 N 
ATOM      3  C   UNL     1      -1.127   0.180   4.603  1.00  0.00     0.243 C 
ATOM      4  H   UNL     1      -1.905   1.434   6.069  1.00  0.00     0.164 HD
ENDROOT
BRANCH   2   5
ATOM      5  C   UNL     1       0.163   1.079   6.501  1.00  0.00     0.171 C 
ATOM      6  C   UNL     1       0.868   2.588   8.874  1.00  0.00     0.214 C 
ATOM      7  N   UNL     1       1.024   3.196   7.573  1.00  0.00    -0.303 N 
ATOM      8  C   UNL     1       1.042   1.078   8.856  1.00  0.00     0.057 C 
ATOM      9  C   UNL     1       0.659   2.551   6.403  1.00  0.00     0.247 C 
ATOM     10  C   UNL     1       0.054   0.459   7.892  1.00  0.00     0.040 C 
ATOM     11  O   UNL     1       0.714   3.110   5.300  1.00  0.00    -0.272 OA
BRANCH   6  12
ATOM     12  O   UNL     1      -0.409   2.931   9.359  1.00  0.00    -0.373 OA
ATOM     13  H   UNL     1      -0.652   3.789   8.949  1.00  0.00     0.213 HD
ENDBRANCH   6  12
BRANCH   7  14
ATOM     14  C   UNL     1       1.457   4.609   7.541  1.00  0.00     0.177 C 
BRANCH  14  15
ATOM     15  C   UNL     1       0.567   5.586   8.334  1.00  0.00     0.038 C 
BRANCH  15  16
ATOM     16  C   UNL     1      -0.388   6.533   7.574  1.00  0.00    -0.015 C 
ATOM     17  C   UNL     1      -0.654   7.832   8.340  1.00  0.00     0.007 C 
ATOM     18  C   UNL     1      -1.732   5.832   7.336  1.00  0.00     0.007 C 
ENDBRANCH  15  16
ENDBRANCH  14  15
BRANCH  14  19
ATOM     19  C   UNL     1       3.018   4.697   7.422  1.00  0.00     0.245 C 
ATOM     20  O   UNL     1       3.670   4.511   8.463  1.00  0.00    -0.272 OA
BRANCH  19  21
ATOM     21  N   UNL     1       3.683   5.073   6.269  1.00  0.00    -0.332 N 
ATOM     22  C   UNL     1       5.057   4.738   5.941  1.00  0.00     0.147 C 
BRANCH  21  23
ATOM     23  C   UNL     1       2.943   5.902   5.277  1.00  0.00     0.178 C 
BRANCH  23  24
ATOM     24  C   UNL     1       3.208   7.418   5.377  1.00  0.00     0.070 C 
BRANCH  24  25
ATOM     25  C   UNL     1       2.404   8.319   4.468  1.00  0.00    -0.045 A 
ATOM     26  C   UNL     1       2.963   8.833   3.291  1.00  0.00     0.004 A 
ATOM     27  C   UNL     1       1.083   8.657   4.795  1.00  0.00     0.004 A 
ATOM     28  C   UNL     1       2.219   9.678   2.465  1.00  0.00     0.000 A 
ATOM     29  C   UNL     1       0.340   9.501   3.968  1.00  0.00     0.000 A 
ATOM     30  C   UNL     1       0.910  10.013   2.805  1.00  0.00     0.000 A 
ENDBRANCH  24  25
ENDBRANCH  23  24
BRANCH  23  31
ATOM     31  C   UNL     1       3.001   5.323   3.843  1.00  0.00     0.243 C 
ATOM     32  O   UNL     1       3.987   5.393   3.114  1.00  0.00    -0.273 OA
ATOM     33  N   UNL     1       1.776   4.878   3.376  1.00  0.00    -0.341 N 
ATOM     34  H   UNL     1       0.989   4.850   4.029  1.00  0.00     0.164 HD
BRANCH  33  35
ATOM     35  C   UNL     1       1.569   4.401   2.006  1.00  0.00     0.194 C 
BRANCH  35  36
ATOM     36  C   UNL     1       0.561   5.251   1.183  1.00  0.00     0.017 C 
ATOM     37  C   UNL     1       1.218   6.534   0.647  1.00  0.00     0.010 C 
ATOM     38  C   UNL     1      -0.675   5.670   1.988  1.00  0.00     0.010 C 
ENDBRANCH  35  36
BRANCH  35  39
ATOM     39  C   UNL     1       1.234   2.884   1.946  1.00  0.00     0.329 C 
ATOM     40  O   UNL     1       1.933   2.007   2.438  1.00  0.00    -0.250 OA
BRANCH  39  41
ATOM     41  O   UNL     1       0.023   2.642   1.358  1.00  0.00    -0.458 OA
BRANCH  41  42
ATOM     42  C   UNL     1      -0.014   1.569   0.387  1.00  0.00     0.205 CG0
ATOM     43  C   UNL     1       0.553   2.118  -0.920  1.00  0.00     0.056 C 
ATOM     44  G   UNL     1      -1.472   1.088   0.242  1.00  0.00     0.000 G0
ENDBRANCH  41  42
ENDBRANCH  39  41
ENDBRANCH  35  39
ENDBRANCH  33  35
ENDBRANCH  23  31
ENDBRANCH  21  23
ENDBRANCH  19  21
ENDBRANCH  14  19
ENDBRANCH   7  14
ENDBRANCH   2   5
BRANCH   3  45
ATOM     45  C   UNL     1      -2.471   0.192   3.863  1.00  0.00     0.171 C 
BRANCH  45  46
ATOM     46  N   UNL     1      -2.219   0.870   2.598  1.00  0.00    -0.342 N 
ATOM     47  C   UNL     1      -1.819   0.199   1.470  1.00  0.00     0.247 C 
ATOM     48  O   UNL     1      -1.715  -1.027   1.423  1.00  0.00    -0.273 OA
ATOM     49  H   UNL     1      -2.348   1.880   2.578  1.00  0.00     0.164 HD
BRANCH  47  50
ATOM     50  C   UNL     1      -1.480   1.092   0.268  1.00  0.00     0.212 CG0
ATOM     51  G   UNL     1      -0.012   1.537   0.416  1.00  0.00     0.000 G0
BRANCH  50  52
ATOM     52  N   UNL     1      -1.716   0.264  -0.912  1.00  0.00    -0.339 N 
ATOM     53  C   UNL     1      -2.864   0.329  -1.663  1.00  0.00     0.243 C 
ATOM     54  O   UNL     1      -3.809   1.056  -1.367  1.00  0.00    -0.273 OA
ATOM     55  H   UNL     1      -1.017  -0.438  -1.144  1.00  0.00     0.164 HD
BRANCH  53  56
ATOM     56  C   UNL     1      -2.924  -0.702  -2.809  1.00  0.00     0.182 C 
BRANCH  56  57
ATOM     57  N   UNL     1      -2.998  -2.069  -2.284  1.00  0.00    -0.344 N 
ATOM     58  C   UNL     1      -4.179  -2.765  -2.207  1.00  0.00     0.220 C 
ATOM     59  O   UNL     1      -5.262  -2.269  -2.502  1.00  0.00    -0.275 OA
ATOM     60  H   UNL     1      -2.116  -2.549  -2.125  1.00  0.00     0.164 HD
BRANCH  58  61
ATOM     61  C   UNL     1      -4.011  -4.181  -1.688  1.00  0.00     0.100 C 
BRANCH  61  62
ATOM     62  C   UNL     1      -3.921  -5.235  -2.791  1.00  0.00     0.010 C 
BRANCH  62  63
ATOM     63  C   UNL     1      -5.257  -5.913  -3.121  1.00  0.00     0.000 C 
BRANCH  63  64
ATOM     64  C   UNL     1      -5.936  -5.381  -4.382  1.00  0.00    -0.003 C 
ATOM     65  C   UNL     1      -7.417  -5.122  -4.148  1.00  0.00     0.004 C 
ENDBRANCH  63  64
ENDBRANCH  62  63
ENDBRANCH  61  62
ENDBRANCH  58  61
ENDBRANCH  56  57
BRANCH  56  66
ATOM     66  C   UNL     1      -1.763  -0.521  -3.785  1.00  0.00     0.157 C 
BRANCH  66  67
ATOM     67  C   UNL     1      -2.156  -0.920  -5.178  1.00  0.00     0.305 C 
ATOM     68  O   UNL     1      -2.223  -0.193  -6.157  1.00  0.00    -0.252 OA
BRANCH  67  69
ATOM     69  O   UNL     1      -2.400  -2.241  -5.282  1.00  0.00    -0.481 OA
ATOM     70  H   UNL     1      -3.032  -2.320  -6.028  1.00  0.00     0.296 HD
ENDBRANCH  67  69
ENDBRANCH  66  67
ENDBRANCH  56  66
ENDBRANCH  53  56
ENDBRANCH  50  52
ENDBRANCH  47  50
ENDBRANCH  45  46
BRANCH  45  71
ATOM     71  C   UNL     1      -3.533   0.922   4.694  1.00  0.00     0.037 C 
BRANCH  71  72
ATOM     72  C   UNL     1      -4.737   0.028   5.002  1.00  0.00     0.026 C 
BRANCH  72  73
ATOM     73  C   UNL     1      -5.950   0.412   4.158  1.00  0.00     0.146 C 
BRANCH  73  74
ATOM     74  N   UNL     1      -5.612   0.178   2.757  1.00  0.00    -0.254 NA
ATOM     75  C   UNL     1      -6.108   0.971   1.881  1.00  0.00     0.185 C 
ATOM     76  N   UNL     1      -5.814   0.782   0.584  1.00  0.00    -0.370 N 
ATOM     77  N   UNL     1      -6.924   2.025   2.060  1.00  0.00    -0.370 N 
ATOM     78  H   UNL     1      -5.211   0.004   0.360  1.00  0.00     0.159 HD
ATOM     79  H   UNL     1      -6.276   1.267  -0.165  1.00  0.00     0.159 HD
ATOM     80  H   UNL     1      -7.226   2.289   2.985  1.00  0.00     0.159 HD
ATOM     81  H   UNL     1      -7.158   2.646   1.303  1.00  0.00     0.159 HD
ENDBRANCH  73  74
ENDBRANCH  72  73
ENDBRANCH  71  72
ENDBRANCH  45  71
ENDBRANCH   3  45
TORSDOF 20
ENDMDL
MODEL 29
REMARK VINA RESULT:    -5.069      9.720     14.341
REMARK INTER + INTRA:         -20.671
REMARK INTER:                 -15.830
REMARK INTRA:                  -4.842
REMARK UNBOUND:                -6.121
REMARK SMILES CCCCCC(=O)N[C@H](CC(=O)O)C(=O)N[C@H]1C(=O)N[C@H](CCCN=C(N)N)C(=O)N[C@@H]2CC[C@H](O)N(C2=O)[C@@H](CC(C)C)C(=O)N(C)[C@@H](Cc2ccccc2)C(=O)N[C@H](C(C)C)C(=O)O[C@@H]1C
REMARK SMILES IDX 30 1 31 2 29 3 32 5 35 6 37 7 34 8 38 9 33 10 39 11 36 12
REMARK SMILES IDX 40 14 41 15 42 16 43 17 44 18 45 19 46 20 47 21 48 22 49 23
REMARK SMILES IDX 50 24 51 25 52 26 56 27 53 28 55 29 54 30 57 31 58 32 59 33
REMARK SMILES IDX 60 35 61 36 62 37 63 38 64 39 65 40 66 41 67 42 68 43 21 45
REMARK SMILES IDX 20 46 18 47 19 48 17 50 16 52 14 53 15 54 9 56 8 57 6 58
REMARK SMILES IDX 7 59 5 61 4 62 3 63 2 64 1 65 10 66 11 67 12 68 13 69 22 71
REMARK SMILES IDX 23 72 24 73 25 74 26 75 27 76 28 77
REMARK H PARENT 31 4 36 13 59 34 20 49 16 55 8 60 13 70 27 78 27 79 28 80
REMARK H PARENT 28 81
REMARK Flexibility Score:  259.900
ROOT
ATOM      1  O   UNL     1      -3.279   3.018  -1.601  1.00  0.00    -0.273 OA
ATOM      2  N   UNL     1      -2.242   1.729  -0.023  1.00  0.00    -0.343 N 
ATOM      3  C   UNL     1      -3.356   2.201  -0.683  1.00  0.00     0.243 C 
ATOM      4  H   UNL     1      -2.341   1.046   0.718  1.00  0.00     0.164 HD
ENDROOT
BRANCH   2   5
ATOM      5  C   UNL     1      -0.920   2.275  -0.312  1.00  0.00     0.171 C 
ATOM      6  C   UNL     1       1.664   1.942   0.960  1.00  0.00     0.214 C 
ATOM      7  N   UNL     1       0.798   3.019   1.381  1.00  0.00    -0.303 N 
ATOM      8  C   UNL     1       1.484   1.561  -0.501  1.00  0.00     0.057 C 
ATOM      9  C   UNL     1      -0.468   3.204   0.851  1.00  0.00     0.247 C 
ATOM     10  C   UNL     1       0.043   1.175  -0.756  1.00  0.00     0.040 C 
ATOM     11  O   UNL     1      -1.237   4.076   1.278  1.00  0.00    -0.272 OA
BRANCH   6  12
ATOM     12  O   UNL     1       1.408   0.834   1.792  1.00  0.00    -0.373 OA
ATOM     13  H   UNL     1       1.446   1.156   2.719  1.00  0.00     0.213 HD
ENDBRANCH   6  12
BRANCH   7  14
ATOM     14  C   UNL     1       1.259   3.844   2.518  1.00  0.00     0.177 C 
BRANCH  14  15
ATOM     15  C   UNL     1       0.942   3.272   3.914  1.00  0.00     0.038 C 
BRANCH  15  16
ATOM     16  C   UNL     1      -0.016   4.040   4.851  1.00  0.00    -0.015 C 
ATOM     17  C   UNL     1      -0.543   5.331   4.217  1.00  0.00     0.007 C 
ATOM     18  C   UNL     1       0.712   4.406   6.151  1.00  0.00     0.007 C 
ENDBRANCH  15  16
ENDBRANCH  14  15
BRANCH  14  19
ATOM     19  C   UNL     1       2.564   4.622   2.132  1.00  0.00     0.245 C 
ATOM     20  O   UNL     1       2.599   5.125   0.996  1.00  0.00    -0.272 OA
BRANCH  19  21
ATOM     21  N   UNL     1       3.693   4.679   2.929  1.00  0.00    -0.332 N 
ATOM     22  C   UNL     1       4.500   3.540   3.330  1.00  0.00     0.147 C 
BRANCH  21  23
ATOM     23  C   UNL     1       4.121   6.012   3.435  1.00  0.00     0.178 C 
BRANCH  23  24
ATOM     24  C   UNL     1       3.139   6.674   4.423  1.00  0.00     0.070 C 
BRANCH  24  25
ATOM     25  C   UNL     1       2.340   7.851   3.915  1.00  0.00    -0.045 A 
ATOM     26  C   UNL     1       1.244   8.340   4.638  1.00  0.00     0.004 A 
ATOM     27  C   UNL     1       2.684   8.470   2.704  1.00  0.00     0.004 A 
ATOM     28  C   UNL     1       0.500   9.418   4.153  1.00  0.00     0.000 A 
ATOM     29  C   UNL     1       1.940   9.548   2.221  1.00  0.00     0.000 A 
ATOM     30  C   UNL     1       0.847  10.019   2.945  1.00  0.00     0.000 A 
ENDBRANCH  24  25
ENDBRANCH  23  24
BRANCH  23  31
ATOM     31  C   UNL     1       5.605   6.044   3.871  1.00  0.00     0.243 C 
ATOM     32  O   UNL     1       6.549   5.835   3.113  1.00  0.00    -0.273 OA
ATOM     33  N   UNL     1       5.777   6.147   5.241  1.00  0.00    -0.341 N 
ATOM     34  H   UNL     1       4.952   6.315   5.822  1.00  0.00     0.164 HD
BRANCH  33  35
ATOM     35  C   UNL     1       7.089   6.077   5.890  1.00  0.00     0.194 C 
BRANCH  35  36
ATOM     36  C   UNL     1       7.725   4.658   5.886  1.00  0.00     0.017 C 
ATOM     37  C   UNL     1       7.302   3.853   7.127  1.00  0.00     0.010 C 
ATOM     38  C   UNL     1       9.258   4.682   5.855  1.00  0.00     0.010 C 
ENDBRANCH  35  36
BRANCH  35  39
ATOM     39  C   UNL     1       7.089   6.709   7.310  1.00  0.00     0.329 C 
ATOM     40  O   UNL     1       6.089   6.829   8.007  1.00  0.00    -0.250 OA
BRANCH  39  41
ATOM     41  O   UNL     1       8.347   7.039   7.732  1.00  0.00    -0.458 OA
BRANCH  41  42
ATOM     42  C   UNL     1       8.594   6.934   9.155  1.00  0.00     0.205 CG0
ATOM     43  C   UNL     1       9.638   5.837   9.355  1.00  0.00     0.056 C 
ATOM     44  G   UNL     1       7.262   6.616   9.863  1.00  0.00     0.000 G0
ENDBRANCH  41  42
ENDBRANCH  39  41
ENDBRANCH  35  39
ENDBRANCH  33  35
ENDBRANCH  23  31
ENDBRANCH  21  23
ENDBRANCH  19  21
ENDBRANCH  14  19
ENDBRANCH   7  14
ENDBRANCH   2   5
BRANCH   3  45
ATOM     45  C   UNL     1      -4.695   1.622  -0.209  1.00  0.00     0.171 C 
BRANCH  45  46
ATOM     46  N   UNL     1      -5.361   1.135  -1.410  1.00  0.00    -0.342 N 
ATOM     47  C   UNL     1      -5.808  -0.157  -1.532  1.00  0.00     0.247 C 
ATOM     48  O   UNL     1      -5.745  -0.975  -0.613  1.00  0.00    -0.273 OA
ATOM     49  H   UNL     1      -5.484   1.796  -2.175  1.00  0.00     0.164 HD
BRANCH  47  50
ATOM     50  C   UNL     1      -6.370  -0.522  -2.913  1.00  0.00     0.212 CG0
ATOM     51  G   UNL     1      -6.767   0.790  -3.618  1.00  0.00     0.000 G0
BRANCH  50  52
ATOM     52  N   UNL     1      -5.297  -1.242  -3.593  1.00  0.00    -0.339 N 
ATOM     53  C   UNL     1      -4.266  -0.616  -4.250  1.00  0.00     0.243 C 
ATOM     54  O   UNL     1      -4.196   0.605  -4.361  1.00  0.00    -0.273 OA
ATOM     55  H   UNL     1      -5.358  -2.257  -3.631  1.00  0.00     0.164 HD
BRANCH  53  56
ATOM     56  C   UNL     1      -3.299  -1.582  -4.965  1.00  0.00     0.182 C 
BRANCH  56  57
ATOM     57  N   UNL     1      -3.781  -2.964  -4.884  1.00  0.00    -0.344 N 
ATOM     58  C   UNL     1      -4.393  -3.594  -5.939  1.00  0.00     0.220 C 
ATOM     59  O   UNL     1      -4.646  -3.024  -6.995  1.00  0.00    -0.275 OA
ATOM     60  H   UNL     1      -3.502  -3.502  -4.067  1.00  0.00     0.164 HD
BRANCH  58  61
ATOM     61  C   UNL     1      -4.755  -5.039  -5.650  1.00  0.00     0.100 C 
BRANCH  61  62
ATOM     62  C   UNL     1      -4.695  -5.404  -4.167  1.00  0.00     0.010 C 
BRANCH  62  63
ATOM     63  C   UNL     1      -6.029  -5.246  -3.427  1.00  0.00     0.000 C 
BRANCH  63  64
ATOM     64  C   UNL     1      -5.887  -4.950  -1.934  1.00  0.00    -0.003 C 
ATOM     65  C   UNL     1      -7.021  -4.068  -1.433  1.00  0.00     0.004 C 
ENDBRANCH  63  64
ENDBRANCH  62  63
ENDBRANCH  61  62
ENDBRANCH  58  61
ENDBRANCH  56  57
BRANCH  56  66
ATOM     66  C   UNL     1      -1.872  -1.436  -4.441  1.00  0.00     0.157 C 
BRANCH  66  67
ATOM     67  C   UNL     1      -1.123  -0.371  -5.190  1.00  0.00     0.305 C 
ATOM     68  O   UNL     1      -1.247  -0.082  -6.371  1.00  0.00    -0.252 OA
BRANCH  67  69
ATOM     69  O   UNL     1      -0.284   0.319  -4.395  1.00  0.00    -0.481 OA
ATOM     70  H   UNL     1      -0.353  -0.117  -3.520  1.00  0.00     0.296 HD
ENDBRANCH  67  69
ENDBRANCH  66  67
ENDBRANCH  56  66
ENDBRANCH  53  56
ENDBRANCH  50  52
ENDBRANCH  47  50
ENDBRANCH  45  46
BRANCH  45  71
ATOM     71  C   UNL     1      -5.523   2.701   0.498  1.00  0.00     0.037 C 
BRANCH  71  72
ATOM     72  C   UNL     1      -4.676   3.537   1.461  1.00  0.00     0.026 C 
BRANCH  72  73
ATOM     73  C   UNL     1      -5.127   4.996   1.482  1.00  0.00     0.146 C 
BRANCH  73  74
ATOM     74  N   UNL     1      -4.080   5.778   2.133  1.00  0.00    -0.254 NA
ATOM     75  C   UNL     1      -4.427   6.577   3.074  1.00  0.00     0.185 C 
ATOM     76  N   UNL     1      -3.486   7.309   3.692  1.00  0.00    -0.370 N 
ATOM     77  N   UNL     1      -5.652   6.814   3.572  1.00  0.00    -0.370 N 
ATOM     78  H   UNL     1      -2.535   7.196   3.372  1.00  0.00     0.159 HD
ATOM     79  H   UNL     1      -3.696   8.054   4.332  1.00  0.00     0.159 HD
ATOM     80  H   UNL     1      -6.458   6.330   3.206  1.00  0.00     0.159 HD
ATOM     81  H   UNL     1      -5.788   7.380   4.394  1.00  0.00     0.159 HD
ENDBRANCH  73  74
ENDBRANCH  72  73
ENDBRANCH  71  72
ENDBRANCH  45  71
ENDBRANCH   3  45
TORSDOF 20
ENDMDL
MODEL 30
REMARK VINA RESULT:    -5.068     12.422     17.905
REMARK INTER + INTRA:         -20.671
REMARK INTER:                 -16.770
REMARK INTRA:                  -3.901
REMARK UNBOUND:                -6.121
REMARK SMILES CCCCCC(=O)N[C@H](CC(=O)O)C(=O)N[C@H]1C(=O)N[C@H](CCCN=C(N)N)C(=O)N[C@@H]2CC[C@H](O)N(C2=O)[C@@H](CC(C)C)C(=O)N(C)[C@@H](Cc2ccccc2)C(=O)N[C@H](C(C)C)C(=O)O[C@@H]1C
REMARK SMILES IDX 30 1 31 2 29 3 32 5 35 6 37 7 34 8 38 9 33 10 39 11 36 12
REMARK SMILES IDX 40 14 41 15 42 16 43 17 44 18 45 19 46 20 47 21 48 22 49 23
REMARK SMILES IDX 50 24 51 25 52 26 56 27 53 28 55 29 54 30 57 31 58 32 59 33
REMARK SMILES IDX 60 35 61 36 62 37 63 38 64 39 65 40 66 41 67 42 68 43 21 45
REMARK SMILES IDX 20 46 18 47 19 48 17 50 16 52 14 53 15 54 9 56 8 57 6 58
REMARK SMILES IDX 7 59 5 61 4 62 3 63 2 64 1 65 10 66 11 67 12 68 13 69 22 71
REMARK SMILES IDX 23 72 24 73 25 74 26 75 27 76 28 77
REMARK H PARENT 31 4 36 13 59 34 20 49 16 55 8 60 13 70 27 78 27 79 28 80
REMARK H PARENT 28 81
REMARK Flexibility Score:  259.900
ROOT
ATOM      1  O   UNL     1      -1.245   1.592   5.029  1.00  0.00    -0.273 OA
ATOM      2  N   UNL     1       0.116   0.377   3.650  1.00  0.00    -0.343 N 
ATOM      3  C   UNL     1      -0.489   0.635   4.862  1.00  0.00     0.243 C 
ATOM      4  H   UNL     1       0.721  -0.428   3.545  1.00  0.00     0.164 HD
ENDROOT
BRANCH   2   5
ATOM      5  C   UNL     1      -0.024   1.310   2.537  1.00  0.00     0.171 C 
ATOM      6  C   UNL     1       1.092   1.357  -0.138  1.00  0.00     0.214 C 
ATOM      7  N   UNL     1       1.794   2.020   0.936  1.00  0.00    -0.303 N 
ATOM      8  C   UNL     1      -0.416   1.334   0.054  1.00  0.00     0.057 C 
ATOM      9  C   UNL     1       1.344   1.993   2.246  1.00  0.00     0.247 C 
ATOM     10  C   UNL     1      -0.755   0.659   1.365  1.00  0.00     0.040 C 
ATOM     11  O   UNL     1       1.995   2.488   3.175  1.00  0.00    -0.272 OA
BRANCH   6  12
ATOM     12  O   UNL     1       1.597   0.046  -0.238  1.00  0.00    -0.373 OA
ATOM     13  H   UNL     1       1.008  -0.530   0.295  1.00  0.00     0.213 HD
ENDBRANCH   6  12
BRANCH   7  14
ATOM     14  C   UNL     1       3.108   2.614   0.612  1.00  0.00     0.177 C 
BRANCH  14  15
ATOM     15  C   UNL     1       3.944   1.835  -0.423  1.00  0.00     0.038 C 
BRANCH  15  16
ATOM     16  C   UNL     1       5.043   0.864   0.063  1.00  0.00    -0.015 C 
ATOM     17  C   UNL     1       4.857   0.456   1.527  1.00  0.00     0.007 C 
ATOM     18  C   UNL     1       6.419   1.525  -0.081  1.00  0.00     0.007 C 
ENDBRANCH  15  16
ENDBRANCH  14  15
BRANCH  14  19
ATOM     19  C   UNL     1       3.044   4.176   0.735  1.00  0.00     0.245 C 
ATOM     20  O   UNL     1       2.213   4.759   0.018  1.00  0.00    -0.272 OA
BRANCH  19  21
ATOM     21  N   UNL     1       3.921   4.926   1.498  1.00  0.00    -0.332 N 
ATOM     22  C   UNL     1       5.349   4.691   1.617  1.00  0.00     0.147 C 
BRANCH  21  23
ATOM     23  C   UNL     1       3.365   6.067   2.276  1.00  0.00     0.178 C 
BRANCH  23  24
ATOM     24  C   UNL     1       1.865   6.341   2.039  1.00  0.00     0.070 C 
BRANCH  24  25
ATOM     25  C   UNL     1       1.307   7.634   2.585  1.00  0.00    -0.045 A 
ATOM     26  C   UNL     1       1.892   8.864   2.256  1.00  0.00     0.004 A 
ATOM     27  C   UNL     1       0.192   7.620   3.437  1.00  0.00     0.004 A 
ATOM     28  C   UNL     1       1.380  10.054   2.778  1.00  0.00     0.000 A 
ATOM     29  C   UNL     1      -0.318   8.810   3.958  1.00  0.00     0.000 A 
ATOM     30  C   UNL     1       0.278  10.026   3.630  1.00  0.00     0.000 A 
ENDBRANCH  24  25
ENDBRANCH  23  24
BRANCH  23  31
ATOM     31  C   UNL     1       3.797   6.053   3.762  1.00  0.00     0.243 C 
ATOM     32  O   UNL     1       4.821   6.584   4.184  1.00  0.00    -0.273 OA
ATOM     33  N   UNL     1       3.022   5.225   4.556  1.00  0.00    -0.341 N 
ATOM     34  H   UNL     1       2.184   4.806   4.146  1.00  0.00     0.164 HD
BRANCH  33  35
ATOM     35  C   UNL     1       3.319   4.964   5.967  1.00  0.00     0.194 C 
BRANCH  35  36
ATOM     36  C   UNL     1       3.417   6.246   6.842  1.00  0.00     0.017 C 
ATOM     37  C   UNL     1       3.410   5.900   8.342  1.00  0.00     0.010 C 
ATOM     38  C   UNL     1       2.273   7.236   6.594  1.00  0.00     0.010 C 
ENDBRANCH  35  36
BRANCH  35  39
ATOM     39  C   UNL     1       4.551   4.036   6.157  1.00  0.00     0.329 C 
ATOM     40  O   UNL     1       5.649   4.423   6.539  1.00  0.00    -0.250 OA
BRANCH  39  41
ATOM     41  O   UNL     1       4.250   2.721   5.932  1.00  0.00    -0.458 OA
BRANCH  41  42
ATOM     42  C   UNL     1       4.100   1.888   7.107  1.00  0.00     0.205 CG0
ATOM     43  C   UNL     1       5.484   1.737   7.736  1.00  0.00     0.056 C 
ATOM     44  G   UNL     1       3.497   0.536   6.677  1.00  0.00     0.000 G0
ENDBRANCH  41  42
ENDBRANCH  39  41
ENDBRANCH  35  39
ENDBRANCH  33  35
ENDBRANCH  23  31
ENDBRANCH  21  23
ENDBRANCH  19  21
ENDBRANCH  14  19
ENDBRANCH   7  14
ENDBRANCH   2   5
BRANCH   3  45
ATOM     45  C   UNL     1      -0.173  -0.367   5.980  1.00  0.00     0.171 C 
BRANCH  45  46
ATOM     46  N   UNL     1       1.278  -0.369   6.108  1.00  0.00    -0.342 N 
ATOM     47  C   UNL     1       1.964   0.643   6.730  1.00  0.00     0.247 C 
ATOM     48  O   UNL     1       1.403   1.587   7.287  1.00  0.00    -0.273 OA
ATOM     49  H   UNL     1       1.780  -1.161   5.710  1.00  0.00     0.164 HD
BRANCH  47  50
ATOM     50  C   UNL     1       3.494   0.532   6.659  1.00  0.00     0.212 CG0
ATOM     51  G   UNL     1       4.083   1.879   7.123  1.00  0.00     0.000 G0
BRANCH  50  52
ATOM     52  N   UNL     1       3.844  -0.583   7.534  1.00  0.00    -0.339 N 
ATOM     53  C   UNL     1       4.384  -1.761   7.079  1.00  0.00     0.243 C 
ATOM     54  O   UNL     1       4.565  -1.988   5.885  1.00  0.00    -0.273 OA
ATOM     55  H   UNL     1       3.614  -0.499   8.523  1.00  0.00     0.164 HD
BRANCH  53  56
ATOM     56  C   UNL     1       4.590  -2.824   8.177  1.00  0.00     0.182 C 
BRANCH  56  57
ATOM     57  N   UNL     1       4.610  -4.174   7.606  1.00  0.00    -0.344 N 
ATOM     58  C   UNL     1       5.671  -4.648   6.875  1.00  0.00     0.220 C 
ATOM     59  O   UNL     1       6.641  -3.955   6.586  1.00  0.00    -0.275 OA
ATOM     60  H   UNL     1       3.877  -4.812   7.905  1.00  0.00     0.164 HD
BRANCH  58  61
ATOM     61  C   UNL     1       5.501  -6.090   6.433  1.00  0.00     0.100 C 
BRANCH  61  62
ATOM     62  C   UNL     1       4.043  -6.514   6.260  1.00  0.00     0.010 C 
BRANCH  62  63
ATOM     63  C   UNL     1       3.778  -7.993   6.570  1.00  0.00     0.000 C 
BRANCH  63  64
ATOM     64  C   UNL     1       2.697  -8.229   7.623  1.00  0.00    -0.003 C 
ATOM     65  C   UNL     1       2.708  -9.668   8.117  1.00  0.00     0.004 C 
ENDBRANCH  63  64
ENDBRANCH  62  63
ENDBRANCH  61  62
ENDBRANCH  58  61
ENDBRANCH  56  57
BRANCH  56  66
ATOM     66  C   UNL     1       3.554  -2.685   9.292  1.00  0.00     0.157 C 
BRANCH  66  67
ATOM     67  C   UNL     1       2.206  -3.173   8.846  1.00  0.00     0.305 C 
ATOM     68  O   UNL     1       1.786  -4.319   8.904  1.00  0.00    -0.252 OA
BRANCH  67  69
ATOM     69  O   UNL     1       1.425  -2.175   8.392  1.00  0.00    -0.481 OA
ATOM     70  H   UNL     1       1.102  -1.722   9.199  1.00  0.00     0.296 HD
ENDBRANCH  67  69
ENDBRANCH  66  67
ENDBRANCH  56  66
ENDBRANCH  53  56
ENDBRANCH  50  52
ENDBRANCH  47  50
ENDBRANCH  45  46
BRANCH  45  71
ATOM     71  C   UNL     1      -0.711  -1.756   5.620  1.00  0.00     0.037 C 
BRANCH  71  72
ATOM     72  C   UNL     1      -2.240  -1.781   5.549  1.00  0.00     0.026 C 
BRANCH  72  73
ATOM     73  C   UNL     1      -2.839  -2.629   6.669  1.00  0.00     0.146 C 
BRANCH  73  74
ATOM     74  N   UNL     1      -1.741  -3.115   7.499  1.00  0.00    -0.254 NA
ATOM     75  C   UNL     1      -2.016  -3.503   8.689  1.00  0.00     0.185 C 
ATOM     76  N   UNL     1      -1.027  -3.956   9.476  1.00  0.00    -0.370 N 
ATOM     77  N   UNL     1      -3.206  -3.533   9.315  1.00  0.00    -0.370 N 
ATOM     78  H   UNL     1      -0.096  -3.961   9.084  1.00  0.00     0.159 HD
ATOM     79  H   UNL     1      -1.140  -4.139  10.458  1.00  0.00     0.159 HD
ATOM     80  H   UNL     1      -4.042  -3.225   8.842  1.00  0.00     0.159 HD
ATOM     81  H   UNL     1      -3.318  -3.969  10.215  1.00  0.00     0.159 HD
ENDBRANCH  73  74
ENDBRANCH  72  73
ENDBRANCH  71  72
ENDBRANCH  45  71
ENDBRANCH   3  45
TORSDOF 20
ENDMDL
MODEL 31
REMARK VINA RESULT:    -5.065     14.351     17.131
REMARK INTER + INTRA:         -20.662
REMARK INTER:                 -15.301
REMARK INTRA:                  -5.362
REMARK UNBOUND:                -6.121
REMARK SMILES CCCCCC(=O)N[C@H](CC(=O)O)C(=O)N[C@H]1C(=O)N[C@H](CCCN=C(N)N)C(=O)N[C@@H]2CC[C@H](O)N(C2=O)[C@@H](CC(C)C)C(=O)N(C)[C@@H](Cc2ccccc2)C(=O)N[C@H](C(C)C)C(=O)O[C@@H]1C
REMARK SMILES IDX 30 1 31 2 29 3 32 5 35 6 37 7 34 8 38 9 33 10 39 11 36 12
REMARK SMILES IDX 40 14 41 15 42 16 43 17 44 18 45 19 46 20 47 21 48 22 49 23
REMARK SMILES IDX 50 24 51 25 52 26 56 27 53 28 55 29 54 30 57 31 58 32 59 33
REMARK SMILES IDX 60 35 61 36 62 37 63 38 64 39 65 40 66 41 67 42 68 43 21 45
REMARK SMILES IDX 20 46 18 47 19 48 17 50 16 52 14 53 15 54 9 56 8 57 6 58
REMARK SMILES IDX 7 59 5 61 4 62 3 63 2 64 1 65 10 66 11 67 12 68 13 69 22 71
REMARK SMILES IDX 23 72 24 73 25 74 26 75 27 76 28 77
REMARK H PARENT 31 4 36 13 59 34 20 49 16 55 8 60 13 70 27 78 27 79 28 80
REMARK H PARENT 28 81
REMARK Flexibility Score:  259.900
ROOT
ATOM      1  O   UNL     1      -4.010   2.556   7.492  1.00  0.00    -0.273 OA
ATOM      2  N   UNL     1      -3.546   4.694   6.825  1.00  0.00    -0.343 N 
ATOM      3  C   UNL     1      -4.295   3.536   6.804  1.00  0.00     0.243 C 
ATOM      4  H   UNL     1      -3.819   5.486   6.257  1.00  0.00     0.164 HD
ENDROOT
BRANCH   2   5
ATOM      5  C   UNL     1      -2.302   4.760   7.584  1.00  0.00     0.171 C 
ATOM      6  C   UNL     1      -0.533   6.952   8.269  1.00  0.00     0.214 C 
ATOM      7  N   UNL     1      -0.297   6.200   7.058  1.00  0.00    -0.303 N 
ATOM      8  C   UNL     1      -1.182   6.129   9.371  1.00  0.00     0.057 C 
ATOM      9  C   UNL     1      -1.133   5.175   6.646  1.00  0.00     0.247 C 
ATOM     10  C   UNL     1      -2.490   5.552   8.877  1.00  0.00     0.040 C 
ATOM     11  O   UNL     1      -0.974   4.594   5.564  1.00  0.00    -0.272 OA
BRANCH   6  12
ATOM     12  O   UNL     1      -1.341   8.057   7.939  1.00  0.00    -0.373 OA
ATOM     13  H   UNL     1      -0.897   8.855   8.297  1.00  0.00     0.213 HD
ENDBRANCH   6  12
BRANCH   7  14
ATOM     14  C   UNL     1       0.800   6.665   6.183  1.00  0.00     0.177 C 
BRANCH  14  15
ATOM     15  C   UNL     1       0.667   8.115   5.678  1.00  0.00     0.038 C 
BRANCH  15  16
ATOM     16  C   UNL     1       0.014   8.385   4.304  1.00  0.00    -0.015 C 
ATOM     17  C   UNL     1       0.429   9.737   3.716  1.00  0.00     0.007 C 
ATOM     18  C   UNL     1      -1.513   8.370   4.444  1.00  0.00     0.007 C 
ENDBRANCH  15  16
ENDBRANCH  14  15
BRANCH  14  19
ATOM     19  C   UNL     1       2.144   5.962   6.578  1.00  0.00     0.245 C 
ATOM     20  O   UNL     1       2.668   6.316   7.647  1.00  0.00    -0.272 OA
BRANCH  19  21
ATOM     21  N   UNL     1       2.817   5.071   5.760  1.00  0.00    -0.332 N 
ATOM     22  C   UNL     1       2.372   3.730   5.428  1.00  0.00     0.147 C 
BRANCH  21  23
ATOM     23  C   UNL     1       4.115   5.508   5.174  1.00  0.00     0.178 C 
BRANCH  23  24
ATOM     24  C   UNL     1       4.223   7.023   4.904  1.00  0.00     0.070 C 
BRANCH  24  25
ATOM     25  C   UNL     1       3.735   7.519   3.563  1.00  0.00    -0.045 A 
ATOM     26  C   UNL     1       2.971   6.695   2.727  1.00  0.00     0.004 A 
ATOM     27  C   UNL     1       4.047   8.818   3.133  1.00  0.00     0.004 A 
ATOM     28  C   UNL     1       2.539   7.155   1.481  1.00  0.00     0.000 A 
ATOM     29  C   UNL     1       3.613   9.277   1.888  1.00  0.00     0.000 A 
ATOM     30  C   UNL     1       2.862   8.444   1.062  1.00  0.00     0.000 A 
ENDBRANCH  24  25
ENDBRANCH  23  24
BRANCH  23  31
ATOM     31  C   UNL     1       5.339   4.884   5.885  1.00  0.00     0.243 C 
ATOM     32  O   UNL     1       5.354   3.752   6.361  1.00  0.00    -0.273 OA
ATOM     33  N   UNL     1       6.369   5.783   6.105  1.00  0.00    -0.341 N 
ATOM     34  H   UNL     1       6.297   6.715   5.688  1.00  0.00     0.164 HD
BRANCH  33  35
ATOM     35  C   UNL     1       7.576   5.445   6.864  1.00  0.00     0.194 C 
BRANCH  35  36
ATOM     36  C   UNL     1       8.032   6.552   7.856  1.00  0.00     0.017 C 
ATOM     37  C   UNL     1       8.744   5.948   9.079  1.00  0.00     0.010 C 
ATOM     38  C   UNL     1       6.874   7.412   8.377  1.00  0.00     0.010 C 
ENDBRANCH  35  36
BRANCH  35  39
ATOM     39  C   UNL     1       8.740   4.966   5.953  1.00  0.00     0.329 C 
ATOM     40  O   UNL     1       8.586   4.305   4.933  1.00  0.00    -0.250 OA
BRANCH  39  41
ATOM     41  O   UNL     1       9.954   5.439   6.369  1.00  0.00    -0.458 OA
BRANCH  41  42
ATOM     42  C   UNL     1      11.115   4.679   5.954  1.00  0.00     0.205 CG0
ATOM     43  C   UNL     1      11.533   3.807   7.136  1.00  0.00     0.056 C 
ATOM     44  G   UNL     1      12.221   5.665   5.528  1.00  0.00     0.000 G0
ENDBRANCH  41  42
ENDBRANCH  39  41
ENDBRANCH  35  39
ENDBRANCH  33  35
ENDBRANCH  23  31
ENDBRANCH  21  23
ENDBRANCH  19  21
ENDBRANCH  14  19
ENDBRANCH   7  14
ENDBRANCH   2   5
BRANCH   3  45
ATOM     45  C   UNL     1      -5.520   3.563   5.881  1.00  0.00     0.171 C 
BRANCH  45  46
ATOM     46  N   UNL     1      -6.569   2.850   6.597  1.00  0.00    -0.342 N 
ATOM     47  C   UNL     1      -7.869   3.287   6.626  1.00  0.00     0.247 C 
ATOM     48  O   UNL     1      -8.258   4.269   5.992  1.00  0.00    -0.273 OA
ATOM     49  H   UNL     1      -6.301   2.000   7.090  1.00  0.00     0.164 HD
BRANCH  47  50
ATOM     50  C   UNL     1      -8.807   2.478   7.533  1.00  0.00     0.212 CG0
ATOM     51  G   UNL     1     -10.171   3.197   7.556  1.00  0.00     0.000 G0
BRANCH  50  52
ATOM     52  N   UNL     1      -8.868   1.145   6.940  1.00  0.00    -0.339 N 
ATOM     53  C   UNL     1      -9.789   0.195   7.308  1.00  0.00     0.243 C 
ATOM     54  O   UNL     1     -10.605   0.378   8.208  1.00  0.00    -0.273 OA
ATOM     55  H   UNL     1      -8.147   0.894   6.266  1.00  0.00     0.164 HD
BRANCH  53  56
ATOM     56  C   UNL     1      -9.603  -1.165   6.606  1.00  0.00     0.182 C 
BRANCH  56  57
ATOM     57  N   UNL     1      -8.182  -1.463   6.403  1.00  0.00    -0.344 N 
ATOM     58  C   UNL     1      -7.399  -2.021   7.384  1.00  0.00     0.220 C 
ATOM     59  O   UNL     1      -7.812  -2.241   8.517  1.00  0.00    -0.275 OA
ATOM     60  H   UNL     1      -7.828  -1.391   5.452  1.00  0.00     0.164 HD
BRANCH  58  61
ATOM     61  C   UNL     1      -5.976  -2.296   6.934  1.00  0.00     0.100 C 
BRANCH  61  62
ATOM     62  C   UNL     1      -5.513  -3.729   7.194  1.00  0.00     0.010 C 
BRANCH  62  63
ATOM     63  C   UNL     1      -4.003  -3.940   7.032  1.00  0.00     0.000 C 
BRANCH  63  64
ATOM     64  C   UNL     1      -3.159  -2.710   7.362  1.00  0.00    -0.003 C 
ATOM     65  C   UNL     1      -2.032  -2.524   6.356  1.00  0.00     0.004 C 
ENDBRANCH  63  64
ENDBRANCH  62  63
ENDBRANCH  61  62
ENDBRANCH  58  61
ENDBRANCH  56  57
BRANCH  56  66
ATOM     66  C   UNL     1     -10.400  -1.237   5.304  1.00  0.00     0.157 C 
BRANCH  66  67
ATOM     67  C   UNL     1      -9.524  -0.962   4.116  1.00  0.00     0.305 C 
ATOM     68  O   UNL     1      -8.947   0.083   3.857  1.00  0.00    -0.252 OA
BRANCH  67  69
ATOM     69  O   UNL     1      -9.376  -2.044   3.328  1.00  0.00    -0.481 OA
ATOM     70  H   UNL     1      -9.402  -2.807   3.943  1.00  0.00     0.296 HD
ENDBRANCH  67  69
ENDBRANCH  66  67
ENDBRANCH  56  66
ENDBRANCH  53  56
ENDBRANCH  50  52
ENDBRANCH  47  50
ENDBRANCH  45  46
BRANCH  45  71
ATOM     71  C   UNL     1      -5.194   2.893   4.541  1.00  0.00     0.037 C 
BRANCH  71  72
ATOM     72  C   UNL     1      -5.282   3.874   3.370  1.00  0.00     0.026 C 
BRANCH  72  73
ATOM     73  C   UNL     1      -5.777   5.246   3.824  1.00  0.00     0.146 C 
BRANCH  73  74
ATOM     74  N   UNL     1      -5.831   6.112   2.650  1.00  0.00    -0.254 NA
ATOM     75  C   UNL     1      -5.491   7.339   2.795  1.00  0.00     0.185 C 
ATOM     76  N   UNL     1      -5.530   8.161   1.734  1.00  0.00    -0.370 N 
ATOM     77  N   UNL     1      -5.076   7.975   3.904  1.00  0.00    -0.370 N 
ATOM     78  H   UNL     1      -5.839   7.763   0.858  1.00  0.00     0.159 HD
ATOM     79  H   UNL     1      -5.418   9.157   1.800  1.00  0.00     0.159 HD
ATOM     80  H   UNL     1      -4.994   7.481   4.780  1.00  0.00     0.159 HD
ATOM     81  H   UNL     1      -4.723   8.918   3.872  1.00  0.00     0.159 HD
ENDBRANCH  73  74
ENDBRANCH  72  73
ENDBRANCH  71  72
ENDBRANCH  45  71
ENDBRANCH   3  45
TORSDOF 20
ENDMDL
MODEL 32
REMARK VINA RESULT:    -5.065     13.389     18.399
REMARK INTER + INTRA:         -20.660
REMARK INTER:                 -15.039
REMARK INTRA:                  -5.621
REMARK UNBOUND:                -6.121
REMARK SMILES CCCCCC(=O)N[C@H](CC(=O)O)C(=O)N[C@H]1C(=O)N[C@H](CCCN=C(N)N)C(=O)N[C@@H]2CC[C@H](O)N(C2=O)[C@@H](CC(C)C)C(=O)N(C)[C@@H](Cc2ccccc2)C(=O)N[C@H](C(C)C)C(=O)O[C@@H]1C
REMARK SMILES IDX 30 1 31 2 29 3 32 5 35 6 37 7 34 8 38 9 33 10 39 11 36 12
REMARK SMILES IDX 40 14 41 15 42 16 43 17 44 18 45 19 46 20 47 21 48 22 49 23
REMARK SMILES IDX 50 24 51 25 52 26 56 27 53 28 55 29 54 30 57 31 58 32 59 33
REMARK SMILES IDX 60 35 61 36 62 37 63 38 64 39 65 40 66 41 67 42 68 43 21 45
REMARK SMILES IDX 20 46 18 47 19 48 17 50 16 52 14 53 15 54 9 56 8 57 6 58
REMARK SMILES IDX 7 59 5 61 4 62 3 63 2 64 1 65 10 66 11 67 12 68 13 69 22 71
REMARK SMILES IDX 23 72 24 73 25 74 26 75 27 76 28 77
REMARK H PARENT 31 4 36 13 59 34 20 49 16 55 8 60 13 70 27 78 27 79 28 80
REMARK H PARENT 28 81
REMARK Flexibility Score:  259.900
ROOT
ATOM      1  O   UNL     1       3.220   6.875   7.501  1.00  0.00    -0.273 OA
ATOM      2  N   UNL     1       4.554   5.038   7.771  1.00  0.00    -0.343 N 
ATOM      3  C   UNL     1       3.477   5.832   8.102  1.00  0.00     0.243 C 
ATOM      4  H   UNL     1       4.727   4.178   8.278  1.00  0.00     0.164 HD
ENDROOT
BRANCH   2   5
ATOM      5  C   UNL     1       5.512   5.470   6.759  1.00  0.00     0.171 C 
ATOM      6  C   UNL     1       5.457   7.585   4.778  1.00  0.00     0.214 C 
ATOM      7  N   UNL     1       4.973   6.270   4.427  1.00  0.00    -0.303 N 
ATOM      8  C   UNL     1       6.554   7.562   5.831  1.00  0.00     0.057 C 
ATOM      9  C   UNL     1       4.924   5.229   5.339  1.00  0.00     0.247 C 
ATOM     10  C   UNL     1       6.053   6.863   7.076  1.00  0.00     0.040 C 
ATOM     11  O   UNL     1       4.429   4.130   5.056  1.00  0.00    -0.272 OA
BRANCH   6  12
ATOM     12  O   UNL     1       4.357   8.341   5.229  1.00  0.00    -0.373 OA
ATOM     13  H   UNL     1       4.707   9.210   5.522  1.00  0.00     0.213 HD
ENDBRANCH   6  12
BRANCH   7  14
ATOM     14  C   UNL     1       4.387   6.109   3.079  1.00  0.00     0.177 C 
BRANCH  14  15
ATOM     15  C   UNL     1       3.774   7.387   2.473  1.00  0.00     0.038 C 
BRANCH  15  16
ATOM     16  C   UNL     1       2.248   7.467   2.251  1.00  0.00    -0.015 C 
ATOM     17  C   UNL     1       1.839   8.707   1.451  1.00  0.00     0.007 C 
ATOM     18  C   UNL     1       1.528   7.510   3.605  1.00  0.00     0.007 C 
ENDBRANCH  15  16
ENDBRANCH  14  15
BRANCH  14  19
ATOM     19  C   UNL     1       5.161   5.006   2.278  1.00  0.00     0.245 C 
ATOM     20  O   UNL     1       6.394   4.971   2.423  1.00  0.00    -0.272 OA
BRANCH  19  21
ATOM     21  N   UNL     1       4.567   4.164   1.354  1.00  0.00    -0.332 N 
ATOM     22  C   UNL     1       5.268   3.229   0.493  1.00  0.00     0.147 C 
BRANCH  21  23
ATOM     23  C   UNL     1       3.086   4.220   1.213  1.00  0.00     0.178 C 
BRANCH  23  24
ATOM     24  C   UNL     1       2.562   3.948  -0.212  1.00  0.00     0.070 C 
BRANCH  24  25
ATOM     25  C   UNL     1       1.111   4.268  -0.485  1.00  0.00    -0.045 A 
ATOM     26  C   UNL     1       0.195   3.251  -0.785  1.00  0.00     0.004 A 
ATOM     27  C   UNL     1       0.660   5.596  -0.446  1.00  0.00     0.004 A 
ATOM     28  C   UNL     1      -1.141   3.558  -1.053  1.00  0.00     0.000 A 
ATOM     29  C   UNL     1      -0.676   5.901  -0.713  1.00  0.00     0.000 A 
ATOM     30  C   UNL     1      -1.574   4.881  -1.019  1.00  0.00     0.000 A 
ENDBRANCH  24  25
ENDBRANCH  23  24
BRANCH  23  31
ATOM     31  C   UNL     1       2.343   3.459   2.337  1.00  0.00     0.243 C 
ATOM     32  O   UNL     1       2.653   2.336   2.726  1.00  0.00    -0.273 OA
ATOM     33  N   UNL     1       1.174   4.078   2.746  1.00  0.00    -0.341 N 
ATOM     34  H   UNL     1       0.966   5.011   2.382  1.00  0.00     0.164 HD
BRANCH  33  35
ATOM     35  C   UNL     1       0.249   3.480   3.712  1.00  0.00     0.194 C 
BRANCH  35  36
ATOM     36  C   UNL     1      -1.236   3.890   3.507  1.00  0.00     0.017 C 
ATOM     37  C   UNL     1      -1.954   2.928   2.545  1.00  0.00     0.010 C 
ATOM     38  C   UNL     1      -1.400   5.308   2.946  1.00  0.00     0.010 C 
ENDBRANCH  35  36
BRANCH  35  39
ATOM     39  C   UNL     1       0.709   3.681   5.183  1.00  0.00     0.329 C 
ATOM     40  O   UNL     1       1.205   4.717   5.611  1.00  0.00    -0.250 OA
BRANCH  39  41
ATOM     41  O   UNL     1       0.418   2.603   5.972  1.00  0.00    -0.458 OA
BRANCH  41  42
ATOM     42  C   UNL     1       1.532   2.006   6.678  1.00  0.00     0.205 CG0
ATOM     43  C   UNL     1       1.777   0.631   6.060  1.00  0.00     0.056 C 
ATOM     44  G   UNL     1       1.177   1.924   8.176  1.00  0.00     0.000 G0
ENDBRANCH  41  42
ENDBRANCH  39  41
ENDBRANCH  35  39
ENDBRANCH  33  35
ENDBRANCH  23  31
ENDBRANCH  21  23
ENDBRANCH  19  21
ENDBRANCH  14  19
ENDBRANCH   7  14
ENDBRANCH   2   5
BRANCH   3  45
ATOM     45  C   UNL     1       2.609   5.314   9.256  1.00  0.00     0.171 C 
BRANCH  45  46
ATOM     46  N   UNL     1       1.796   4.246   8.690  1.00  0.00    -0.342 N 
ATOM     47  C   UNL     1       2.020   2.922   8.971  1.00  0.00     0.247 C 
ATOM     48  O   UNL     1       2.873   2.544   9.775  1.00  0.00    -0.273 OA
ATOM     49  H   UNL     1       1.042   4.518   8.062  1.00  0.00     0.164 HD
BRANCH  47  50
ATOM     50  C   UNL     1       1.146   1.933   8.186  1.00  0.00     0.212 CG0
ATOM     51  G   UNL     1       1.553   2.025   6.702  1.00  0.00     0.000 G0
BRANCH  50  52
ATOM     52  N   UNL     1       1.411   0.624   8.777  1.00  0.00    -0.339 N 
ATOM     53  C   UNL     1       0.477  -0.084   9.493  1.00  0.00     0.243 C 
ATOM     54  O   UNL     1      -0.643   0.355   9.738  1.00  0.00    -0.273 OA
ATOM     55  H   UNL     1       2.357   0.255   8.704  1.00  0.00     0.164 HD
BRANCH  53  56
ATOM     56  C   UNL     1       1.013  -1.400  10.093  1.00  0.00     0.182 C 
BRANCH  56  57
ATOM     57  N   UNL     1       1.943  -2.059   9.171  1.00  0.00    -0.344 N 
ATOM     58  C   UNL     1       3.101  -2.661   9.599  1.00  0.00     0.220 C 
ATOM     59  O   UNL     1       3.474  -2.627  10.766  1.00  0.00    -0.275 OA
ATOM     60  H   UNL     1       1.623  -2.198   8.216  1.00  0.00     0.164 HD
BRANCH  58  61
ATOM     61  C   UNL     1       3.880  -3.330   8.481  1.00  0.00     0.100 C 
BRANCH  61  62
ATOM     62  C   UNL     1       3.183  -4.558   7.894  1.00  0.00     0.010 C 
BRANCH  62  63
ATOM     63  C   UNL     1       3.879  -5.144   6.659  1.00  0.00     0.000 C 
BRANCH  63  64
ATOM     64  C   UNL     1       3.851  -6.670   6.588  1.00  0.00    -0.003 C 
ATOM     65  C   UNL     1       4.865  -7.198   5.584  1.00  0.00     0.004 C 
ENDBRANCH  63  64
ENDBRANCH  62  63
ENDBRANCH  61  62
ENDBRANCH  58  61
ENDBRANCH  56  57
BRANCH  56  66
ATOM     66  C   UNL     1      -0.126  -2.324  10.522  1.00  0.00     0.157 C 
BRANCH  66  67
ATOM     67  C   UNL     1      -0.617  -3.153   9.370  1.00  0.00     0.305 C 
ATOM     68  O   UNL     1      -0.962  -4.324   9.405  1.00  0.00    -0.252 OA
BRANCH  67  69
ATOM     69  O   UNL     1      -0.699  -2.445   8.228  1.00  0.00    -0.481 OA
ATOM     70  H   UNL     1      -1.595  -2.048   8.244  1.00  0.00     0.296 HD
ENDBRANCH  67  69
ENDBRANCH  66  67
ENDBRANCH  56  66
ENDBRANCH  53  56
ENDBRANCH  50  52
ENDBRANCH  47  50
ENDBRANCH  45  46
BRANCH  45  71
ATOM     71  C   UNL     1       1.743   6.445   9.821  1.00  0.00     0.037 C 
BRANCH  71  72
ATOM     72  C   UNL     1       1.331   6.185  11.273  1.00  0.00     0.026 C 
BRANCH  72  73
ATOM     73  C   UNL     1       0.973   7.482  11.995  1.00  0.00     0.146 C 
BRANCH  73  74
ATOM     74  N   UNL     1       0.139   8.277  11.098  1.00  0.00    -0.254 NA
ATOM     75  C   UNL     1       0.238   9.553  11.162  1.00  0.00     0.185 C 
ATOM     76  N   UNL     1      -0.516  10.311  10.349  1.00  0.00    -0.370 N 
ATOM     77  N   UNL     1       1.021  10.301  11.959  1.00  0.00    -0.370 N 
ATOM     78  H   UNL     1      -1.141   9.827   9.721  1.00  0.00     0.159 HD
ATOM     79  H   UNL     1      -0.600  11.308  10.442  1.00  0.00     0.159 HD
ATOM     80  H   UNL     1       1.646   9.866  12.621  1.00  0.00     0.159 HD
ATOM     81  H   UNL     1       1.098  11.298  11.839  1.00  0.00     0.159 HD
ENDBRANCH  73  74
ENDBRANCH  72  73
ENDBRANCH  71  72
ENDBRANCH  45  71
ENDBRANCH   3  45
TORSDOF 20
ENDMDL
MODEL 33
REMARK VINA RESULT:    -5.016     15.377     19.168
REMARK INTER + INTRA:         -20.521
REMARK INTER:                 -14.735
REMARK INTRA:                  -5.786
REMARK UNBOUND:                -6.121
REMARK SMILES CCCCCC(=O)N[C@H](CC(=O)O)C(=O)N[C@H]1C(=O)N[C@H](CCCN=C(N)N)C(=O)N[C@@H]2CC[C@H](O)N(C2=O)[C@@H](CC(C)C)C(=O)N(C)[C@@H](Cc2ccccc2)C(=O)N[C@H](C(C)C)C(=O)O[C@@H]1C
REMARK SMILES IDX 30 1 31 2 29 3 32 5 35 6 37 7 34 8 38 9 33 10 39 11 36 12
REMARK SMILES IDX 40 14 41 15 42 16 43 17 44 18 45 19 46 20 47 21 48 22 49 23
REMARK SMILES IDX 50 24 51 25 52 26 56 27 53 28 55 29 54 30 57 31 58 32 59 33
REMARK SMILES IDX 60 35 61 36 62 37 63 38 64 39 65 40 66 41 67 42 68 43 21 45
REMARK SMILES IDX 20 46 18 47 19 48 17 50 16 52 14 53 15 54 9 56 8 57 6 58
REMARK SMILES IDX 7 59 5 61 4 62 3 63 2 64 1 65 10 66 11 67 12 68 13 69 22 71
REMARK SMILES IDX 23 72 24 73 25 74 26 75 27 76 28 77
REMARK H PARENT 31 4 36 13 59 34 20 49 16 55 8 60 13 70 27 78 27 79 28 80
REMARK H PARENT 28 81
REMARK Flexibility Score:  259.900
ROOT
ATOM      1  O   UNL     1       6.510   5.068   5.632  1.00  0.00    -0.273 OA
ATOM      2  N   UNL     1       5.252   4.088   7.271  1.00  0.00    -0.343 N 
ATOM      3  C   UNL     1       5.914   5.157   6.706  1.00  0.00     0.243 C 
ATOM      4  H   UNL     1       4.760   4.201   8.149  1.00  0.00     0.164 HD
ENDROOT
BRANCH   2   5
ATOM      5  C   UNL     1       5.334   2.761   6.669  1.00  0.00     0.171 C 
ATOM      6  C   UNL     1       4.497   0.138   7.576  1.00  0.00     0.214 C 
ATOM      7  N   UNL     1       5.835   0.597   7.869  1.00  0.00    -0.303 N 
ATOM      8  C   UNL     1       3.934   0.708   6.284  1.00  0.00     0.057 C 
ATOM      9  C   UNL     1       6.282   1.858   7.509  1.00  0.00     0.247 C 
ATOM     10  C   UNL     1       3.942   2.220   6.345  1.00  0.00     0.040 C 
ATOM     11  O   UNL     1       7.400   2.277   7.839  1.00  0.00    -0.272 OA
BRANCH   6  12
ATOM     12  O   UNL     1       3.675   0.484   8.667  1.00  0.00    -0.373 OA
ATOM     13  H   UNL     1       3.525  -0.335   9.185  1.00  0.00     0.213 HD
ENDBRANCH   6  12
BRANCH   7  14
ATOM     14  C   UNL     1       6.678  -0.282   8.706  1.00  0.00     0.177 C 
BRANCH  14  15
ATOM     15  C   UNL     1       6.004  -0.814   9.985  1.00  0.00     0.038 C 
BRANCH  15  16
ATOM     16  C   UNL     1       6.197  -2.292  10.390  1.00  0.00    -0.015 C 
ATOM     17  C   UNL     1       5.044  -2.818  11.251  1.00  0.00     0.007 C 
ATOM     18  C   UNL     1       7.499  -2.446  11.185  1.00  0.00     0.007 C 
ENDBRANCH  15  16
ENDBRANCH  14  15
BRANCH  14  19
ATOM     19  C   UNL     1       7.683  -1.085   7.810  1.00  0.00     0.245 C 
ATOM     20  O   UNL     1       7.194  -1.922   7.033  1.00  0.00    -0.272 OA
BRANCH  19  21
ATOM     21  N   UNL     1       9.059  -0.992   7.920  1.00  0.00    -0.332 N 
ATOM     22  C   UNL     1       9.776  -0.019   8.725  1.00  0.00     0.147 C 
BRANCH  21  23
ATOM     23  C   UNL     1       9.886  -1.956   7.144  1.00  0.00     0.178 C 
BRANCH  23  24
ATOM     24  C   UNL     1      10.979  -1.311   6.267  1.00  0.00     0.070 C 
BRANCH  24  25
ATOM     25  C   UNL     1      11.118  -1.823   4.852  1.00  0.00    -0.045 A 
ATOM     26  C   UNL     1      11.728  -1.042   3.863  1.00  0.00     0.004 A 
ATOM     27  C   UNL     1      10.632  -3.094   4.509  1.00  0.00     0.004 A 
ATOM     28  C   UNL     1      11.837  -1.516   2.554  1.00  0.00     0.000 A 
ATOM     29  C   UNL     1      10.743  -3.567   3.201  1.00  0.00     0.000 A 
ATOM     30  C   UNL     1      11.344  -2.776   2.223  1.00  0.00     0.000 A 
ENDBRANCH  24  25
ENDBRANCH  23  24
BRANCH  23  31
ATOM     31  C   UNL     1      10.359  -3.163   7.989  1.00  0.00     0.243 C 
ATOM     32  O   UNL     1       9.600  -3.926   8.581  1.00  0.00    -0.273 OA
ATOM     33  N   UNL     1      11.730  -3.205   8.176  1.00  0.00    -0.341 N 
ATOM     34  H   UNL     1      12.310  -2.539   7.660  1.00  0.00     0.164 HD
BRANCH  33  35
ATOM     35  C   UNL     1      12.389  -4.189   9.039  1.00  0.00     0.194 C 
BRANCH  35  36
ATOM     36  C   UNL     1      13.280  -3.565  10.149  1.00  0.00     0.017 C 
ATOM     37  C   UNL     1      13.935  -4.652  11.019  1.00  0.00     0.010 C 
ATOM     38  C   UNL     1      12.508  -2.629  11.088  1.00  0.00     0.010 C 
ENDBRANCH  35  36
BRANCH  35  39
ATOM     39  C   UNL     1      13.148  -5.279   8.231  1.00  0.00     0.329 C 
ATOM     40  O   UNL     1      14.071  -5.044   7.460  1.00  0.00    -0.250 OA
BRANCH  39  41
ATOM     41  O   UNL     1      12.729  -6.543   8.542  1.00  0.00    -0.458 OA
BRANCH  41  42
ATOM     42  C   UNL     1      13.737  -7.580   8.504  1.00  0.00     0.205 CG0
ATOM     43  C   UNL     1      13.228  -8.675   7.569  1.00  0.00     0.056 C 
ATOM     44  G   UNL     1      13.970  -8.092   9.940  1.00  0.00     0.000 G0
ENDBRANCH  41  42
ENDBRANCH  39  41
ENDBRANCH  35  39
ENDBRANCH  33  35
ENDBRANCH  23  31
ENDBRANCH  21  23
ENDBRANCH  19  21
ENDBRANCH  14  19
ENDBRANCH   7  14
ENDBRANCH   2   5
BRANCH   3  45
ATOM     45  C   UNL     1       5.837   6.469   7.496  1.00  0.00     0.171 C 
BRANCH  45  46
ATOM     46  N   UNL     1       4.952   7.338   6.733  1.00  0.00    -0.342 N 
ATOM     47  C   UNL     1       3.585   7.255   6.819  1.00  0.00     0.247 C 
ATOM     48  O   UNL     1       3.009   6.495   7.598  1.00  0.00    -0.273 OA
ATOM     49  H   UNL     1       5.387   8.022   6.116  1.00  0.00     0.164 HD
BRANCH  47  50
ATOM     50  C   UNL     1       2.816   8.164   5.849  1.00  0.00     0.212 CG0
ATOM     51  G   UNL     1       3.589   9.493   5.741  1.00  0.00     0.000 G0
BRANCH  50  52
ATOM     52  N   UNL     1       2.756   7.427   4.590  1.00  0.00    -0.339 N 
ATOM     53  C   UNL     1       3.320   7.879   3.422  1.00  0.00     0.243 C 
ATOM     54  O   UNL     1       3.877   8.970   3.335  1.00  0.00    -0.273 OA
ATOM     55  H   UNL     1       2.211   6.567   4.571  1.00  0.00     0.164 HD
BRANCH  53  56
ATOM     56  C   UNL     1       3.053   6.973   2.204  1.00  0.00     0.182 C 
BRANCH  56  57
ATOM     57  N   UNL     1       4.225   6.148   1.894  1.00  0.00    -0.344 N 
ATOM     58  C   UNL     1       4.514   4.993   2.579  1.00  0.00     0.220 C 
ATOM     59  O   UNL     1       3.856   4.610   3.541  1.00  0.00    -0.275 OA
ATOM     60  H   UNL     1       4.735   6.373   1.044  1.00  0.00     0.164 HD
BRANCH  58  61
ATOM     61  C   UNL     1       5.740   4.271   2.051  1.00  0.00     0.100 C 
BRANCH  61  62
ATOM     62  C   UNL     1       5.583   3.756   0.620  1.00  0.00     0.010 C 
BRANCH  62  63
ATOM     63  C   UNL     1       4.378   2.830   0.414  1.00  0.00     0.000 C 
BRANCH  63  64
ATOM     64  C   UNL     1       4.579   1.412   0.947  1.00  0.00    -0.003 C 
ATOM     65  C   UNL     1       5.359   0.554  -0.039  1.00  0.00     0.004 C 
ENDBRANCH  63  64
ENDBRANCH  62  63
ENDBRANCH  61  62
ENDBRANCH  58  61
ENDBRANCH  56  57
BRANCH  56  66
ATOM     66  C   UNL     1       2.582   7.782   0.996  1.00  0.00     0.157 C 
BRANCH  66  67
ATOM     67  C   UNL     1       1.360   7.170   0.375  1.00  0.00     0.305 C 
ATOM     68  O   UNL     1       0.624   7.684  -0.453  1.00  0.00    -0.252 OA
BRANCH  67  69
ATOM     69  O   UNL     1       1.151   5.907   0.793  1.00  0.00    -0.481 OA
ATOM     70  H   UNL     1       1.971   5.663   1.272  1.00  0.00     0.296 HD
ENDBRANCH  67  69
ENDBRANCH  66  67
ENDBRANCH  56  66
ENDBRANCH  53  56
ENDBRANCH  50  52
ENDBRANCH  47  50
ENDBRANCH  45  46
BRANCH  45  71
ATOM     71  C   UNL     1       7.234   7.081   7.651  1.00  0.00     0.037 C 
BRANCH  71  72
ATOM     72  C   UNL     1       7.947   6.579   8.909  1.00  0.00     0.026 C 
BRANCH  72  73
ATOM     73  C   UNL     1       9.381   6.150   8.608  1.00  0.00     0.146 C 
BRANCH  73  74
ATOM     74  N   UNL     1       9.456   5.808   7.191  1.00  0.00    -0.254 NA
ATOM     75  C   UNL     1       9.738   4.596   6.881  1.00  0.00     0.185 C 
ATOM     76  N   UNL     1       9.813   4.250   5.586  1.00  0.00    -0.370 N 
ATOM     77  N   UNL     1       9.985   3.552   7.692  1.00  0.00    -0.370 N 
ATOM     78  H   UNL     1       9.648   4.980   4.907  1.00  0.00     0.159 HD
ATOM     79  H   UNL     1      10.168   3.366   5.268  1.00  0.00     0.159 HD
ATOM     80  H   UNL     1       9.959   3.663   8.694  1.00  0.00     0.159 HD
ATOM     81  H   UNL     1      10.082   2.616   7.333  1.00  0.00     0.159 HD
ENDBRANCH  73  74
ENDBRANCH  72  73
ENDBRANCH  71  72
ENDBRANCH  45  71
ENDBRANCH   3  45
TORSDOF 20
ENDMDL
MODEL 34
REMARK VINA RESULT:    -5.011      8.993     14.876
REMARK INTER + INTRA:         -20.507
REMARK INTER:                 -14.767
REMARK INTRA:                  -5.739
REMARK UNBOUND:                -6.121
REMARK SMILES CCCCCC(=O)N[C@H](CC(=O)O)C(=O)N[C@H]1C(=O)N[C@H](CCCN=C(N)N)C(=O)N[C@@H]2CC[C@H](O)N(C2=O)[C@@H](CC(C)C)C(=O)N(C)[C@@H](Cc2ccccc2)C(=O)N[C@H](C(C)C)C(=O)O[C@@H]1C
REMARK SMILES IDX 30 1 31 2 29 3 32 5 35 6 37 7 34 8 38 9 33 10 39 11 36 12
REMARK SMILES IDX 40 14 41 15 42 16 43 17 44 18 45 19 46 20 47 21 48 22 49 23
REMARK SMILES IDX 50 24 51 25 52 26 56 27 53 28 55 29 54 30 57 31 58 32 59 33
REMARK SMILES IDX 60 35 61 36 62 37 63 38 64 39 65 40 66 41 67 42 68 43 21 45
REMARK SMILES IDX 20 46 18 47 19 48 17 50 16 52 14 53 15 54 9 56 8 57 6 58
REMARK SMILES IDX 7 59 5 61 4 62 3 63 2 64 1 65 10 66 11 67 12 68 13 69 22 71
REMARK SMILES IDX 23 72 24 73 25 74 26 75 27 76 28 77
REMARK H PARENT 31 4 36 13 59 34 20 49 16 55 8 60 13 70 27 78 27 79 28 80
REMARK H PARENT 28 81
REMARK Flexibility Score:  259.900
ROOT
ATOM      1  O   UNL     1       1.228   4.662   0.160  1.00  0.00    -0.273 OA
ATOM      2  N   UNL     1      -0.378   6.199   0.699  1.00  0.00    -0.343 N 
ATOM      3  C   UNL     1       0.091   5.108  -0.000  1.00  0.00     0.243 C 
ATOM      4  H   UNL     1      -1.324   6.529   0.551  1.00  0.00     0.164 HD
ENDROOT
BRANCH   2   5
ATOM      5  C   UNL     1       0.506   6.951   1.583  1.00  0.00     0.171 C 
ATOM      6  C   UNL     1       3.263   6.567   2.392  1.00  0.00     0.214 C 
ATOM      7  N   UNL     1       2.203   5.986   3.183  1.00  0.00    -0.303 N 
ATOM      8  C   UNL     1       2.853   7.849   1.685  1.00  0.00     0.057 C 
ATOM      9  C   UNL     1       0.869   6.087   2.825  1.00  0.00     0.247 C 
ATOM     10  C   UNL     1       1.655   7.585   0.799  1.00  0.00     0.040 C 
ATOM     11  O   UNL     1      -0.026   5.513   3.459  1.00  0.00    -0.272 OA
BRANCH   6  12
ATOM     12  O   UNL     1       3.682   5.601   1.457  1.00  0.00    -0.373 OA
ATOM     13  H   UNL     1       4.513   5.933   1.053  1.00  0.00     0.213 HD
ENDBRANCH   6  12
BRANCH   7  14
ATOM     14  C   UNL     1       2.607   5.140   4.326  1.00  0.00     0.177 C 
BRANCH  14  15
ATOM     15  C   UNL     1       2.142   5.641   5.708  1.00  0.00     0.038 C 
BRANCH  15  16
ATOM     16  C   UNL     1       2.714   6.961   6.271  1.00  0.00    -0.015 C 
ATOM     17  C   UNL     1       2.055   8.195   5.648  1.00  0.00     0.007 C 
ATOM     18  C   UNL     1       4.221   7.032   5.998  1.00  0.00     0.007 C 
ENDBRANCH  15  16
ENDBRANCH  14  15
BRANCH  14  19
ATOM     19  C   UNL     1       2.693   3.638   3.888  1.00  0.00     0.245 C 
ATOM     20  O   UNL     1       2.186   3.345   2.792  1.00  0.00    -0.272 OA
BRANCH  19  21
ATOM     21  N   UNL     1       3.192   2.628   4.691  1.00  0.00    -0.332 N 
ATOM     22  C   UNL     1       4.598   2.379   4.957  1.00  0.00     0.147 C 
BRANCH  21  23
ATOM     23  C   UNL     1       2.217   1.704   5.334  1.00  0.00     0.178 C 
BRANCH  23  24
ATOM     24  C   UNL     1       2.601   1.247   6.756  1.00  0.00     0.070 C 
BRANCH  24  25
ATOM     25  C   UNL     1       2.509  -0.231   7.053  1.00  0.00    -0.045 A 
ATOM     26  C   UNL     1       3.553  -1.099   6.709  1.00  0.00     0.004 A 
ATOM     27  C   UNL     1       1.367  -0.758   7.675  1.00  0.00     0.004 A 
ATOM     28  C   UNL     1       3.453  -2.467   6.970  1.00  0.00     0.000 A 
ATOM     29  C   UNL     1       1.269  -2.125   7.938  1.00  0.00     0.000 A 
ATOM     30  C   UNL     1       2.310  -2.979   7.582  1.00  0.00     0.000 A 
ENDBRANCH  24  25
ENDBRANCH  23  24
BRANCH  23  31
ATOM     31  C   UNL     1       0.749   2.168   5.174  1.00  0.00     0.243 C 
ATOM     32  O   UNL     1       0.180   2.927   5.954  1.00  0.00    -0.273 OA
ATOM     33  N   UNL     1       0.067   1.506   4.168  1.00  0.00    -0.341 N 
ATOM     34  H   UNL     1       0.594   0.881   3.553  1.00  0.00     0.164 HD
BRANCH  33  35
ATOM     35  C   UNL     1      -1.364   1.697   3.914  1.00  0.00     0.194 C 
BRANCH  35  36
ATOM     36  C   UNL     1      -2.255   0.509   4.375  1.00  0.00     0.017 C 
ATOM     37  C   UNL     1      -3.202   0.929   5.512  1.00  0.00     0.010 C 
ATOM     38  C   UNL     1      -1.447  -0.696   4.871  1.00  0.00     0.010 C 
ENDBRANCH  35  36
BRANCH  35  39
ATOM     39  C   UNL     1      -1.660   2.109   2.444  1.00  0.00     0.329 C 
ATOM     40  O   UNL     1      -2.438   3.000   2.125  1.00  0.00    -0.250 OA
BRANCH  39  41
ATOM     41  O   UNL     1      -0.890   1.423   1.547  1.00  0.00    -0.458 OA
BRANCH  41  42
ATOM     42  C   UNL     1      -1.560   0.392   0.783  1.00  0.00     0.205 CG0
ATOM     43  C   UNL     1      -0.945  -0.946   1.188  1.00  0.00     0.056 C 
ATOM     44  G   UNL     1      -1.377   0.695  -0.718  1.00  0.00     0.000 G0
ENDBRANCH  41  42
ENDBRANCH  39  41
ENDBRANCH  35  39
ENDBRANCH  33  35
ENDBRANCH  23  31
ENDBRANCH  21  23
ENDBRANCH  19  21
ENDBRANCH  14  19
ENDBRANCH   7  14
ENDBRANCH   2   5
BRANCH   3  45
ATOM     45  C   UNL     1      -0.908   4.474  -0.977  1.00  0.00     0.171 C 
BRANCH  45  46
ATOM     46  N   UNL     1      -0.715   3.035  -0.860  1.00  0.00    -0.342 N 
ATOM     47  C   UNL     1      -1.741   2.139  -1.025  1.00  0.00     0.247 C 
ATOM     48  O   UNL     1      -2.878   2.478  -1.356  1.00  0.00    -0.273 OA
ATOM     49  H   UNL     1       0.224   2.707  -0.642  1.00  0.00     0.164 HD
BRANCH  47  50
ATOM     50  C   UNL     1      -1.378   0.674  -0.741  1.00  0.00     0.212 CG0
ATOM     51  G   UNL     1      -1.571   0.430   0.769  1.00  0.00     0.000 G0
BRANCH  50  52
ATOM     52  N   UNL     1      -2.277  -0.119  -1.574  1.00  0.00    -0.339 N 
ATOM     53  C   UNL     1      -1.895  -0.695  -2.762  1.00  0.00     0.243 C 
ATOM     54  O   UNL     1      -0.776  -0.540  -3.243  1.00  0.00    -0.273 OA
ATOM     55  H   UNL     1      -3.250  -0.191  -1.284  1.00  0.00     0.164 HD
BRANCH  53  56
ATOM     56  C   UNL     1      -3.039  -1.412  -3.507  1.00  0.00     0.182 C 
BRANCH  56  57
ATOM     57  N   UNL     1      -3.146  -2.812  -3.085  1.00  0.00    -0.344 N 
ATOM     58  C   UNL     1      -4.056  -3.230  -2.146  1.00  0.00     0.220 C 
ATOM     59  O   UNL     1      -4.790  -2.455  -1.543  1.00  0.00    -0.275 OA
ATOM     60  H   UNL     1      -2.630  -3.498  -3.630  1.00  0.00     0.164 HD
BRANCH  58  61
ATOM     61  C   UNL     1      -4.030  -4.729  -1.908  1.00  0.00     0.100 C 
BRANCH  61  62
ATOM     62  C   UNL     1      -5.368  -5.419  -2.173  1.00  0.00     0.010 C 
BRANCH  62  63
ATOM     63  C   UNL     1      -5.447  -6.136  -3.526  1.00  0.00     0.000 C 
BRANCH  63  64
ATOM     64  C   UNL     1      -4.192  -5.994  -4.386  1.00  0.00    -0.003 C 
ATOM     65  C   UNL     1      -4.080  -7.126  -5.397  1.00  0.00     0.004 C 
ENDBRANCH  63  64
ENDBRANCH  62  63
ENDBRANCH  61  62
ENDBRANCH  58  61
ENDBRANCH  56  57
BRANCH  56  66
ATOM     66  C   UNL     1      -2.892  -1.276  -5.022  1.00  0.00     0.157 C 
BRANCH  66  67
ATOM     67  C   UNL     1      -4.186  -1.572  -5.723  1.00  0.00     0.305 C 
ATOM     68  O   UNL     1      -5.003  -2.429  -5.421  1.00  0.00    -0.252 OA
BRANCH  67  69
ATOM     69  O   UNL     1      -4.417  -0.732  -6.749  1.00  0.00    -0.481 OA
ATOM     70  H   UNL     1      -3.757  -0.015  -6.639  1.00  0.00     0.296 HD
ENDBRANCH  67  69
ENDBRANCH  66  67
ENDBRANCH  56  66
ENDBRANCH  53  56
ENDBRANCH  50  52
ENDBRANCH  47  50
ENDBRANCH  45  46
BRANCH  45  71
ATOM     71  C   UNL     1      -0.644   4.965  -2.405  1.00  0.00     0.037 C 
BRANCH  71  72
ATOM     72  C   UNL     1      -1.937   5.125  -3.208  1.00  0.00     0.026 C 
BRANCH  72  73
ATOM     73  C   UNL     1      -1.753   4.685  -4.659  1.00  0.00     0.146 C 
BRANCH  73  74
ATOM     74  N   UNL     1      -0.931   3.479  -4.660  1.00  0.00    -0.254 NA
ATOM     75  C   UNL     1      -1.356   2.465  -5.319  1.00  0.00     0.185 C 
ATOM     76  N   UNL     1      -0.621   1.342  -5.340  1.00  0.00    -0.370 N 
ATOM     77  N   UNL     1      -2.487   2.336  -6.036  1.00  0.00    -0.370 N 
ATOM     78  H   UNL     1       0.244   1.351  -4.819  1.00  0.00     0.159 HD
ATOM     79  H   UNL     1      -0.955   0.469  -5.709  1.00  0.00     0.159 HD
ATOM     80  H   UNL     1      -3.136   3.104  -6.113  1.00  0.00     0.159 HD
ATOM     81  H   UNL     1      -2.660   1.527  -6.608  1.00  0.00     0.159 HD
ENDBRANCH  73  74
ENDBRANCH  72  73
ENDBRANCH  71  72
ENDBRANCH  45  71
ENDBRANCH   3  45
TORSDOF 20
ENDMDL
MODEL 35
REMARK VINA RESULT:    -4.984     10.578     15.020
REMARK INTER + INTRA:         -20.429
REMARK INTER:                 -15.784
REMARK INTRA:                  -4.646
REMARK UNBOUND:                -6.121
REMARK SMILES CCCCCC(=O)N[C@H](CC(=O)O)C(=O)N[C@H]1C(=O)N[C@H](CCCN=C(N)N)C(=O)N[C@@H]2CC[C@H](O)N(C2=O)[C@@H](CC(C)C)C(=O)N(C)[C@@H](Cc2ccccc2)C(=O)N[C@H](C(C)C)C(=O)O[C@@H]1C
REMARK SMILES IDX 30 1 31 2 29 3 32 5 35 6 37 7 34 8 38 9 33 10 39 11 36 12
REMARK SMILES IDX 40 14 41 15 42 16 43 17 44 18 45 19 46 20 47 21 48 22 49 23
REMARK SMILES IDX 50 24 51 25 52 26 56 27 53 28 55 29 54 30 57 31 58 32 59 33
REMARK SMILES IDX 60 35 61 36 62 37 63 38 64 39 65 40 66 41 67 42 68 43 21 45
REMARK SMILES IDX 20 46 18 47 19 48 17 50 16 52 14 53 15 54 9 56 8 57 6 58
REMARK SMILES IDX 7 59 5 61 4 62 3 63 2 64 1 65 10 66 11 67 12 68 13 69 22 71
REMARK SMILES IDX 23 72 24 73 25 74 26 75 27 76 28 77
REMARK H PARENT 31 4 36 13 59 34 20 49 16 55 8 60 13 70 27 78 27 79 28 80
REMARK H PARENT 28 81
REMARK Flexibility Score:  259.900
ROOT
ATOM      1  O   UNL     1      -1.946   3.672  -0.243  1.00  0.00    -0.273 OA
ATOM      2  N   UNL     1      -0.626   1.998   0.585  1.00  0.00    -0.343 N 
ATOM      3  C   UNL     1      -1.846   2.568   0.293  1.00  0.00     0.243 C 
ATOM      4  H   UNL     1      -0.583   1.081   1.013  1.00  0.00     0.164 HD
ENDROOT
BRANCH   2   5
ATOM      5  C   UNL     1       0.611   2.743   0.376  1.00  0.00     0.171 C 
ATOM      6  C   UNL     1       3.317   2.369   1.347  1.00  0.00     0.214 C 
ATOM      7  N   UNL     1       2.400   3.194   2.098  1.00  0.00    -0.303 N 
ATOM      8  C   UNL     1       3.042   2.373  -0.149  1.00  0.00     0.057 C 
ATOM      9  C   UNL     1       1.080   3.374   1.718  1.00  0.00     0.247 C 
ATOM     10  C   UNL     1       1.624   1.913  -0.410  1.00  0.00     0.040 C 
ATOM     11  O   UNL     1       0.278   4.011   2.413  1.00  0.00    -0.272 OA
BRANCH   6  12
ATOM     12  O   UNL     1       3.236   1.059   1.859  1.00  0.00    -0.373 OA
ATOM     13  H   UNL     1       4.151   0.777   2.072  1.00  0.00     0.213 HD
ENDBRANCH   6  12
BRANCH   7  14
ATOM     14  C   UNL     1       2.885   3.733   3.386  1.00  0.00     0.177 C 
BRANCH  14  15
ATOM     15  C   UNL     1       2.880   2.734   4.559  1.00  0.00     0.038 C 
BRANCH  15  16
ATOM     16  C   UNL     1       2.246   3.145   5.907  1.00  0.00    -0.015 C 
ATOM     17  C   UNL     1       1.358   4.386   5.780  1.00  0.00     0.007 C 
ATOM     18  C   UNL     1       3.350   3.446   6.929  1.00  0.00     0.007 C 
ENDBRANCH  15  16
ENDBRANCH  14  15
BRANCH  14  19
ATOM     19  C   UNL     1       3.972   4.836   3.140  1.00  0.00     0.245 C 
ATOM     20  O   UNL     1       3.818   5.559   2.141  1.00  0.00    -0.272 OA
BRANCH  19  21
ATOM     21  N   UNL     1       5.123   4.967   3.896  1.00  0.00    -0.332 N 
ATOM     22  C   UNL     1       6.134   3.941   4.076  1.00  0.00     0.147 C 
BRANCH  21  23
ATOM     23  C   UNL     1       5.351   6.261   4.598  1.00  0.00     0.178 C 
BRANCH  23  24
ATOM     24  C   UNL     1       4.229   6.672   5.574  1.00  0.00     0.070 C 
BRANCH  24  25
ATOM     25  C   UNL     1       3.303   7.780   5.130  1.00  0.00    -0.045 A 
ATOM     26  C   UNL     1       3.572   8.519   3.971  1.00  0.00     0.004 A 
ATOM     27  C   UNL     1       2.158   8.089   5.880  1.00  0.00     0.004 A 
ATOM     28  C   UNL     1       2.720   9.554   3.577  1.00  0.00     0.000 A 
ATOM     29  C   UNL     1       1.307   9.122   5.484  1.00  0.00     0.000 A 
ATOM     30  C   UNL     1       1.591   9.856   4.334  1.00  0.00     0.000 A 
ENDBRANCH  24  25
ENDBRANCH  23  24
BRANCH  23  31
ATOM     31  C   UNL     1       6.785   6.398   5.160  1.00  0.00     0.243 C 
ATOM     32  O   UNL     1       7.785   6.549   4.463  1.00  0.00    -0.273 OA
ATOM     33  N   UNL     1       6.873   6.149   6.520  1.00  0.00    -0.341 N 
ATOM     34  H   UNL     1       6.005   6.025   7.047  1.00  0.00     0.164 HD
BRANCH  33  35
ATOM     35  C   UNL     1       8.147   6.106   7.243  1.00  0.00     0.194 C 
BRANCH  35  36
ATOM     36  C   UNL     1       8.698   4.670   7.474  1.00  0.00     0.017 C 
ATOM     37  C   UNL     1       9.770   4.309   6.432  1.00  0.00     0.010 C 
ATOM     38  C   UNL     1       7.612   3.589   7.410  1.00  0.00     0.010 C 
ENDBRANCH  35  36
BRANCH  35  39
ATOM     39  C   UNL     1       8.115   6.934   8.559  1.00  0.00     0.329 C 
ATOM     40  O   UNL     1       7.087   7.321   9.101  1.00  0.00    -0.250 OA
BRANCH  39  41
ATOM     41  O   UNL     1       9.362   7.109   9.092  1.00  0.00    -0.458 OA
BRANCH  41  42
ATOM     42  C   UNL     1       9.463   7.009  10.533  1.00  0.00     0.205 CG0
ATOM     43  C   UNL     1       9.884   5.578  10.860  1.00  0.00     0.056 C 
ATOM     44  G   UNL     1       8.098   7.377  11.148  1.00  0.00     0.000 G0
ENDBRANCH  41  42
ENDBRANCH  39  41
ENDBRANCH  35  39
ENDBRANCH  33  35
ENDBRANCH  23  31
ENDBRANCH  21  23
ENDBRANCH  19  21
ENDBRANCH  14  19
ENDBRANCH   7  14
ENDBRANCH   2   5
BRANCH   3  45
ATOM     45  C   UNL     1      -3.072   1.722   0.662  1.00  0.00     0.171 C 
BRANCH  45  46
ATOM     46  N   UNL     1      -3.906   1.695  -0.532  1.00  0.00    -0.342 N 
ATOM     47  C   UNL     1      -4.261   0.526  -1.157  1.00  0.00     0.247 C 
ATOM     48  O   UNL     1      -3.963  -0.584  -0.716  1.00  0.00    -0.273 OA
ATOM     49  H   UNL     1      -4.222   2.591  -0.900  1.00  0.00     0.164 HD
BRANCH  47  50
ATOM     50  C   UNL     1      -5.037   0.700  -2.470  1.00  0.00     0.212 CG0
ATOM     51  G   UNL     1      -5.582   2.142  -2.504  1.00  0.00     0.000 G0
BRANCH  50  52
ATOM     52  N   UNL     1      -4.074   0.422  -3.532  1.00  0.00    -0.339 N 
ATOM     53  C   UNL     1      -3.133   1.329  -3.956  1.00  0.00     0.243 C 
ATOM     54  O   UNL     1      -3.065   2.470  -3.506  1.00  0.00    -0.273 OA
ATOM     55  H   UNL     1      -4.152  -0.468  -4.020  1.00  0.00     0.164 HD
BRANCH  53  56
ATOM     56  C   UNL     1      -2.284   0.843  -5.147  1.00  0.00     0.182 C 
BRANCH  56  57
ATOM     57  N   UNL     1      -2.165  -0.619  -5.147  1.00  0.00    -0.344 N 
ATOM     58  C   UNL     1      -3.042  -1.429  -5.826  1.00  0.00     0.220 C 
ATOM     59  O   UNL     1      -4.025  -0.994  -6.417  1.00  0.00    -0.275 OA
ATOM     60  H   UNL     1      -1.312  -1.011  -4.757  1.00  0.00     0.164 HD
BRANCH  58  61
ATOM     61  C   UNL     1      -2.693  -2.903  -5.735  1.00  0.00     0.100 C 
BRANCH  61  62
ATOM     62  C   UNL     1      -3.595  -3.692  -4.786  1.00  0.00     0.010 C 
BRANCH  62  63
ATOM     63  C   UNL     1      -4.663  -4.537  -5.492  1.00  0.00     0.000 C 
BRANCH  63  64
ATOM     64  C   UNL     1      -5.774  -5.040  -4.573  1.00  0.00    -0.003 C 
ATOM     65  C   UNL     1      -5.206  -5.686  -3.318  1.00  0.00     0.004 C 
ENDBRANCH  63  64
ENDBRANCH  62  63
ENDBRANCH  61  62
ENDBRANCH  58  61
ENDBRANCH  56  57
BRANCH  56  66
ATOM     66  C   UNL     1      -0.921   1.533  -5.183  1.00  0.00     0.157 C 
BRANCH  66  67
ATOM     67  C   UNL     1      -0.189   1.225  -6.457  1.00  0.00     0.305 C 
ATOM     68  O   UNL     1      -0.269   0.202  -7.120  1.00  0.00    -0.252 OA
BRANCH  67  69
ATOM     69  O   UNL     1       0.578   2.253  -6.867  1.00  0.00    -0.481 OA
ATOM     70  H   UNL     1      -0.026   3.025  -6.883  1.00  0.00     0.296 HD
ENDBRANCH  67  69
ENDBRANCH  66  67
ENDBRANCH  56  66
ENDBRANCH  53  56
ENDBRANCH  50  52
ENDBRANCH  47  50
ENDBRANCH  45  46
BRANCH  45  71
ATOM     71  C   UNL     1      -3.810   2.343   1.853  1.00  0.00     0.037 C 
BRANCH  71  72
ATOM     72  C   UNL     1      -5.029   1.515   2.270  1.00  0.00     0.026 C 
BRANCH  72  73
ATOM     73  C   UNL     1      -5.929   2.289   3.231  1.00  0.00     0.146 C 
BRANCH  73  74
ATOM     74  N   UNL     1      -6.936   1.364   3.743  1.00  0.00    -0.254 NA
ATOM     75  C   UNL     1      -8.134   1.478   3.302  1.00  0.00     0.185 C 
ATOM     76  N   UNL     1      -9.082   0.640   3.753  1.00  0.00    -0.370 N 
ATOM     77  N   UNL     1      -8.625   2.352   2.405  1.00  0.00    -0.370 N 
ATOM     78  H   UNL     1      -8.798  -0.046   4.438  1.00  0.00     0.159 HD
ATOM     79  H   UNL     1     -10.061   0.760   3.565  1.00  0.00     0.159 HD
ATOM     80  H   UNL     1      -8.024   3.040   1.977  1.00  0.00     0.159 HD
ATOM     81  H   UNL     1      -9.562   2.271   2.048  1.00  0.00     0.159 HD
ENDBRANCH  73  74
ENDBRANCH  72  73
ENDBRANCH  71  72
ENDBRANCH  45  71
ENDBRANCH   3  45
TORSDOF 20
ENDMDL
MODEL 36
REMARK VINA RESULT:    -4.980     11.185     16.471
REMARK INTER + INTRA:         -20.417
REMARK INTER:                 -14.001
REMARK INTRA:                  -6.415
REMARK UNBOUND:                -6.121
REMARK SMILES CCCCCC(=O)N[C@H](CC(=O)O)C(=O)N[C@H]1C(=O)N[C@H](CCCN=C(N)N)C(=O)N[C@@H]2CC[C@H](O)N(C2=O)[C@@H](CC(C)C)C(=O)N(C)[C@@H](Cc2ccccc2)C(=O)N[C@H](C(C)C)C(=O)O[C@@H]1C
REMARK SMILES IDX 30 1 31 2 29 3 32 5 35 6 37 7 34 8 38 9 33 10 39 11 36 12
REMARK SMILES IDX 40 14 41 15 42 16 43 17 44 18 45 19 46 20 47 21 48 22 49 23
REMARK SMILES IDX 50 24 51 25 52 26 56 27 53 28 55 29 54 30 57 31 58 32 59 33
REMARK SMILES IDX 60 35 61 36 62 37 63 38 64 39 65 40 66 41 67 42 68 43 21 45
REMARK SMILES IDX 20 46 18 47 19 48 17 50 16 52 14 53 15 54 9 56 8 57 6 58
REMARK SMILES IDX 7 59 5 61 4 62 3 63 2 64 1 65 10 66 11 67 12 68 13 69 22 71
REMARK SMILES IDX 23 72 24 73 25 74 26 75 27 76 28 77
REMARK H PARENT 31 4 36 13 59 34 20 49 16 55 8 60 13 70 27 78 27 79 28 80
REMARK H PARENT 28 81
REMARK Flexibility Score:  259.900
ROOT
ATOM      1  O   UNL     1       3.777   5.029   2.947  1.00  0.00    -0.273 OA
ATOM      2  N   UNL     1       3.039   3.454   4.432  1.00  0.00    -0.343 N 
ATOM      3  C   UNL     1       3.456   4.724   4.096  1.00  0.00     0.243 C 
ATOM      4  H   UNL     1       2.768   3.244   5.385  1.00  0.00     0.164 HD
ENDROOT
BRANCH   2   5
ATOM      5  C   UNL     1       3.075   2.376   3.450  1.00  0.00     0.171 C 
ATOM      6  C   UNL     1       3.364   2.357   0.566  1.00  0.00     0.214 C 
ATOM      7  N   UNL     1       2.042   2.410   1.147  1.00  0.00    -0.303 N 
ATOM      8  C   UNL     1       4.373   1.622   1.433  1.00  0.00     0.057 C 
ATOM      9  C   UNL     1       1.835   2.473   2.515  1.00  0.00     0.247 C 
ATOM     10  C   UNL     1       4.451   2.277   2.795  1.00  0.00     0.040 C 
ATOM     11  O   UNL     1       0.705   2.606   3.002  1.00  0.00    -0.272 OA
BRANCH   6  12
ATOM     12  O   UNL     1       3.785   3.680   0.333  1.00  0.00    -0.373 OA
ATOM     13  H   UNL     1       3.111   4.100  -0.244  1.00  0.00     0.213 HD
ENDBRANCH   6  12
BRANCH   7  14
ATOM     14  C   UNL     1       0.904   2.544   0.213  1.00  0.00     0.177 C 
BRANCH  14  15
ATOM     15  C   UNL     1       0.992   3.735  -0.761  1.00  0.00     0.038 C 
BRANCH  15  16
ATOM     16  C   UNL     1      -0.281   4.549  -1.085  1.00  0.00    -0.015 C 
ATOM     17  C   UNL     1      -1.044   3.985  -2.288  1.00  0.00     0.007 C 
ATOM     18  C   UNL     1       0.097   6.003  -1.394  1.00  0.00     0.007 C 
ENDBRANCH  15  16
ENDBRANCH  14  15
BRANCH  14  19
ATOM     19  C   UNL     1       0.313   1.134  -0.130  1.00  0.00     0.245 C 
ATOM     20  O   UNL     1       0.869   0.501  -1.044  1.00  0.00    -0.272 OA
BRANCH  19  21
ATOM     21  N   UNL     1      -0.837   0.619   0.442  1.00  0.00    -0.332 N 
ATOM     22  C   UNL     1      -0.906  -0.573   1.268  1.00  0.00     0.147 C 
BRANCH  21  23
ATOM     23  C   UNL     1      -2.119   1.332   0.189  1.00  0.00     0.178 C 
BRANCH  23  24
ATOM     24  C   UNL     1      -3.211   0.477  -0.486  1.00  0.00     0.070 C 
BRANCH  24  25
ATOM     25  C   UNL     1      -2.850  -0.196  -1.790  1.00  0.00    -0.045 A 
ATOM     26  C   UNL     1      -2.258   0.529  -2.832  1.00  0.00     0.004 A 
ATOM     27  C   UNL     1      -3.108  -1.563  -1.976  1.00  0.00     0.004 A 
ATOM     28  C   UNL     1      -1.943  -0.097  -4.041  1.00  0.00     0.000 A 
ATOM     29  C   UNL     1      -2.791  -2.187  -3.184  1.00  0.00     0.000 A 
ATOM     30  C   UNL     1      -2.212  -1.452  -4.216  1.00  0.00     0.000 A 
ENDBRANCH  24  25
ENDBRANCH  23  24
BRANCH  23  31
ATOM     31  C   UNL     1      -2.599   2.161   1.403  1.00  0.00     0.243 C 
ATOM     32  O   UNL     1      -3.381   1.744   2.254  1.00  0.00    -0.273 OA
ATOM     33  N   UNL     1      -2.215   3.490   1.353  1.00  0.00    -0.341 N 
ATOM     34  H   UNL     1      -1.566   3.780   0.617  1.00  0.00     0.164 HD
BRANCH  33  35
ATOM     35  C   UNL     1      -2.654   4.487   2.334  1.00  0.00     0.194 C 
BRANCH  35  36
ATOM     36  C   UNL     1      -3.873   5.336   1.874  1.00  0.00     0.017 C 
ATOM     37  C   UNL     1      -5.194   4.751   2.404  1.00  0.00     0.010 C 
ATOM     38  C   UNL     1      -3.996   5.440   0.349  1.00  0.00     0.010 C 
ENDBRANCH  35  36
BRANCH  35  39
ATOM     39  C   UNL     1      -1.487   5.377   2.846  1.00  0.00     0.329 C 
ATOM     40  O   UNL     1      -0.449   5.571   2.224  1.00  0.00    -0.250 OA
BRANCH  39  41
ATOM     41  O   UNL     1      -1.783   5.991   4.031  1.00  0.00    -0.458 OA
BRANCH  41  42
ATOM     42  C   UNL     1      -1.234   5.380   5.224  1.00  0.00     0.205 CG0
ATOM     43  C   UNL     1      -2.408   5.037   6.139  1.00  0.00     0.056 C 
ATOM     44  G   UNL     1      -0.250   6.372   5.875  1.00  0.00     0.000 G0
ENDBRANCH  41  42
ENDBRANCH  39  41
ENDBRANCH  35  39
ENDBRANCH  33  35
ENDBRANCH  23  31
ENDBRANCH  21  23
ENDBRANCH  19  21
ENDBRANCH  14  19
ENDBRANCH   7  14
ENDBRANCH   2   5
BRANCH   3  45
ATOM     45  C   UNL     1       3.473   5.737   5.249  1.00  0.00     0.171 C 
BRANCH  45  46
ATOM     46  N   UNL     1       2.129   6.299   5.298  1.00  0.00    -0.342 N 
ATOM     47  C   UNL     1       1.123   5.735   6.041  1.00  0.00     0.247 C 
ATOM     48  O   UNL     1       1.298   4.762   6.775  1.00  0.00    -0.273 OA
ATOM     49  H   UNL     1       1.955   7.139   4.750  1.00  0.00     0.164 HD
BRANCH  47  50
ATOM     50  C   UNL     1      -0.255   6.392   5.873  1.00  0.00     0.212 CG0
ATOM     51  G   UNL     1      -1.192   5.352   5.228  1.00  0.00     0.000 G0
BRANCH  50  52
ATOM     52  N   UNL     1      -0.667   6.783   7.218  1.00  0.00    -0.339 N 
ATOM     53  C   UNL     1      -0.102   7.829   7.907  1.00  0.00     0.243 C 
ATOM     54  O   UNL     1       0.836   8.484   7.463  1.00  0.00    -0.273 OA
ATOM     55  H   UNL     1      -1.365   6.208   7.686  1.00  0.00     0.164 HD
BRANCH  53  56
ATOM     56  C   UNL     1      -0.640   7.998   9.343  1.00  0.00     0.182 C 
BRANCH  56  57
ATOM     57  N   UNL     1      -1.858   8.814   9.355  1.00  0.00    -0.344 N 
ATOM     58  C   UNL     1      -3.110   8.265   9.496  1.00  0.00     0.220 C 
ATOM     59  O   UNL     1      -3.302   7.055   9.547  1.00  0.00    -0.275 OA
ATOM     60  H   UNL     1      -1.737   9.821   9.418  1.00  0.00     0.164 HD
BRANCH  58  61
ATOM     61  C   UNL     1      -4.219   9.300   9.541  1.00  0.00     0.100 C 
BRANCH  61  62
ATOM     62  C   UNL     1      -3.975  10.504   8.630  1.00  0.00     0.010 C 
BRANCH  62  63
ATOM     63  C   UNL     1      -4.773  10.471   7.320  1.00  0.00     0.000 C 
BRANCH  63  64
ATOM     64  C   UNL     1      -4.529   9.226   6.469  1.00  0.00    -0.003 C 
ATOM     65  C   UNL     1      -3.743   9.560   5.209  1.00  0.00     0.004 C 
ENDBRANCH  63  64
ENDBRANCH  62  63
ENDBRANCH  61  62
ENDBRANCH  58  61
ENDBRANCH  56  57
BRANCH  56  66
ATOM     66  C   UNL     1       0.432   8.549  10.281  1.00  0.00     0.157 C 
BRANCH  66  67
ATOM     67  C   UNL     1      -0.059   8.597  11.700  1.00  0.00     0.305 C 
ATOM     68  O   UNL     1      -1.099   9.098  12.098  1.00  0.00    -0.252 OA
BRANCH  67  69
ATOM     69  O   UNL     1       0.768   7.959  12.550  1.00  0.00    -0.481 OA
ATOM     70  H   UNL     1       0.322   8.015  13.421  1.00  0.00     0.296 HD
ENDBRANCH  67  69
ENDBRANCH  66  67
ENDBRANCH  56  66
ENDBRANCH  53  56
ENDBRANCH  50  52
ENDBRANCH  47  50
ENDBRANCH  45  46
BRANCH  45  71
ATOM     71  C   UNL     1       4.529   6.818   4.994  1.00  0.00     0.037 C 
BRANCH  71  72
ATOM     72  C   UNL     1       3.913   8.218   4.915  1.00  0.00     0.026 C 
BRANCH  72  73
ATOM     73  C   UNL     1       3.662   8.638   3.468  1.00  0.00     0.146 C 
BRANCH  73  74
ATOM     74  N   UNL     1       2.617   9.658   3.475  1.00  0.00    -0.254 NA
ATOM     75  C   UNL     1       1.462   9.335   3.022  1.00  0.00     0.185 C 
ATOM     76  N   UNL     1       0.481  10.252   3.015  1.00  0.00    -0.370 N 
ATOM     77  N   UNL     1       1.050   8.157   2.523  1.00  0.00    -0.370 N 
ATOM     78  H   UNL     1       0.710  11.170   3.368  1.00  0.00     0.159 HD
ATOM     79  H   UNL     1      -0.398  10.118   2.547  1.00  0.00     0.159 HD
ATOM     80  H   UNL     1       1.681   7.372   2.469  1.00  0.00     0.159 HD
ATOM     81  H   UNL     1       0.082   7.986   2.303  1.00  0.00     0.159 HD
ENDBRANCH  73  74
ENDBRANCH  72  73
ENDBRANCH  71  72
ENDBRANCH  45  71
ENDBRANCH   3  45
TORSDOF 20
ENDMDL
MODEL 37
REMARK VINA RESULT:    -4.929     12.039     17.575
REMARK INTER + INTRA:         -20.271
REMARK INTER:                 -13.249
REMARK INTRA:                  -7.022
REMARK UNBOUND:                -6.121
REMARK SMILES CCCCCC(=O)N[C@H](CC(=O)O)C(=O)N[C@H]1C(=O)N[C@H](CCCN=C(N)N)C(=O)N[C@@H]2CC[C@H](O)N(C2=O)[C@@H](CC(C)C)C(=O)N(C)[C@@H](Cc2ccccc2)C(=O)N[C@H](C(C)C)C(=O)O[C@@H]1C
REMARK SMILES IDX 30 1 31 2 29 3 32 5 35 6 37 7 34 8 38 9 33 10 39 11 36 12
REMARK SMILES IDX 40 14 41 15 42 16 43 17 44 18 45 19 46 20 47 21 48 22 49 23
REMARK SMILES IDX 50 24 51 25 52 26 56 27 53 28 55 29 54 30 57 31 58 32 59 33
REMARK SMILES IDX 60 35 61 36 62 37 63 38 64 39 65 40 66 41 67 42 68 43 21 45
REMARK SMILES IDX 20 46 18 47 19 48 17 50 16 52 14 53 15 54 9 56 8 57 6 58
REMARK SMILES IDX 7 59 5 61 4 62 3 63 2 64 1 65 10 66 11 67 12 68 13 69 22 71
REMARK SMILES IDX 23 72 24 73 25 74 26 75 27 76 28 77
REMARK H PARENT 31 4 36 13 59 34 20 49 16 55 8 60 13 70 27 78 27 79 28 80
REMARK H PARENT 28 81
REMARK Flexibility Score:  259.900
ROOT
ATOM      1  O   UNL     1      -0.226   0.042   0.475  1.00  0.00    -0.273 OA
ATOM      2  N   UNL     1      -0.731   1.390   2.253  1.00  0.00    -0.343 N 
ATOM      3  C   UNL     1       0.022   1.040   1.153  1.00  0.00     0.243 C 
ATOM      4  H   UNL     1      -0.506   2.226   2.778  1.00  0.00     0.164 HD
ENDROOT
BRANCH   2   5
ATOM      5  C   UNL     1      -1.793   0.513   2.734  1.00  0.00     0.171 C 
ATOM      6  C   UNL     1      -3.483   0.584   5.089  1.00  0.00     0.214 C 
ATOM      7  N   UNL     1      -2.232  -0.136   5.134  1.00  0.00    -0.303 N 
ATOM      8  C   UNL     1      -4.111   0.614   3.705  1.00  0.00     0.057 C 
ATOM      9  C   UNL     1      -1.354  -0.168   4.062  1.00  0.00     0.247 C 
ATOM     10  C   UNL     1      -3.144   1.228   2.717  1.00  0.00     0.040 C 
ATOM     11  O   UNL     1      -0.246  -0.715   4.137  1.00  0.00    -0.272 OA
BRANCH   6  12
ATOM     12  O   UNL     1      -3.241   1.894   5.549  1.00  0.00    -0.373 OA
ATOM     13  H   UNL     1      -4.079   2.394   5.445  1.00  0.00     0.213 HD
ENDBRANCH   6  12
BRANCH   7  14
ATOM     14  C   UNL     1      -1.845  -0.728   6.432  1.00  0.00     0.177 C 
BRANCH  14  15
ATOM     15  C   UNL     1      -1.925  -2.265   6.502  1.00  0.00     0.038 C 
BRANCH  15  16
ATOM     16  C   UNL     1      -3.090  -2.933   7.267  1.00  0.00    -0.015 C 
ATOM     17  C   UNL     1      -2.696  -4.286   7.865  1.00  0.00     0.007 C 
ATOM     18  C   UNL     1      -4.274  -3.154   6.317  1.00  0.00     0.007 C 
ENDBRANCH  15  16
ENDBRANCH  14  15
BRANCH  14  19
ATOM     19  C   UNL     1      -0.754   0.156   7.129  1.00  0.00     0.245 C 
ATOM     20  O   UNL     1       0.414  -0.266   7.095  1.00  0.00    -0.272 OA
BRANCH  19  21
ATOM     21  N   UNL     1      -1.037   1.297   7.860  1.00  0.00    -0.332 N 
ATOM     22  C   UNL     1      -2.140   1.448   8.792  1.00  0.00     0.147 C 
BRANCH  21  23
ATOM     23  C   UNL     1      -0.151   2.479   7.675  1.00  0.00     0.178 C 
BRANCH  23  24
ATOM     24  C   UNL     1       1.310   2.267   8.121  1.00  0.00     0.070 C 
BRANCH  24  25
ATOM     25  C   UNL     1       2.183   3.496   8.228  1.00  0.00    -0.045 A 
ATOM     26  C   UNL     1       3.486   3.497   7.716  1.00  0.00     0.004 A 
ATOM     27  C   UNL     1       1.697   4.656   8.849  1.00  0.00     0.004 A 
ATOM     28  C   UNL     1       4.292   4.631   7.834  1.00  0.00     0.000 A 
ATOM     29  C   UNL     1       2.504   5.789   8.966  1.00  0.00     0.000 A 
ATOM     30  C   UNL     1       3.802   5.775   8.460  1.00  0.00     0.000 A 
ENDBRANCH  24  25
ENDBRANCH  23  24
BRANCH  23  31
ATOM     31  C   UNL     1      -0.319   3.149   6.290  1.00  0.00     0.243 C 
ATOM     32  O   UNL     1       0.161   2.705   5.250  1.00  0.00    -0.273 OA
ATOM     33  N   UNL     1      -0.905   4.402   6.349  1.00  0.00    -0.341 N 
ATOM     34  H   UNL     1      -1.281   4.720   7.246  1.00  0.00     0.164 HD
BRANCH  33  35
ATOM     35  C   UNL     1      -1.056   5.269   5.178  1.00  0.00     0.194 C 
BRANCH  35  36
ATOM     36  C   UNL     1      -1.350   6.756   5.522  1.00  0.00     0.017 C 
ATOM     37  C   UNL     1      -2.099   6.883   6.860  1.00  0.00     0.010 C 
ATOM     38  C   UNL     1      -2.191   7.469   4.456  1.00  0.00     0.010 C 
ENDBRANCH  35  36
BRANCH  35  39
ATOM     39  C   UNL     1      -2.067   4.703   4.141  1.00  0.00     0.329 C 
ATOM     40  O   UNL     1      -3.273   4.611   4.338  1.00  0.00    -0.250 OA
BRANCH  39  41
ATOM     41  O   UNL     1      -1.472   4.398   2.948  1.00  0.00    -0.458 OA
BRANCH  41  42
ATOM     42  C   UNL     1      -1.583   5.395   1.904  1.00  0.00     0.205 CG0
ATOM     43  C   UNL     1      -2.637   4.901   0.915  1.00  0.00     0.056 C 
ATOM     44  G   UNL     1      -0.199   5.575   1.248  1.00  0.00     0.000 G0
ENDBRANCH  41  42
ENDBRANCH  39  41
ENDBRANCH  35  39
ENDBRANCH  33  35
ENDBRANCH  23  31
ENDBRANCH  21  23
ENDBRANCH  19  21
ENDBRANCH  14  19
ENDBRANCH   7  14
ENDBRANCH   2   5
BRANCH   3  45
ATOM     45  C   UNL     1       1.178   1.993   0.818  1.00  0.00     0.171 C 
BRANCH  45  46
ATOM     46  N   UNL     1       0.566   3.301   0.625  1.00  0.00    -0.342 N 
ATOM     47  C   UNL     1       0.633   4.292   1.571  1.00  0.00     0.247 C 
ATOM     48  O   UNL     1       1.274   4.176   2.617  1.00  0.00    -0.273 OA
ATOM     49  H   UNL     1       0.073   3.460  -0.252  1.00  0.00     0.164 HD
BRANCH  47  50
ATOM     50  C   UNL     1      -0.174   5.557   1.247  1.00  0.00     0.212 CG0
ATOM     51  G   UNL     1      -1.555   5.415   1.918  1.00  0.00     0.000 G0
BRANCH  50  52
ATOM     52  N   UNL     1       0.613   6.668   1.775  1.00  0.00    -0.339 N 
ATOM     53  C   UNL     1       1.083   7.698   0.997  1.00  0.00     0.243 C 
ATOM     54  O   UNL     1       0.922   7.735  -0.220  1.00  0.00    -0.273 OA
ATOM     55  H   UNL     1       0.874   6.637   2.758  1.00  0.00     0.164 HD
BRANCH  53  56
ATOM     56  C   UNL     1       1.962   8.710   1.760  1.00  0.00     0.182 C 
BRANCH  56  57
ATOM     57  N   UNL     1       3.245   8.110   2.141  1.00  0.00    -0.344 N 
ATOM     58  C   UNL     1       4.399   8.847   2.247  1.00  0.00     0.220 C 
ATOM     59  O   UNL     1       4.455  10.038   1.960  1.00  0.00    -0.275 OA
ATOM     60  H   UNL     1       3.222   7.153   2.484  1.00  0.00     0.164 HD
BRANCH  58  61
ATOM     61  C   UNL     1       5.592   8.032   2.712  1.00  0.00     0.100 C 
BRANCH  61  62
ATOM     62  C   UNL     1       5.708   7.921   4.232  1.00  0.00     0.010 C 
BRANCH  62  63
ATOM     63  C   UNL     1       6.631   6.793   4.710  1.00  0.00     0.000 C 
BRANCH  63  64
ATOM     64  C   UNL     1       6.869   6.775   6.219  1.00  0.00    -0.003 C 
ATOM     65  C   UNL     1       6.214   7.969   6.899  1.00  0.00     0.004 C 
ENDBRANCH  63  64
ENDBRANCH  62  63
ENDBRANCH  61  62
ENDBRANCH  58  61
ENDBRANCH  56  57
BRANCH  56  66
ATOM     66  C   UNL     1       1.223   9.301   2.959  1.00  0.00     0.157 C 
BRANCH  66  67
ATOM     67  C   UNL     1       1.825   8.834   4.253  1.00  0.00     0.305 C 
ATOM     68  O   UNL     1       1.819   7.695   4.695  1.00  0.00    -0.252 OA
BRANCH  67  69
ATOM     69  O   UNL     1       2.456   9.825   4.910  1.00  0.00    -0.481 OA
ATOM     70  H   UNL     1       3.035  10.243   4.238  1.00  0.00     0.296 HD
ENDBRANCH  67  69
ENDBRANCH  66  67
ENDBRANCH  56  66
ENDBRANCH  53  56
ENDBRANCH  50  52
ENDBRANCH  47  50
ENDBRANCH  45  46
BRANCH  45  71
ATOM     71  C   UNL     1       1.912   1.520  -0.441  1.00  0.00     0.037 C 
BRANCH  71  72
ATOM     72  C   UNL     1       3.401   1.279  -0.184  1.00  0.00     0.026 C 
BRANCH  72  73
ATOM     73  C   UNL     1       3.817   1.770   1.201  1.00  0.00     0.146 C 
BRANCH  73  74
ATOM     74  N   UNL     1       5.006   2.602   1.043  1.00  0.00    -0.254 NA
ATOM     75  C   UNL     1       5.015   3.749   1.614  1.00  0.00     0.185 C 
ATOM     76  N   UNL     1       6.095   4.537   1.488  1.00  0.00    -0.370 N 
ATOM     77  N   UNL     1       4.062   4.326   2.366  1.00  0.00    -0.370 N 
ATOM     78  H   UNL     1       6.858   4.180   0.930  1.00  0.00     0.159 HD
ATOM     79  H   UNL     1       6.118   5.497   1.782  1.00  0.00     0.159 HD
ATOM     80  H   UNL     1       3.193   3.847   2.551  1.00  0.00     0.159 HD
ATOM     81  H   UNL     1       4.228   5.187   2.861  1.00  0.00     0.159 HD
ENDBRANCH  73  74
ENDBRANCH  72  73
ENDBRANCH  71  72
ENDBRANCH  45  71
ENDBRANCH   3  45
TORSDOF 20
ENDMDL
MODEL 38
REMARK VINA RESULT:    -4.918     11.756     15.975
REMARK INTER + INTRA:         -20.241
REMARK INTER:                 -14.728
REMARK INTRA:                  -5.512
REMARK UNBOUND:                -6.121
REMARK SMILES CCCCCC(=O)N[C@H](CC(=O)O)C(=O)N[C@H]1C(=O)N[C@H](CCCN=C(N)N)C(=O)N[C@@H]2CC[C@H](O)N(C2=O)[C@@H](CC(C)C)C(=O)N(C)[C@@H](Cc2ccccc2)C(=O)N[C@H](C(C)C)C(=O)O[C@@H]1C
REMARK SMILES IDX 30 1 31 2 29 3 32 5 35 6 37 7 34 8 38 9 33 10 39 11 36 12
REMARK SMILES IDX 40 14 41 15 42 16 43 17 44 18 45 19 46 20 47 21 48 22 49 23
REMARK SMILES IDX 50 24 51 25 52 26 56 27 53 28 55 29 54 30 57 31 58 32 59 33
REMARK SMILES IDX 60 35 61 36 62 37 63 38 64 39 65 40 66 41 67 42 68 43 21 45
REMARK SMILES IDX 20 46 18 47 19 48 17 50 16 52 14 53 15 54 9 56 8 57 6 58
REMARK SMILES IDX 7 59 5 61 4 62 3 63 2 64 1 65 10 66 11 67 12 68 13 69 22 71
REMARK SMILES IDX 23 72 24 73 25 74 26 75 27 76 28 77
REMARK H PARENT 31 4 36 13 59 34 20 49 16 55 8 60 13 70 27 78 27 79 28 80
REMARK H PARENT 28 81
REMARK Flexibility Score:  259.900
ROOT
ATOM      1  O   UNL     1      -3.130   7.261   5.650  1.00  0.00    -0.273 OA
ATOM      2  N   UNL     1      -1.944   6.971   3.716  1.00  0.00    -0.343 N 
ATOM      3  C   UNL     1      -3.063   6.813   4.505  1.00  0.00     0.243 C 
ATOM      4  H   UNL     1      -1.930   6.602   2.773  1.00  0.00     0.164 HD
ENDROOT
BRANCH   2   5
ATOM      5  C   UNL     1      -0.734   7.580   4.257  1.00  0.00     0.171 C 
ATOM      6  C   UNL     1       1.612   8.736   3.007  1.00  0.00     0.214 C 
ATOM      7  N   UNL     1       1.608   7.333   3.347  1.00  0.00    -0.303 N 
ATOM      8  C   UNL     1       0.752   9.582   3.932  1.00  0.00     0.057 C 
ATOM      9  C   UNL     1       0.502   6.706   3.899  1.00  0.00     0.247 C 
ATOM     10  C   UNL     1      -0.671   9.069   3.921  1.00  0.00     0.040 C 
ATOM     11  O   UNL     1       0.476   5.486   4.107  1.00  0.00    -0.272 OA
BRANCH   6  12
ATOM     12  O   UNL     1       1.169   8.858   1.675  1.00  0.00    -0.373 OA
ATOM     13  H   UNL     1       0.210   8.653   1.671  1.00  0.00     0.213 HD
ENDBRANCH   6  12
BRANCH   7  14
ATOM     14  C   UNL     1       2.790   6.542   2.945  1.00  0.00     0.177 C 
BRANCH  14  15
ATOM     15  C   UNL     1       3.757   6.179   4.089  1.00  0.00     0.038 C 
BRANCH  15  16
ATOM     16  C   UNL     1       5.179   6.782   4.104  1.00  0.00    -0.015 C 
ATOM     17  C   UNL     1       5.378   7.836   3.010  1.00  0.00     0.007 C 
ATOM     18  C   UNL     1       6.216   5.671   3.894  1.00  0.00     0.007 C 
ENDBRANCH  15  16
ENDBRANCH  14  15
BRANCH  14  19
ATOM     19  C   UNL     1       2.438   5.618   1.727  1.00  0.00     0.245 C 
ATOM     20  O   UNL     1       1.487   5.974   1.012  1.00  0.00    -0.272 OA
BRANCH  19  21
ATOM     21  N   UNL     1       3.046   4.400   1.483  1.00  0.00    -0.332 N 
ATOM     22  C   UNL     1       4.379   4.217   0.935  1.00  0.00     0.147 C 
BRANCH  21  23
ATOM     23  C   UNL     1       2.276   3.164   1.792  1.00  0.00     0.178 C 
BRANCH  23  24
ATOM     24  C   UNL     1       2.539   1.983   0.836  1.00  0.00     0.070 C 
BRANCH  24  25
ATOM     25  C   UNL     1       1.503   1.718  -0.232  1.00  0.00    -0.045 A 
ATOM     26  C   UNL     1       0.485   2.645  -0.489  1.00  0.00     0.004 A 
ATOM     27  C   UNL     1       1.545   0.532  -0.981  1.00  0.00     0.004 A 
ATOM     28  C   UNL     1      -0.479   2.386  -1.466  1.00  0.00     0.000 A 
ATOM     29  C   UNL     1       0.582   0.275  -1.958  1.00  0.00     0.000 A 
ATOM     30  C   UNL     1      -0.431   1.201  -2.198  1.00  0.00     0.000 A 
ENDBRANCH  24  25
ENDBRANCH  23  24
BRANCH  23  31
ATOM     31  C   UNL     1       2.296   2.800   3.296  1.00  0.00     0.243 C 
ATOM     32  O   UNL     1       3.308   2.815   3.993  1.00  0.00    -0.273 OA
ATOM     33  N   UNL     1       1.100   2.274   3.754  1.00  0.00    -0.341 N 
ATOM     34  H   UNL     1       0.294   2.283   3.125  1.00  0.00     0.164 HD
BRANCH  33  35
ATOM     35  C   UNL     1       0.925   1.751   5.112  1.00  0.00     0.194 C 
BRANCH  35  36
ATOM     36  C   UNL     1       0.869   0.200   5.193  1.00  0.00     0.017 C 
ATOM     37  C   UNL     1      -0.221  -0.369   4.269  1.00  0.00     0.010 C 
ATOM     38  C   UNL     1       0.590  -0.322   6.608  1.00  0.00     0.010 C 
ENDBRANCH  35  36
BRANCH  35  39
ATOM     39  C   UNL     1      -0.265   2.415   5.860  1.00  0.00     0.329 C 
ATOM     40  O   UNL     1      -0.163   2.995   6.934  1.00  0.00    -0.250 OA
BRANCH  39  41
ATOM     41  O   UNL     1      -1.427   2.356   5.141  1.00  0.00    -0.458 OA
BRANCH  41  42
ATOM     42  C   UNL     1      -2.655   2.354   5.908  1.00  0.00     0.205 CG0
ATOM     43  C   UNL     1      -2.651   1.093   6.769  1.00  0.00     0.056 C 
ATOM     44  G   UNL     1      -3.846   2.396   4.930  1.00  0.00     0.000 G0
ENDBRANCH  41  42
ENDBRANCH  39  41
ENDBRANCH  35  39
ENDBRANCH  33  35
ENDBRANCH  23  31
ENDBRANCH  21  23
ENDBRANCH  19  21
ENDBRANCH  14  19
ENDBRANCH   7  14
ENDBRANCH   2   5
BRANCH   3  45
ATOM     45  C   UNL     1      -4.228   6.060   3.849  1.00  0.00     0.171 C 
BRANCH  45  46
ATOM     46  N   UNL     1      -3.883   4.648   3.936  1.00  0.00    -0.342 N 
ATOM     47  C   UNL     1      -4.411   3.818   4.893  1.00  0.00     0.247 C 
ATOM     48  O   UNL     1      -5.266   4.187   5.699  1.00  0.00    -0.273 OA
ATOM     49  H   UNL     1      -3.220   4.287   3.251  1.00  0.00     0.164 HD
BRANCH  47  50
ATOM     50  C   UNL     1      -3.837   2.394   4.908  1.00  0.00     0.212 CG0
ATOM     51  G   UNL     1      -2.680   2.368   5.926  1.00  0.00     0.000 G0
BRANCH  50  52
ATOM     52  N   UNL     1      -4.953   1.529   5.279  1.00  0.00    -0.339 N 
ATOM     53  C   UNL     1      -5.239   0.347   4.639  1.00  0.00     0.243 C 
ATOM     54  O   UNL     1      -4.605  -0.048   3.664  1.00  0.00    -0.273 OA
ATOM     55  H   UNL     1      -5.583   1.856   6.009  1.00  0.00     0.164 HD
BRANCH  53  56
ATOM     56  C   UNL     1      -6.515  -0.351   5.150  1.00  0.00     0.182 C 
BRANCH  56  57
ATOM     57  N   UNL     1      -6.217  -1.702   5.638  1.00  0.00    -0.344 N 
ATOM     58  C   UNL     1      -6.307  -2.041   6.966  1.00  0.00     0.220 C 
ATOM     59  O   UNL     1      -6.570  -1.226   7.843  1.00  0.00    -0.275 OA
ATOM     60  H   UNL     1      -6.096  -2.428   4.937  1.00  0.00     0.164 HD
BRANCH  58  61
ATOM     61  C   UNL     1      -6.011  -3.506   7.233  1.00  0.00     0.100 C 
BRANCH  61  62
ATOM     62  C   UNL     1      -4.638  -3.958   6.736  1.00  0.00     0.010 C 
BRANCH  62  63
ATOM     63  C   UNL     1      -3.468  -3.494   7.614  1.00  0.00     0.000 C 
BRANCH  63  64
ATOM     64  C   UNL     1      -2.562  -4.624   8.099  1.00  0.00    -0.003 C 
ATOM     65  C   UNL     1      -2.525  -4.692   9.619  1.00  0.00     0.004 C 
ENDBRANCH  63  64
ENDBRANCH  62  63
ENDBRANCH  61  62
ENDBRANCH  58  61
ENDBRANCH  56  57
BRANCH  56  66
ATOM     66  C   UNL     1      -7.616  -0.350   4.092  1.00  0.00     0.157 C 
BRANCH  66  67
ATOM     67  C   UNL     1      -7.606  -1.623   3.295  1.00  0.00     0.305 C 
ATOM     68  O   UNL     1      -7.053  -1.811   2.222  1.00  0.00    -0.252 OA
BRANCH  67  69
ATOM     69  O   UNL     1      -8.256  -2.623   3.919  1.00  0.00    -0.481 OA
ATOM     70  H   UNL     1      -8.464  -3.267   3.210  1.00  0.00     0.296 HD
ENDBRANCH  67  69
ENDBRANCH  66  67
ENDBRANCH  56  66
ENDBRANCH  53  56
ENDBRANCH  50  52
ENDBRANCH  47  50
ENDBRANCH  45  46
BRANCH  45  71
ATOM     71  C   UNL     1      -4.404   6.511   2.394  1.00  0.00     0.037 C 
BRANCH  71  72
ATOM     72  C   UNL     1      -4.154   5.371   1.404  1.00  0.00     0.026 C 
BRANCH  72  73
ATOM     73  C   UNL     1      -5.306   4.369   1.401  1.00  0.00     0.146 C 
BRANCH  73  74
ATOM     74  N   UNL     1      -5.155   3.517   0.225  1.00  0.00    -0.254 NA
ATOM     75  C   UNL     1      -5.524   2.293   0.321  1.00  0.00     0.185 C 
ATOM     76  N   UNL     1      -5.398   1.485  -0.744  1.00  0.00    -0.370 N 
ATOM     77  N   UNL     1      -6.048   1.649   1.378  1.00  0.00    -0.370 N 
ATOM     78  H   UNL     1      -5.004   1.889  -1.581  1.00  0.00     0.159 HD
ATOM     79  H   UNL     1      -5.528   0.490  -0.702  1.00  0.00     0.159 HD
ATOM     80  H   UNL     1      -6.204   2.133   2.249  1.00  0.00     0.159 HD
ATOM     81  H   UNL     1      -6.409   0.712   1.300  1.00  0.00     0.159 HD
ENDBRANCH  73  74
ENDBRANCH  72  73
ENDBRANCH  71  72
ENDBRANCH  45  71
ENDBRANCH   3  45
TORSDOF 20
ENDMDL
MODEL 39
REMARK VINA RESULT:    -4.906     10.526     14.001
REMARK INTER + INTRA:         -20.206
REMARK INTER:                 -14.561
REMARK INTRA:                  -5.645
REMARK UNBOUND:                -6.121
REMARK SMILES CCCCCC(=O)N[C@H](CC(=O)O)C(=O)N[C@H]1C(=O)N[C@H](CCCN=C(N)N)C(=O)N[C@@H]2CC[C@H](O)N(C2=O)[C@@H](CC(C)C)C(=O)N(C)[C@@H](Cc2ccccc2)C(=O)N[C@H](C(C)C)C(=O)O[C@@H]1C
REMARK SMILES IDX 30 1 31 2 29 3 32 5 35 6 37 7 34 8 38 9 33 10 39 11 36 12
REMARK SMILES IDX 40 14 41 15 42 16 43 17 44 18 45 19 46 20 47 21 48 22 49 23
REMARK SMILES IDX 50 24 51 25 52 26 56 27 53 28 55 29 54 30 57 31 58 32 59 33
REMARK SMILES IDX 60 35 61 36 62 37 63 38 64 39 65 40 66 41 67 42 68 43 21 45
REMARK SMILES IDX 20 46 18 47 19 48 17 50 16 52 14 53 15 54 9 56 8 57 6 58
REMARK SMILES IDX 7 59 5 61 4 62 3 63 2 64 1 65 10 66 11 67 12 68 13 69 22 71
REMARK SMILES IDX 23 72 24 73 25 74 26 75 27 76 28 77
REMARK H PARENT 31 4 36 13 59 34 20 49 16 55 8 60 13 70 27 78 27 79 28 80
REMARK H PARENT 28 81
REMARK Flexibility Score:  259.900
ROOT
ATOM      1  O   UNL     1      -5.434   5.120   3.907  1.00  0.00    -0.273 OA
ATOM      2  N   UNL     1      -3.818   6.397   2.915  1.00  0.00    -0.343 N 
ATOM      3  C   UNL     1      -4.949   5.610   2.887  1.00  0.00     0.243 C 
ATOM      4  H   UNL     1      -3.455   6.796   2.058  1.00  0.00     0.164 HD
ENDROOT
BRANCH   2   5
ATOM      5  C   UNL     1      -3.074   6.585   4.156  1.00  0.00     0.171 C 
ATOM      6  C   UNL     1      -0.760   8.194   4.835  1.00  0.00     0.214 C 
ATOM      7  N   UNL     1      -0.572   6.835   4.383  1.00  0.00    -0.303 N 
ATOM      8  C   UNL     1      -2.074   8.408   5.570  1.00  0.00     0.057 C 
ATOM      9  C   UNL     1      -1.630   6.029   3.994  1.00  0.00     0.247 C 
ATOM     10  C   UNL     1      -3.230   8.012   4.678  1.00  0.00     0.040 C 
ATOM     11  O   UNL     1      -1.454   4.897   3.527  1.00  0.00    -0.272 OA
BRANCH   6  12
ATOM     12  O   UNL     1      -0.684   9.037   3.708  1.00  0.00    -0.373 OA
ATOM     13  H   UNL     1      -1.348   9.747   3.835  1.00  0.00     0.213 HD
ENDBRANCH   6  12
BRANCH   7  14
ATOM     14  C   UNL     1       0.821   6.374   4.208  1.00  0.00     0.177 C 
BRANCH  14  15
ATOM     15  C   UNL     1       1.718   7.300   3.363  1.00  0.00     0.038 C 
BRANCH  15  16
ATOM     16  C   UNL     1       2.157   6.853   1.951  1.00  0.00    -0.015 C 
ATOM     17  C   UNL     1       3.680   6.831   1.793  1.00  0.00     0.007 C 
ATOM     18  C   UNL     1       1.579   7.810   0.901  1.00  0.00     0.007 C 
ENDBRANCH  15  16
ENDBRANCH  14  15
BRANCH  14  19
ATOM     19  C   UNL     1       1.286   5.560   5.464  1.00  0.00     0.245 C 
ATOM     20  O   UNL     1       1.158   6.114   6.568  1.00  0.00    -0.272 OA
BRANCH  19  21
ATOM     21  N   UNL     1       1.922   4.333   5.396  1.00  0.00    -0.332 N 
ATOM     22  C   UNL     1       1.959   3.343   6.458  1.00  0.00     0.147 C 
BRANCH  21  23
ATOM     23  C   UNL     1       2.641   3.990   4.138  1.00  0.00     0.178 C 
BRANCH  23  24
ATOM     24  C   UNL     1       4.090   3.500   4.335  1.00  0.00     0.070 C 
BRANCH  24  25
ATOM     25  C   UNL     1       4.819   2.997   3.111  1.00  0.00    -0.045 A 
ATOM     26  C   UNL     1       5.612   3.860   2.344  1.00  0.00     0.004 A 
ATOM     27  C   UNL     1       4.707   1.654   2.722  1.00  0.00     0.004 A 
ATOM     28  C   UNL     1       6.269   3.392   1.204  1.00  0.00     0.000 A 
ATOM     29  C   UNL     1       5.365   1.187   1.583  1.00  0.00     0.000 A 
ATOM     30  C   UNL     1       6.144   2.058   0.824  1.00  0.00     0.000 A 
ENDBRANCH  24  25
ENDBRANCH  23  24
BRANCH  23  31
ATOM     31  C   UNL     1       1.789   3.134   3.170  1.00  0.00     0.243 C 
ATOM     32  O   UNL     1       1.363   2.014   3.439  1.00  0.00    -0.273 OA
ATOM     33  N   UNL     1       1.702   3.663   1.894  1.00  0.00    -0.341 N 
ATOM     34  H   UNL     1       2.082   4.599   1.730  1.00  0.00     0.164 HD
BRANCH  33  35
ATOM     35  C   UNL     1       1.047   2.967   0.783  1.00  0.00     0.194 C 
BRANCH  35  36
ATOM     36  C   UNL     1       2.003   2.596  -0.385  1.00  0.00     0.017 C 
ATOM     37  C   UNL     1       2.455   1.128  -0.293  1.00  0.00     0.010 C 
ATOM     38  C   UNL     1       3.267   3.463  -0.431  1.00  0.00     0.010 C 
ENDBRANCH  35  36
BRANCH  35  39
ATOM     39  C   UNL     1      -0.224   3.706   0.280  1.00  0.00     0.329 C 
ATOM     40  O   UNL     1      -0.344   4.926   0.255  1.00  0.00    -0.250 OA
BRANCH  39  41
ATOM     41  O   UNL     1      -1.165   2.846  -0.215  1.00  0.00    -0.458 OA
BRANCH  41  42
ATOM     42  C   UNL     1      -2.407   2.761   0.523  1.00  0.00     0.205 CG0
ATOM     43  C   UNL     1      -2.375   1.459   1.320  1.00  0.00     0.056 C 
ATOM     44  G   UNL     1      -3.578   2.811  -0.479  1.00  0.00     0.000 G0
ENDBRANCH  41  42
ENDBRANCH  39  41
ENDBRANCH  35  39
ENDBRANCH  33  35
ENDBRANCH  23  31
ENDBRANCH  21  23
ENDBRANCH  19  21
ENDBRANCH  14  19
ENDBRANCH   7  14
ENDBRANCH   2   5
BRANCH   3  45
ATOM     45  C   UNL     1      -5.573   5.405   1.500  1.00  0.00     0.171 C 
BRANCH  45  46
ATOM     46  N   UNL     1      -4.567   4.701   0.716  1.00  0.00    -0.342 N 
ATOM     47  C   UNL     1      -4.783   3.450   0.194  1.00  0.00     0.247 C 
ATOM     48  O   UNL     1      -5.863   2.865   0.287  1.00  0.00    -0.273 OA
ATOM     49  H   UNL     1      -3.678   5.174   0.566  1.00  0.00     0.164 HD
BRANCH  47  50
ATOM     50  C   UNL     1      -3.568   2.815  -0.496  1.00  0.00     0.212 CG0
ATOM     51  G   UNL     1      -2.419   2.767   0.532  1.00  0.00     0.000 G0
BRANCH  50  52
ATOM     52  N   UNL     1      -4.012   1.491  -0.926  1.00  0.00    -0.339 N 
ATOM     53  C   UNL     1      -3.719   0.960  -2.158  1.00  0.00     0.243 C 
ATOM     54  O   UNL     1      -3.102   1.582  -3.018  1.00  0.00    -0.273 OA
ATOM     55  H   UNL     1      -4.622   0.971  -0.299  1.00  0.00     0.164 HD
BRANCH  53  56
ATOM     56  C   UNL     1      -4.368  -0.415  -2.419  1.00  0.00     0.182 C 
BRANCH  56  57
ATOM     57  N   UNL     1      -4.078  -0.885  -3.777  1.00  0.00    -0.344 N 
ATOM     58  C   UNL     1      -3.408  -2.059  -4.022  1.00  0.00     0.220 C 
ATOM     59  O   UNL     1      -2.943  -2.756  -3.127  1.00  0.00    -0.275 OA
ATOM     60  H   UNL     1      -4.532  -0.392  -4.542  1.00  0.00     0.164 HD
BRANCH  58  61
ATOM     61  C   UNL     1      -3.271  -2.376  -5.500  1.00  0.00     0.100 C 
BRANCH  61  62
ATOM     62  C   UNL     1      -4.564  -2.874  -6.145  1.00  0.00     0.010 C 
BRANCH  62  63
ATOM     63  C   UNL     1      -5.076  -4.204  -5.579  1.00  0.00     0.000 C 
BRANCH  63  64
ATOM     64  C   UNL     1      -6.342  -4.080  -4.732  1.00  0.00    -0.003 C 
ATOM     65  C   UNL     1      -6.632  -5.367  -3.975  1.00  0.00     0.004 C 
ENDBRANCH  63  64
ENDBRANCH  62  63
ENDBRANCH  61  62
ENDBRANCH  58  61
ENDBRANCH  56  57
BRANCH  56  66
ATOM     66  C   UNL     1      -5.867  -0.390  -2.125  1.00  0.00     0.157 C 
BRANCH  66  67
ATOM     67  C   UNL     1      -6.588   0.548  -3.050  1.00  0.00     0.305 C 
ATOM     68  O   UNL     1      -6.870   0.348  -4.222  1.00  0.00    -0.252 OA
BRANCH  67  69
ATOM     69  O   UNL     1      -6.967   1.683  -2.434  1.00  0.00    -0.481 OA
ATOM     70  H   UNL     1      -6.129   2.137  -2.206  1.00  0.00     0.296 HD
ENDBRANCH  67  69
ENDBRANCH  66  67
ENDBRANCH  56  66
ENDBRANCH  53  56
ENDBRANCH  50  52
ENDBRANCH  47  50
ENDBRANCH  45  46
BRANCH  45  71
ATOM     71  C   UNL     1      -5.935   6.756   0.873  1.00  0.00     0.037 C 
BRANCH  71  72
ATOM     72  C   UNL     1      -7.409   7.111   1.082  1.00  0.00     0.026 C 
BRANCH  72  73
ATOM     73  C   UNL     1      -7.747   8.476   0.485  1.00  0.00     0.146 C 
BRANCH  73  74
ATOM     74  N   UNL     1      -7.153   9.498   1.342  1.00  0.00    -0.254 NA
ATOM     75  C   UNL     1      -7.541  10.710   1.186  1.00  0.00     0.185 C 
ATOM     76  N   UNL     1      -7.013  11.672   1.960  1.00  0.00    -0.370 N 
ATOM     77  N   UNL     1      -8.445  11.203   0.322  1.00  0.00    -0.370 N 
ATOM     78  H   UNL     1      -6.318  11.387   2.634  1.00  0.00     0.159 HD
ATOM     79  H   UNL     1      -7.159  12.653   1.800  1.00  0.00     0.159 HD
ATOM     80  H   UNL     1      -8.926  10.593  -0.322  1.00  0.00     0.159 HD
ATOM     81  H   UNL     1      -8.754  12.160   0.369  1.00  0.00     0.159 HD
ENDBRANCH  73  74
ENDBRANCH  72  73
ENDBRANCH  71  72
ENDBRANCH  45  71
ENDBRANCH   3  45
TORSDOF 20
ENDMDL
MODEL 40
REMARK VINA RESULT:    -4.901     12.596     18.840
REMARK INTER + INTRA:         -20.189
REMARK INTER:                 -13.042
REMARK INTRA:                  -7.147
REMARK UNBOUND:                -6.121
REMARK SMILES CCCCCC(=O)N[C@H](CC(=O)O)C(=O)N[C@H]1C(=O)N[C@H](CCCN=C(N)N)C(=O)N[C@@H]2CC[C@H](O)N(C2=O)[C@@H](CC(C)C)C(=O)N(C)[C@@H](Cc2ccccc2)C(=O)N[C@H](C(C)C)C(=O)O[C@@H]1C
REMARK SMILES IDX 30 1 31 2 29 3 32 5 35 6 37 7 34 8 38 9 33 10 39 11 36 12
REMARK SMILES IDX 40 14 41 15 42 16 43 17 44 18 45 19 46 20 47 21 48 22 49 23
REMARK SMILES IDX 50 24 51 25 52 26 56 27 53 28 55 29 54 30 57 31 58 32 59 33
REMARK SMILES IDX 60 35 61 36 62 37 63 38 64 39 65 40 66 41 67 42 68 43 21 45
REMARK SMILES IDX 20 46 18 47 19 48 17 50 16 52 14 53 15 54 9 56 8 57 6 58
REMARK SMILES IDX 7 59 5 61 4 62 3 63 2 64 1 65 10 66 11 67 12 68 13 69 22 71
REMARK SMILES IDX 23 72 24 73 25 74 26 75 27 76 28 77
REMARK H PARENT 31 4 36 13 59 34 20 49 16 55 8 60 13 70 27 78 27 79 28 80
REMARK H PARENT 28 81
REMARK Flexibility Score:  259.900
ROOT
ATOM      1  O   UNL     1       4.006   7.838   6.586  1.00  0.00    -0.273 OA
ATOM      2  N   UNL     1       2.177   6.582   7.140  1.00  0.00    -0.343 N 
ATOM      3  C   UNL     1       3.145   7.021   6.261  1.00  0.00     0.243 C 
ATOM      4  H   UNL     1       1.493   5.898   6.842  1.00  0.00     0.164 HD
ENDROOT
BRANCH   2   5
ATOM      5  C   UNL     1       2.063   7.167   8.471  1.00  0.00     0.171 C 
ATOM      6  C   UNL     1       0.459   6.481  10.787  1.00  0.00     0.214 C 
ATOM      7  N   UNL     1      -0.054   7.425   9.821  1.00  0.00    -0.303 N 
ATOM      8  C   UNL     1       1.976   6.494  10.893  1.00  0.00     0.057 C 
ATOM      9  C   UNL     1       0.638   7.758   8.668  1.00  0.00     0.247 C 
ATOM     10  C   UNL     1       2.587   6.207   9.538  1.00  0.00     0.040 C 
ATOM     11  O   UNL     1       0.153   8.500   7.803  1.00  0.00    -0.272 OA
BRANCH   6  12
ATOM     12  O   UNL     1       0.002   5.200  10.422  1.00  0.00    -0.373 OA
ATOM     13  H   UNL     1      -0.401   4.800  11.222  1.00  0.00     0.213 HD
ENDBRANCH   6  12
BRANCH   7  14
ATOM     14  C   UNL     1      -1.430   7.921  10.035  1.00  0.00     0.177 C 
BRANCH  14  15
ATOM     15  C   UNL     1      -1.550   9.439  10.273  1.00  0.00     0.038 C 
BRANCH  15  16
ATOM     16  C   UNL     1      -1.377  10.002  11.701  1.00  0.00    -0.015 C 
ATOM     17  C   UNL     1       0.073   9.927  12.187  1.00  0.00     0.007 C 
ATOM     18  C   UNL     1      -2.254   9.211  12.680  1.00  0.00     0.007 C 
ENDBRANCH  15  16
ENDBRANCH  14  15
BRANCH  14  19
ATOM     19  C   UNL     1      -2.455   7.045   9.236  1.00  0.00     0.245 C 
ATOM     20  O   UNL     1      -2.622   5.879   9.632  1.00  0.00    -0.272 OA
BRANCH  19  21
ATOM     21  N   UNL     1      -3.081   7.457   8.074  1.00  0.00    -0.332 N 
ATOM     22  C   UNL     1      -3.594   8.792   7.821  1.00  0.00     0.147 C 
BRANCH  21  23
ATOM     23  C   UNL     1      -3.261   6.456   6.987  1.00  0.00     0.178 C 
BRANCH  23  24
ATOM     24  C   UNL     1      -4.335   6.823   5.942  1.00  0.00     0.070 C 
BRANCH  24  25
ATOM     25  C   UNL     1      -4.346   6.026   4.658  1.00  0.00    -0.045 A 
ATOM     26  C   UNL     1      -3.808   6.557   3.479  1.00  0.00     0.004 A 
ATOM     27  C   UNL     1      -4.904   4.739   4.629  1.00  0.00     0.004 A 
ATOM     28  C   UNL     1      -3.838   5.821   2.292  1.00  0.00     0.000 A 
ATOM     29  C   UNL     1      -4.932   4.004   3.443  1.00  0.00     0.000 A 
ATOM     30  C   UNL     1      -4.402   4.547   2.274  1.00  0.00     0.000 A 
ENDBRANCH  24  25
ENDBRANCH  23  24
BRANCH  23  31
ATOM     31  C   UNL     1      -1.920   5.959   6.396  1.00  0.00     0.243 C 
ATOM     32  O   UNL     1      -1.206   6.629   5.654  1.00  0.00    -0.273 OA
ATOM     33  N   UNL     1      -1.678   4.616   6.626  1.00  0.00    -0.341 N 
ATOM     34  H   UNL     1      -2.312   4.108   7.248  1.00  0.00     0.164 HD
BRANCH  33  35
ATOM     35  C   UNL     1      -0.530   3.902   6.060  1.00  0.00     0.194 C 
BRANCH  35  36
ATOM     36  C   UNL     1      -0.886   2.968   4.869  1.00  0.00     0.017 C 
ATOM     37  C   UNL     1      -0.984   3.755   3.551  1.00  0.00     0.010 C 
ATOM     38  C   UNL     1      -2.215   2.226   5.061  1.00  0.00     0.010 C 
ENDBRANCH  35  36
BRANCH  35  39
ATOM     39  C   UNL     1       0.311   3.168   7.142  1.00  0.00     0.329 C 
ATOM     40  O   UNL     1      -0.145   2.336   7.917  1.00  0.00    -0.250 OA
BRANCH  39  41
ATOM     41  O   UNL     1       1.638   3.491   7.077  1.00  0.00    -0.458 OA
BRANCH  41  42
ATOM     42  C   UNL     1       2.560   2.385   6.928  1.00  0.00     0.205 CG0
ATOM     43  C   UNL     1       3.186   2.128   8.297  1.00  0.00     0.056 C 
ATOM     44  G   UNL     1       3.608   2.759   5.861  1.00  0.00     0.000 G0
ENDBRANCH  41  42
ENDBRANCH  39  41
ENDBRANCH  35  39
ENDBRANCH  33  35
ENDBRANCH  23  31
ENDBRANCH  21  23
ENDBRANCH  19  21
ENDBRANCH  14  19
ENDBRANCH   7  14
ENDBRANCH   2   5
BRANCH   3  45
ATOM     45  C   UNL     1       3.086   6.403   4.858  1.00  0.00     0.171 C 
BRANCH  45  46
ATOM     46  N   UNL     1       2.967   4.966   5.064  1.00  0.00    -0.342 N 
ATOM     47  C   UNL     1       3.842   4.260   5.851  1.00  0.00     0.247 C 
ATOM     48  O   UNL     1       4.743   4.798   6.496  1.00  0.00    -0.273 OA
ATOM     49  H   UNL     1       2.200   4.490   4.593  1.00  0.00     0.164 HD
BRANCH  47  50
ATOM     50  C   UNL     1       3.635   2.739   5.851  1.00  0.00     0.212 CG0
ATOM     51  G   UNL     1       2.562   2.413   6.909  1.00  0.00     0.000 G0
BRANCH  50  52
ATOM     52  N   UNL     1       3.225   2.402   4.490  1.00  0.00    -0.339 N 
ATOM     53  C   UNL     1       4.112   2.086   3.490  1.00  0.00     0.243 C 
ATOM     54  O   UNL     1       5.329   2.115   3.651  1.00  0.00    -0.273 OA
ATOM     55  H   UNL     1       2.235   2.469   4.265  1.00  0.00     0.164 HD
BRANCH  53  56
ATOM     56  C   UNL     1       3.451   1.852   2.116  1.00  0.00     0.182 C 
BRANCH  56  57
ATOM     57  N   UNL     1       4.392   2.128   1.026  1.00  0.00    -0.344 N 
ATOM     58  C   UNL     1       5.063   1.130   0.362  1.00  0.00     0.220 C 
ATOM     59  O   UNL     1       4.980  -0.051   0.681  1.00  0.00    -0.275 OA
ATOM     60  H   UNL     1       4.412   3.078   0.665  1.00  0.00     0.164 HD
BRANCH  58  61
ATOM     61  C   UNL     1       5.938   1.642  -0.768  1.00  0.00     0.100 C 
BRANCH  61  62
ATOM     62  C   UNL     1       7.354   2.015  -0.330  1.00  0.00     0.010 C 
BRANCH  62  63
ATOM     63  C   UNL     1       8.031   3.063  -1.222  1.00  0.00     0.000 C 
BRANCH  63  64
ATOM     64  C   UNL     1       9.384   2.629  -1.783  1.00  0.00    -0.003 C 
ATOM     65  C   UNL     1       9.442   2.808  -3.293  1.00  0.00     0.004 C 
ENDBRANCH  63  64
ENDBRANCH  62  63
ENDBRANCH  61  62
ENDBRANCH  58  61
ENDBRANCH  56  57
BRANCH  56  66
ATOM     66  C   UNL     1       2.155   2.647   1.975  1.00  0.00     0.157 C 
BRANCH  66  67
ATOM     67  C   UNL     1       2.149   3.458   0.711  1.00  0.00     0.305 C 
ATOM     68  O   UNL     1       1.757   3.097  -0.388  1.00  0.00    -0.252 OA
BRANCH  67  69
ATOM     69  O   UNL     1       2.593   4.714   0.906  1.00  0.00    -0.481 OA
ATOM     70  H   UNL     1       3.379   4.794   0.325  1.00  0.00     0.296 HD
ENDBRANCH  67  69
ENDBRANCH  66  67
ENDBRANCH  56  66
ENDBRANCH  53  56
ENDBRANCH  50  52
ENDBRANCH  47  50
ENDBRANCH  45  46
BRANCH  45  71
ATOM     71  C   UNL     1       4.350   6.758   4.066  1.00  0.00     0.037 C 
BRANCH  71  72
ATOM     72  C   UNL     1       4.041   7.645   2.856  1.00  0.00     0.026 C 
BRANCH  72  73
ATOM     73  C   UNL     1       2.746   8.431   3.054  1.00  0.00     0.146 C 
BRANCH  73  74
ATOM     74  N   UNL     1       2.072   8.512   1.762  1.00  0.00    -0.254 NA
ATOM     75  C   UNL     1       1.138   7.669   1.519  1.00  0.00     0.185 C 
ATOM     76  N   UNL     1       0.498   7.720   0.340  1.00  0.00    -0.370 N 
ATOM     77  N   UNL     1       0.666   6.682   2.301  1.00  0.00    -0.370 N 
ATOM     78  H   UNL     1       0.797   8.430  -0.313  1.00  0.00     0.159 HD
ATOM     79  H   UNL     1      -0.138   7.009   0.024  1.00  0.00     0.159 HD
ATOM     80  H   UNL     1       1.051   6.527   3.221  1.00  0.00     0.159 HD
ATOM     81  H   UNL     1      -0.152   6.153   2.049  1.00  0.00     0.159 HD
ENDBRANCH  73  74
ENDBRANCH  72  73
ENDBRANCH  71  72
ENDBRANCH  45  71
ENDBRANCH   3  45
TORSDOF 20
ENDMDL
MODEL 41
REMARK VINA RESULT:    -4.864     10.579     15.058
REMARK INTER + INTRA:         -20.084
REMARK INTER:                 -15.265
REMARK INTRA:                  -4.818
REMARK UNBOUND:                -6.121
REMARK SMILES CCCCCC(=O)N[C@H](CC(=O)O)C(=O)N[C@H]1C(=O)N[C@H](CCCN=C(N)N)C(=O)N[C@@H]2CC[C@H](O)N(C2=O)[C@@H](CC(C)C)C(=O)N(C)[C@@H](Cc2ccccc2)C(=O)N[C@H](C(C)C)C(=O)O[C@@H]1C
REMARK SMILES IDX 30 1 31 2 29 3 32 5 35 6 37 7 34 8 38 9 33 10 39 11 36 12
REMARK SMILES IDX 40 14 41 15 42 16 43 17 44 18 45 19 46 20 47 21 48 22 49 23
REMARK SMILES IDX 50 24 51 25 52 26 56 27 53 28 55 29 54 30 57 31 58 32 59 33
REMARK SMILES IDX 60 35 61 36 62 37 63 38 64 39 65 40 66 41 67 42 68 43 21 45
REMARK SMILES IDX 20 46 18 47 19 48 17 50 16 52 14 53 15 54 9 56 8 57 6 58
REMARK SMILES IDX 7 59 5 61 4 62 3 63 2 64 1 65 10 66 11 67 12 68 13 69 22 71
REMARK SMILES IDX 23 72 24 73 25 74 26 75 27 76 28 77
REMARK H PARENT 31 4 36 13 59 34 20 49 16 55 8 60 13 70 27 78 27 79 28 80
REMARK H PARENT 28 81
REMARK Flexibility Score:  259.900
ROOT
ATOM      1  O   UNL     1      -2.001   3.028  -0.288  1.00  0.00    -0.273 OA
ATOM      2  N   UNL     1      -0.530   1.478   0.527  1.00  0.00    -0.343 N 
ATOM      3  C   UNL     1      -1.799   1.941   0.254  1.00  0.00     0.243 C 
ATOM      4  H   UNL     1      -0.401   0.573   0.961  1.00  0.00     0.164 HD
ENDROOT
BRANCH   2   5
ATOM      5  C   UNL     1       0.636   2.323   0.288  1.00  0.00     0.171 C 
ATOM      6  C   UNL     1       3.364   2.227   1.264  1.00  0.00     0.214 C 
ATOM      7  N   UNL     1       2.377   2.994   1.988  1.00  0.00    -0.303 N 
ATOM      8  C   UNL     1       3.091   2.153  -0.230  1.00  0.00     0.057 C 
ATOM      9  C   UNL     1       1.046   3.041   1.605  1.00  0.00     0.247 C 
ATOM     10  C   UNL     1       1.720   1.559  -0.471  1.00  0.00     0.040 C 
ATOM     11  O   UNL     1       0.190   3.629   2.279  1.00  0.00    -0.272 OA
BRANCH   6  12
ATOM     12  O   UNL     1       3.400   0.935   1.823  1.00  0.00    -0.373 OA
ATOM     13  H   UNL     1       3.690   1.033   2.755  1.00  0.00     0.213 HD
ENDBRANCH   6  12
BRANCH   7  14
ATOM     14  C   UNL     1       2.811   3.620   3.254  1.00  0.00     0.177 C 
BRANCH  14  15
ATOM     15  C   UNL     1       2.988   2.650   4.439  1.00  0.00     0.038 C 
BRANCH  15  16
ATOM     16  C   UNL     1       1.794   2.372   5.379  1.00  0.00    -0.015 C 
ATOM     17  C   UNL     1       1.613   3.469   6.432  1.00  0.00     0.007 C 
ATOM     18  C   UNL     1       2.007   1.038   6.107  1.00  0.00     0.007 C 
ENDBRANCH  15  16
ENDBRANCH  14  15
BRANCH  14  19
ATOM     19  C   UNL     1       3.713   4.869   2.963  1.00  0.00     0.245 C 
ATOM     20  O   UNL     1       3.357   5.610   2.031  1.00  0.00    -0.272 OA
BRANCH  19  21
ATOM     21  N   UNL     1       4.915   5.118   3.600  1.00  0.00    -0.332 N 
ATOM     22  C   UNL     1       6.117   4.312   3.476  1.00  0.00     0.147 C 
BRANCH  21  23
ATOM     23  C   UNL     1       4.994   6.301   4.500  1.00  0.00     0.178 C 
BRANCH  23  24
ATOM     24  C   UNL     1       3.841   6.415   5.519  1.00  0.00     0.070 C 
BRANCH  24  25
ATOM     25  C   UNL     1       2.731   7.389   5.196  1.00  0.00    -0.045 A 
ATOM     26  C   UNL     1       1.431   6.936   4.938  1.00  0.00     0.004 A 
ATOM     27  C   UNL     1       2.992   8.767   5.145  1.00  0.00     0.004 A 
ATOM     28  C   UNL     1       0.415   7.841   4.624  1.00  0.00     0.000 A 
ATOM     29  C   UNL     1       1.975   9.670   4.832  1.00  0.00     0.000 A 
ATOM     30  C   UNL     1       0.688   9.206   4.569  1.00  0.00     0.000 A 
ENDBRANCH  24  25
ENDBRANCH  23  24
BRANCH  23  31
ATOM     31  C   UNL     1       6.408   6.519   5.090  1.00  0.00     0.243 C 
ATOM     32  O   UNL     1       7.351   6.987   4.458  1.00  0.00    -0.273 OA
ATOM     33  N   UNL     1       6.573   5.965   6.348  1.00  0.00    -0.341 N 
ATOM     34  H   UNL     1       5.751   5.584   6.823  1.00  0.00     0.164 HD
BRANCH  33  35
ATOM     35  C   UNL     1       7.860   5.945   7.049  1.00  0.00     0.194 C 
BRANCH  35  36
ATOM     36  C   UNL     1       8.357   4.521   7.425  1.00  0.00     0.017 C 
ATOM     37  C   UNL     1       9.666   4.174   6.694  1.00  0.00     0.010 C 
ATOM     38  C   UNL     1       7.341   3.420   7.095  1.00  0.00     0.010 C 
ENDBRANCH  35  36
BRANCH  35  39
ATOM     39  C   UNL     1       7.892   6.911   8.266  1.00  0.00     0.329 C 
ATOM     40  O   UNL     1       6.892   7.364   8.810  1.00  0.00    -0.250 OA
BRANCH  39  41
ATOM     41  O   UNL     1       9.163   7.133   8.721  1.00  0.00    -0.458 OA
BRANCH  41  42
ATOM     42  C   UNL     1       9.381   6.935  10.138  1.00  0.00     0.205 CG0
ATOM     43  C   UNL     1      10.767   7.485  10.466  1.00  0.00     0.056 C 
ATOM     44  G   UNL     1       9.254   5.430  10.450  1.00  0.00     0.000 G0
ENDBRANCH  41  42
ENDBRANCH  39  41
ENDBRANCH  35  39
ENDBRANCH  33  35
ENDBRANCH  23  31
ENDBRANCH  21  23
ENDBRANCH  19  21
ENDBRANCH  14  19
ENDBRANCH   7  14
ENDBRANCH   2   5
BRANCH   3  45
ATOM     45  C   UNL     1      -2.942   0.998   0.653  1.00  0.00     0.171 C 
BRANCH  45  46
ATOM     46  N   UNL     1      -3.997   1.221  -0.327  1.00  0.00    -0.342 N 
ATOM     47  C   UNL     1      -4.475   0.219  -1.134  1.00  0.00     0.247 C 
ATOM     48  O   UNL     1      -4.102  -0.951  -1.039  1.00  0.00    -0.273 OA
ATOM     49  H   UNL     1      -4.374   2.164  -0.399  1.00  0.00     0.164 HD
BRANCH  47  50
ATOM     50  C   UNL     1      -5.496   0.667  -2.190  1.00  0.00     0.212 CG0
ATOM     51  G   UNL     1      -5.884   2.126  -1.876  1.00  0.00     0.000 G0
BRANCH  50  52
ATOM     52  N   UNL     1      -4.819   0.514  -3.475  1.00  0.00    -0.339 N 
ATOM     53  C   UNL     1      -3.739   1.274  -3.856  1.00  0.00     0.243 C 
ATOM     54  O   UNL     1      -3.291   2.181  -3.161  1.00  0.00    -0.273 OA
ATOM     55  H   UNL     1      -5.214  -0.147  -4.141  1.00  0.00     0.164 HD
BRANCH  53  56
ATOM     56  C   UNL     1      -3.249   0.992  -5.290  1.00  0.00     0.182 C 
BRANCH  56  57
ATOM     57  N   UNL     1      -3.240  -0.448  -5.570  1.00  0.00    -0.344 N 
ATOM     58  C   UNL     1      -4.296  -1.086  -6.174  1.00  0.00     0.220 C 
ATOM     59  O   UNL     1      -5.345  -0.515  -6.454  1.00  0.00    -0.275 OA
ATOM     60  H   UNL     1      -2.357  -0.935  -5.449  1.00  0.00     0.164 HD
BRANCH  58  61
ATOM     61  C   UNL     1      -4.046  -2.562  -6.419  1.00  0.00     0.100 C 
BRANCH  61  62
ATOM     62  C   UNL     1      -4.969  -3.484  -5.622  1.00  0.00     0.010 C 
BRANCH  62  63
ATOM     63  C   UNL     1      -4.234  -4.564  -4.817  1.00  0.00     0.000 C 
BRANCH  63  64
ATOM     64  C   UNL     1      -4.991  -5.887  -4.707  1.00  0.00    -0.003 C 
ATOM     65  C   UNL     1      -4.399  -6.944  -5.628  1.00  0.00     0.004 C 
ENDBRANCH  63  64
ENDBRANCH  62  63
ENDBRANCH  61  62
ENDBRANCH  58  61
ENDBRANCH  56  57
BRANCH  56  66
ATOM     66  C   UNL     1      -1.890   1.639  -5.554  1.00  0.00     0.157 C 
BRANCH  66  67
ATOM     67  C   UNL     1      -0.825   0.601  -5.761  1.00  0.00     0.305 C 
ATOM     68  O   UNL     1      -0.392   0.198  -6.830  1.00  0.00    -0.252 OA
BRANCH  67  69
ATOM     69  O   UNL     1      -0.314   0.153  -4.599  1.00  0.00    -0.481 OA
ATOM     70  H   UNL     1       0.371  -0.498  -4.860  1.00  0.00     0.296 HD
ENDBRANCH  67  69
ENDBRANCH  66  67
ENDBRANCH  56  66
ENDBRANCH  53  56
ENDBRANCH  50  52
ENDBRANCH  47  50
ENDBRANCH  45  46
BRANCH  45  71
ATOM     71  C   UNL     1      -3.418   1.309   2.077  1.00  0.00     0.037 C 
BRANCH  71  72
ATOM     72  C   UNL     1      -2.808   0.357   3.109  1.00  0.00     0.026 C 
BRANCH  72  73
ATOM     73  C   UNL     1      -2.085   1.121   4.217  1.00  0.00     0.146 C 
BRANCH  73  74
ATOM     74  N   UNL     1      -1.286   0.161   4.972  1.00  0.00    -0.254 NA
ATOM     75  C   UNL     1      -1.846  -0.444   5.954  1.00  0.00     0.185 C 
ATOM     76  N   UNL     1      -1.136  -1.333   6.667  1.00  0.00    -0.370 N 
ATOM     77  N   UNL     1      -3.104  -0.326   6.412  1.00  0.00    -0.370 N 
ATOM     78  H   UNL     1      -0.175  -1.477   6.393  1.00  0.00     0.159 HD
ATOM     79  H   UNL     1      -1.459  -1.734   7.530  1.00  0.00     0.159 HD
ATOM     80  H   UNL     1      -3.755   0.306   5.969  1.00  0.00     0.159 HD
ATOM     81  H   UNL     1      -3.468  -0.940   7.122  1.00  0.00     0.159 HD
ENDBRANCH  73  74
ENDBRANCH  72  73
ENDBRANCH  71  72
ENDBRANCH  45  71
ENDBRANCH   3  45
TORSDOF 20
ENDMDL
MODEL 42
REMARK VINA RESULT:    -4.836     10.999     16.707
REMARK INTER + INTRA:         -20.005
REMARK INTER:                 -14.516
REMARK INTRA:                  -5.489
REMARK UNBOUND:                -6.121
REMARK SMILES CCCCCC(=O)N[C@H](CC(=O)O)C(=O)N[C@H]1C(=O)N[C@H](CCCN=C(N)N)C(=O)N[C@@H]2CC[C@H](O)N(C2=O)[C@@H](CC(C)C)C(=O)N(C)[C@@H](Cc2ccccc2)C(=O)N[C@H](C(C)C)C(=O)O[C@@H]1C
REMARK SMILES IDX 30 1 31 2 29 3 32 5 35 6 37 7 34 8 38 9 33 10 39 11 36 12
REMARK SMILES IDX 40 14 41 15 42 16 43 17 44 18 45 19 46 20 47 21 48 22 49 23
REMARK SMILES IDX 50 24 51 25 52 26 56 27 53 28 55 29 54 30 57 31 58 32 59 33
REMARK SMILES IDX 60 35 61 36 62 37 63 38 64 39 65 40 66 41 67 42 68 43 21 45
REMARK SMILES IDX 20 46 18 47 19 48 17 50 16 52 14 53 15 54 9 56 8 57 6 58
REMARK SMILES IDX 7 59 5 61 4 62 3 63 2 64 1 65 10 66 11 67 12 68 13 69 22 71
REMARK SMILES IDX 23 72 24 73 25 74 26 75 27 76 28 77
REMARK H PARENT 31 4 36 13 59 34 20 49 16 55 8 60 13 70 27 78 27 79 28 80
REMARK H PARENT 28 81
REMARK Flexibility Score:  259.900
ROOT
ATOM      1  O   UNL     1      -0.460   6.236   1.694  1.00  0.00    -0.273 OA
ATOM      2  N   UNL     1       1.422   5.228   0.873  1.00  0.00    -0.343 N 
ATOM      3  C   UNL     1       0.722   5.920   1.838  1.00  0.00     0.243 C 
ATOM      4  H   UNL     1       2.388   4.973   1.031  1.00  0.00     0.164 HD
ENDROOT
BRANCH   2   5
ATOM      5  C   UNL     1       0.815   4.943  -0.423  1.00  0.00     0.171 C 
ATOM      6  C   UNL     1      -1.840   5.402  -1.493  1.00  0.00     0.214 C 
ATOM      7  N   UNL     1      -1.546   4.151  -0.834  1.00  0.00    -0.303 N 
ATOM      8  C   UNL     1      -0.630   6.020  -2.176  1.00  0.00     0.057 C 
ATOM      9  C   UNL     1      -0.315   3.887  -0.256  1.00  0.00     0.247 C 
ATOM     10  C   UNL     1       0.475   6.235  -1.166  1.00  0.00     0.040 C 
ATOM     11  O   UNL     1      -0.098   2.849   0.383  1.00  0.00    -0.272 OA
BRANCH   6  12
ATOM     12  O   UNL     1      -2.365   6.284  -0.529  1.00  0.00    -0.373 OA
ATOM     13  H   UNL     1      -1.607   6.776  -0.146  1.00  0.00     0.213 HD
ENDBRANCH   6  12
BRANCH   7  14
ATOM     14  C   UNL     1      -2.667   3.203  -0.665  1.00  0.00     0.177 C 
BRANCH  14  15
ATOM     15  C   UNL     1      -3.918   3.781   0.026  1.00  0.00     0.038 C 
BRANCH  15  16
ATOM     16  C   UNL     1      -4.170   3.479   1.520  1.00  0.00    -0.015 C 
ATOM     17  C   UNL     1      -5.465   4.115   2.034  1.00  0.00     0.007 C 
ATOM     18  C   UNL     1      -3.005   4.014   2.362  1.00  0.00     0.007 C 
ENDBRANCH  15  16
ENDBRANCH  14  15
BRANCH  14  19
ATOM     19  C   UNL     1      -2.679   2.161  -1.836  1.00  0.00     0.245 C 
ATOM     20  O   UNL     1      -3.456   2.387  -2.778  1.00  0.00    -0.272 OA
BRANCH  19  21
ATOM     21  N   UNL     1      -1.968   0.974  -1.819  1.00  0.00    -0.332 N 
ATOM     22  C   UNL     1      -0.645   0.776  -2.383  1.00  0.00     0.147 C 
BRANCH  21  23
ATOM     23  C   UNL     1      -2.607  -0.211  -1.181  1.00  0.00     0.178 C 
BRANCH  23  24
ATOM     24  C   UNL     1      -2.922  -1.372  -2.147  1.00  0.00     0.070 C 
BRANCH  24  25
ATOM     25  C   UNL     1      -4.254  -2.065  -1.979  1.00  0.00    -0.045 A 
ATOM     26  C   UNL     1      -5.400  -1.341  -1.626  1.00  0.00     0.004 A 
ATOM     27  C   UNL     1      -4.360  -3.450  -2.170  1.00  0.00     0.004 A 
ATOM     28  C   UNL     1      -6.624  -1.991  -1.455  1.00  0.00     0.000 A 
ATOM     29  C   UNL     1      -5.585  -4.099  -2.001  1.00  0.00     0.000 A 
ATOM     30  C   UNL     1      -6.715  -3.368  -1.641  1.00  0.00     0.000 A 
ENDBRANCH  24  25
ENDBRANCH  23  24
BRANCH  23  31
ATOM     31  C   UNL     1      -1.919  -0.630   0.139  1.00  0.00     0.243 C 
ATOM     32  O   UNL     1      -1.364  -1.712   0.311  1.00  0.00    -0.273 OA
ATOM     33  N   UNL     1      -2.143   0.251   1.184  1.00  0.00    -0.341 N 
ATOM     34  H   UNL     1      -2.617   1.135   0.980  1.00  0.00     0.164 HD
BRANCH  33  35
ATOM     35  C   UNL     1      -1.689  -0.002   2.554  1.00  0.00     0.194 C 
BRANCH  35  36
ATOM     36  C   UNL     1      -2.760   0.289   3.642  1.00  0.00     0.017 C 
ATOM     37  C   UNL     1      -2.805  -0.830   4.696  1.00  0.00     0.010 C 
ATOM     38  C   UNL     1      -4.176   0.439   3.072  1.00  0.00     0.010 C 
ENDBRANCH  35  36
BRANCH  35  39
ATOM     39  C   UNL     1      -0.335   0.692   2.872  1.00  0.00     0.329 C 
ATOM     40  O   UNL     1       0.714   0.453   2.284  1.00  0.00    -0.250 OA
BRANCH  39  41
ATOM     41  O   UNL     1      -0.460   1.664   3.826  1.00  0.00    -0.458 OA
BRANCH  41  42
ATOM     42  C   UNL     1       0.606   1.748   4.801  1.00  0.00     0.205 CG0
ATOM     43  C   UNL     1       0.280   0.757   5.917  1.00  0.00     0.056 C 
ATOM     44  G   UNL     1       0.695   3.201   5.309  1.00  0.00     0.000 G0
ENDBRANCH  41  42
ENDBRANCH  39  41
ENDBRANCH  35  39
ENDBRANCH  33  35
ENDBRANCH  23  31
ENDBRANCH  21  23
ENDBRANCH  19  21
ENDBRANCH  14  19
ENDBRANCH   7  14
ENDBRANCH   2   5
BRANCH   3  45
ATOM     45  C   UNL     1       1.510   6.250   3.112  1.00  0.00     0.171 C 
BRANCH  45  46
ATOM     46  N   UNL     1       1.004   5.345   4.134  1.00  0.00    -0.342 N 
ATOM     47  C   UNL     1       1.438   4.048   4.249  1.00  0.00     0.247 C 
ATOM     48  O   UNL     1       2.334   3.578   3.547  1.00  0.00    -0.273 OA
ATOM     49  H   UNL     1       0.301   5.710   4.773  1.00  0.00     0.164 HD
BRANCH  47  50
ATOM     50  C   UNL     1       0.703   3.207   5.303  1.00  0.00     0.212 CG0
ATOM     51  G   UNL     1       0.635   1.758   4.781  1.00  0.00     0.000 G0
BRANCH  50  52
ATOM     52  N   UNL     1       1.488   3.344   6.527  1.00  0.00    -0.339 N 
ATOM     53  C   UNL     1       1.072   4.074   7.614  1.00  0.00     0.243 C 
ATOM     54  O   UNL     1       0.026   4.717   7.619  1.00  0.00    -0.273 OA
ATOM     55  H   UNL     1       2.416   2.926   6.542  1.00  0.00     0.164 HD
BRANCH  53  56
ATOM     56  C   UNL     1       2.107   4.145   8.755  1.00  0.00     0.182 C 
BRANCH  56  57
ATOM     57  N   UNL     1       1.616   4.975   9.860  1.00  0.00    -0.344 N 
ATOM     58  C   UNL     1       1.069   4.436  10.999  1.00  0.00     0.220 C 
ATOM     59  O   UNL     1       0.886   3.232  11.141  1.00  0.00    -0.275 OA
ATOM     60  H   UNL     1       1.841   5.966   9.826  1.00  0.00     0.164 HD
BRANCH  58  61
ATOM     61  C   UNL     1       0.684   5.478  12.032  1.00  0.00     0.100 C 
BRANCH  61  62
ATOM     62  C   UNL     1      -0.453   6.397  11.587  1.00  0.00     0.010 C 
BRANCH  62  63
ATOM     63  C   UNL     1       0.007   7.786  11.123  1.00  0.00     0.000 C 
BRANCH  63  64
ATOM     64  C   UNL     1       1.207   8.337  11.892  1.00  0.00    -0.003 C 
ATOM     65  C   UNL     1       0.827   9.562  12.710  1.00  0.00     0.004 C 
ENDBRANCH  63  64
ENDBRANCH  62  63
ENDBRANCH  61  62
ENDBRANCH  58  61
ENDBRANCH  56  57
BRANCH  56  66
ATOM     66  C   UNL     1       3.471   4.608   8.247  1.00  0.00     0.157 C 
BRANCH  66  67
ATOM     67  C   UNL     1       3.515   6.101   8.092  1.00  0.00     0.305 C 
ATOM     68  O   UNL     1       2.560   6.862   8.051  1.00  0.00    -0.252 OA
BRANCH  67  69
ATOM     69  O   UNL     1       4.775   6.575   8.050  1.00  0.00    -0.481 OA
ATOM     70  H   UNL     1       4.748   7.406   8.569  1.00  0.00     0.296 HD
ENDBRANCH  67  69
ENDBRANCH  66  67
ENDBRANCH  56  66
ENDBRANCH  53  56
ENDBRANCH  50  52
ENDBRANCH  47  50
ENDBRANCH  45  46
BRANCH  45  71
ATOM     71  C   UNL     1       1.303   7.718   3.503  1.00  0.00     0.037 C 
BRANCH  71  72
ATOM     72  C   UNL     1       2.243   8.655   2.742  1.00  0.00     0.026 C 
BRANCH  72  73
ATOM     73  C   UNL     1       3.684   8.522   3.231  1.00  0.00     0.146 C 
BRANCH  73  74
ATOM     74  N   UNL     1       4.560   9.056   2.192  1.00  0.00    -0.254 NA
ATOM     75  C   UNL     1       5.819   9.086   2.428  1.00  0.00     0.185 C 
ATOM     76  N   UNL     1       6.651   9.570   1.491  1.00  0.00    -0.370 N 
ATOM     77  N   UNL     1       6.483   8.686   3.526  1.00  0.00    -0.370 N 
ATOM     78  H   UNL     1       6.231   9.900   0.634  1.00  0.00     0.159 HD
ATOM     79  H   UNL     1       7.623   9.758   1.658  1.00  0.00     0.159 HD
ATOM     80  H   UNL     1       5.987   8.295   4.313  1.00  0.00     0.159 HD
ATOM     81  H   UNL     1       7.489   8.651   3.552  1.00  0.00     0.159 HD
ENDBRANCH  73  74
ENDBRANCH  72  73
ENDBRANCH  71  72
ENDBRANCH  45  71
ENDBRANCH   3  45
TORSDOF 20
ENDMDL
MODEL 43
REMARK VINA RESULT:    -4.836     12.825     16.603
REMARK INTER + INTRA:         -20.004
REMARK INTER:                 -14.840
REMARK INTRA:                  -5.164
REMARK UNBOUND:                -6.121
REMARK SMILES CCCCCC(=O)N[C@H](CC(=O)O)C(=O)N[C@H]1C(=O)N[C@H](CCCN=C(N)N)C(=O)N[C@@H]2CC[C@H](O)N(C2=O)[C@@H](CC(C)C)C(=O)N(C)[C@@H](Cc2ccccc2)C(=O)N[C@H](C(C)C)C(=O)O[C@@H]1C
REMARK SMILES IDX 30 1 31 2 29 3 32 5 35 6 37 7 34 8 38 9 33 10 39 11 36 12
REMARK SMILES IDX 40 14 41 15 42 16 43 17 44 18 45 19 46 20 47 21 48 22 49 23
REMARK SMILES IDX 50 24 51 25 52 26 56 27 53 28 55 29 54 30 57 31 58 32 59 33
REMARK SMILES IDX 60 35 61 36 62 37 63 38 64 39 65 40 66 41 67 42 68 43 21 45
REMARK SMILES IDX 20 46 18 47 19 48 17 50 16 52 14 53 15 54 9 56 8 57 6 58
REMARK SMILES IDX 7 59 5 61 4 62 3 63 2 64 1 65 10 66 11 67 12 68 13 69 22 71
REMARK SMILES IDX 23 72 24 73 25 74 26 75 27 76 28 77
REMARK H PARENT 31 4 36 13 59 34 20 49 16 55 8 60 13 70 27 78 27 79 28 80
REMARK H PARENT 28 81
REMARK Flexibility Score:  259.900
ROOT
ATOM      1  O   UNL     1      -2.555   7.042   9.974  1.00  0.00    -0.273 OA
ATOM      2  N   UNL     1      -1.966   8.249   8.123  1.00  0.00    -0.343 N 
ATOM      3  C   UNL     1      -2.771   7.984   9.210  1.00  0.00     0.243 C 
ATOM      4  H   UNL     1      -2.165   9.041   7.524  1.00  0.00     0.164 HD
ENDROOT
BRANCH   2   5
ATOM      5  C   UNL     1      -0.881   7.343   7.763  1.00  0.00     0.171 C 
ATOM      6  C   UNL     1       1.384   7.603   5.972  1.00  0.00     0.214 C 
ATOM      7  N   UNL     1       0.142   7.061   5.473  1.00  0.00    -0.303 N 
ATOM      8  C   UNL     1       1.614   7.319   7.448  1.00  0.00     0.057 C 
ATOM      9  C   UNL     1      -0.993   6.956   6.261  1.00  0.00     0.247 C 
ATOM     10  C   UNL     1       0.463   7.871   8.262  1.00  0.00     0.040 C 
ATOM     11  O   UNL     1      -2.077   6.572   5.802  1.00  0.00    -0.272 OA
BRANCH   6  12
ATOM     12  O   UNL     1       1.374   8.991   5.734  1.00  0.00    -0.373 OA
ATOM     13  H   UNL     1       1.174   9.118   4.782  1.00  0.00     0.213 HD
ENDBRANCH   6  12
BRANCH   7  14
ATOM     14  C   UNL     1       0.079   6.751   4.029  1.00  0.00     0.177 C 
BRANCH  14  15
ATOM     15  C   UNL     1       0.231   7.964   3.090  1.00  0.00     0.038 C 
BRANCH  15  16
ATOM     16  C   UNL     1       1.562   8.181   2.337  1.00  0.00    -0.015 C 
ATOM     17  C   UNL     1       2.172   9.558   2.615  1.00  0.00     0.007 C 
ATOM     18  C   UNL     1       1.330   8.054   0.826  1.00  0.00     0.007 C 
ENDBRANCH  15  16
ENDBRANCH  14  15
BRANCH  14  19
ATOM     19  C   UNL     1       0.646   5.316   3.755  1.00  0.00     0.245 C 
ATOM     20  O   UNL     1       0.511   4.478   4.663  1.00  0.00    -0.272 OA
BRANCH  19  21
ATOM     21  N   UNL     1       1.373   4.975   2.628  1.00  0.00    -0.332 N 
ATOM     22  C   UNL     1       0.808   4.597   1.344  1.00  0.00     0.147 C 
BRANCH  21  23
ATOM     23  C   UNL     1       2.858   4.983   2.728  1.00  0.00     0.178 C 
BRANCH  23  24
ATOM     24  C   UNL     1       3.410   5.398   4.108  1.00  0.00     0.070 C 
BRANCH  24  25
ATOM     25  C   UNL     1       4.491   6.453   4.127  1.00  0.00    -0.045 A 
ATOM     26  C   UNL     1       5.044   6.892   5.338  1.00  0.00     0.004 A 
ATOM     27  C   UNL     1       4.954   7.014   2.928  1.00  0.00     0.004 A 
ATOM     28  C   UNL     1       6.030   7.880   5.348  1.00  0.00     0.000 A 
ATOM     29  C   UNL     1       5.941   8.001   2.940  1.00  0.00     0.000 A 
ATOM     30  C   UNL     1       6.477   8.435   4.151  1.00  0.00     0.000 A 
ENDBRANCH  24  25
ENDBRANCH  23  24
BRANCH  23  31
ATOM     31  C   UNL     1       3.511   3.719   2.119  1.00  0.00     0.243 C 
ATOM     32  O   UNL     1       3.706   2.679   2.743  1.00  0.00    -0.273 OA
ATOM     33  N   UNL     1       4.030   3.921   0.852  1.00  0.00    -0.341 N 
ATOM     34  H   UNL     1       3.839   4.811   0.385  1.00  0.00     0.164 HD
BRANCH  33  35
ATOM     35  C   UNL     1       4.796   2.901   0.130  1.00  0.00     0.194 C 
BRANCH  35  36
ATOM     36  C   UNL     1       4.270   1.451   0.332  1.00  0.00     0.017 C 
ATOM     37  C   UNL     1       5.301   0.412  -0.141  1.00  0.00     0.010 C 
ATOM     38  C   UNL     1       2.961   1.173  -0.416  1.00  0.00     0.010 C 
ENDBRANCH  35  36
BRANCH  35  39
ATOM     39  C   UNL     1       6.325   3.005   0.391  1.00  0.00     0.329 C 
ATOM     40  O   UNL     1       6.850   2.809   1.481  1.00  0.00    -0.250 OA
BRANCH  39  41
ATOM     41  O   UNL     1       7.031   3.255  -0.753  1.00  0.00    -0.458 OA
BRANCH  41  42
ATOM     42  C   UNL     1       8.192   2.422  -0.985  1.00  0.00     0.205 CG0
ATOM     43  C   UNL     1       8.765   2.810  -2.346  1.00  0.00     0.056 C 
ATOM     44  G   UNL     1       7.755   0.944  -0.929  1.00  0.00     0.000 G0
ENDBRANCH  41  42
ENDBRANCH  39  41
ENDBRANCH  35  39
ENDBRANCH  33  35
ENDBRANCH  23  31
ENDBRANCH  21  23
ENDBRANCH  19  21
ENDBRANCH  14  19
ENDBRANCH   7  14
ENDBRANCH   2   5
BRANCH   3  45
ATOM     45  C   UNL     1      -3.941   8.954   9.414  1.00  0.00     0.171 C 
BRANCH  45  46
ATOM     46  N   UNL     1      -5.086   8.124   9.764  1.00  0.00    -0.342 N 
ATOM     47  C   UNL     1      -5.782   8.285  10.936  1.00  0.00     0.247 C 
ATOM     48  O   UNL     1      -5.538   9.187  11.739  1.00  0.00    -0.273 OA
ATOM     49  H   UNL     1      -5.357   7.401   9.100  1.00  0.00     0.164 HD
BRANCH  47  50
ATOM     50  C   UNL     1      -6.877   7.240  11.191  1.00  0.00     0.212 CG0
ATOM     51  G   UNL     1      -7.438   7.487  12.606  1.00  0.00     0.000 G0
BRANCH  50  52
ATOM     52  N   UNL     1      -7.864   7.444  10.135  1.00  0.00    -0.339 N 
ATOM     53  C   UNL     1      -8.905   6.580   9.896  1.00  0.00     0.243 C 
ATOM     54  O   UNL     1      -9.055   5.535  10.523  1.00  0.00    -0.273 OA
ATOM     55  H   UNL     1      -7.730   8.235   9.509  1.00  0.00     0.164 HD
BRANCH  53  56
ATOM     56  C   UNL     1      -9.767   6.958   8.674  1.00  0.00     0.182 C 
BRANCH  56  57
ATOM     57  N   UNL     1     -10.091   5.774   7.873  1.00  0.00    -0.344 N 
ATOM     58  C   UNL     1     -11.347   5.216   7.859  1.00  0.00     0.220 C 
ATOM     59  O   UNL     1     -12.261   5.622   8.568  1.00  0.00    -0.275 OA
ATOM     60  H   UNL     1      -9.395   5.470   7.197  1.00  0.00     0.164 HD
BRANCH  58  61
ATOM     61  C   UNL     1     -11.469   4.034   6.914  1.00  0.00     0.100 C 
BRANCH  61  62
ATOM     62  C   UNL     1     -11.221   2.682   7.583  1.00  0.00     0.010 C 
BRANCH  62  63
ATOM     63  C   UNL     1      -9.768   2.198   7.499  1.00  0.00     0.000 C 
BRANCH  63  64
ATOM     64  C   UNL     1      -9.562   0.992   6.584  1.00  0.00    -0.003 C 
ATOM     65  C   UNL     1     -10.397  -0.197   7.035  1.00  0.00     0.004 C 
ENDBRANCH  63  64
ENDBRANCH  62  63
ENDBRANCH  61  62
ENDBRANCH  58  61
ENDBRANCH  56  57
BRANCH  56  66
ATOM     66  C   UNL     1      -9.107   8.055   7.841  1.00  0.00     0.157 C 
BRANCH  66  67
ATOM     67  C   UNL     1      -9.100   7.700   6.382  1.00  0.00     0.305 C 
ATOM     68  O   UNL     1     -10.015   7.852   5.587  1.00  0.00    -0.252 OA
BRANCH  67  69
ATOM     69  O   UNL     1      -7.911   7.214   5.979  1.00  0.00    -0.481 OA
ATOM     70  H   UNL     1      -8.030   6.241   5.963  1.00  0.00     0.296 HD
ENDBRANCH  67  69
ENDBRANCH  66  67
ENDBRANCH  56  66
ENDBRANCH  53  56
ENDBRANCH  50  52
ENDBRANCH  47  50
ENDBRANCH  45  46
BRANCH  45  71
ATOM     71  C   UNL     1      -4.197   9.758   8.134  1.00  0.00     0.037 C 
BRANCH  71  72
ATOM     72  C   UNL     1      -5.467   9.302   7.412  1.00  0.00     0.026 C 
BRANCH  72  73
ATOM     73  C   UNL     1      -5.571   9.918   6.018  1.00  0.00     0.146 C 
BRANCH  73  74
ATOM     74  N   UNL     1      -5.415   8.845   5.042  1.00  0.00    -0.254 NA
ATOM     75  C   UNL     1      -4.254   8.667   4.527  1.00  0.00     0.185 C 
ATOM     76  N   UNL     1      -4.079   7.686   3.627  1.00  0.00    -0.370 N 
ATOM     77  N   UNL     1      -3.116   9.344   4.757  1.00  0.00    -0.370 N 
ATOM     78  H   UNL     1      -4.889   7.132   3.391  1.00  0.00     0.159 HD
ATOM     79  H   UNL     1      -3.243   7.581   3.079  1.00  0.00     0.159 HD
ATOM     80  H   UNL     1      -3.096  10.108   5.415  1.00  0.00     0.159 HD
ATOM     81  H   UNL     1      -2.234   9.039   4.378  1.00  0.00     0.159 HD
ENDBRANCH  73  74
ENDBRANCH  72  73
ENDBRANCH  71  72
ENDBRANCH  45  71
ENDBRANCH   3  45
TORSDOF 20
ENDMDL
MODEL 44
REMARK VINA RESULT:    -4.734     11.834     17.291
REMARK INTER + INTRA:         -19.710
REMARK INTER:                 -12.572
REMARK INTRA:                  -7.138
REMARK UNBOUND:                -6.121
REMARK SMILES CCCCCC(=O)N[C@H](CC(=O)O)C(=O)N[C@H]1C(=O)N[C@H](CCCN=C(N)N)C(=O)N[C@@H]2CC[C@H](O)N(C2=O)[C@@H](CC(C)C)C(=O)N(C)[C@@H](Cc2ccccc2)C(=O)N[C@H](C(C)C)C(=O)O[C@@H]1C
REMARK SMILES IDX 30 1 31 2 29 3 32 5 35 6 37 7 34 8 38 9 33 10 39 11 36 12
REMARK SMILES IDX 40 14 41 15 42 16 43 17 44 18 45 19 46 20 47 21 48 22 49 23
REMARK SMILES IDX 50 24 51 25 52 26 56 27 53 28 55 29 54 30 57 31 58 32 59 33
REMARK SMILES IDX 60 35 61 36 62 37 63 38 64 39 65 40 66 41 67 42 68 43 21 45
REMARK SMILES IDX 20 46 18 47 19 48 17 50 16 52 14 53 15 54 9 56 8 57 6 58
REMARK SMILES IDX 7 59 5 61 4 62 3 63 2 64 1 65 10 66 11 67 12 68 13 69 22 71
REMARK SMILES IDX 23 72 24 73 25 74 26 75 27 76 28 77
REMARK H PARENT 31 4 36 13 59 34 20 49 16 55 8 60 13 70 27 78 27 79 28 80
REMARK H PARENT 28 81
REMARK Flexibility Score:  259.900
ROOT
ATOM      1  O   UNL     1       3.014   4.740   2.894  1.00  0.00    -0.273 OA
ATOM      2  N   UNL     1       3.675   2.821   3.949  1.00  0.00    -0.343 N 
ATOM      3  C   UNL     1       3.317   4.152   3.933  1.00  0.00     0.243 C 
ATOM      4  H   UNL     1       3.903   2.366   4.825  1.00  0.00     0.164 HD
ENDROOT
BRANCH   2   5
ATOM      5  C   UNL     1       3.826   2.078   2.703  1.00  0.00     0.171 C 
ATOM      6  C   UNL     1       3.466   2.813  -0.078  1.00  0.00     0.214 C 
ATOM      7  N   UNL     1       2.355   2.259   0.659  1.00  0.00    -0.303 N 
ATOM      8  C   UNL     1       4.818   2.311   0.404  1.00  0.00     0.057 C 
ATOM      9  C   UNL     1       2.444   1.934   2.003  1.00  0.00     0.247 C 
ATOM     10  C   UNL     1       4.986   2.626   1.875  1.00  0.00     0.040 C 
ATOM     11  O   UNL     1       1.463   1.542   2.650  1.00  0.00    -0.272 OA
BRANCH   6  12
ATOM     12  O   UNL     1       3.395   4.216   0.026  1.00  0.00    -0.373 OA
ATOM     13  H   UNL     1       3.625   4.447   0.951  1.00  0.00     0.213 HD
ENDBRANCH   6  12
BRANCH   7  14
ATOM     14  C   UNL     1       1.055   2.185  -0.041  1.00  0.00     0.177 C 
BRANCH  14  15
ATOM     15  C   UNL     1       0.662   3.450  -0.829  1.00  0.00     0.038 C 
BRANCH  15  16
ATOM     16  C   UNL     1      -0.352   4.442  -0.219  1.00  0.00    -0.015 C 
ATOM     17  C   UNL     1      -0.071   5.891  -0.630  1.00  0.00     0.007 C 
ATOM     18  C   UNL     1      -0.301   4.360   1.312  1.00  0.00     0.007 C 
ENDBRANCH  15  16
ENDBRANCH  14  15
BRANCH  14  19
ATOM     19  C   UNL     1       0.760   0.711  -0.486  1.00  0.00     0.245 C 
ATOM     20  O   UNL     1       1.681   0.105  -1.058  1.00  0.00    -0.272 OA
BRANCH  19  21
ATOM     21  N   UNL     1      -0.479   0.106  -0.377  1.00  0.00    -0.332 N 
ATOM     22  C   UNL     1      -1.037  -0.848  -1.318  1.00  0.00     0.147 C 
BRANCH  21  23
ATOM     23  C   UNL     1      -1.327   0.463   0.794  1.00  0.00     0.178 C 
BRANCH  23  24
ATOM     24  C   UNL     1      -2.797   0.784   0.453  1.00  0.00     0.070 C 
BRANCH  24  25
ATOM     25  C   UNL     1      -3.282   2.184   0.749  1.00  0.00    -0.045 A 
ATOM     26  C   UNL     1      -3.510   2.601   2.066  1.00  0.00     0.004 A 
ATOM     27  C   UNL     1      -3.517   3.087  -0.299  1.00  0.00     0.004 A 
ATOM     28  C   UNL     1      -3.975   3.891   2.330  1.00  0.00     0.000 A 
ATOM     29  C   UNL     1      -3.981   4.376  -0.034  1.00  0.00     0.000 A 
ATOM     30  C   UNL     1      -4.212   4.777   1.281  1.00  0.00     0.000 A 
ENDBRANCH  24  25
ENDBRANCH  23  24
BRANCH  23  31
ATOM     31  C   UNL     1      -1.131  -0.492   1.996  1.00  0.00     0.243 C 
ATOM     32  O   UNL     1      -1.076  -1.716   1.898  1.00  0.00    -0.273 OA
ATOM     33  N   UNL     1      -1.208   0.141   3.224  1.00  0.00    -0.341 N 
ATOM     34  H   UNL     1      -1.259   1.163   3.241  1.00  0.00     0.164 HD
BRANCH  33  35
ATOM     35  C   UNL     1      -1.169  -0.581   4.499  1.00  0.00     0.194 C 
BRANCH  35  36
ATOM     36  C   UNL     1      -2.547  -0.688   5.210  1.00  0.00     0.017 C 
ATOM     37  C   UNL     1      -2.700  -2.037   5.935  1.00  0.00     0.010 C 
ATOM     38  C   UNL     1      -3.735  -0.546   4.251  1.00  0.00     0.010 C 
ENDBRANCH  35  36
BRANCH  35  39
ATOM     39  C   UNL     1      -0.063  -0.050   5.453  1.00  0.00     0.329 C 
ATOM     40  O   UNL     1       0.843  -0.741   5.905  1.00  0.00    -0.250 OA
BRANCH  39  41
ATOM     41  O   UNL     1      -0.162   1.297   5.665  1.00  0.00    -0.458 OA
BRANCH  41  42
ATOM     42  C   UNL     1      -0.025   1.743   7.035  1.00  0.00     0.205 CG0
ATOM     43  C   UNL     1      -1.335   1.419   7.751  1.00  0.00     0.056 C 
ATOM     44  G   UNL     1       0.289   3.252   7.033  1.00  0.00     0.000 G0
ENDBRANCH  41  42
ENDBRANCH  39  41
ENDBRANCH  35  39
ENDBRANCH  33  35
ENDBRANCH  23  31
ENDBRANCH  21  23
ENDBRANCH  19  21
ENDBRANCH  14  19
ENDBRANCH   7  14
ENDBRANCH   2   5
BRANCH   3  45
ATOM     45  C   UNL     1       3.300   4.844   5.303  1.00  0.00     0.171 C 
BRANCH  45  46
ATOM     46  N   UNL     1       1.988   4.562   5.871  1.00  0.00    -0.342 N 
ATOM     47  C   UNL     1       1.738   3.446   6.628  1.00  0.00     0.247 C 
ATOM     48  O   UNL     1       2.616   2.642   6.944  1.00  0.00    -0.273 OA
ATOM     49  H   UNL     1       1.245   5.232   5.681  1.00  0.00     0.164 HD
BRANCH  47  50
ATOM     50  C   UNL     1       0.271   3.252   7.036  1.00  0.00     0.212 CG0
ATOM     51  G   UNL     1      -0.016   1.738   7.042  1.00  0.00     0.000 G0
BRANCH  50  52
ATOM     52  N   UNL     1       0.149   3.868   8.355  1.00  0.00    -0.339 N 
ATOM     53  C   UNL     1      -0.272   5.161   8.549  1.00  0.00     0.243 C 
ATOM     54  O   UNL     1      -0.528   5.921   7.618  1.00  0.00    -0.273 OA
ATOM     55  H   UNL     1       0.453   3.325   9.160  1.00  0.00     0.164 HD
BRANCH  53  56
ATOM     56  C   UNL     1      -0.238   5.617  10.021  1.00  0.00     0.182 C 
BRANCH  56  57
ATOM     57  N   UNL     1      -1.338   6.544  10.311  1.00  0.00    -0.344 N 
ATOM     58  C   UNL     1      -1.863   6.692  11.571  1.00  0.00     0.220 C 
ATOM     59  O   UNL     1      -1.501   6.011  12.525  1.00  0.00    -0.275 OA
ATOM     60  H   UNL     1      -1.596   7.196   9.575  1.00  0.00     0.164 HD
BRANCH  58  61
ATOM     61  C   UNL     1      -2.951   7.746  11.649  1.00  0.00     0.100 C 
BRANCH  61  62
ATOM     62  C   UNL     1      -2.420   9.179  11.680  1.00  0.00     0.010 C 
BRANCH  62  63
ATOM     63  C   UNL     1      -1.599   9.518  12.931  1.00  0.00     0.000 C 
BRANCH  63  64
ATOM     64  C   UNL     1      -0.303  10.273  12.644  1.00  0.00    -0.003 C 
ATOM     65  C   UNL     1       0.815   9.323  12.240  1.00  0.00     0.004 C 
ENDBRANCH  63  64
ENDBRANCH  62  63
ENDBRANCH  61  62
ENDBRANCH  58  61
ENDBRANCH  56  57
BRANCH  56  66
ATOM     66  C   UNL     1       1.122   6.203  10.395  1.00  0.00     0.157 C 
BRANCH  66  67
ATOM     67  C   UNL     1       2.211   5.177  10.262  1.00  0.00     0.305 C 
ATOM     68  O   UNL     1       2.344   4.160  10.926  1.00  0.00    -0.252 OA
BRANCH  67  69
ATOM     69  O   UNL     1       3.059   5.458   9.255  1.00  0.00    -0.481 OA
ATOM     70  H   UNL     1       3.953   5.320   9.634  1.00  0.00     0.296 HD
ENDBRANCH  67  69
ENDBRANCH  66  67
ENDBRANCH  56  66
ENDBRANCH  53  56
ENDBRANCH  50  52
ENDBRANCH  47  50
ENDBRANCH  45  46
BRANCH  45  71
ATOM     71  C   UNL     1       3.535   6.350   5.142  1.00  0.00     0.037 C 
BRANCH  71  72
ATOM     72  C   UNL     1       2.426   7.179   5.794  1.00  0.00     0.026 C 
BRANCH  72  73
ATOM     73  C   UNL     1       1.749   8.103   4.784  1.00  0.00     0.146 C 
BRANCH  73  74
ATOM     74  N   UNL     1       0.314   7.842   4.832  1.00  0.00    -0.254 NA
ATOM     75  C   UNL     1      -0.297   7.650   3.721  1.00  0.00     0.185 C 
ATOM     76  N   UNL     1      -1.618   7.406   3.733  1.00  0.00    -0.370 N 
ATOM     77  N   UNL     1       0.200   7.651   2.472  1.00  0.00    -0.370 N 
ATOM     78  H   UNL     1      -2.073   7.395   4.634  1.00  0.00     0.159 HD
ATOM     79  H   UNL     1      -2.185   7.390   2.904  1.00  0.00     0.159 HD
ATOM     80  H   UNL     1       1.181   7.817   2.310  1.00  0.00     0.159 HD
ATOM     81  H   UNL     1      -0.358   7.372   1.682  1.00  0.00     0.159 HD
ENDBRANCH  73  74
ENDBRANCH  72  73
ENDBRANCH  71  72
ENDBRANCH  45  71
ENDBRANCH   3  45
TORSDOF 20
ENDMDL
MODEL 45
REMARK VINA RESULT:    -4.700     11.009     16.760
REMARK INTER + INTRA:         -19.614
REMARK INTER:                 -14.625
REMARK INTRA:                  -4.989
REMARK UNBOUND:                -6.121
REMARK SMILES CCCCCC(=O)N[C@H](CC(=O)O)C(=O)N[C@H]1C(=O)N[C@H](CCCN=C(N)N)C(=O)N[C@@H]2CC[C@H](O)N(C2=O)[C@@H](CC(C)C)C(=O)N(C)[C@@H](Cc2ccccc2)C(=O)N[C@H](C(C)C)C(=O)O[C@@H]1C
REMARK SMILES IDX 30 1 31 2 29 3 32 5 35 6 37 7 34 8 38 9 33 10 39 11 36 12
REMARK SMILES IDX 40 14 41 15 42 16 43 17 44 18 45 19 46 20 47 21 48 22 49 23
REMARK SMILES IDX 50 24 51 25 52 26 56 27 53 28 55 29 54 30 57 31 58 32 59 33
REMARK SMILES IDX 60 35 61 36 62 37 63 38 64 39 65 40 66 41 67 42 68 43 21 45
REMARK SMILES IDX 20 46 18 47 19 48 17 50 16 52 14 53 15 54 9 56 8 57 6 58
REMARK SMILES IDX 7 59 5 61 4 62 3 63 2 64 1 65 10 66 11 67 12 68 13 69 22 71
REMARK SMILES IDX 23 72 24 73 25 74 26 75 27 76 28 77
REMARK H PARENT 31 4 36 13 59 34 20 49 16 55 8 60 13 70 27 78 27 79 28 80
REMARK H PARENT 28 81
REMARK Flexibility Score:  259.900
ROOT
ATOM      1  O   UNL     1       4.326   5.056   2.146  1.00  0.00    -0.273 OA
ATOM      2  N   UNL     1       2.308   5.511   1.171  1.00  0.00    -0.343 N 
ATOM      3  C   UNL     1       3.416   4.720   1.387  1.00  0.00     0.243 C 
ATOM      4  H   UNL     1       1.572   5.196   0.551  1.00  0.00     0.164 HD
ENDROOT
BRANCH   2   5
ATOM      5  C   UNL     1       2.224   6.847   1.750  1.00  0.00     0.171 C 
ATOM      6  C   UNL     1       3.915   8.290   3.611  1.00  0.00     0.214 C 
ATOM      7  N   UNL     1       2.818   7.497   4.116  1.00  0.00    -0.303 N 
ATOM      8  C   UNL     1       3.659   8.857   2.224  1.00  0.00     0.057 C 
ATOM      9  C   UNL     1       2.004   6.743   3.286  1.00  0.00     0.247 C 
ATOM     10  C   UNL     1       3.368   7.731   1.256  1.00  0.00     0.040 C 
ATOM     11  O   UNL     1       1.121   5.999   3.733  1.00  0.00    -0.272 OA
BRANCH   6  12
ATOM     12  O   UNL     1       5.066   7.479   3.607  1.00  0.00    -0.373 OA
ATOM     13  H   UNL     1       4.761   6.546   3.596  1.00  0.00     0.213 HD
ENDBRANCH   6  12
BRANCH   7  14
ATOM     14  C   UNL     1       2.681   7.399   5.585  1.00  0.00     0.177 C 
BRANCH  14  15
ATOM     15  C   UNL     1       4.007   7.275   6.360  1.00  0.00     0.038 C 
BRANCH  15  16
ATOM     16  C   UNL     1       4.234   6.061   7.288  1.00  0.00    -0.015 C 
ATOM     17  C   UNL     1       3.590   6.249   8.665  1.00  0.00     0.007 C 
ATOM     18  C   UNL     1       5.738   5.836   7.489  1.00  0.00     0.007 C 
ENDBRANCH  15  16
ENDBRANCH  14  15
BRANCH  14  19
ATOM     19  C   UNL     1       1.420   8.195   6.067  1.00  0.00     0.245 C 
ATOM     20  O   UNL     1       1.585   9.398   6.332  1.00  0.00    -0.272 OA
BRANCH  19  21
ATOM     21  N   UNL     1       0.189   7.613   6.314  1.00  0.00    -0.332 N 
ATOM     22  C   UNL     1      -1.055   7.959   5.650  1.00  0.00     0.147 C 
BRANCH  21  23
ATOM     23  C   UNL     1       0.119   6.550   7.354  1.00  0.00     0.178 C 
BRANCH  23  24
ATOM     24  C   UNL     1      -0.774   6.889   8.565  1.00  0.00     0.070 C 
BRANCH  24  25
ATOM     25  C   UNL     1      -0.147   7.696   9.678  1.00  0.00    -0.045 A 
ATOM     26  C   UNL     1       0.755   7.105  10.572  1.00  0.00     0.004 A 
ATOM     27  C   UNL     1      -0.466   9.053   9.835  1.00  0.00     0.004 A 
ATOM     28  C   UNL     1       1.317   7.853  11.609  1.00  0.00     0.000 A 
ATOM     29  C   UNL     1       0.097   9.800  10.871  1.00  0.00     0.000 A 
ATOM     30  C   UNL     1       0.986   9.198  11.759  1.00  0.00     0.000 A 
ENDBRANCH  24  25
ENDBRANCH  23  24
BRANCH  23  31
ATOM     31  C   UNL     1      -0.098   5.138   6.760  1.00  0.00     0.243 C 
ATOM     32  O   UNL     1      -1.203   4.632   6.577  1.00  0.00    -0.273 OA
ATOM     33  N   UNL     1       1.072   4.410   6.621  1.00  0.00    -0.341 N 
ATOM     34  H   UNL     1       1.961   4.884   6.794  1.00  0.00     0.164 HD
BRANCH  33  35
ATOM     35  C   UNL     1       1.095   3.010   6.191  1.00  0.00     0.194 C 
BRANCH  35  36
ATOM     36  C   UNL     1       1.754   2.042   7.213  1.00  0.00     0.017 C 
ATOM     37  C   UNL     1       1.129   2.194   8.611  1.00  0.00     0.010 C 
ATOM     38  C   UNL     1       3.265   2.256   7.361  1.00  0.00     0.010 C 
ENDBRANCH  35  36
BRANCH  35  39
ATOM     39  C   UNL     1       1.682   2.833   4.762  1.00  0.00     0.329 C 
ATOM     40  O   UNL     1       2.726   3.350   4.381  1.00  0.00    -0.250 OA
BRANCH  39  41
ATOM     41  O   UNL     1       0.949   1.964   4.002  1.00  0.00    -0.458 OA
BRANCH  41  42
ATOM     42  C   UNL     1      -0.038   2.556   3.124  1.00  0.00     0.205 CG0
ATOM     43  C   UNL     1      -1.404   2.354   3.776  1.00  0.00     0.056 C 
ATOM     44  G   UNL     1       0.063   1.878   1.743  1.00  0.00     0.000 G0
ENDBRANCH  41  42
ENDBRANCH  39  41
ENDBRANCH  35  39
ENDBRANCH  33  35
ENDBRANCH  23  31
ENDBRANCH  21  23
ENDBRANCH  19  21
ENDBRANCH  14  19
ENDBRANCH   7  14
ENDBRANCH   2   5
BRANCH   3  45
ATOM     45  C   UNL     1       3.428   3.384   0.632  1.00  0.00     0.171 C 
BRANCH  45  46
ATOM     46  N   UNL     1       2.379   2.578   1.243  1.00  0.00    -0.342 N 
ATOM     47  C   UNL     1       1.057   2.706   0.897  1.00  0.00     0.247 C 
ATOM     48  O   UNL     1       0.671   3.454  -0.002  1.00  0.00    -0.273 OA
ATOM     49  H   UNL     1       2.662   1.905   1.952  1.00  0.00     0.164 HD
BRANCH  47  50
ATOM     50  C   UNL     1       0.082   1.865   1.732  1.00  0.00     0.212 CG0
ATOM     51  G   UNL     1      -0.047   2.535   3.115  1.00  0.00     0.000 G0
BRANCH  50  52
ATOM     52  N   UNL     1      -1.168   1.853   0.978  1.00  0.00    -0.339 N 
ATOM     53  C   UNL     1      -1.974   0.746   0.866  1.00  0.00     0.243 C 
ATOM     54  O   UNL     1      -1.674  -0.342   1.352  1.00  0.00    -0.273 OA
ATOM     55  H   UNL     1      -1.416   2.694   0.460  1.00  0.00     0.164 HD
BRANCH  53  56
ATOM     56  C   UNL     1      -3.196   0.949  -0.051  1.00  0.00     0.182 C 
BRANCH  56  57
ATOM     57  N   UNL     1      -2.844   0.717  -1.456  1.00  0.00    -0.344 N 
ATOM     58  C   UNL     1      -2.888  -0.530  -2.030  1.00  0.00     0.220 C 
ATOM     59  O   UNL     1      -3.151  -1.544  -1.393  1.00  0.00    -0.275 OA
ATOM     60  H   UNL     1      -2.720   1.539  -2.041  1.00  0.00     0.164 HD
BRANCH  58  61
ATOM     61  C   UNL     1      -2.540  -0.525  -3.507  1.00  0.00     0.100 C 
BRANCH  61  62
ATOM     62  C   UNL     1      -1.621  -1.672  -3.928  1.00  0.00     0.010 C 
BRANCH  62  63
ATOM     63  C   UNL     1      -0.201  -1.580  -3.355  1.00  0.00     0.000 C 
BRANCH  63  64
ATOM     64  C   UNL     1       0.318  -0.153  -3.193  1.00  0.00    -0.003 C 
ATOM     65  C   UNL     1       0.806   0.103  -1.774  1.00  0.00     0.004 C 
ENDBRANCH  63  64
ENDBRANCH  62  63
ENDBRANCH  61  62
ENDBRANCH  58  61
ENDBRANCH  56  57
BRANCH  56  66
ATOM     66  C   UNL     1      -3.837   2.319   0.164  1.00  0.00     0.157 C 
BRANCH  66  67
ATOM     67  C   UNL     1      -5.096   2.208   0.975  1.00  0.00     0.305 C 
ATOM     68  O   UNL     1      -5.183   1.915   2.157  1.00  0.00    -0.252 OA
BRANCH  67  69
ATOM     69  O   UNL     1      -6.193   2.527   0.262  1.00  0.00    -0.481 OA
ATOM     70  H   UNL     1      -6.947   2.273   0.835  1.00  0.00     0.296 HD
ENDBRANCH  67  69
ENDBRANCH  66  67
ENDBRANCH  56  66
ENDBRANCH  53  56
ENDBRANCH  50  52
ENDBRANCH  47  50
ENDBRANCH  45  46
BRANCH  45  71
ATOM     71  C   UNL     1       4.800   2.713   0.756  1.00  0.00     0.037 C 
BRANCH  71  72
ATOM     72  C   UNL     1       5.904   3.531   0.081  1.00  0.00     0.026 C 
BRANCH  72  73
ATOM     73  C   UNL     1       6.892   2.634  -0.662  1.00  0.00     0.146 C 
BRANCH  73  74
ATOM     74  N   UNL     1       7.686   3.480  -1.547  1.00  0.00    -0.254 NA
ATOM     75  C   UNL     1       8.929   3.198  -1.690  1.00  0.00     0.185 C 
ATOM     76  N   UNL     1       9.685   3.957  -2.498  1.00  0.00    -0.370 N 
ATOM     77  N   UNL     1       9.640   2.205  -1.128  1.00  0.00    -0.370 N 
ATOM     78  H   UNL     1       9.229   4.733  -2.957  1.00  0.00     0.159 HD
ATOM     79  H   UNL     1      10.686   3.887  -2.547  1.00  0.00     0.159 HD
ATOM     80  H   UNL     1       9.200   1.551  -0.498  1.00  0.00     0.159 HD
ATOM     81  H   UNL     1      10.588   2.011  -1.405  1.00  0.00     0.159 HD
ENDBRANCH  73  74
ENDBRANCH  72  73
ENDBRANCH  71  72
ENDBRANCH  45  71
ENDBRANCH   3  45
TORSDOF 20
ENDMDL
MODEL 46
REMARK VINA RESULT:    -4.663     11.296     16.810
REMARK INTER + INTRA:         -19.507
REMARK INTER:                 -13.453
REMARK INTRA:                  -6.054
REMARK UNBOUND:                -6.121
REMARK SMILES CCCCCC(=O)N[C@H](CC(=O)O)C(=O)N[C@H]1C(=O)N[C@H](CCCN=C(N)N)C(=O)N[C@@H]2CC[C@H](O)N(C2=O)[C@@H](CC(C)C)C(=O)N(C)[C@@H](Cc2ccccc2)C(=O)N[C@H](C(C)C)C(=O)O[C@@H]1C
REMARK SMILES IDX 30 1 31 2 29 3 32 5 35 6 37 7 34 8 38 9 33 10 39 11 36 12
REMARK SMILES IDX 40 14 41 15 42 16 43 17 44 18 45 19 46 20 47 21 48 22 49 23
REMARK SMILES IDX 50 24 51 25 52 26 56 27 53 28 55 29 54 30 57 31 58 32 59 33
REMARK SMILES IDX 60 35 61 36 62 37 63 38 64 39 65 40 66 41 67 42 68 43 21 45
REMARK SMILES IDX 20 46 18 47 19 48 17 50 16 52 14 53 15 54 9 56 8 57 6 58
REMARK SMILES IDX 7 59 5 61 4 62 3 63 2 64 1 65 10 66 11 67 12 68 13 69 22 71
REMARK SMILES IDX 23 72 24 73 25 74 26 75 27 76 28 77
REMARK H PARENT 31 4 36 13 59 34 20 49 16 55 8 60 13 70 27 78 27 79 28 80
REMARK H PARENT 28 81
REMARK Flexibility Score:  259.900
ROOT
ATOM      1  O   UNL     1      -0.408   6.881   2.051  1.00  0.00    -0.273 OA
ATOM      2  N   UNL     1       1.462   5.690   1.490  1.00  0.00    -0.343 N 
ATOM      3  C   UNL     1       0.705   6.452   2.354  1.00  0.00     0.243 C 
ATOM      4  H   UNL     1       2.368   5.342   1.780  1.00  0.00     0.164 HD
ENDROOT
BRANCH   2   5
ATOM      5  C   UNL     1       1.018   5.458   0.120  1.00  0.00     0.171 C 
ATOM      6  C   UNL     1      -1.594   5.530  -1.136  1.00  0.00     0.214 C 
ATOM      7  N   UNL     1      -1.102   4.286  -0.592  1.00  0.00    -0.303 N 
ATOM      8  C   UNL     1      -0.489   6.449  -1.632  1.00  0.00     0.057 C 
ATOM      9  C   UNL     1       0.114   4.193   0.066  1.00  0.00     0.247 C 
ATOM     10  C   UNL     1       0.477   6.743  -0.505  1.00  0.00     0.040 C 
ATOM     11  O   UNL     1       0.490   3.144   0.605  1.00  0.00    -0.272 OA
BRANCH   6  12
ATOM     12  O   UNL     1      -2.352   6.167  -0.134  1.00  0.00    -0.373 OA
ATOM     13  H   UNL     1      -3.190   6.461  -0.551  1.00  0.00     0.213 HD
ENDBRANCH   6  12
BRANCH   7  14
ATOM     14  C   UNL     1      -2.018   3.127  -0.633  1.00  0.00     0.177 C 
BRANCH  14  15
ATOM     15  C   UNL     1      -3.485   3.437  -0.275  1.00  0.00     0.038 C 
BRANCH  15  16
ATOM     16  C   UNL     1      -3.984   3.192   1.166  1.00  0.00    -0.015 C 
ATOM     17  C   UNL     1      -4.554   1.783   1.356  1.00  0.00     0.007 C 
ATOM     18  C   UNL     1      -5.083   4.205   1.513  1.00  0.00     0.007 C 
ENDBRANCH  15  16
ENDBRANCH  14  15
BRANCH  14  19
ATOM     19  C   UNL     1      -1.547   2.100  -1.719  1.00  0.00     0.245 C 
ATOM     20  O   UNL     1      -1.709   2.428  -2.906  1.00  0.00    -0.272 OA
BRANCH  19  21
ATOM     21  N   UNL     1      -1.077   0.831  -1.429  1.00  0.00    -0.332 N 
ATOM     22  C   UNL     1       0.128   0.234  -1.975  1.00  0.00     0.147 C 
BRANCH  21  23
ATOM     23  C   UNL     1      -1.871  -0.007  -0.488  1.00  0.00     0.178 C 
BRANCH  23  24
ATOM     24  C   UNL     1      -2.738  -1.090  -1.162  1.00  0.00     0.070 C 
BRANCH  24  25
ATOM     25  C   UNL     1      -3.727  -0.628  -2.207  1.00  0.00    -0.045 A 
ATOM     26  C   UNL     1      -3.469  -0.815  -3.571  1.00  0.00     0.004 A 
ATOM     27  C   UNL     1      -4.920   0.002  -1.823  1.00  0.00     0.004 A 
ATOM     28  C   UNL     1      -4.380  -0.370  -4.531  1.00  0.00     0.000 A 
ATOM     29  C   UNL     1      -5.830   0.445  -2.783  1.00  0.00     0.000 A 
ATOM     30  C   UNL     1      -5.558   0.261  -4.137  1.00  0.00     0.000 A 
ENDBRANCH  24  25
ENDBRANCH  23  24
BRANCH  23  31
ATOM     31  C   UNL     1      -1.047  -0.495   0.728  1.00  0.00     0.243 C 
ATOM     32  O   UNL     1      -0.683  -1.657   0.889  1.00  0.00    -0.273 OA
ATOM     33  N   UNL     1      -0.911   0.459   1.722  1.00  0.00    -0.341 N 
ATOM     34  H   UNL     1      -1.240   1.409   1.532  1.00  0.00     0.164 HD
BRANCH  33  35
ATOM     35  C   UNL     1      -0.273   0.183   3.012  1.00  0.00     0.194 C 
BRANCH  35  36
ATOM     36  C   UNL     1      -1.260  -0.269   4.125  1.00  0.00     0.017 C 
ATOM     37  C   UNL     1      -1.002  -1.727   4.543  1.00  0.00     0.010 C 
ATOM     38  C   UNL     1      -2.732  -0.166   3.706  1.00  0.00     0.010 C 
ENDBRANCH  35  36
BRANCH  35  39
ATOM     39  C   UNL     1       0.644   1.345   3.487  1.00  0.00     0.329 C 
ATOM     40  O   UNL     1       1.723   1.620   2.976  1.00  0.00    -0.250 OA
BRANCH  39  41
ATOM     41  O   UNL     1       0.072   2.084   4.485  1.00  0.00    -0.458 OA
BRANCH  41  42
ATOM     42  C   UNL     1       0.912   2.378   5.627  1.00  0.00     0.205 CG0
ATOM     43  C   UNL     1       0.627   1.317   6.687  1.00  0.00     0.056 C 
ATOM     44  G   UNL     1       0.591   3.804   6.118  1.00  0.00     0.000 G0
ENDBRANCH  41  42
ENDBRANCH  39  41
ENDBRANCH  35  39
ENDBRANCH  33  35
ENDBRANCH  23  31
ENDBRANCH  21  23
ENDBRANCH  19  21
ENDBRANCH  14  19
ENDBRANCH   7  14
ENDBRANCH   2   5
BRANCH   3  45
ATOM     45  C   UNL     1       1.337   6.710   3.728  1.00  0.00     0.171 C 
BRANCH  45  46
ATOM     46  N   UNL     1       0.712   5.756   4.635  1.00  0.00    -0.342 N 
ATOM     47  C   UNL     1       1.432   4.806   5.315  1.00  0.00     0.247 C 
ATOM     48  O   UNL     1       2.661   4.737   5.266  1.00  0.00    -0.273 OA
ATOM     49  H   UNL     1      -0.298   5.815   4.749  1.00  0.00     0.164 HD
BRANCH  47  50
ATOM     50  C   UNL     1       0.591   3.810   6.126  1.00  0.00     0.212 CG0
ATOM     51  G   UNL     1       0.917   2.395   5.611  1.00  0.00     0.000 G0
BRANCH  50  52
ATOM     52  N   UNL     1       0.975   4.020   7.519  1.00  0.00    -0.339 N 
ATOM     53  C   UNL     1       0.575   5.107   8.258  1.00  0.00     0.243 C 
ATOM     54  O   UNL     1      -0.097   6.019   7.784  1.00  0.00    -0.273 OA
ATOM     55  H   UNL     1       1.623   3.355   7.936  1.00  0.00     0.164 HD
BRANCH  53  56
ATOM     56  C   UNL     1       1.176   5.156   9.678  1.00  0.00     0.182 C 
BRANCH  56  57
ATOM     57  N   UNL     1       1.099   6.510  10.235  1.00  0.00    -0.344 N 
ATOM     58  C   UNL     1       1.149   6.754  11.586  1.00  0.00     0.220 C 
ATOM     59  O   UNL     1       1.188   5.857  12.421  1.00  0.00    -0.275 OA
ATOM     60  H   UNL     1       1.169   7.283   9.579  1.00  0.00     0.164 HD
BRANCH  58  61
ATOM     61  C   UNL     1       1.112   8.231  11.932  1.00  0.00     0.100 C 
BRANCH  61  62
ATOM     62  C   UNL     1      -0.289   8.841  11.879  1.00  0.00     0.010 C 
BRANCH  62  63
ATOM     63  C   UNL     1      -1.424   7.815  11.976  1.00  0.00     0.000 C 
BRANCH  63  64
ATOM     64  C   UNL     1      -2.823   8.411  11.828  1.00  0.00    -0.003 C 
ATOM     65  C   UNL     1      -3.652   8.202  13.087  1.00  0.00     0.004 C 
ENDBRANCH  63  64
ENDBRANCH  62  63
ENDBRANCH  61  62
ENDBRANCH  58  61
ENDBRANCH  56  57
BRANCH  56  66
ATOM     66  C   UNL     1       2.600   4.603   9.702  1.00  0.00     0.157 C 
BRANCH  66  67
ATOM     67  C   UNL     1       3.497   5.367   8.772  1.00  0.00     0.305 C 
ATOM     68  O   UNL     1       3.777   6.555   8.834  1.00  0.00    -0.252 OA
BRANCH  67  69
ATOM     69  O   UNL     1       4.045   4.579   7.827  1.00  0.00    -0.481 OA
ATOM     70  H   UNL     1       3.323   4.421   7.183  1.00  0.00     0.296 HD
ENDBRANCH  67  69
ENDBRANCH  66  67
ENDBRANCH  56  66
ENDBRANCH  53  56
ENDBRANCH  50  52
ENDBRANCH  47  50
ENDBRANCH  45  46
BRANCH  45  71
ATOM     71  C   UNL     1       1.086   8.157   4.168  1.00  0.00     0.037 C 
BRANCH  71  72
ATOM     72  C   UNL     1       2.384   8.961   4.272  1.00  0.00     0.026 C 
BRANCH  72  73
ATOM     73  C   UNL     1       3.260   8.465   5.420  1.00  0.00     0.146 C 
BRANCH  73  74
ATOM     74  N   UNL     1       4.335   7.660   4.847  1.00  0.00    -0.254 NA
ATOM     75  C   UNL     1       5.340   7.384   5.593  1.00  0.00     0.185 C 
ATOM     76  N   UNL     1       6.343   6.644   5.095  1.00  0.00    -0.370 N 
ATOM     77  N   UNL     1       5.564   7.734   6.872  1.00  0.00    -0.370 N 
ATOM     78  H   UNL     1       6.257   6.344   4.134  1.00  0.00     0.159 HD
ATOM     79  H   UNL     1       7.220   6.511   5.567  1.00  0.00     0.159 HD
ATOM     80  H   UNL     1       4.891   8.289   7.378  1.00  0.00     0.159 HD
ATOM     81  H   UNL     1       6.340   7.360   7.393  1.00  0.00     0.159 HD
ENDBRANCH  73  74
ENDBRANCH  72  73
ENDBRANCH  71  72
ENDBRANCH  45  71
ENDBRANCH   3  45
TORSDOF 20
ENDMDL
MODEL 47
REMARK VINA RESULT:    -4.613     15.870     19.520
REMARK INTER + INTRA:         -19.365
REMARK INTER:                 -12.296
REMARK INTRA:                  -7.069
REMARK UNBOUND:                -6.121
REMARK SMILES CCCCCC(=O)N[C@H](CC(=O)O)C(=O)N[C@H]1C(=O)N[C@H](CCCN=C(N)N)C(=O)N[C@@H]2CC[C@H](O)N(C2=O)[C@@H](CC(C)C)C(=O)N(C)[C@@H](Cc2ccccc2)C(=O)N[C@H](C(C)C)C(=O)O[C@@H]1C
REMARK SMILES IDX 30 1 31 2 29 3 32 5 35 6 37 7 34 8 38 9 33 10 39 11 36 12
REMARK SMILES IDX 40 14 41 15 42 16 43 17 44 18 45 19 46 20 47 21 48 22 49 23
REMARK SMILES IDX 50 24 51 25 52 26 56 27 53 28 55 29 54 30 57 31 58 32 59 33
REMARK SMILES IDX 60 35 61 36 62 37 63 38 64 39 65 40 66 41 67 42 68 43 21 45
REMARK SMILES IDX 20 46 18 47 19 48 17 50 16 52 14 53 15 54 9 56 8 57 6 58
REMARK SMILES IDX 7 59 5 61 4 62 3 63 2 64 1 65 10 66 11 67 12 68 13 69 22 71
REMARK SMILES IDX 23 72 24 73 25 74 26 75 27 76 28 77
REMARK H PARENT 31 4 36 13 59 34 20 49 16 55 8 60 13 70 27 78 27 79 28 80
REMARK H PARENT 28 81
REMARK Flexibility Score:  259.900
ROOT
ATOM      1  O   UNL     1       4.977   1.504   5.262  1.00  0.00    -0.273 OA
ATOM      2  N   UNL     1       4.659   0.314   7.189  1.00  0.00    -0.343 N 
ATOM      3  C   UNL     1       4.396   1.367   6.339  1.00  0.00     0.243 C 
ATOM      4  H   UNL     1       4.151   0.225   8.060  1.00  0.00     0.164 HD
ENDROOT
BRANCH   2   5
ATOM      5  C   UNL     1       5.736  -0.625   6.896  1.00  0.00     0.171 C 
ATOM      6  C   UNL     1       6.509  -3.157   8.078  1.00  0.00     0.214 C 
ATOM      7  N   UNL     1       7.086  -1.933   8.581  1.00  0.00    -0.303 N 
ATOM      8  C   UNL     1       6.144  -3.089   6.603  1.00  0.00     0.057 C 
ATOM      9  C   UNL     1       6.723  -0.687   8.096  1.00  0.00     0.247 C 
ATOM     10  C   UNL     1       5.181  -1.947   6.365  1.00  0.00     0.040 C 
ATOM     11  O   UNL     1       7.158   0.362   8.591  1.00  0.00    -0.272 OA
BRANCH   6  12
ATOM     12  O   UNL     1       5.369  -3.446   8.854  1.00  0.00    -0.373 OA
ATOM     13  H   UNL     1       5.486  -4.353   9.210  1.00  0.00     0.213 HD
ENDBRANCH   6  12
BRANCH   7  14
ATOM     14  C   UNL     1       7.985  -2.046   9.749  1.00  0.00     0.177 C 
BRANCH  14  15
ATOM     15  C   UNL     1       7.299  -2.456  11.067  1.00  0.00     0.038 C 
BRANCH  15  16
ATOM     16  C   UNL     1       7.258  -1.458  12.246  1.00  0.00    -0.015 C 
ATOM     17  C   UNL     1       6.492  -0.177  11.900  1.00  0.00     0.007 C 
ATOM     18  C   UNL     1       8.687  -1.070  12.647  1.00  0.00     0.007 C 
ENDBRANCH  15  16
ENDBRANCH  14  15
BRANCH  14  19
ATOM     19  C   UNL     1       9.416  -2.497   9.293  1.00  0.00     0.245 C 
ATOM     20  O   UNL     1       9.845  -3.561   9.768  1.00  0.00    -0.272 OA
BRANCH  19  21
ATOM     21  N   UNL     1      10.248  -1.730   8.497  1.00  0.00    -0.332 N 
ATOM     22  C   UNL     1      10.672  -0.371   8.784  1.00  0.00     0.147 C 
BRANCH  21  23
ATOM     23  C   UNL     1      10.749  -2.333   7.231  1.00  0.00     0.178 C 
BRANCH  23  24
ATOM     24  C   UNL     1      10.605  -1.434   5.986  1.00  0.00     0.070 C 
BRANCH  24  25
ATOM     25  C   UNL     1      11.048  -2.013   4.663  1.00  0.00    -0.045 A 
ATOM     26  C   UNL     1      10.552  -3.245   4.217  1.00  0.00     0.004 A 
ATOM     27  C   UNL     1      11.971  -1.324   3.862  1.00  0.00     0.004 A 
ATOM     28  C   UNL     1      10.980  -3.782   3.001  1.00  0.00     0.000 A 
ATOM     29  C   UNL     1      12.397  -1.861   2.646  1.00  0.00     0.000 A 
ATOM     30  C   UNL     1      11.903  -3.092   2.218  1.00  0.00     0.000 A 
ENDBRANCH  24  25
ENDBRANCH  23  24
BRANCH  23  31
ATOM     31  C   UNL     1      12.132  -3.008   7.390  1.00  0.00     0.243 C 
ATOM     32  O   UNL     1      13.185  -2.392   7.530  1.00  0.00    -0.273 OA
ATOM     33  N   UNL     1      12.108  -4.376   7.174  1.00  0.00    -0.341 N 
ATOM     34  H   UNL     1      11.200  -4.833   7.057  1.00  0.00     0.164 HD
BRANCH  33  35
ATOM     35  C   UNL     1      13.318  -5.203   7.155  1.00  0.00     0.194 C 
BRANCH  35  36
ATOM     36  C   UNL     1      13.660  -5.797   5.760  1.00  0.00     0.017 C 
ATOM     37  C   UNL     1      14.172  -4.709   4.800  1.00  0.00     0.010 C 
ATOM     38  C   UNL     1      12.464  -6.479   5.084  1.00  0.00     0.010 C 
ENDBRANCH  35  36
BRANCH  35  39
ATOM     39  C   UNL     1      13.314  -6.292   8.264  1.00  0.00     0.329 C 
ATOM     40  O   UNL     1      12.477  -6.360   9.157  1.00  0.00    -0.250 OA
BRANCH  39  41
ATOM     41  O   UNL     1      14.301  -7.221   8.084  1.00  0.00    -0.458 OA
BRANCH  41  42
ATOM     42  C   UNL     1      14.846  -7.820   9.284  1.00  0.00     0.205 CG0
ATOM     43  C   UNL     1      15.844  -6.826   9.874  1.00  0.00     0.056 C 
ATOM     44  G   UNL     1      15.503  -9.163   8.909  1.00  0.00     0.000 G0
ENDBRANCH  41  42
ENDBRANCH  39  41
ENDBRANCH  35  39
ENDBRANCH  33  35
ENDBRANCH  23  31
ENDBRANCH  21  23
ENDBRANCH  19  21
ENDBRANCH  14  19
ENDBRANCH   7  14
ENDBRANCH   2   5
BRANCH   3  45
ATOM     45  C   UNL     1       3.313   2.343   6.817  1.00  0.00     0.171 C 
BRANCH  45  46
ATOM     46  N   UNL     1       2.988   3.168   5.661  1.00  0.00    -0.342 N 
ATOM     47  C   UNL     1       1.708   3.577   5.385  1.00  0.00     0.247 C 
ATOM     48  O   UNL     1       0.755   3.339   6.129  1.00  0.00    -0.273 OA
ATOM     49  H   UNL     1       3.757   3.435   5.049  1.00  0.00     0.164 HD
BRANCH  47  50
ATOM     50  C   UNL     1       1.538   4.333   4.060  1.00  0.00     0.212 CG0
ATOM     51  G   UNL     1       0.512   5.459   4.293  1.00  0.00     0.000 G0
BRANCH  50  52
ATOM     52  N   UNL     1       2.870   4.827   3.720  1.00  0.00    -0.339 N 
ATOM     53  C   UNL     1       3.239   6.145   3.836  1.00  0.00     0.243 C 
ATOM     54  O   UNL     1       2.457   7.023   4.186  1.00  0.00    -0.273 OA
ATOM     55  H   UNL     1       3.531   4.165   3.318  1.00  0.00     0.164 HD
BRANCH  53  56
ATOM     56  C   UNL     1       4.668   6.442   3.336  1.00  0.00     0.182 C 
BRANCH  56  57
ATOM     57  N   UNL     1       5.583   6.664   4.460  1.00  0.00    -0.344 N 
ATOM     58  C   UNL     1       6.053   5.636   5.240  1.00  0.00     0.220 C 
ATOM     59  O   UNL     1       5.686   4.475   5.100  1.00  0.00    -0.275 OA
ATOM     60  H   UNL     1       5.990   7.592   4.547  1.00  0.00     0.164 HD
BRANCH  58  61
ATOM     61  C   UNL     1       7.033   6.090   6.307  1.00  0.00     0.100 C 
BRANCH  61  62
ATOM     62  C   UNL     1       7.514   4.963   7.221  1.00  0.00     0.010 C 
BRANCH  62  63
ATOM     63  C   UNL     1       8.482   5.417   8.321  1.00  0.00     0.000 C 
BRANCH  63  64
ATOM     64  C   UNL     1       8.467   6.922   8.587  1.00  0.00    -0.003 C 
ATOM     65  C   UNL     1       7.352   7.304   9.550  1.00  0.00     0.004 C 
ENDBRANCH  63  64
ENDBRANCH  62  63
ENDBRANCH  61  62
ENDBRANCH  58  61
ENDBRANCH  56  57
BRANCH  56  66
ATOM     66  C   UNL     1       4.683   7.602   2.342  1.00  0.00     0.157 C 
BRANCH  66  67
ATOM     67  C   UNL     1       5.956   8.392   2.447  1.00  0.00     0.305 C 
ATOM     68  O   UNL     1       6.067   9.564   2.771  1.00  0.00    -0.252 OA
BRANCH  67  69
ATOM     69  O   UNL     1       7.045   7.643   2.187  1.00  0.00    -0.481 OA
ATOM     70  H   UNL     1       7.628   8.226   1.656  1.00  0.00     0.296 HD
ENDBRANCH  67  69
ENDBRANCH  66  67
ENDBRANCH  56  66
ENDBRANCH  53  56
ENDBRANCH  50  52
ENDBRANCH  47  50
ENDBRANCH  45  46
BRANCH  45  71
ATOM     71  C   UNL     1       3.835   3.187   7.986  1.00  0.00     0.037 C 
BRANCH  71  72
ATOM     72  C   UNL     1       2.731   3.522   8.992  1.00  0.00     0.026 C 
BRANCH  72  73
ATOM     73  C   UNL     1       2.715   5.010   9.333  1.00  0.00     0.146 C 
BRANCH  73  74
ATOM     74  N   UNL     1       1.688   5.646   8.513  1.00  0.00    -0.254 NA
ATOM     75  C   UNL     1       2.069   6.457   7.597  1.00  0.00     0.185 C 
ATOM     76  N   UNL     1       1.148   7.057   6.826  1.00  0.00    -0.370 N 
ATOM     77  N   UNL     1       3.318   6.828   7.263  1.00  0.00    -0.370 N 
ATOM     78  H   UNL     1       0.180   6.838   7.016  1.00  0.00     0.159 HD
ATOM     79  H   UNL     1       1.359   7.807   6.192  1.00  0.00     0.159 HD
ATOM     80  H   UNL     1       4.114   6.453   7.756  1.00  0.00     0.159 HD
ATOM     81  H   UNL     1       3.502   7.387   6.446  1.00  0.00     0.159 HD
ENDBRANCH  73  74
ENDBRANCH  72  73
ENDBRANCH  71  72
ENDBRANCH  45  71
ENDBRANCH   3  45
TORSDOF 20
ENDMDL
MODEL 48
REMARK VINA RESULT:    -4.611     11.568     18.300
REMARK INTER + INTRA:         -19.357
REMARK INTER:                 -12.291
REMARK INTRA:                  -7.066
REMARK UNBOUND:                -6.121
REMARK SMILES CCCCCC(=O)N[C@H](CC(=O)O)C(=O)N[C@H]1C(=O)N[C@H](CCCN=C(N)N)C(=O)N[C@@H]2CC[C@H](O)N(C2=O)[C@@H](CC(C)C)C(=O)N(C)[C@@H](Cc2ccccc2)C(=O)N[C@H](C(C)C)C(=O)O[C@@H]1C
REMARK SMILES IDX 30 1 31 2 29 3 32 5 35 6 37 7 34 8 38 9 33 10 39 11 36 12
REMARK SMILES IDX 40 14 41 15 42 16 43 17 44 18 45 19 46 20 47 21 48 22 49 23
REMARK SMILES IDX 50 24 51 25 52 26 56 27 53 28 55 29 54 30 57 31 58 32 59 33
REMARK SMILES IDX 60 35 61 36 62 37 63 38 64 39 65 40 66 41 67 42 68 43 21 45
REMARK SMILES IDX 20 46 18 47 19 48 17 50 16 52 14 53 15 54 9 56 8 57 6 58
REMARK SMILES IDX 7 59 5 61 4 62 3 63 2 64 1 65 10 66 11 67 12 68 13 69 22 71
REMARK SMILES IDX 23 72 24 73 25 74 26 75 27 76 28 77
REMARK H PARENT 31 4 36 13 59 34 20 49 16 55 8 60 13 70 27 78 27 79 28 80
REMARK H PARENT 28 81
REMARK Flexibility Score:  259.900
ROOT
ATOM      1  O   UNL     1       1.414   6.386   3.334  1.00  0.00    -0.273 OA
ATOM      2  N   UNL     1      -0.375   7.747   2.912  1.00  0.00    -0.343 N 
ATOM      3  C   UNL     1       0.442   6.672   2.634  1.00  0.00     0.243 C 
ATOM      4  H   UNL     1      -1.175   7.943   2.323  1.00  0.00     0.164 HD
ENDROOT
BRANCH   2   5
ATOM      5  C   UNL     1      -0.046   8.670   3.993  1.00  0.00     0.171 C 
ATOM      6  C   UNL     1       1.910   8.574   6.130  1.00  0.00     0.214 C 
ATOM      7  N   UNL     1       0.584   8.049   6.357  1.00  0.00    -0.303 N 
ATOM      8  C   UNL     1       1.943   9.713   5.124  1.00  0.00     0.057 C 
ATOM      9  C   UNL     1      -0.382   8.018   5.364  1.00  0.00     0.247 C 
ATOM     10  C   UNL     1       1.355   9.252   3.808  1.00  0.00     0.040 C 
ATOM     11  O   UNL     1      -1.487   7.488   5.541  1.00  0.00    -0.272 OA
BRANCH   6  12
ATOM     12  O   UNL     1       2.725   7.510   5.696  1.00  0.00    -0.373 OA
ATOM     13  H   UNL     1       3.281   7.854   4.964  1.00  0.00     0.213 HD
ENDBRANCH   6  12
BRANCH   7  14
ATOM     14  C   UNL     1       0.333   7.404   7.663  1.00  0.00     0.177 C 
BRANCH  14  15
ATOM     15  C   UNL     1       1.308   6.269   8.032  1.00  0.00     0.038 C 
BRANCH  15  16
ATOM     16  C   UNL     1       2.379   6.509   9.119  1.00  0.00    -0.015 C 
ATOM     17  C   UNL     1       3.719   5.852   8.775  1.00  0.00     0.007 C 
ATOM     18  C   UNL     1       1.894   5.940  10.459  1.00  0.00     0.007 C 
ENDBRANCH  15  16
ENDBRANCH  14  15
BRANCH  14  19
ATOM     19  C   UNL     1      -0.281   8.436   8.671  1.00  0.00     0.245 C 
ATOM     20  O   UNL     1       0.437   9.397   8.993  1.00  0.00    -0.272 OA
BRANCH  19  21
ATOM     21  N   UNL     1      -1.507   8.273   9.290  1.00  0.00    -0.332 N 
ATOM     22  C   UNL     1      -2.358   9.347   9.772  1.00  0.00     0.147 C 
BRANCH  21  23
ATOM     23  C   UNL     1      -2.004   6.884   9.497  1.00  0.00     0.178 C 
BRANCH  23  24
ATOM     24  C   UNL     1      -1.978   6.400  10.961  1.00  0.00     0.070 C 
BRANCH  24  25
ATOM     25  C   UNL     1      -2.239   4.932  11.206  1.00  0.00    -0.045 A 
ATOM     26  C   UNL     1      -1.276   3.968  10.880  1.00  0.00     0.004 A 
ATOM     27  C   UNL     1      -3.457   4.513  11.760  1.00  0.00     0.004 A 
ATOM     28  C   UNL     1      -1.531   2.612  11.094  1.00  0.00     0.000 A 
ATOM     29  C   UNL     1      -3.711   3.157  11.973  1.00  0.00     0.000 A 
ATOM     30  C   UNL     1      -2.748   2.207  11.637  1.00  0.00     0.000 A 
ENDBRANCH  24  25
ENDBRANCH  23  24
BRANCH  23  31
ATOM     31  C   UNL     1      -3.321   6.595   8.738  1.00  0.00     0.243 C 
ATOM     32  O   UNL     1      -4.426   6.988   9.105  1.00  0.00    -0.273 OA
ATOM     33  N   UNL     1      -3.174   5.691   7.700  1.00  0.00    -0.341 N 
ATOM     34  H   UNL     1      -2.229   5.395   7.444  1.00  0.00     0.164 HD
BRANCH  33  35
ATOM     35  C   UNL     1      -4.305   5.179   6.920  1.00  0.00     0.194 C 
BRANCH  35  36
ATOM     36  C   UNL     1      -4.798   3.773   7.364  1.00  0.00     0.017 C 
ATOM     37  C   UNL     1      -5.988   3.878   8.333  1.00  0.00     0.010 C 
ATOM     38  C   UNL     1      -3.712   2.944   8.060  1.00  0.00     0.010 C 
ENDBRANCH  35  36
BRANCH  35  39
ATOM     39  C   UNL     1      -4.055   5.249   5.388  1.00  0.00     0.329 C 
ATOM     40  O   UNL     1      -4.461   6.153   4.667  1.00  0.00    -0.250 OA
BRANCH  39  41
ATOM     41  O   UNL     1      -3.254   4.233   4.945  1.00  0.00    -0.458 OA
BRANCH  41  42
ATOM     42  C   UNL     1      -3.662   3.585   3.716  1.00  0.00     0.205 CG0
ATOM     43  C   UNL     1      -4.423   2.318   4.101  1.00  0.00     0.056 C 
ATOM     44  G   UNL     1      -2.404   3.284   2.878  1.00  0.00     0.000 G0
ENDBRANCH  41  42
ENDBRANCH  39  41
ENDBRANCH  35  39
ENDBRANCH  33  35
ENDBRANCH  23  31
ENDBRANCH  21  23
ENDBRANCH  19  21
ENDBRANCH  14  19
ENDBRANCH   7  14
ENDBRANCH   2   5
BRANCH   3  45
ATOM     45  C   UNL     1       0.043   5.844   1.406  1.00  0.00     0.171 C 
BRANCH  45  46
ATOM     46  N   UNL     1      -0.589   4.640   1.930  1.00  0.00    -0.342 N 
ATOM     47  C   UNL     1      -1.934   4.571   2.194  1.00  0.00     0.247 C 
ATOM     48  O   UNL     1      -2.713   5.490   1.941  1.00  0.00    -0.273 OA
ATOM     49  H   UNL     1       0.011   3.836   2.102  1.00  0.00     0.164 HD
BRANCH  47  50
ATOM     50  C   UNL     1      -2.399   3.267   2.859  1.00  0.00     0.212 CG0
ATOM     51  G   UNL     1      -3.650   3.592   3.700  1.00  0.00     0.000 G0
BRANCH  50  52
ATOM     52  N   UNL     1      -2.667   2.344   1.760  1.00  0.00    -0.339 N 
ATOM     53  C   UNL     1      -1.754   1.423   1.307  1.00  0.00     0.243 C 
ATOM     54  O   UNL     1      -0.615   1.342   1.760  1.00  0.00    -0.273 OA
ATOM     55  H   UNL     1      -3.554   2.437   1.269  1.00  0.00     0.164 HD
BRANCH  53  56
ATOM     56  C   UNL     1      -2.230   0.617   0.081  1.00  0.00     0.182 C 
BRANCH  56  57
ATOM     57  N   UNL     1      -1.255   0.697  -1.012  1.00  0.00    -0.344 N 
ATOM     58  C   UNL     1      -0.419  -0.345  -1.330  1.00  0.00     0.220 C 
ATOM     59  O   UNL     1      -0.376  -1.383  -0.680  1.00  0.00    -0.275 OA
ATOM     60  H   UNL     1      -1.328   1.497  -1.636  1.00  0.00     0.164 HD
BRANCH  58  61
ATOM     61  C   UNL     1       0.463  -0.062  -2.532  1.00  0.00     0.100 C 
BRANCH  61  62
ATOM     62  C   UNL     1       0.111  -0.895  -3.765  1.00  0.00     0.010 C 
BRANCH  62  63
ATOM     63  C   UNL     1      -1.392  -0.967  -4.064  1.00  0.00     0.000 C 
BRANCH  63  64
ATOM     64  C   UNL     1      -1.851  -2.301  -4.651  1.00  0.00    -0.003 C 
ATOM     65  C   UNL     1      -2.840  -2.096  -5.789  1.00  0.00     0.004 C 
ENDBRANCH  63  64
ENDBRANCH  62  63
ENDBRANCH  61  62
ENDBRANCH  58  61
ENDBRANCH  56  57
BRANCH  56  66
ATOM     66  C   UNL     1      -3.628   1.044  -0.360  1.00  0.00     0.157 C 
BRANCH  66  67
ATOM     67  C   UNL     1      -3.564   2.058  -1.466  1.00  0.00     0.305 C 
ATOM     68  O   UNL     1      -3.218   3.226  -1.370  1.00  0.00    -0.252 OA
BRANCH  67  69
ATOM     69  O   UNL     1      -3.891   1.533  -2.662  1.00  0.00    -0.481 OA
ATOM     70  H   UNL     1      -3.638   2.220  -3.314  1.00  0.00     0.296 HD
ENDBRANCH  67  69
ENDBRANCH  66  67
ENDBRANCH  56  66
ENDBRANCH  53  56
ENDBRANCH  50  52
ENDBRANCH  47  50
ENDBRANCH  45  46
BRANCH  45  71
ATOM     71  C   UNL     1       1.279   5.511   0.562  1.00  0.00     0.037 C 
BRANCH  71  72
ATOM     72  C   UNL     1       1.053   4.290  -0.333  1.00  0.00     0.026 C 
BRANCH  72  73
ATOM     73  C   UNL     1       2.301   3.411  -0.406  1.00  0.00     0.146 C 
BRANCH  73  74
ATOM     74  N   UNL     1       2.753   3.163   0.960  1.00  0.00    -0.254 NA
ATOM     75  C   UNL     1       2.685   1.962   1.404  1.00  0.00     0.185 C 
ATOM     76  N   UNL     1       3.095   1.702   2.656  1.00  0.00    -0.370 N 
ATOM     77  N   UNL     1       2.244   0.855   0.782  1.00  0.00    -0.370 N 
ATOM     78  H   UNL     1       3.436   2.483   3.197  1.00  0.00     0.159 HD
ATOM     79  H   UNL     1       2.939   0.824   3.118  1.00  0.00     0.159 HD
ATOM     80  H   UNL     1       1.908   0.899  -0.168  1.00  0.00     0.159 HD
ATOM     81  H   UNL     1       2.346  -0.058   1.193  1.00  0.00     0.159 HD
ENDBRANCH  73  74
ENDBRANCH  72  73
ENDBRANCH  71  72
ENDBRANCH  45  71
ENDBRANCH   3  45
TORSDOF 20
ENDMDL
MODEL 49
REMARK VINA RESULT:    -4.610     13.469     17.263
REMARK INTER + INTRA:         -19.356
REMARK INTER:                 -13.843
REMARK INTRA:                  -5.514
REMARK UNBOUND:                -6.121
REMARK SMILES CCCCCC(=O)N[C@H](CC(=O)O)C(=O)N[C@H]1C(=O)N[C@H](CCCN=C(N)N)C(=O)N[C@@H]2CC[C@H](O)N(C2=O)[C@@H](CC(C)C)C(=O)N(C)[C@@H](Cc2ccccc2)C(=O)N[C@H](C(C)C)C(=O)O[C@@H]1C
REMARK SMILES IDX 30 1 31 2 29 3 32 5 35 6 37 7 34 8 38 9 33 10 39 11 36 12
REMARK SMILES IDX 40 14 41 15 42 16 43 17 44 18 45 19 46 20 47 21 48 22 49 23
REMARK SMILES IDX 50 24 51 25 52 26 56 27 53 28 55 29 54 30 57 31 58 32 59 33
REMARK SMILES IDX 60 35 61 36 62 37 63 38 64 39 65 40 66 41 67 42 68 43 21 45
REMARK SMILES IDX 20 46 18 47 19 48 17 50 16 52 14 53 15 54 9 56 8 57 6 58
REMARK SMILES IDX 7 59 5 61 4 62 3 63 2 64 1 65 10 66 11 67 12 68 13 69 22 71
REMARK SMILES IDX 23 72 24 73 25 74 26 75 27 76 28 77
REMARK H PARENT 31 4 36 13 59 34 20 49 16 55 8 60 13 70 27 78 27 79 28 80
REMARK H PARENT 28 81
REMARK Flexibility Score:  259.900
ROOT
ATOM      1  O   UNL     1      -2.163   6.598   9.828  1.00  0.00    -0.273 OA
ATOM      2  N   UNL     1      -1.933   7.880   7.947  1.00  0.00    -0.343 N 
ATOM      3  C   UNL     1      -2.574   7.511   9.110  1.00  0.00     0.243 C 
ATOM      4  H   UNL     1      -2.291   8.645   7.389  1.00  0.00     0.164 HD
ENDROOT
BRANCH   2   5
ATOM      5  C   UNL     1      -0.792   7.115   7.454  1.00  0.00     0.171 C 
ATOM      6  C   UNL     1       1.435   7.802   5.730  1.00  0.00     0.214 C 
ATOM      7  N   UNL     1       0.228   7.261   5.150  1.00  0.00    -0.303 N 
ATOM      8  C   UNL     1       1.696   7.310   7.145  1.00  0.00     0.057 C 
ATOM      9  C   UNL     1      -0.890   6.959   5.909  1.00  0.00     0.247 C 
ATOM     10  C   UNL     1       0.517   7.650   8.031  1.00  0.00     0.040 C 
ATOM     11  O   UNL     1      -1.950   6.578   5.394  1.00  0.00    -0.272 OA
BRANCH   6  12
ATOM     12  O   UNL     1       1.330   9.207   5.709  1.00  0.00    -0.373 OA
ATOM     13  H   UNL     1       2.223   9.559   5.503  1.00  0.00     0.213 HD
ENDBRANCH   6  12
BRANCH   7  14
ATOM     14  C   UNL     1       0.174   7.175   3.675  1.00  0.00     0.177 C 
BRANCH  14  15
ATOM     15  C   UNL     1       0.712   8.409   2.925  1.00  0.00     0.038 C 
BRANCH  15  16
ATOM     16  C   UNL     1       2.020   8.296   2.112  1.00  0.00    -0.015 C 
ATOM     17  C   UNL     1       2.875   9.563   2.202  1.00  0.00     0.007 C 
ATOM     18  C   UNL     1       1.692   8.041   0.635  1.00  0.00     0.007 C 
ENDBRANCH  15  16
ENDBRANCH  14  15
BRANCH  14  19
ATOM     19  C   UNL     1       0.344   5.687   3.211  1.00  0.00     0.245 C 
ATOM     20  O   UNL     1      -0.455   5.274   2.353  1.00  0.00    -0.272 OA
BRANCH  19  21
ATOM     21  N   UNL     1       1.242   4.800   3.777  1.00  0.00    -0.332 N 
ATOM     22  C   UNL     1       0.905   3.742   4.712  1.00  0.00     0.147 C 
BRANCH  21  23
ATOM     23  C   UNL     1       2.679   4.938   3.414  1.00  0.00     0.178 C 
BRANCH  23  24
ATOM     24  C   UNL     1       3.591   5.420   4.560  1.00  0.00     0.070 C 
BRANCH  24  25
ATOM     25  C   UNL     1       4.997   5.835   4.193  1.00  0.00    -0.045 A 
ATOM     26  C   UNL     1       5.224   6.870   3.276  1.00  0.00     0.004 A 
ATOM     27  C   UNL     1       6.100   5.183   4.766  1.00  0.00     0.004 A 
ATOM     28  C   UNL     1       6.526   7.236   2.929  1.00  0.00     0.000 A 
ATOM     29  C   UNL     1       7.401   5.551   4.419  1.00  0.00     0.000 A 
ATOM     30  C   UNL     1       7.613   6.575   3.499  1.00  0.00     0.000 A 
ENDBRANCH  24  25
ENDBRANCH  23  24
BRANCH  23  31
ATOM     31  C   UNL     1       3.220   3.727   2.616  1.00  0.00     0.243 C 
ATOM     32  O   UNL     1       3.468   2.633   3.115  1.00  0.00    -0.273 OA
ATOM     33  N   UNL     1       3.579   4.037   1.316  1.00  0.00    -0.341 N 
ATOM     34  H   UNL     1       3.351   4.969   0.958  1.00  0.00     0.164 HD
BRANCH  33  35
ATOM     35  C   UNL     1       4.223   3.078   0.414  1.00  0.00     0.194 C 
BRANCH  35  36
ATOM     36  C   UNL     1       3.651   1.635   0.510  1.00  0.00     0.017 C 
ATOM     37  C   UNL     1       4.659   0.598  -0.017  1.00  0.00     0.010 C 
ATOM     38  C   UNL     1       2.348   1.448  -0.275  1.00  0.00     0.010 C 
ENDBRANCH  35  36
BRANCH  35  39
ATOM     39  C   UNL     1       5.773   3.097   0.529  1.00  0.00     0.329 C 
ATOM     40  O   UNL     1       6.383   3.046   1.591  1.00  0.00    -0.250 OA
BRANCH  39  41
ATOM     41  O   UNL     1       6.385   3.090  -0.693  1.00  0.00    -0.458 OA
BRANCH  41  42
ATOM     42  C   UNL     1       7.683   2.451  -0.757  1.00  0.00     0.205 CG0
ATOM     43  C   UNL     1       8.507   3.201  -1.801  1.00  0.00     0.056 C 
ATOM     44  G   UNL     1       7.483   0.966  -1.118  1.00  0.00     0.000 G0
ENDBRANCH  41  42
ENDBRANCH  39  41
ENDBRANCH  35  39
ENDBRANCH  33  35
ENDBRANCH  23  31
ENDBRANCH  21  23
ENDBRANCH  19  21
ENDBRANCH  14  19
ENDBRANCH   7  14
ENDBRANCH   2   5
BRANCH   3  45
ATOM     45  C   UNL     1      -3.824   8.329   9.459  1.00  0.00     0.171 C 
BRANCH  45  46
ATOM     46  N   UNL     1      -4.436   7.651  10.594  1.00  0.00    -0.342 N 
ATOM     47  C   UNL     1      -5.048   8.331  11.616  1.00  0.00     0.247 C 
ATOM     48  O   UNL     1      -5.189   9.555  11.614  1.00  0.00    -0.273 OA
ATOM     49  H   UNL     1      -4.390   6.633  10.608  1.00  0.00     0.164 HD
BRANCH  47  50
ATOM     50  C   UNL     1      -5.523   7.458  12.786  1.00  0.00     0.212 CG0
ATOM     51  G   UNL     1      -5.171   8.196  14.093  1.00  0.00     0.000 G0
BRANCH  50  52
ATOM     52  N   UNL     1      -6.960   7.289  12.587  1.00  0.00    -0.339 N 
ATOM     53  C   UNL     1      -7.541   6.090  12.251  1.00  0.00     0.243 C 
ATOM     54  O   UNL     1      -6.885   5.074  12.039  1.00  0.00    -0.273 OA
ATOM     55  H   UNL     1      -7.545   8.120  12.640  1.00  0.00     0.164 HD
BRANCH  53  56
ATOM     56  C   UNL     1      -9.061   6.176  12.010  1.00  0.00     0.182 C 
BRANCH  56  57
ATOM     57  N   UNL     1      -9.365   6.228  10.576  1.00  0.00    -0.344 N 
ATOM     58  C   UNL     1      -9.779   5.125   9.870  1.00  0.00     0.220 C 
ATOM     59  O   UNL     1      -9.854   4.008  10.369  1.00  0.00    -0.275 OA
ATOM     60  H   UNL     1      -9.413   7.150  10.149  1.00  0.00     0.164 HD
BRANCH  58  61
ATOM     61  C   UNL     1     -10.092   5.425   8.416  1.00  0.00     0.100 C 
BRANCH  61  62
ATOM     62  C   UNL     1      -8.873   5.351   7.495  1.00  0.00     0.010 C 
BRANCH  62  63
ATOM     63  C   UNL     1      -8.900   6.356   6.337  1.00  0.00     0.000 C 
BRANCH  63  64
ATOM     64  C   UNL     1      -7.901   7.503   6.478  1.00  0.00    -0.003 C 
ATOM     65  C   UNL     1      -8.609   8.831   6.701  1.00  0.00     0.004 C 
ENDBRANCH  63  64
ENDBRANCH  62  63
ENDBRANCH  61  62
ENDBRANCH  58  61
ENDBRANCH  56  57
BRANCH  56  66
ATOM     66  C   UNL     1      -9.685   7.342  12.774  1.00  0.00     0.157 C 
BRANCH  66  67
ATOM     67  C   UNL     1     -11.136   7.508  12.423  1.00  0.00     0.305 C 
ATOM     68  O   UNL     1     -11.952   6.618  12.238  1.00  0.00    -0.252 OA
BRANCH  67  69
ATOM     69  O   UNL     1     -11.505   8.802  12.373  1.00  0.00    -0.481 OA
ATOM     70  H   UNL     1     -11.531   9.018  11.417  1.00  0.00     0.296 HD
ENDBRANCH  67  69
ENDBRANCH  66  67
ENDBRANCH  56  66
ENDBRANCH  53  56
ENDBRANCH  50  52
ENDBRANCH  47  50
ENDBRANCH  45  46
BRANCH  45  71
ATOM     71  C   UNL     1      -4.775   8.390   8.258  1.00  0.00     0.037 C 
BRANCH  71  72
ATOM     72  C   UNL     1      -5.164   9.828   7.904  1.00  0.00     0.026 C 
BRANCH  72  73
ATOM     73  C   UNL     1      -4.581  10.251   6.558  1.00  0.00     0.146 C 
BRANCH  73  74
ATOM     74  N   UNL     1      -4.167   9.043   5.850  1.00  0.00    -0.254 NA
ATOM     75  C   UNL     1      -4.681   8.818   4.698  1.00  0.00     0.185 C 
ATOM     76  N   UNL     1      -4.319   7.716   4.022  1.00  0.00    -0.370 N 
ATOM     77  N   UNL     1      -5.577   9.552   4.014  1.00  0.00    -0.370 N 
ATOM     78  H   UNL     1      -3.652   7.103   4.469  1.00  0.00     0.159 HD
ATOM     79  H   UNL     1      -4.782   7.401   3.188  1.00  0.00     0.159 HD
ATOM     80  H   UNL     1      -5.936  10.412   4.399  1.00  0.00     0.159 HD
ATOM     81  H   UNL     1      -5.822   9.334   3.062  1.00  0.00     0.159 HD
ENDBRANCH  73  74
ENDBRANCH  72  73
ENDBRANCH  71  72
ENDBRANCH  45  71
ENDBRANCH   3  45
TORSDOF 20
ENDMDL
MODEL 50
REMARK VINA RESULT:    -4.589     15.023     18.777
REMARK INTER + INTRA:         -19.295
REMARK INTER:                 -14.154
REMARK INTRA:                  -5.141
REMARK UNBOUND:                -6.121
REMARK SMILES CCCCCC(=O)N[C@H](CC(=O)O)C(=O)N[C@H]1C(=O)N[C@H](CCCN=C(N)N)C(=O)N[C@@H]2CC[C@H](O)N(C2=O)[C@@H](CC(C)C)C(=O)N(C)[C@@H](Cc2ccccc2)C(=O)N[C@H](C(C)C)C(=O)O[C@@H]1C
REMARK SMILES IDX 30 1 31 2 29 3 32 5 35 6 37 7 34 8 38 9 33 10 39 11 36 12
REMARK SMILES IDX 40 14 41 15 42 16 43 17 44 18 45 19 46 20 47 21 48 22 49 23
REMARK SMILES IDX 50 24 51 25 52 26 56 27 53 28 55 29 54 30 57 31 58 32 59 33
REMARK SMILES IDX 60 35 61 36 62 37 63 38 64 39 65 40 66 41 67 42 68 43 21 45
REMARK SMILES IDX 20 46 18 47 19 48 17 50 16 52 14 53 15 54 9 56 8 57 6 58
REMARK SMILES IDX 7 59 5 61 4 62 3 63 2 64 1 65 10 66 11 67 12 68 13 69 22 71
REMARK SMILES IDX 23 72 24 73 25 74 26 75 27 76 28 77
REMARK H PARENT 31 4 36 13 59 34 20 49 16 55 8 60 13 70 27 78 27 79 28 80
REMARK H PARENT 28 81
REMARK Flexibility Score:  259.900
ROOT
ATOM      1  O   UNL     1       4.977   1.652   5.329  1.00  0.00    -0.273 OA
ATOM      2  N   UNL     1       4.719   0.509   7.293  1.00  0.00    -0.343 N 
ATOM      3  C   UNL     1       4.455   1.560   6.441  1.00  0.00     0.243 C 
ATOM      4  H   UNL     1       4.260   0.459   8.194  1.00  0.00     0.164 HD
ENDROOT
BRANCH   2   5
ATOM      5  C   UNL     1       5.730  -0.486   6.954  1.00  0.00     0.171 C 
ATOM      6  C   UNL     1       6.534  -2.974   8.207  1.00  0.00     0.214 C 
ATOM      7  N   UNL     1       7.198  -1.746   8.576  1.00  0.00    -0.303 N 
ATOM      8  C   UNL     1       6.027  -2.976   6.773  1.00  0.00     0.057 C 
ATOM      9  C   UNL     1       6.829  -0.516   8.055  1.00  0.00     0.247 C 
ATOM     10  C   UNL     1       5.083  -1.813   6.561  1.00  0.00     0.040 C 
ATOM     11  O   UNL     1       7.345   0.541   8.441  1.00  0.00    -0.272 OA
BRANCH   6  12
ATOM     12  O   UNL     1       5.468  -3.174   9.106  1.00  0.00    -0.373 OA
ATOM     13  H   UNL     1       5.822  -3.692   9.860  1.00  0.00     0.213 HD
ENDBRANCH   6  12
BRANCH   7  14
ATOM     14  C   UNL     1       8.204  -1.826   9.656  1.00  0.00     0.177 C 
BRANCH  14  15
ATOM     15  C   UNL     1       7.629  -1.935  11.082  1.00  0.00     0.038 C 
BRANCH  15  16
ATOM     16  C   UNL     1       7.734  -0.728  12.039  1.00  0.00    -0.015 C 
ATOM     17  C   UNL     1       8.921   0.181  11.705  1.00  0.00     0.007 C 
ATOM     18  C   UNL     1       7.900  -1.223  13.482  1.00  0.00     0.007 C 
ENDBRANCH  15  16
ENDBRANCH  14  15
BRANCH  14  19
ATOM     19  C   UNL     1       9.497  -2.549   9.142  1.00  0.00     0.245 C 
ATOM     20  O   UNL     1       9.955  -3.454   9.860  1.00  0.00    -0.272 OA
BRANCH  19  21
ATOM     21  N   UNL     1      10.200  -2.162   8.015  1.00  0.00    -0.332 N 
ATOM     22  C   UNL     1      10.701  -0.825   7.752  1.00  0.00     0.147 C 
BRANCH  21  23
ATOM     23  C   UNL     1      10.462  -3.191   6.971  1.00  0.00     0.178 C 
BRANCH  23  24
ATOM     24  C   UNL     1       9.739  -2.949   5.631  1.00  0.00     0.070 C 
BRANCH  24  25
ATOM     25  C   UNL     1      10.602  -2.655   4.426  1.00  0.00    -0.045 A 
ATOM     26  C   UNL     1      10.681  -3.562   3.361  1.00  0.00     0.004 A 
ATOM     27  C   UNL     1      11.344  -1.466   4.360  1.00  0.00     0.004 A 
ATOM     28  C   UNL     1      11.495  -3.291   2.259  1.00  0.00     0.000 A 
ATOM     29  C   UNL     1      12.156  -1.196   3.258  1.00  0.00     0.000 A 
ATOM     30  C   UNL     1      12.233  -2.110   2.209  1.00  0.00     0.000 A 
ENDBRANCH  24  25
ENDBRANCH  23  24
BRANCH  23  31
ATOM     31  C   UNL     1      11.960  -3.557   6.847  1.00  0.00     0.243 C 
ATOM     32  O   UNL     1      12.867  -2.730   6.794  1.00  0.00    -0.273 OA
ATOM     33  N   UNL     1      12.183  -4.903   6.611  1.00  0.00    -0.341 N 
ATOM     34  H   UNL     1      11.387  -5.543   6.662  1.00  0.00     0.164 HD
BRANCH  33  35
ATOM     35  C   UNL     1      13.513  -5.457   6.343  1.00  0.00     0.194 C 
BRANCH  35  36
ATOM     36  C   UNL     1      13.740  -5.873   4.862  1.00  0.00     0.017 C 
ATOM     37  C   UNL     1      14.232  -4.685   4.017  1.00  0.00     0.010 C 
ATOM     38  C   UNL     1      12.478  -6.424   4.188  1.00  0.00     0.010 C 
ENDBRANCH  35  36
BRANCH  35  39
ATOM     39  C   UNL     1      13.897  -6.594   7.330  1.00  0.00     0.329 C 
ATOM     40  O   UNL     1      13.109  -7.433   7.751  1.00  0.00    -0.250 OA
BRANCH  39  41
ATOM     41  O   UNL     1      15.235  -6.608   7.612  1.00  0.00    -0.458 OA
BRANCH  41  42
ATOM     42  C   UNL     1      15.639  -7.383   8.766  1.00  0.00     0.205 CG0
ATOM     43  C   UNL     1      15.785  -6.412   9.936  1.00  0.00     0.056 C 
ATOM     44  G   UNL     1      16.959  -8.108   8.434  1.00  0.00     0.000 G0
ENDBRANCH  41  42
ENDBRANCH  39  41
ENDBRANCH  35  39
ENDBRANCH  33  35
ENDBRANCH  23  31
ENDBRANCH  21  23
ENDBRANCH  19  21
ENDBRANCH  14  19
ENDBRANCH   7  14
ENDBRANCH   2   5
BRANCH   3  45
ATOM     45  C   UNL     1       3.451   2.595   6.964  1.00  0.00     0.171 C 
BRANCH  45  46
ATOM     46  N   UNL     1       2.848   3.193   5.781  1.00  0.00    -0.342 N 
ATOM     47  C   UNL     1       1.535   2.988   5.439  1.00  0.00     0.247 C 
ATOM     48  O   UNL     1       0.754   2.346   6.143  1.00  0.00    -0.273 OA
ATOM     49  H   UNL     1       3.445   3.779   5.199  1.00  0.00     0.164 HD
BRANCH  47  50
ATOM     50  C   UNL     1       1.110   3.594   4.094  1.00  0.00     0.212 CG0
ATOM     51  G   UNL     1       0.074   4.698   4.386  1.00  0.00     0.000 G0
BRANCH  50  52
ATOM     52  N   UNL     1       2.339   4.102   3.490  1.00  0.00    -0.339 N 
ATOM     53  C   UNL     1       2.393   4.649   2.231  1.00  0.00     0.243 C 
ATOM     54  O   UNL     1       1.414   4.705   1.492  1.00  0.00    -0.273 OA
ATOM     55  H   UNL     1       3.206   3.982   4.011  1.00  0.00     0.164 HD
BRANCH  53  56
ATOM     56  C   UNL     1       3.814   5.036   1.775  1.00  0.00     0.182 C 
BRANCH  56  57
ATOM     57  N   UNL     1       4.295   4.130   0.726  1.00  0.00    -0.344 N 
ATOM     58  C   UNL     1       4.370   2.771   0.905  1.00  0.00     0.220 C 
ATOM     59  O   UNL     1       4.112   2.227   1.973  1.00  0.00    -0.275 OA
ATOM     60  H   UNL     1       4.421   4.527  -0.202  1.00  0.00     0.164 HD
BRANCH  58  61
ATOM     61  C   UNL     1       4.838   2.026  -0.332  1.00  0.00     0.100 C 
BRANCH  61  62
ATOM     62  C   UNL     1       5.867   0.933  -0.040  1.00  0.00     0.010 C 
BRANCH  62  63
ATOM     63  C   UNL     1       7.306   1.309  -0.416  1.00  0.00     0.000 C 
BRANCH  63  64
ATOM     64  C   UNL     1       7.450   2.700  -1.031  1.00  0.00    -0.003 C 
ATOM     65  C   UNL     1       8.864   2.938  -1.540  1.00  0.00     0.004 C 
ENDBRANCH  63  64
ENDBRANCH  62  63
ENDBRANCH  61  62
ENDBRANCH  58  61
ENDBRANCH  56  57
BRANCH  56  66
ATOM     66  C   UNL     1       4.780   5.113   2.956  1.00  0.00     0.157 C 
BRANCH  66  67
ATOM     67  C   UNL     1       5.952   5.999   2.643  1.00  0.00     0.305 C 
ATOM     68  O   UNL     1       6.203   7.085   3.143  1.00  0.00    -0.252 OA
BRANCH  67  69
ATOM     69  O   UNL     1       6.786   5.444   1.744  1.00  0.00    -0.481 OA
ATOM     70  H   UNL     1       7.587   6.011   1.763  1.00  0.00     0.296 HD
ENDBRANCH  67  69
ENDBRANCH  66  67
ENDBRANCH  56  66
ENDBRANCH  53  56
ENDBRANCH  50  52
ENDBRANCH  47  50
ENDBRANCH  45  46
BRANCH  45  71
ATOM     71  C   UNL     1       4.164   3.643   7.826  1.00  0.00     0.037 C 
BRANCH  71  72
ATOM     72  C   UNL     1       3.191   4.675   8.402  1.00  0.00     0.026 C 
BRANCH  72  73
ATOM     73  C   UNL     1       3.838   6.054   8.513  1.00  0.00     0.146 C 
BRANCH  73  74
ATOM     74  N   UNL     1       5.129   5.998   7.833  1.00  0.00    -0.254 NA
ATOM     75  C   UNL     1       5.317   6.786   6.840  1.00  0.00     0.185 C 
ATOM     76  N   UNL     1       6.495   6.759   6.195  1.00  0.00    -0.370 N 
ATOM     77  N   UNL     1       4.476   7.690   6.307  1.00  0.00    -0.370 N 
ATOM     78  H   UNL     1       7.184   6.100   6.528  1.00  0.00     0.159 HD
ATOM     79  H   UNL     1       6.662   7.238   5.328  1.00  0.00     0.159 HD
ATOM     80  H   UNL     1       3.554   7.823   6.693  1.00  0.00     0.159 HD
ATOM     81  H   UNL     1       4.777   8.337   5.597  1.00  0.00     0.159 HD
ENDBRANCH  73  74
ENDBRANCH  72  73
ENDBRANCH  71  72
ENDBRANCH  45  71
ENDBRANCH   3  45
TORSDOF 20
ENDMDL
