MODEL 1
REMARK VINA RESULT:    -8.402      0.000      0.000
REMARK INTER + INTRA:         -19.715
REMARK INTER:                 -16.998
REMARK INTRA:                  -2.717
REMARK UNBOUND:                -2.717
REMARK SMILES CC[C@@H](C)[C@@H](NC(=O)[C@@H](O)Cc1ccc(O)c(Cl)c1)C(=O)N1[C@H](C(=O)NCCCCN=C(N)N)C[C@H]2CC[C@H](OS(=O)(=O)O)C[C@@H]21
REMARK SMILES IDX 22 1 36 2 46 3 35 4 23 5 45 6 37 7 39 8 38 9 20 10 21 11
REMARK SMILES IDX 5 12 6 13 7 14 8 15 9 17 11 18 12 19 17 20 19 21 15 22 14 23
REMARK SMILES IDX 13 24 18 25 16 26 10 28 3 30 4 31 2 32 1 33 24 34 25 35
REMARK SMILES IDX 26 36 27 38 28 39 29 40 30 41 31 42 32 43 33 44 34 45 40 50
REMARK SMILES IDX 41 51 42 52 43 53 44 54
REMARK H PARENT 6 16 16 27 10 29 26 37 33 46 33 47 34 48 34 49 44 55
ROOT
ATOM      1  N   UNL     1       7.325  -4.244   1.768  1.00  0.00    -0.326 N 
ATOM      2  C   UNL     1       7.905  -5.764   0.066  1.00  0.00     0.014 C 
ATOM      3  C   UNL     1       6.714  -5.220   0.861  1.00  0.00     0.091 C 
ATOM      4  C   UNL     1       9.026  -5.753   1.094  1.00  0.00     0.041 C 
ATOM      5  C   UNL     1       8.803  -4.368   1.727  1.00  0.00     0.175 C 
ATOM      6  C   UNL     1       5.658  -4.729  -0.127  1.00  0.00     0.059 C 
ATOM      7  C   UNL     1       7.546  -7.062  -0.629  1.00  0.00     0.008 C 
ATOM      8  C   UNL     1       5.626  -5.525  -1.450  1.00  0.00     0.143 C 
ATOM      9  C   UNL     1       6.145  -6.966  -1.271  1.00  0.00     0.034 C 
ENDROOT
BRANCH   1  10
ATOM     10  C   UNL     1       6.741  -3.449   2.739  1.00  0.00     0.246 C 
ATOM     11  O   UNL     1       6.915  -3.729   3.930  1.00  0.00    -0.272 OA
BRANCH  10  12
ATOM     12  C   UNL     1       5.916  -2.199   2.314  1.00  0.00     0.174 C 
BRANCH  12  13
ATOM     13  N   UNL     1       6.339  -1.035   3.091  1.00  0.00    -0.342 N 
ATOM     14  C   UNL     1       7.389  -0.207   2.767  1.00  0.00     0.249 C 
ATOM     15  O   UNL     1       8.078  -0.340   1.763  1.00  0.00    -0.272 OA
ATOM     16  H   UNL     1       5.964  -0.891   4.026  1.00  0.00     0.164 HD
BRANCH  14  17
ATOM     17  C   UNL     1       7.596   0.925   3.796  1.00  0.00     0.207 C 
BRANCH  17  18
ATOM     18  C   UNL     1       8.944   0.765   4.505  1.00  0.00     0.077 C 
BRANCH  18  19
ATOM     19  C   UNL     1       9.668   2.086   4.639  1.00  0.00    -0.043 A 
ATOM     20  C   UNL     1      10.392   3.958   6.002  1.00  0.00     0.083 A 
ATOM     21  C   UNL     1       9.766   2.716   5.890  1.00  0.00     0.028 A 
ATOM     22  C   UNL     1      10.920   4.578   4.870  1.00  0.00     0.134 A 
ATOM     23  C   UNL     1      10.830   3.966   3.625  1.00  0.00     0.048 A 
ATOM     24  C   UNL     1      10.203   2.724   3.509  1.00  0.00     0.008 A 
ATOM     25  Cl  UNL     1      10.503   4.715   7.548  1.00  0.00    -0.080 Cl
BRANCH  22  26
ATOM     26  O   UNL     1      11.533   5.801   4.929  1.00  0.00    -0.506 OA
ATOM     27  H   UNL     1      10.869   6.431   5.265  1.00  0.00     0.293 HD
ENDBRANCH  22  26
ENDBRANCH  18  19
ENDBRANCH  17  18
BRANCH  17  28
ATOM     28  O   UNL     1       6.542   0.935   4.772  1.00  0.00    -0.383 OA
ATOM     29  H   UNL     1       6.687   1.738   5.321  1.00  0.00     0.211 HD
ENDBRANCH  17  28
ENDBRANCH  14  17
ENDBRANCH  12  13
BRANCH  12  30
ATOM     30  C   UNL     1       4.384  -2.438   2.389  1.00  0.00     0.018 C 
ATOM     31  C   UNL     1       3.699  -1.336   3.212  1.00  0.00     0.010 C 
BRANCH  30  32
ATOM     32  C   UNL     1       3.999  -3.832   2.941  1.00  0.00     0.002 C 
ATOM     33  C   UNL     1       2.969  -4.596   2.119  1.00  0.00     0.004 C 
ENDBRANCH  30  32
ENDBRANCH  12  30
ENDBRANCH  10  12
ENDBRANCH   1  10
BRANCH   5  34
ATOM     34  C   UNL     1       9.426  -3.238   0.864  1.00  0.00     0.242 C 
ATOM     35  O   UNL     1      10.507  -2.719   1.141  1.00  0.00    -0.273 OA
ATOM     36  N   UNL     1       8.657  -2.821  -0.199  1.00  0.00    -0.354 N 
ATOM     37  H   UNL     1       7.717  -3.205  -0.306  1.00  0.00     0.163 HD
BRANCH  36  38
ATOM     38  C   UNL     1       9.170  -1.937  -1.225  1.00  0.00     0.116 C 
BRANCH  38  39
ATOM     39  C   UNL     1       8.026  -1.454  -2.113  1.00  0.00     0.023 C 
BRANCH  39  40
ATOM     40  C   UNL     1       7.212  -0.341  -1.460  1.00  0.00     0.026 C 
BRANCH  40  41
ATOM     41  C   UNL     1       5.871  -0.875  -0.956  1.00  0.00     0.146 C 
BRANCH  41  42
ATOM     42  N   UNL     1       5.116   0.203  -0.331  1.00  0.00    -0.254 NA
ATOM     43  C   UNL     1       3.848   0.091  -0.196  1.00  0.00     0.185 C 
ATOM     44  N   UNL     1       3.025  -0.913  -0.549  1.00  0.00    -0.370 N 
ATOM     45  N   UNL     1       3.169   1.098   0.379  1.00  0.00    -0.370 N 
ATOM     46  H   UNL     1       2.031  -0.765  -0.607  1.00  0.00     0.159 HD
ATOM     47  H   UNL     1       3.375  -1.760  -0.985  1.00  0.00     0.159 HD
ATOM     48  H   UNL     1       3.716   1.892   0.683  1.00  0.00     0.159 HD
ATOM     49  H   UNL     1       2.234   0.993   0.731  1.00  0.00     0.159 HD
ENDBRANCH  41  42
ENDBRANCH  40  41
ENDBRANCH  39  40
ENDBRANCH  38  39
ENDBRANCH  36  38
ENDBRANCH   5  34
BRANCH   8  50
ATOM     50  O   UNL     1       6.428  -4.873  -2.435  1.00  0.00    -0.245 OA
BRANCH  50  51
ATOM     51  S   UNL     1       6.043  -5.017  -4.008  1.00  0.00     0.397 S 
ATOM     52  O   UNL     1       6.996  -4.245  -4.774  1.00  0.00    -0.169 OA
ATOM     53  O   UNL     1       4.615  -4.843  -4.177  1.00  0.00    -0.169 OA
BRANCH  51  54
ATOM     54  O   UNL     1       6.393  -6.559  -4.300  1.00  0.00    -0.264 OA
ATOM     55  H   UNL     1       7.147  -6.581  -4.923  1.00  0.00     0.236 HD
ENDBRANCH  51  54
ENDBRANCH  50  51
ENDBRANCH   8  50
TORSDOF 19
ENDMDL
MODEL 2
REMARK VINA RESULT:    -8.240      4.649      9.659
REMARK INTER + INTRA:         -19.386
REMARK INTER:                 -16.911
REMARK INTRA:                  -2.475
REMARK UNBOUND:                -2.717
REMARK SMILES CC[C@@H](C)[C@@H](NC(=O)[C@@H](O)Cc1ccc(O)c(Cl)c1)C(=O)N1[C@H](C(=O)NCCCCN=C(N)N)C[C@H]2CC[C@H](OS(=O)(=O)O)C[C@@H]21
REMARK SMILES IDX 22 1 36 2 46 3 35 4 23 5 45 6 37 7 39 8 38 9 20 10 21 11
REMARK SMILES IDX 5 12 6 13 7 14 8 15 9 17 11 18 12 19 17 20 19 21 15 22 14 23
REMARK SMILES IDX 13 24 18 25 16 26 10 28 3 30 4 31 2 32 1 33 24 34 25 35
REMARK SMILES IDX 26 36 27 38 28 39 29 40 30 41 31 42 32 43 33 44 34 45 40 50
REMARK SMILES IDX 41 51 42 52 43 53 44 54
REMARK H PARENT 6 16 16 27 10 29 26 37 33 46 33 47 34 48 34 49 44 55
ROOT
ATOM      1  N   UNL     1       4.453  -4.429   0.846  1.00  0.00    -0.326 N 
ATOM      2  C   UNL     1       3.802  -3.268   2.787  1.00  0.00     0.014 C 
ATOM      3  C   UNL     1       4.587  -4.490   2.304  1.00  0.00     0.091 C 
ATOM      4  C   UNL     1       2.665  -3.180   1.780  1.00  0.00     0.041 C 
ATOM      5  C   UNL     1       3.444  -3.408   0.471  1.00  0.00     0.175 C 
ATOM      6  C   UNL     1       5.990  -4.432   2.905  1.00  0.00     0.059 C 
ATOM      7  C   UNL     1       3.479  -3.380   4.264  1.00  0.00     0.008 C 
ATOM      8  C   UNL     1       6.042  -3.766   4.298  1.00  0.00     0.143 C 
ATOM      9  C   UNL     1       4.703  -3.894   5.051  1.00  0.00     0.034 C 
ENDROOT
BRANCH   1  10
ATOM     10  C   UNL     1       4.940  -5.285  -0.127  1.00  0.00     0.246 C 
ATOM     11  O   UNL     1       4.210  -6.184  -0.557  1.00  0.00    -0.272 OA
BRANCH  10  12
ATOM     12  C   UNL     1       6.376  -5.071  -0.688  1.00  0.00     0.174 C 
BRANCH  12  13
ATOM     13  N   UNL     1       6.404  -5.379  -2.118  1.00  0.00    -0.342 N 
ATOM     14  C   UNL     1       5.803  -4.625  -3.100  1.00  0.00     0.249 C 
ATOM     15  O   UNL     1       5.193  -3.585  -2.885  1.00  0.00    -0.272 OA
ATOM     16  H   UNL     1       6.736  -6.288  -2.431  1.00  0.00     0.164 HD
BRANCH  14  17
ATOM     17  C   UNL     1       5.997  -5.221  -4.511  1.00  0.00     0.207 C 
BRANCH  17  18
ATOM     18  C   UNL     1       4.691  -5.144  -5.309  1.00  0.00     0.077 C 
BRANCH  18  19
ATOM     19  C   UNL     1       4.867  -5.649  -6.724  1.00  0.00    -0.043 A 
ATOM     20  C   UNL     1       5.890  -5.453  -8.914  1.00  0.00     0.083 A 
ATOM     21  C   UNL     1       5.767  -5.015  -7.595  1.00  0.00     0.028 A 
ATOM     22  C   UNL     1       5.117  -6.521  -9.371  1.00  0.00     0.134 A 
ATOM     23  C   UNL     1       4.222  -7.157  -8.519  1.00  0.00     0.048 A 
ATOM     24  C   UNL     1       4.095  -6.720  -7.198  1.00  0.00     0.008 A 
ATOM     25  Cl  UNL     1       7.001  -4.662  -9.970  1.00  0.00    -0.080 Cl
BRANCH  22  26
ATOM     26  O   UNL     1       5.196  -6.978 -10.659  1.00  0.00    -0.506 OA
ATOM     27  H   UNL     1       5.514  -6.233 -11.202  1.00  0.00     0.293 HD
ENDBRANCH  22  26
ENDBRANCH  18  19
ENDBRANCH  17  18
BRANCH  17  28
ATOM     28  O   UNL     1       6.431  -6.589  -4.439  1.00  0.00    -0.383 OA
ATOM     29  H   UNL     1       6.227  -6.985  -5.317  1.00  0.00     0.211 HD
ENDBRANCH  17  28
ENDBRANCH  14  17
ENDBRANCH  12  13
BRANCH  12  30
ATOM     30  C   UNL     1       7.454  -5.855   0.108  1.00  0.00     0.018 C 
ATOM     31  C   UNL     1       8.754  -5.043   0.213  1.00  0.00     0.010 C 
BRANCH  30  32
ATOM     32  C   UNL     1       7.750  -7.262  -0.467  1.00  0.00     0.002 C 
ATOM     33  C   UNL     1       9.076  -7.875  -0.035  1.00  0.00     0.004 C 
ENDBRANCH  30  32
ENDBRANCH  12  30
ENDBRANCH  10  12
ENDBRANCH   1  10
BRANCH   5  34
ATOM     34  C   UNL     1       4.133  -2.106  -0.018  1.00  0.00     0.242 C 
ATOM     35  O   UNL     1       3.573  -1.306  -0.768  1.00  0.00    -0.273 OA
ATOM     36  N   UNL     1       5.433  -1.938   0.402  1.00  0.00    -0.354 N 
ATOM     37  H   UNL     1       5.883  -2.693   0.922  1.00  0.00     0.163 HD
BRANCH  36  38
ATOM     38  C   UNL     1       6.150  -0.693   0.222  1.00  0.00     0.116 C 
BRANCH  38  39
ATOM     39  C   UNL     1       6.713  -0.220   1.560  1.00  0.00     0.023 C 
BRANCH  39  40
ATOM     40  C   UNL     1       5.850   0.857   2.208  1.00  0.00     0.026 C 
BRANCH  40  41
ATOM     41  C   UNL     1       4.437   0.336   2.469  1.00  0.00     0.146 C 
BRANCH  41  42
ATOM     42  N   UNL     1       3.491   1.444   2.447  1.00  0.00    -0.254 NA
ATOM     43  C   UNL     1       2.980   1.818   1.334  1.00  0.00     0.185 C 
ATOM     44  N   UNL     1       3.170   1.341   0.091  1.00  0.00    -0.370 N 
ATOM     45  N   UNL     1       2.114   2.845   1.335  1.00  0.00    -0.370 N 
ATOM     46  H   UNL     1       2.898   1.881  -0.713  1.00  0.00     0.159 HD
ATOM     47  H   UNL     1       3.785   0.554  -0.090  1.00  0.00     0.159 HD
ATOM     48  H   UNL     1       1.908   3.258   2.234  1.00  0.00     0.159 HD
ATOM     49  H   UNL     1       1.502   3.040   0.563  1.00  0.00     0.159 HD
ENDBRANCH  41  42
ENDBRANCH  40  41
ENDBRANCH  39  40
ENDBRANCH  38  39
ENDBRANCH  36  38
ENDBRANCH   5  34
BRANCH   8  50
ATOM     50  O   UNL     1       6.358  -2.380   4.167  1.00  0.00    -0.245 OA
BRANCH  50  51
ATOM     51  S   UNL     1       7.637  -1.769   4.966  1.00  0.00     0.397 S 
ATOM     52  O   UNL     1       8.788  -1.851   4.094  1.00  0.00    -0.169 OA
ATOM     53  O   UNL     1       7.666  -2.298   6.314  1.00  0.00    -0.169 OA
BRANCH  51  54
ATOM     54  O   UNL     1       7.263  -0.208   5.053  1.00  0.00    -0.264 OA
ATOM     55  H   UNL     1       6.337  -0.105   4.755  1.00  0.00     0.236 HD
ENDBRANCH  51  54
ENDBRANCH  50  51
ENDBRANCH   8  50
TORSDOF 19
ENDMDL
MODEL 3
REMARK VINA RESULT:    -8.201      5.001     10.098
REMARK INTER + INTRA:         -19.308
REMARK INTER:                 -15.812
REMARK INTRA:                  -3.496
REMARK UNBOUND:                -2.717
REMARK SMILES CC[C@@H](C)[C@@H](NC(=O)[C@@H](O)Cc1ccc(O)c(Cl)c1)C(=O)N1[C@H](C(=O)NCCCCN=C(N)N)C[C@H]2CC[C@H](OS(=O)(=O)O)C[C@@H]21
REMARK SMILES IDX 22 1 36 2 46 3 35 4 23 5 45 6 37 7 39 8 38 9 20 10 21 11
REMARK SMILES IDX 5 12 6 13 7 14 8 15 9 17 11 18 12 19 17 20 19 21 15 22 14 23
REMARK SMILES IDX 13 24 18 25 16 26 10 28 3 30 4 31 2 32 1 33 24 34 25 35
REMARK SMILES IDX 26 36 27 38 28 39 29 40 30 41 31 42 32 43 33 44 34 45 40 50
REMARK SMILES IDX 41 51 42 52 43 53 44 54
REMARK H PARENT 6 16 16 27 10 29 26 37 33 46 33 47 34 48 34 49 44 55
ROOT
ATOM      1  N   UNL     1       4.436  -3.551   0.148  1.00  0.00    -0.326 N 
ATOM      2  C   UNL     1       3.690  -1.753   1.473  1.00  0.00     0.014 C 
ATOM      3  C   UNL     1       3.768  -3.282   1.425  1.00  0.00     0.091 C 
ATOM      4  C   UNL     1       3.482  -1.383   0.012  1.00  0.00     0.041 C 
ATOM      5  C   UNL     1       4.521  -2.305  -0.653  1.00  0.00     0.175 C 
ATOM      6  C   UNL     1       4.436  -3.771   2.709  1.00  0.00     0.059 C 
ATOM      7  C   UNL     1       2.681  -1.294   2.507  1.00  0.00     0.008 C 
ATOM      8  C   UNL     1       4.153  -2.879   3.936  1.00  0.00     0.143 C 
ATOM      9  C   UNL     1       2.817  -2.119   3.804  1.00  0.00     0.034 C 
ENDROOT
BRANCH   1  10
ATOM     10  C   UNL     1       4.763  -4.758  -0.445  1.00  0.00     0.246 C 
ATOM     11  O   UNL     1       4.115  -5.768  -0.151  1.00  0.00    -0.272 OA
BRANCH  10  12
ATOM     12  C   UNL     1       5.908  -4.810  -1.498  1.00  0.00     0.174 C 
BRANCH  12  13
ATOM     13  N   UNL     1       5.359  -5.131  -2.816  1.00  0.00    -0.342 N 
ATOM     14  C   UNL     1       5.850  -4.659  -4.012  1.00  0.00     0.249 C 
ATOM     15  O   UNL     1       6.831  -3.932  -4.108  1.00  0.00    -0.272 OA
ATOM     16  H   UNL     1       4.456  -5.593  -2.886  1.00  0.00     0.164 HD
BRANCH  14  17
ATOM     17  C   UNL     1       5.043  -5.165  -5.227  1.00  0.00     0.207 C 
BRANCH  17  18
ATOM     18  C   UNL     1       5.976  -5.442  -6.411  1.00  0.00     0.077 C 
BRANCH  18  19
ATOM     19  C   UNL     1       5.212  -5.912  -7.629  1.00  0.00    -0.043 A 
ATOM     20  C   UNL     1       4.738  -5.756 -10.003  1.00  0.00     0.083 A 
ATOM     21  C   UNL     1       5.478  -5.355  -8.890  1.00  0.00     0.028 A 
ATOM     22  C   UNL     1       3.730  -6.711  -9.865  1.00  0.00     0.134 A 
ATOM     23  C   UNL     1       3.456  -7.270  -8.622  1.00  0.00     0.048 A 
ATOM     24  C   UNL     1       4.194  -6.870  -7.506  1.00  0.00     0.008 A 
ATOM     25  Cl  UNL     1       5.078  -5.059 -11.543  1.00  0.00    -0.080 Cl
BRANCH  22  26
ATOM     26  O   UNL     1       2.971  -7.127 -10.925  1.00  0.00    -0.506 OA
ATOM     27  H   UNL     1       2.636  -6.322 -11.363  1.00  0.00     0.293 HD
ENDBRANCH  22  26
ENDBRANCH  18  19
ENDBRANCH  17  18
BRANCH  17  28
ATOM     28  O   UNL     1       4.046  -4.208  -5.620  1.00  0.00    -0.383 OA
ATOM     29  H   UNL     1       4.009  -4.242  -6.603  1.00  0.00     0.211 HD
ENDBRANCH  17  28
ENDBRANCH  14  17
ENDBRANCH  12  13
BRANCH  12  30
ATOM     30  C   UNL     1       7.059  -5.766  -1.087  1.00  0.00     0.018 C 
ATOM     31  C   UNL     1       6.691  -7.227  -1.392  1.00  0.00     0.010 C 
BRANCH  30  32
ATOM     32  C   UNL     1       7.486  -5.624   0.394  1.00  0.00     0.002 C 
ATOM     33  C   UNL     1       8.662  -6.494   0.820  1.00  0.00     0.004 C 
ENDBRANCH  30  32
ENDBRANCH  12  30
ENDBRANCH  10  12
ENDBRANCH   1  10
BRANCH   5  34
ATOM     34  C   UNL     1       5.949  -1.702  -0.582  1.00  0.00     0.242 C 
ATOM     35  O   UNL     1       6.413  -1.230   0.456  1.00  0.00    -0.273 OA
ATOM     36  N   UNL     1       6.637  -1.684  -1.775  1.00  0.00    -0.354 N 
ATOM     37  H   UNL     1       6.155  -1.979  -2.625  1.00  0.00     0.163 HD
BRANCH  36  38
ATOM     38  C   UNL     1       8.046  -1.360  -1.850  1.00  0.00     0.116 C 
BRANCH  38  39
ATOM     39  C   UNL     1       8.881  -2.613  -1.597  1.00  0.00     0.023 C 
BRANCH  39  40
ATOM     40  C   UNL     1       9.587  -2.581  -0.246  1.00  0.00     0.026 C 
BRANCH  40  41
ATOM     41  C   UNL     1       9.882  -1.141   0.177  1.00  0.00     0.146 C 
BRANCH  41  42
ATOM     42  N   UNL     1      10.277  -1.111   1.579  1.00  0.00    -0.254 NA
ATOM     43  C   UNL     1       9.489  -0.600   2.448  1.00  0.00     0.185 C 
ATOM     44  N   UNL     1       8.273  -0.046   2.293  1.00  0.00    -0.370 N 
ATOM     45  N   UNL     1       9.874  -0.578   3.735  1.00  0.00    -0.370 N 
ATOM     46  H   UNL     1       7.876   0.532   3.015  1.00  0.00     0.159 HD
ATOM     47  H   UNL     1       7.823   0.008   1.384  1.00  0.00     0.159 HD
ATOM     48  H   UNL     1      10.776  -0.984   3.940  1.00  0.00     0.159 HD
ATOM     49  H   UNL     1       9.233  -0.418   4.492  1.00  0.00     0.159 HD
ENDBRANCH  41  42
ENDBRANCH  40  41
ENDBRANCH  39  40
ENDBRANCH  38  39
ENDBRANCH  36  38
ENDBRANCH   5  34
BRANCH   8  50
ATOM     50  O   UNL     1       5.202  -1.925   4.102  1.00  0.00    -0.245 OA
BRANCH  50  51
ATOM     51  S   UNL     1       6.653  -2.414   4.651  1.00  0.00     0.397 S 
ATOM     52  O   UNL     1       7.445  -2.826   3.514  1.00  0.00    -0.169 OA
ATOM     53  O   UNL     1       6.472  -3.274   5.802  1.00  0.00    -0.169 OA
BRANCH  51  54
ATOM     54  O   UNL     1       7.302  -1.034   5.160  1.00  0.00    -0.264 OA
ATOM     55  H   UNL     1       7.283  -0.402   4.413  1.00  0.00     0.236 HD
ENDBRANCH  51  54
ENDBRANCH  50  51
ENDBRANCH   8  50
TORSDOF 19
ENDMDL
MODEL 4
REMARK VINA RESULT:    -7.942      4.907      9.720
REMARK INTER + INTRA:         -18.784
REMARK INTER:                 -15.911
REMARK INTRA:                  -2.873
REMARK UNBOUND:                -2.717
REMARK SMILES CC[C@@H](C)[C@@H](NC(=O)[C@@H](O)Cc1ccc(O)c(Cl)c1)C(=O)N1[C@H](C(=O)NCCCCN=C(N)N)C[C@H]2CC[C@H](OS(=O)(=O)O)C[C@@H]21
REMARK SMILES IDX 22 1 36 2 46 3 35 4 23 5 45 6 37 7 39 8 38 9 20 10 21 11
REMARK SMILES IDX 5 12 6 13 7 14 8 15 9 17 11 18 12 19 17 20 19 21 15 22 14 23
REMARK SMILES IDX 13 24 18 25 16 26 10 28 3 30 4 31 2 32 1 33 24 34 25 35
REMARK SMILES IDX 26 36 27 38 28 39 29 40 30 41 31 42 32 43 33 44 34 45 40 50
REMARK SMILES IDX 41 51 42 52 43 53 44 54
REMARK H PARENT 6 16 16 27 10 29 26 37 33 46 33 47 34 48 34 49 44 55
ROOT
ATOM      1  N   UNL     1       5.889  -2.233  -1.079  1.00  0.00    -0.326 N 
ATOM      2  C   UNL     1       6.461  -0.667   0.584  1.00  0.00     0.014 C 
ATOM      3  C   UNL     1       5.316  -1.556   0.088  1.00  0.00     0.091 C 
ATOM      4  C   UNL     1       7.151  -0.258  -0.708  1.00  0.00     0.041 C 
ATOM      5  C   UNL     1       7.189  -1.614  -1.437  1.00  0.00     0.175 C 
ATOM      6  C   UNL     1       4.830  -2.413   1.256  1.00  0.00     0.059 C 
ATOM      7  C   UNL     1       5.946   0.405   1.524  1.00  0.00     0.008 C 
ATOM      8  C   UNL     1       4.961  -1.722   2.631  1.00  0.00     0.143 C 
ATOM      9  C   UNL     1       4.919  -0.185   2.513  1.00  0.00     0.034 C 
ENDROOT
BRANCH   1  10
ATOM     10  C   UNL     1       5.314  -3.145  -1.947  1.00  0.00     0.246 C 
ATOM     11  O   UNL     1       4.233  -2.870  -2.478  1.00  0.00    -0.272 OA
BRANCH  10  12
ATOM     12  C   UNL     1       6.059  -4.473  -2.268  1.00  0.00     0.174 C 
BRANCH  12  13
ATOM     13  N   UNL     1       5.499  -5.079  -3.476  1.00  0.00    -0.342 N 
ATOM     14  C   UNL     1       6.026  -4.949  -4.742  1.00  0.00     0.249 C 
ATOM     15  O   UNL     1       7.050  -4.326  -4.994  1.00  0.00    -0.272 OA
ATOM     16  H   UNL     1       4.570  -5.492  -3.449  1.00  0.00     0.164 HD
BRANCH  14  17
ATOM     17  C   UNL     1       5.197  -5.692  -5.811  1.00  0.00     0.207 C 
BRANCH  17  18
ATOM     18  C   UNL     1       5.196  -4.909  -7.128  1.00  0.00     0.077 C 
BRANCH  18  19
ATOM     19  C   UNL     1       6.319  -5.346  -8.042  1.00  0.00    -0.043 A 
ATOM     20  C   UNL     1       8.051  -6.938  -8.632  1.00  0.00     0.083 A 
ATOM     21  C   UNL     1       6.983  -6.561  -7.817  1.00  0.00     0.028 A 
ATOM     22  C   UNL     1       8.462  -6.105  -9.673  1.00  0.00     0.134 A 
ATOM     23  C   UNL     1       7.813  -4.898  -9.907  1.00  0.00     0.048 A 
ATOM     24  C   UNL     1       6.745  -4.518  -9.092  1.00  0.00     0.008 A 
ATOM     25  Cl  UNL     1       8.855  -8.435  -8.340  1.00  0.00    -0.080 Cl
BRANCH  22  26
ATOM     26  O   UNL     1       9.511  -6.426 -10.492  1.00  0.00    -0.506 OA
ATOM     27  H   UNL     1       9.656  -7.386 -10.398  1.00  0.00     0.293 HD
ENDBRANCH  22  26
ENDBRANCH  18  19
ENDBRANCH  17  18
BRANCH  17  28
ATOM     28  O   UNL     1       3.843  -5.888  -5.372  1.00  0.00    -0.383 OA
ATOM     29  H   UNL     1       3.477  -4.989  -5.211  1.00  0.00     0.211 HD
ENDBRANCH  17  28
ENDBRANCH  14  17
ENDBRANCH  12  13
BRANCH  12  30
ATOM     30  C   UNL     1       6.077  -5.456  -1.067  1.00  0.00     0.018 C 
ATOM     31  C   UNL     1       7.152  -6.537  -1.261  1.00  0.00     0.010 C 
BRANCH  30  32
ATOM     32  C   UNL     1       4.706  -6.116  -0.782  1.00  0.00     0.002 C 
ATOM     33  C   UNL     1       3.886  -5.463   0.324  1.00  0.00     0.004 C 
ENDBRANCH  30  32
ENDBRANCH  12  30
ENDBRANCH  10  12
ENDBRANCH   1  10
BRANCH   5  34
ATOM     34  C   UNL     1       8.371  -2.494  -0.948  1.00  0.00     0.242 C 
ATOM     35  O   UNL     1       9.379  -2.679  -1.629  1.00  0.00    -0.273 OA
ATOM     36  N   UNL     1       8.186  -3.094   0.277  1.00  0.00    -0.354 N 
ATOM     37  H   UNL     1       7.280  -3.000   0.739  1.00  0.00     0.163 HD
BRANCH  36  38
ATOM     38  C   UNL     1       9.260  -3.767   0.979  1.00  0.00     0.116 C 
BRANCH  38  39
ATOM     39  C   UNL     1       9.444  -3.146   2.362  1.00  0.00     0.023 C 
BRANCH  39  40
ATOM     40  C   UNL     1       9.669  -1.639   2.299  1.00  0.00     0.026 C 
BRANCH  40  41
ATOM     41  C   UNL     1       9.614  -1.025   3.698  1.00  0.00     0.146 C 
BRANCH  41  42
ATOM     42  N   UNL     1       8.735   0.138   3.691  1.00  0.00    -0.254 NA
ATOM     43  C   UNL     1       8.201   0.534   4.784  1.00  0.00     0.185 C 
ATOM     44  N   UNL     1       8.310   0.038   6.030  1.00  0.00    -0.370 N 
ATOM     45  N   UNL     1       7.390   1.604   4.755  1.00  0.00    -0.370 N 
ATOM     46  H   UNL     1       7.649   0.294   6.744  1.00  0.00     0.159 HD
ATOM     47  H   UNL     1       8.896  -0.765   6.235  1.00  0.00     0.159 HD
ATOM     48  H   UNL     1       7.260   2.044   3.855  1.00  0.00     0.159 HD
ATOM     49  H   UNL     1       7.129   2.111   5.582  1.00  0.00     0.159 HD
ENDBRANCH  41  42
ENDBRANCH  40  41
ENDBRANCH  39  40
ENDBRANCH  38  39
ENDBRANCH  36  38
ENDBRANCH   5  34
BRANCH   8  50
ATOM     50  O   UNL     1       6.191  -2.096   3.252  1.00  0.00    -0.245 OA
BRANCH  50  51
ATOM     51  S   UNL     1       6.180  -3.165   4.477  1.00  0.00     0.397 S 
ATOM     52  O   UNL     1       7.002  -2.634   5.541  1.00  0.00    -0.169 OA
ATOM     53  O   UNL     1       6.380  -4.502   3.957  1.00  0.00    -0.169 OA
BRANCH  51  54
ATOM     54  O   UNL     1       4.663  -3.059   5.001  1.00  0.00    -0.264 OA
ATOM     55  H   UNL     1       4.666  -2.513   5.813  1.00  0.00     0.236 HD
ENDBRANCH  51  54
ENDBRANCH  50  51
ENDBRANCH   8  50
TORSDOF 19
ENDMDL
MODEL 5
REMARK VINA RESULT:    -7.933      4.769      9.551
REMARK INTER + INTRA:         -18.765
REMARK INTER:                 -15.432
REMARK INTRA:                  -3.333
REMARK UNBOUND:                -2.717
REMARK SMILES CC[C@@H](C)[C@@H](NC(=O)[C@@H](O)Cc1ccc(O)c(Cl)c1)C(=O)N1[C@H](C(=O)NCCCCN=C(N)N)C[C@H]2CC[C@H](OS(=O)(=O)O)C[C@@H]21
REMARK SMILES IDX 22 1 36 2 46 3 35 4 23 5 45 6 37 7 39 8 38 9 20 10 21 11
REMARK SMILES IDX 5 12 6 13 7 14 8 15 9 17 11 18 12 19 17 20 19 21 15 22 14 23
REMARK SMILES IDX 13 24 18 25 16 26 10 28 3 30 4 31 2 32 1 33 24 34 25 35
REMARK SMILES IDX 26 36 27 38 28 39 29 40 30 41 31 42 32 43 33 44 34 45 40 50
REMARK SMILES IDX 41 51 42 52 43 53 44 54
REMARK H PARENT 6 16 16 27 10 29 26 37 33 46 33 47 34 48 34 49 44 55
ROOT
ATOM      1  N   UNL     1       4.458  -3.622  -0.092  1.00  0.00    -0.326 N 
ATOM      2  C   UNL     1       3.711  -1.857   1.275  1.00  0.00     0.014 C 
ATOM      3  C   UNL     1       3.814  -3.383   1.203  1.00  0.00     0.091 C 
ATOM      4  C   UNL     1       3.466  -1.469  -0.176  1.00  0.00     0.041 C 
ATOM      5  C   UNL     1       4.505  -2.363  -0.876  1.00  0.00     0.175 C 
ATOM      6  C   UNL     1       4.518  -3.879   2.465  1.00  0.00     0.059 C 
ATOM      7  C   UNL     1       2.717  -1.430   2.337  1.00  0.00     0.008 C 
ATOM      8  C   UNL     1       4.246  -3.009   3.711  1.00  0.00     0.143 C 
ATOM      9  C   UNL     1       2.896  -2.271   3.618  1.00  0.00     0.034 C 
ENDROOT
BRANCH   1  10
ATOM     10  C   UNL     1       4.793  -4.815  -0.710  1.00  0.00     0.246 C 
ATOM     11  O   UNL     1       4.119  -5.824  -0.475  1.00  0.00    -0.272 OA
BRANCH  10  12
ATOM     12  C   UNL     1       5.979  -4.851  -1.716  1.00  0.00     0.174 C 
BRANCH  12  13
ATOM     13  N   UNL     1       5.514  -5.327  -3.019  1.00  0.00    -0.342 N 
ATOM     14  C   UNL     1       5.974  -4.875  -4.235  1.00  0.00     0.249 C 
ATOM     15  O   UNL     1       6.854  -4.033  -4.362  1.00  0.00    -0.272 OA
ATOM     16  H   UNL     1       4.681  -5.907  -3.075  1.00  0.00     0.164 HD
BRANCH  14  17
ATOM     17  C   UNL     1       5.273  -5.560  -5.428  1.00  0.00     0.207 C 
BRANCH  17  18
ATOM     18  C   UNL     1       5.323  -4.660  -6.667  1.00  0.00     0.077 C 
BRANCH  18  19
ATOM     19  C   UNL     1       6.390  -5.105  -7.642  1.00  0.00    -0.043 A 
ATOM     20  C   UNL     1       7.991  -6.765  -8.395  1.00  0.00     0.083 A 
ATOM     21  C   UNL     1       6.972  -6.377  -7.524  1.00  0.00     0.028 A 
ATOM     22  C   UNL     1       8.435  -5.888  -9.385  1.00  0.00     0.134 A 
ATOM     23  C   UNL     1       7.868  -4.626  -9.513  1.00  0.00     0.048 A 
ATOM     24  C   UNL     1       6.849  -4.233  -8.642  1.00  0.00     0.008 A 
ATOM     25  Cl  UNL     1       8.693  -8.332  -8.234  1.00  0.00    -0.080 Cl
BRANCH  22  26
ATOM     26  O   UNL     1       9.438  -6.220 -10.255  1.00  0.00    -0.506 OA
ATOM     27  H   UNL     1       9.460  -5.523 -10.936  1.00  0.00     0.293 HD
ENDBRANCH  22  26
ENDBRANCH  18  19
ENDBRANCH  17  18
BRANCH  17  28
ATOM     28  O   UNL     1       3.905  -5.868  -5.118  1.00  0.00    -0.383 OA
ATOM     29  H   UNL     1       3.482  -6.118  -5.970  1.00  0.00     0.211 HD
ENDBRANCH  17  28
ENDBRANCH  14  17
ENDBRANCH  12  13
BRANCH  12  30
ATOM     30  C   UNL     1       7.191  -5.664  -1.187  1.00  0.00     0.018 C 
ATOM     31  C   UNL     1       7.082  -7.140  -1.603  1.00  0.00     0.010 C 
BRANCH  30  32
ATOM     32  C   UNL     1       7.390  -5.556   0.345  1.00  0.00     0.002 C 
ATOM     33  C   UNL     1       8.685  -6.157   0.877  1.00  0.00     0.004 C 
ENDBRANCH  30  32
ENDBRANCH  12  30
ENDBRANCH  10  12
ENDBRANCH   1  10
BRANCH   5  34
ATOM     34  C   UNL     1       5.924  -1.737  -0.828  1.00  0.00     0.242 C 
ATOM     35  O   UNL     1       6.343  -1.133   0.160  1.00  0.00    -0.273 OA
ATOM     36  N   UNL     1       6.658  -1.859  -1.986  1.00  0.00    -0.354 N 
ATOM     37  H   UNL     1       6.212  -2.264  -2.810  1.00  0.00     0.163 HD
BRANCH  36  38
ATOM     38  C   UNL     1       8.067  -1.528  -2.047  1.00  0.00     0.116 C 
BRANCH  38  39
ATOM     39  C   UNL     1       8.902  -2.736  -1.632  1.00  0.00     0.023 C 
BRANCH  39  40
ATOM     40  C   UNL     1       9.737  -2.466  -0.385  1.00  0.00     0.026 C 
BRANCH  40  41
ATOM     41  C   UNL     1       9.636  -0.998   0.028  1.00  0.00     0.146 C 
BRANCH  41  42
ATOM     42  N   UNL     1      10.121  -0.836   1.392  1.00  0.00    -0.254 NA
ATOM     43  C   UNL     1       9.324  -0.416   2.302  1.00  0.00     0.185 C 
ATOM     44  N   UNL     1       8.025  -0.073   2.223  1.00  0.00    -0.370 N 
ATOM     45  N   UNL     1       9.791  -0.268   3.552  1.00  0.00    -0.370 N 
ATOM     46  H   UNL     1       7.592   0.468   2.953  1.00  0.00     0.159 HD
ATOM     47  H   UNL     1       7.509  -0.137   1.351  1.00  0.00     0.159 HD
ATOM     48  H   UNL     1      10.761  -0.514   3.700  1.00  0.00     0.159 HD
ATOM     49  H   UNL     1       9.189  -0.177   4.351  1.00  0.00     0.159 HD
ENDBRANCH  41  42
ENDBRANCH  40  41
ENDBRANCH  39  40
ENDBRANCH  38  39
ENDBRANCH  36  38
ENDBRANCH   5  34
BRANCH   8  50
ATOM     50  O   UNL     1       5.283  -2.040   3.867  1.00  0.00    -0.245 OA
BRANCH  50  51
ATOM     51  S   UNL     1       6.753  -2.512   4.379  1.00  0.00     0.397 S 
ATOM     52  O   UNL     1       7.336  -1.422   5.129  1.00  0.00    -0.169 OA
ATOM     53  O   UNL     1       7.464  -3.152   3.292  1.00  0.00    -0.169 OA
BRANCH  51  54
ATOM     54  O   UNL     1       6.384  -3.641   5.463  1.00  0.00    -0.264 OA
ATOM     55  H   UNL     1       6.905  -4.442   5.249  1.00  0.00     0.236 HD
ENDBRANCH  51  54
ENDBRANCH  50  51
ENDBRANCH   8  50
TORSDOF 19
ENDMDL
MODEL 6
REMARK VINA RESULT:    -7.858      5.143     10.225
REMARK INTER + INTRA:         -18.613
REMARK INTER:                 -16.293
REMARK INTRA:                  -2.320
REMARK UNBOUND:                -2.717
REMARK SMILES CC[C@@H](C)[C@@H](NC(=O)[C@@H](O)Cc1ccc(O)c(Cl)c1)C(=O)N1[C@H](C(=O)NCCCCN=C(N)N)C[C@H]2CC[C@H](OS(=O)(=O)O)C[C@@H]21
REMARK SMILES IDX 22 1 36 2 46 3 35 4 23 5 45 6 37 7 39 8 38 9 20 10 21 11
REMARK SMILES IDX 5 12 6 13 7 14 8 15 9 17 11 18 12 19 17 20 19 21 15 22 14 23
REMARK SMILES IDX 13 24 18 25 16 26 10 28 3 30 4 31 2 32 1 33 24 34 25 35
REMARK SMILES IDX 26 36 27 38 28 39 29 40 30 41 31 42 32 43 33 44 34 45 40 50
REMARK SMILES IDX 41 51 42 52 43 53 44 54
REMARK H PARENT 6 16 16 27 10 29 26 37 33 46 33 47 34 48 34 49 44 55
ROOT
ATOM      1  N   UNL     1       5.187  -2.467  -0.210  1.00  0.00    -0.326 N 
ATOM      2  C   UNL     1       5.389  -0.277   0.633  1.00  0.00     0.014 C 
ATOM      3  C   UNL     1       4.737  -1.635   0.910  1.00  0.00     0.091 C 
ATOM      4  C   UNL     1       5.369  -0.200  -0.886  1.00  0.00     0.041 C 
ATOM      5  C   UNL     1       5.844  -1.622  -1.238  1.00  0.00     0.175 C 
ATOM      6  C   UNL     1       5.105  -2.067   2.328  1.00  0.00     0.059 C 
ATOM      7  C   UNL     1       4.725   0.819   1.442  1.00  0.00     0.008 C 
ATOM      8  C   UNL     1       5.287  -0.889   3.309  1.00  0.00     0.143 C 
ATOM      9  C   UNL     1       4.467   0.348   2.888  1.00  0.00     0.034 C 
ENDROOT
BRANCH   1  10
ATOM     10  C   UNL     1       4.901  -3.789  -0.504  1.00  0.00     0.246 C 
ATOM     11  O   UNL     1       3.820  -4.265  -0.143  1.00  0.00    -0.272 OA
BRANCH  10  12
ATOM     12  C   UNL     1       5.924  -4.631  -1.320  1.00  0.00     0.174 C 
BRANCH  12  13
ATOM     13  N   UNL     1       5.353  -4.992  -2.617  1.00  0.00    -0.342 N 
ATOM     14  C   UNL     1       5.863  -4.613  -3.838  1.00  0.00     0.249 C 
ATOM     15  O   UNL     1       6.881  -3.946  -3.974  1.00  0.00    -0.272 OA
ATOM     16  H   UNL     1       4.426  -5.408  -2.660  1.00  0.00     0.164 HD
BRANCH  14  17
ATOM     17  C   UNL     1       5.024  -5.137  -5.023  1.00  0.00     0.207 C 
BRANCH  17  18
ATOM     18  C   UNL     1       5.936  -5.690  -6.122  1.00  0.00     0.077 C 
BRANCH  18  19
ATOM     19  C   UNL     1       5.170  -5.989  -7.391  1.00  0.00    -0.043 A 
ATOM     20  C   UNL     1       4.741  -5.559  -9.739  1.00  0.00     0.083 A 
ATOM     21  C   UNL     1       5.482  -5.316  -8.582  1.00  0.00     0.028 A 
ATOM     22  C   UNL     1       3.685  -6.471  -9.713  1.00  0.00     0.134 A 
ATOM     23  C   UNL     1       3.365  -7.144  -8.540  1.00  0.00     0.048 A 
ATOM     24  C   UNL     1       4.104  -6.902  -7.380  1.00  0.00     0.008 A 
ATOM     25  Cl  UNL     1       5.139  -4.722 -11.193  1.00  0.00    -0.080 Cl
BRANCH  22  26
ATOM     26  O   UNL     1       2.923  -6.733 -10.819  1.00  0.00    -0.506 OA
ATOM     27  H   UNL     1       2.643  -7.665 -10.752  1.00  0.00     0.293 HD
ENDBRANCH  22  26
ENDBRANCH  18  19
ENDBRANCH  17  18
BRANCH  17  28
ATOM     28  O   UNL     1       4.195  -4.099  -5.569  1.00  0.00    -0.383 OA
ATOM     29  H   UNL     1       4.408  -3.284  -5.059  1.00  0.00     0.211 HD
ENDBRANCH  17  28
ENDBRANCH  14  17
ENDBRANCH  12  13
BRANCH  12  30
ATOM     30  C   UNL     1       6.442  -5.868  -0.536  1.00  0.00     0.018 C 
ATOM     31  C   UNL     1       7.241  -5.434   0.703  1.00  0.00     0.010 C 
BRANCH  30  32
ATOM     32  C   UNL     1       7.283  -6.841  -1.397  1.00  0.00     0.002 C 
ATOM     33  C   UNL     1       8.206  -7.770  -0.618  1.00  0.00     0.004 C 
ENDBRANCH  30  32
ENDBRANCH  12  30
ENDBRANCH  10  12
ENDBRANCH   1  10
BRANCH   5  34
ATOM     34  C   UNL     1       7.388  -1.747  -1.149  1.00  0.00     0.242 C 
ATOM     35  O   UNL     1       8.096  -1.878  -2.147  1.00  0.00    -0.273 OA
ATOM     36  N   UNL     1       7.903  -1.756   0.128  1.00  0.00    -0.354 N 
ATOM     37  H   UNL     1       7.256  -1.766   0.918  1.00  0.00     0.163 HD
BRANCH  36  38
ATOM     38  C   UNL     1       9.323  -1.650   0.391  1.00  0.00     0.116 C 
BRANCH  38  39
ATOM     39  C   UNL     1       9.649  -0.255   0.920  1.00  0.00     0.023 C 
BRANCH  39  40
ATOM     40  C   UNL     1      11.147   0.029   0.929  1.00  0.00     0.026 C 
BRANCH  40  41
ATOM     41  C   UNL     1      11.645   0.264   2.355  1.00  0.00     0.146 C 
BRANCH  41  42
ATOM     42  N   UNL     1      11.748   1.695   2.611  1.00  0.00    -0.254 NA
ATOM     43  C   UNL     1      10.888   2.266   3.367  1.00  0.00     0.185 C 
ATOM     44  N   UNL     1       9.829   1.750   4.018  1.00  0.00    -0.370 N 
ATOM     45  N   UNL     1      10.997   3.587   3.587  1.00  0.00    -0.370 N 
ATOM     46  H   UNL     1       9.103   2.349   4.373  1.00  0.00     0.159 HD
ATOM     47  H   UNL     1       9.606   0.760   3.972  1.00  0.00     0.159 HD
ATOM     48  H   UNL     1      11.775   4.053   3.140  1.00  0.00     0.159 HD
ATOM     49  H   UNL     1      10.521   4.054   4.338  1.00  0.00     0.159 HD
ENDBRANCH  41  42
ENDBRANCH  40  41
ENDBRANCH  39  40
ENDBRANCH  38  39
ENDBRANCH  36  38
ENDBRANCH   5  34
BRANCH   8  50
ATOM     50  O   UNL     1       6.664  -0.517   3.379  1.00  0.00    -0.245 OA
BRANCH  50  51
ATOM     51  S   UNL     1       7.570  -1.025   4.632  1.00  0.00     0.397 S 
ATOM     52  O   UNL     1       8.931  -1.171   4.167  1.00  0.00    -0.169 OA
ATOM     53  O   UNL     1       6.884  -2.095   5.325  1.00  0.00    -0.169 OA
BRANCH  51  54
ATOM     54  O   UNL     1       7.571   0.267   5.590  1.00  0.00    -0.264 OA
ATOM     55  H   UNL     1       7.301  -0.025   6.484  1.00  0.00     0.236 HD
ENDBRANCH  51  54
ENDBRANCH  50  51
ENDBRANCH   8  50
TORSDOF 19
ENDMDL
MODEL 7
REMARK VINA RESULT:    -7.837      1.428      2.302
REMARK INTER + INTRA:         -18.571
REMARK INTER:                 -15.440
REMARK INTRA:                  -3.131
REMARK UNBOUND:                -2.717
REMARK SMILES CC[C@@H](C)[C@@H](NC(=O)[C@@H](O)Cc1ccc(O)c(Cl)c1)C(=O)N1[C@H](C(=O)NCCCCN=C(N)N)C[C@H]2CC[C@H](OS(=O)(=O)O)C[C@@H]21
REMARK SMILES IDX 22 1 36 2 46 3 35 4 23 5 45 6 37 7 39 8 38 9 20 10 21 11
REMARK SMILES IDX 5 12 6 13 7 14 8 15 9 17 11 18 12 19 17 20 19 21 15 22 14 23
REMARK SMILES IDX 13 24 18 25 16 26 10 28 3 30 4 31 2 32 1 33 24 34 25 35
REMARK SMILES IDX 26 36 27 38 28 39 29 40 30 41 31 42 32 43 33 44 34 45 40 50
REMARK SMILES IDX 41 51 42 52 43 53 44 54
REMARK H PARENT 6 16 16 27 10 29 26 37 33 46 33 47 34 48 34 49 44 55
ROOT
ATOM      1  N   UNL     1       7.913  -4.402   2.171  1.00  0.00    -0.326 N 
ATOM      2  C   UNL     1       7.918  -5.863   0.325  1.00  0.00     0.014 C 
ATOM      3  C   UNL     1       6.989  -5.076   1.255  1.00  0.00     0.091 C 
ATOM      4  C   UNL     1       9.055  -6.267   1.251  1.00  0.00     0.041 C 
ATOM      5  C   UNL     1       9.285  -4.938   1.995  1.00  0.00     0.175 C 
ATOM      6  C   UNL     1       6.063  -4.215   0.397  1.00  0.00     0.059 C 
ATOM      7  C   UNL     1       7.152  -6.935  -0.424  1.00  0.00     0.008 C 
ATOM      8  C   UNL     1       5.718  -4.846  -0.969  1.00  0.00     0.143 C 
ATOM      9  C   UNL     1       5.804  -6.385  -0.935  1.00  0.00     0.034 C 
ENDROOT
BRANCH   1  10
ATOM     10  C   UNL     1       7.649  -3.564   3.242  1.00  0.00     0.246 C 
ATOM     11  O   UNL     1       8.273  -3.721   4.296  1.00  0.00    -0.272 OA
BRANCH  10  12
ATOM     12  C   UNL     1       6.606  -2.420   3.081  1.00  0.00     0.174 C 
BRANCH  12  13
ATOM     13  N   UNL     1       7.109  -1.196   3.703  1.00  0.00    -0.342 N 
ATOM     14  C   UNL     1       6.934   0.074   3.201  1.00  0.00     0.249 C 
ATOM     15  O   UNL     1       6.306   0.324   2.180  1.00  0.00    -0.272 OA
ATOM     16  H   UNL     1       7.778  -1.257   4.466  1.00  0.00     0.164 HD
BRANCH  14  17
ATOM     17  C   UNL     1       7.599   1.157   4.078  1.00  0.00     0.207 C 
BRANCH  17  18
ATOM     18  C   UNL     1       9.120   0.981   4.085  1.00  0.00     0.077 C 
BRANCH  18  19
ATOM     19  C   UNL     1       9.835   2.274   4.405  1.00  0.00    -0.043 A 
ATOM     20  C   UNL     1      10.488   3.975   6.007  1.00  0.00     0.083 A 
ATOM     21  C   UNL     1       9.871   2.757   5.723  1.00  0.00     0.028 A 
ATOM     22  C   UNL     1      11.070   4.719   4.979  1.00  0.00     0.134 A 
ATOM     23  C   UNL     1      11.042   4.253   3.670  1.00  0.00     0.048 A 
ATOM     24  C   UNL     1      10.423   3.034   3.383  1.00  0.00     0.008 A 
ATOM     25  Cl  UNL     1      10.522   4.551   7.632  1.00  0.00    -0.080 Cl
BRANCH  22  26
ATOM     26  O   UNL     1      11.677   5.924   5.207  1.00  0.00    -0.506 OA
ATOM     27  H   UNL     1      10.967   6.563   5.404  1.00  0.00     0.293 HD
ENDBRANCH  22  26
ENDBRANCH  18  19
ENDBRANCH  17  18
BRANCH  17  28
ATOM     28  O   UNL     1       7.106   1.106   5.426  1.00  0.00    -0.383 OA
ATOM     29  H   UNL     1       7.781   0.611   5.944  1.00  0.00     0.211 HD
ENDBRANCH  17  28
ENDBRANCH  14  17
ENDBRANCH  12  13
BRANCH  12  30
ATOM     30  C   UNL     1       5.198  -2.815   3.603  1.00  0.00     0.018 C 
ATOM     31  C   UNL     1       5.177  -4.280   4.065  1.00  0.00     0.010 C 
BRANCH  30  32
ATOM     32  C   UNL     1       4.063  -2.563   2.580  1.00  0.00     0.002 C 
ATOM     33  C   UNL     1       3.237  -1.306   2.820  1.00  0.00     0.004 C 
ENDBRANCH  30  32
ENDBRANCH  12  30
ENDBRANCH  10  12
ENDBRANCH   1  10
BRANCH   5  34
ATOM     34  C   UNL     1      10.156  -3.960   1.162  1.00  0.00     0.242 C 
ATOM     35  O   UNL     1       9.990  -3.798  -0.046  1.00  0.00    -0.273 OA
ATOM     36  N   UNL     1      11.160  -3.329   1.862  1.00  0.00    -0.354 N 
ATOM     37  H   UNL     1      11.324  -3.595   2.834  1.00  0.00     0.163 HD
BRANCH  36  38
ATOM     38  C   UNL     1      11.923  -2.233   1.301  1.00  0.00     0.116 C 
BRANCH  38  39
ATOM     39  C   UNL     1      11.460  -0.913   1.913  1.00  0.00     0.023 C 
BRANCH  39  40
ATOM     40  C   UNL     1      10.913   0.054   0.868  1.00  0.00     0.026 C 
BRANCH  40  41
ATOM     41  C   UNL     1       9.430  -0.210   0.609  1.00  0.00     0.146 C 
BRANCH  41  42
ATOM     42  N   UNL     1       9.250  -0.731  -0.740  1.00  0.00    -0.254 NA
ATOM     43  C   UNL     1       8.072  -0.986  -1.168  1.00  0.00     0.185 C 
ATOM     44  N   UNL     1       6.880  -0.850  -0.557  1.00  0.00    -0.370 N 
ATOM     45  N   UNL     1       7.928  -1.469  -2.413  1.00  0.00    -0.370 N 
ATOM     46  H   UNL     1       6.064  -1.315  -0.917  1.00  0.00     0.159 HD
ATOM     47  H   UNL     1       6.804  -0.484   0.387  1.00  0.00     0.159 HD
ATOM     48  H   UNL     1       8.778  -1.593  -2.947  1.00  0.00     0.159 HD
ATOM     49  H   UNL     1       7.049  -1.468  -2.899  1.00  0.00     0.159 HD
ENDBRANCH  41  42
ENDBRANCH  40  41
ENDBRANCH  39  40
ENDBRANCH  38  39
ENDBRANCH  36  38
ENDBRANCH   5  34
BRANCH   8  50
ATOM     50  O   UNL     1       6.612  -4.363  -1.972  1.00  0.00    -0.245 OA
BRANCH  50  51
ATOM     51  S   UNL     1       6.247  -4.574  -3.543  1.00  0.00     0.397 S 
ATOM     52  O   UNL     1       5.003  -3.886  -3.807  1.00  0.00    -0.169 OA
ATOM     53  O   UNL     1       6.439  -5.962  -3.905  1.00  0.00    -0.169 OA
BRANCH  51  54
ATOM     54  O   UNL     1       7.389  -3.708  -4.272  1.00  0.00    -0.264 OA
ATOM     55  H   UNL     1       6.965  -2.910  -4.647  1.00  0.00     0.236 HD
ENDBRANCH  51  54
ENDBRANCH  50  51
ENDBRANCH   8  50
TORSDOF 19
ENDMDL
MODEL 8
REMARK VINA RESULT:    -7.768      4.686      9.612
REMARK INTER + INTRA:         -18.432
REMARK INTER:                 -14.956
REMARK INTRA:                  -3.475
REMARK UNBOUND:                -2.717
REMARK SMILES CC[C@@H](C)[C@@H](NC(=O)[C@@H](O)Cc1ccc(O)c(Cl)c1)C(=O)N1[C@H](C(=O)NCCCCN=C(N)N)C[C@H]2CC[C@H](OS(=O)(=O)O)C[C@@H]21
REMARK SMILES IDX 22 1 36 2 46 3 35 4 23 5 45 6 37 7 39 8 38 9 20 10 21 11
REMARK SMILES IDX 5 12 6 13 7 14 8 15 9 17 11 18 12 19 17 20 19 21 15 22 14 23
REMARK SMILES IDX 13 24 18 25 16 26 10 28 3 30 4 31 2 32 1 33 24 34 25 35
REMARK SMILES IDX 26 36 27 38 28 39 29 40 30 41 31 42 32 43 33 44 34 45 40 50
REMARK SMILES IDX 41 51 42 52 43 53 44 54
REMARK H PARENT 6 16 16 27 10 29 26 37 33 46 33 47 34 48 34 49 44 55
ROOT
ATOM      1  N   UNL     1       5.731  -4.154   1.071  1.00  0.00    -0.326 N 
ATOM      2  C   UNL     1       4.578  -3.510   3.020  1.00  0.00     0.014 C 
ATOM      3  C   UNL     1       5.789  -4.307   2.527  1.00  0.00     0.091 C 
ATOM      4  C   UNL     1       3.554  -3.743   1.920  1.00  0.00     0.041 C 
ATOM      5  C   UNL     1       4.439  -3.539   0.676  1.00  0.00     0.175 C 
ATOM      6  C   UNL     1       7.031  -3.802   3.259  1.00  0.00     0.059 C 
ATOM      7  C   UNL     1       4.231  -3.879   4.449  1.00  0.00     0.008 C 
ATOM      8  C   UNL     1       6.747  -3.305   4.694  1.00  0.00     0.143 C 
ATOM      9  C   UNL     1       5.508  -3.987   5.308  1.00  0.00     0.034 C 
ENDROOT
BRANCH   1  10
ATOM     10  C   UNL     1       6.559  -4.672   0.090  1.00  0.00     0.246 C 
ATOM     11  O   UNL     1       6.869  -5.868   0.134  1.00  0.00    -0.272 OA
BRANCH  10  12
ATOM     12  C   UNL     1       7.046  -3.753  -1.068  1.00  0.00     0.174 C 
BRANCH  12  13
ATOM     13  N   UNL     1       6.944  -4.461  -2.344  1.00  0.00    -0.342 N 
ATOM     14  C   UNL     1       5.886  -4.364  -3.219  1.00  0.00     0.249 C 
ATOM     15  O   UNL     1       4.912  -3.644  -3.035  1.00  0.00    -0.272 OA
ATOM     16  H   UNL     1       7.598  -5.210  -2.557  1.00  0.00     0.164 HD
BRANCH  14  17
ATOM     17  C   UNL     1       6.066  -5.248  -4.471  1.00  0.00     0.207 C 
BRANCH  17  18
ATOM     18  C   UNL     1       4.787  -5.249  -5.315  1.00  0.00     0.077 C 
BRANCH  18  19
ATOM     19  C   UNL     1       5.042  -5.744  -6.721  1.00  0.00    -0.043 A 
ATOM     20  C   UNL     1       6.354  -5.700  -8.761  1.00  0.00     0.083 A 
ATOM     21  C   UNL     1       6.150  -5.278  -7.446  1.00  0.00     0.028 A 
ATOM     22  C   UNL     1       5.456  -6.585  -9.358  1.00  0.00     0.134 A 
ATOM     23  C   UNL     1       4.355  -7.054  -8.651  1.00  0.00     0.048 A 
ATOM     24  C   UNL     1       4.147  -6.633  -7.336  1.00  0.00     0.008 A 
ATOM     25  Cl  UNL     1       7.720  -5.116  -9.636  1.00  0.00    -0.080 Cl
BRANCH  22  26
ATOM     26  O   UNL     1       5.609  -7.018 -10.647  1.00  0.00    -0.506 OA
ATOM     27  H   UNL     1       6.493  -6.726 -10.938  1.00  0.00     0.293 HD
ENDBRANCH  22  26
ENDBRANCH  18  19
ENDBRANCH  17  18
BRANCH  17  28
ATOM     28  O   UNL     1       6.398  -6.598  -4.108  1.00  0.00    -0.383 OA
ATOM     29  H   UNL     1       5.821  -7.177  -4.656  1.00  0.00     0.211 HD
ENDBRANCH  17  28
ENDBRANCH  14  17
ENDBRANCH  12  13
BRANCH  12  30
ATOM     30  C   UNL     1       8.466  -3.178  -0.821  1.00  0.00     0.018 C 
ATOM     31  C   UNL     1       9.115  -3.834   0.408  1.00  0.00     0.010 C 
BRANCH  30  32
ATOM     32  C   UNL     1       8.498  -1.637  -0.679  1.00  0.00     0.002 C 
ATOM     33  C   UNL     1       7.654  -0.873  -1.692  1.00  0.00     0.004 C 
ENDBRANCH  30  32
ENDBRANCH  12  30
ENDBRANCH  10  12
ENDBRANCH   1  10
BRANCH   5  34
ATOM     34  C   UNL     1       4.625  -2.034   0.346  1.00  0.00     0.242 C 
ATOM     35  O   UNL     1       5.402  -1.314   0.972  1.00  0.00    -0.273 OA
ATOM     36  N   UNL     1       3.818  -1.552  -0.661  1.00  0.00    -0.354 N 
ATOM     37  H   UNL     1       3.109  -2.168  -1.060  1.00  0.00     0.163 HD
BRANCH  36  38
ATOM     38  C   UNL     1       4.008  -0.239  -1.241  1.00  0.00     0.116 C 
BRANCH  38  39
ATOM     39  C   UNL     1       2.744   0.598  -1.054  1.00  0.00     0.023 C 
BRANCH  39  40
ATOM     40  C   UNL     1       3.039   1.977  -0.472  1.00  0.00     0.026 C 
BRANCH  40  41
ATOM     41  C   UNL     1       2.649   2.037   1.004  1.00  0.00     0.146 C 
BRANCH  41  42
ATOM     42  N   UNL     1       3.842   1.929   1.834  1.00  0.00    -0.254 NA
ATOM     43  C   UNL     1       3.991   0.912   2.598  1.00  0.00     0.185 C 
ATOM     44  N   UNL     1       3.190  -0.153   2.788  1.00  0.00    -0.370 N 
ATOM     45  N   UNL     1       5.095   0.833   3.358  1.00  0.00    -0.370 N 
ATOM     46  H   UNL     1       3.310  -0.748   3.590  1.00  0.00     0.159 HD
ATOM     47  H   UNL     1       2.317  -0.260   2.281  1.00  0.00     0.159 HD
ATOM     48  H   UNL     1       5.757   1.592   3.268  1.00  0.00     0.159 HD
ATOM     49  H   UNL     1       5.397  -0.022   3.792  1.00  0.00     0.159 HD
ENDBRANCH  41  42
ENDBRANCH  40  41
ENDBRANCH  39  40
ENDBRANCH  38  39
ENDBRANCH  36  38
ENDBRANCH   5  34
BRANCH   8  50
ATOM     50  O   UNL     1       6.533  -1.894   4.691  1.00  0.00    -0.245 OA
BRANCH  50  51
ATOM     51  S   UNL     1       7.799  -0.890   4.498  1.00  0.00     0.397 S 
ATOM     52  O   UNL     1       7.835  -0.478   3.113  1.00  0.00    -0.169 OA
ATOM     53  O   UNL     1       8.964  -1.445   5.156  1.00  0.00    -0.169 OA
BRANCH  51  54
ATOM     54  O   UNL     1       7.330   0.405   5.329  1.00  0.00    -0.264 OA
ATOM     55  H   UNL     1       7.162   1.125   4.688  1.00  0.00     0.236 HD
ENDBRANCH  51  54
ENDBRANCH  50  51
ENDBRANCH   8  50
TORSDOF 19
ENDMDL
MODEL 9
REMARK VINA RESULT:    -7.715      4.589      9.687
REMARK INTER + INTRA:         -18.324
REMARK INTER:                 -15.225
REMARK INTRA:                  -3.099
REMARK UNBOUND:                -2.717
REMARK SMILES CC[C@@H](C)[C@@H](NC(=O)[C@@H](O)Cc1ccc(O)c(Cl)c1)C(=O)N1[C@H](C(=O)NCCCCN=C(N)N)C[C@H]2CC[C@H](OS(=O)(=O)O)C[C@@H]21
REMARK SMILES IDX 22 1 36 2 46 3 35 4 23 5 45 6 37 7 39 8 38 9 20 10 21 11
REMARK SMILES IDX 5 12 6 13 7 14 8 15 9 17 11 18 12 19 17 20 19 21 15 22 14 23
REMARK SMILES IDX 13 24 18 25 16 26 10 28 3 30 4 31 2 32 1 33 24 34 25 35
REMARK SMILES IDX 26 36 27 38 28 39 29 40 30 41 31 42 32 43 33 44 34 45 40 50
REMARK SMILES IDX 41 51 42 52 43 53 44 54
REMARK H PARENT 6 16 16 27 10 29 26 37 33 46 33 47 34 48 34 49 44 55
ROOT
ATOM      1  N   UNL     1       4.533  -3.955   1.020  1.00  0.00    -0.326 N 
ATOM      2  C   UNL     1       3.855  -2.759   2.931  1.00  0.00     0.014 C 
ATOM      3  C   UNL     1       4.470  -4.086   2.479  1.00  0.00     0.091 C 
ATOM      4  C   UNL     1       2.887  -2.437   1.803  1.00  0.00     0.041 C 
ATOM      5  C   UNL     1       3.771  -2.759   0.585  1.00  0.00     0.175 C 
ATOM      6  C   UNL     1       5.776  -4.299   3.243  1.00  0.00     0.059 C 
ATOM      7  C   UNL     1       3.336  -2.858   4.352  1.00  0.00     0.008 C 
ATOM      8  C   UNL     1       5.768  -3.698   4.666  1.00  0.00     0.143 C 
ATOM      9  C   UNL     1       4.343  -3.608   5.248  1.00  0.00     0.034 C 
ENDROOT
BRANCH   1  10
ATOM     10  C   UNL     1       4.981  -4.854   0.067  1.00  0.00     0.246 C 
ATOM     11  O   UNL     1       4.214  -5.734  -0.338  1.00  0.00    -0.272 OA
BRANCH  10  12
ATOM     12  C   UNL     1       6.422  -4.710  -0.505  1.00  0.00     0.174 C 
BRANCH  12  13
ATOM     13  N   UNL     1       6.457  -5.176  -1.890  1.00  0.00    -0.342 N 
ATOM     14  C   UNL     1       5.940  -4.491  -2.967  1.00  0.00     0.249 C 
ATOM     15  O   UNL     1       5.411  -3.390  -2.885  1.00  0.00    -0.272 OA
ATOM     16  H   UNL     1       6.722  -6.136  -2.092  1.00  0.00     0.164 HD
BRANCH  14  17
ATOM     17  C   UNL     1       6.117  -5.253  -4.298  1.00  0.00     0.207 C 
BRANCH  17  18
ATOM     18  C   UNL     1       4.848  -5.146  -5.150  1.00  0.00     0.077 C 
BRANCH  18  19
ATOM     19  C   UNL     1       5.068  -5.663  -6.554  1.00  0.00    -0.043 A 
ATOM     20  C   UNL     1       6.304  -5.620  -8.641  1.00  0.00     0.083 A 
ATOM     21  C   UNL     1       6.133  -5.177  -7.329  1.00  0.00     0.028 A 
ATOM     22  C   UNL     1       5.415  -6.547  -9.186  1.00  0.00     0.134 A 
ATOM     23  C   UNL     1       4.356  -7.037  -8.430  1.00  0.00     0.048 A 
ATOM     24  C   UNL     1       4.182  -6.594  -7.117  1.00  0.00     0.008 A 
ATOM     25  Cl  UNL     1       7.618  -5.011  -9.577  1.00  0.00    -0.080 Cl
BRANCH  22  26
ATOM     26  O   UNL     1       5.536  -7.003 -10.471  1.00  0.00    -0.506 OA
ATOM     27  H   UNL     1       6.170  -7.743 -10.448  1.00  0.00     0.293 HD
ENDBRANCH  22  26
ENDBRANCH  18  19
ENDBRANCH  17  18
BRANCH  17  28
ATOM     28  O   UNL     1       6.419  -6.638  -4.065  1.00  0.00    -0.383 OA
ATOM     29  H   UNL     1       6.204  -7.108  -4.902  1.00  0.00     0.211 HD
ENDBRANCH  17  28
ENDBRANCH  14  17
ENDBRANCH  12  13
BRANCH  12  30
ATOM     30  C   UNL     1       7.490  -5.405   0.381  1.00  0.00     0.018 C 
ATOM     31  C   UNL     1       8.884  -4.812   0.123  1.00  0.00     0.010 C 
BRANCH  30  32
ATOM     32  C   UNL     1       7.529  -6.944   0.217  1.00  0.00     0.002 C 
ATOM     33  C   UNL     1       8.822  -7.505  -0.359  1.00  0.00     0.004 C 
ENDBRANCH  30  32
ENDBRANCH  12  30
ENDBRANCH  10  12
ENDBRANCH   1  10
BRANCH   5  34
ATOM     34  C   UNL     1       4.732  -1.587   0.250  1.00  0.00     0.242 C 
ATOM     35  O   UNL     1       4.745  -1.041  -0.854  1.00  0.00    -0.273 OA
ATOM     36  N   UNL     1       5.604  -1.239   1.257  1.00  0.00    -0.354 N 
ATOM     37  H   UNL     1       5.627  -1.806   2.105  1.00  0.00     0.163 HD
BRANCH  36  38
ATOM     38  C   UNL     1       6.415  -0.040   1.198  1.00  0.00     0.116 C 
BRANCH  38  39
ATOM     39  C   UNL     1       7.625  -0.187   2.117  1.00  0.00     0.023 C 
BRANCH  39  40
ATOM     40  C   UNL     1       8.656  -1.168   1.571  1.00  0.00     0.026 C 
BRANCH  40  41
ATOM     41  C   UNL     1       9.335  -0.604   0.323  1.00  0.00     0.146 C 
BRANCH  41  42
ATOM     42  N   UNL     1       9.214  -1.553  -0.775  1.00  0.00    -0.254 NA
ATOM     43  C   UNL     1       8.391  -1.319  -1.727  1.00  0.00     0.185 C 
ATOM     44  N   UNL     1       7.556  -0.280  -1.913  1.00  0.00    -0.370 N 
ATOM     45  N   UNL     1       8.292  -2.209  -2.728  1.00  0.00    -0.370 N 
ATOM     46  H   UNL     1       6.797  -0.344  -2.570  1.00  0.00     0.159 HD
ATOM     47  H   UNL     1       7.513   0.493  -1.257  1.00  0.00     0.159 HD
ATOM     48  H   UNL     1       8.894  -3.019  -2.670  1.00  0.00     0.159 HD
ATOM     49  H   UNL     1       7.860  -1.992  -3.609  1.00  0.00     0.159 HD
ENDBRANCH  41  42
ENDBRANCH  40  41
ENDBRANCH  39  40
ENDBRANCH  38  39
ENDBRANCH  36  38
ENDBRANCH   5  34
BRANCH   8  50
ATOM     50  O   UNL     1       6.334  -2.387   4.647  1.00  0.00    -0.245 OA
BRANCH  50  51
ATOM     51  S   UNL     1       7.694  -2.088   5.487  1.00  0.00     0.397 S 
ATOM     52  O   UNL     1       7.812  -0.657   5.652  1.00  0.00    -0.169 OA
ATOM     53  O   UNL     1       8.781  -2.883   4.952  1.00  0.00    -0.169 OA
BRANCH  51  54
ATOM     54  O   UNL     1       7.325  -2.667   6.941  1.00  0.00    -0.264 OA
ATOM     55  H   UNL     1       7.932  -2.255   7.589  1.00  0.00     0.236 HD
ENDBRANCH  51  54
ENDBRANCH  50  51
ENDBRANCH   8  50
TORSDOF 19
ENDMDL
MODEL 10
REMARK VINA RESULT:    -7.695      2.990      5.096
REMARK INTER + INTRA:         -18.284
REMARK INTER:                 -15.280
REMARK INTRA:                  -3.005
REMARK UNBOUND:                -2.717
REMARK SMILES CC[C@@H](C)[C@@H](NC(=O)[C@@H](O)Cc1ccc(O)c(Cl)c1)C(=O)N1[C@H](C(=O)NCCCCN=C(N)N)C[C@H]2CC[C@H](OS(=O)(=O)O)C[C@@H]21
REMARK SMILES IDX 22 1 36 2 46 3 35 4 23 5 45 6 37 7 39 8 38 9 20 10 21 11
REMARK SMILES IDX 5 12 6 13 7 14 8 15 9 17 11 18 12 19 17 20 19 21 15 22 14 23
REMARK SMILES IDX 13 24 18 25 16 26 10 28 3 30 4 31 2 32 1 33 24 34 25 35
REMARK SMILES IDX 26 36 27 38 28 39 29 40 30 41 31 42 32 43 33 44 34 45 40 50
REMARK SMILES IDX 41 51 42 52 43 53 44 54
REMARK H PARENT 6 16 16 27 10 29 26 37 33 46 33 47 34 48 34 49 44 55
ROOT
ATOM      1  N   UNL     1       7.867  -4.984   2.313  1.00  0.00    -0.326 N 
ATOM      2  C   UNL     1       8.708  -6.088   0.411  1.00  0.00     0.014 C 
ATOM      3  C   UNL     1       7.418  -5.810   1.188  1.00  0.00     0.091 C 
ATOM      4  C   UNL     1       9.748  -6.189   1.515  1.00  0.00     0.041 C 
ATOM      5  C   UNL     1       9.349  -4.977   2.377  1.00  0.00     0.175 C 
ATOM      6  C   UNL     1       6.390  -5.222   0.223  1.00  0.00     0.059 C 
ATOM      7  C   UNL     1       8.524  -7.250  -0.546  1.00  0.00     0.008 C 
ATOM      8  C   UNL     1       6.526  -5.743  -1.224  1.00  0.00     0.143 C 
ATOM      9  C   UNL     1       7.169  -7.144  -1.277  1.00  0.00     0.034 C 
ENDROOT
BRANCH   1  10
ATOM     10  C   UNL     1       7.143  -4.445   3.362  1.00  0.00     0.246 C 
ATOM     11  O   UNL     1       7.568  -4.575   4.515  1.00  0.00    -0.272 OA
BRANCH  10  12
ATOM     12  C   UNL     1       5.837  -3.653   3.066  1.00  0.00     0.174 C 
BRANCH  12  13
ATOM     13  N   UNL     1       6.154  -2.418   2.350  1.00  0.00    -0.342 N 
ATOM     14  C   UNL     1       7.057  -1.469   2.773  1.00  0.00     0.249 C 
ATOM     15  O   UNL     1       7.724  -1.569   3.795  1.00  0.00    -0.272 OA
ATOM     16  H   UNL     1       5.570  -2.123   1.571  1.00  0.00     0.164 HD
BRANCH  14  17
ATOM     17  C   UNL     1       7.157  -0.269   1.806  1.00  0.00     0.207 C 
BRANCH  17  18
ATOM     18  C   UNL     1       6.218  -0.465   0.611  1.00  0.00     0.077 C 
BRANCH  18  19
ATOM     19  C   UNL     1       4.969   0.379   0.734  1.00  0.00    -0.043 A 
ATOM     20  C   UNL     1       3.113   1.550  -0.300  1.00  0.00     0.083 A 
ATOM     21  C   UNL     1       4.237   0.731  -0.411  1.00  0.00     0.028 A 
ATOM     22  C   UNL     1       2.715   2.023   0.951  1.00  0.00     0.134 A 
ATOM     23  C   UNL     1       3.431   1.682   2.093  1.00  0.00     0.048 A 
ATOM     24  C   UNL     1       4.557   0.863   1.985  1.00  0.00     0.008 A 
ATOM     25  Cl  UNL     1       2.227   1.972  -1.718  1.00  0.00    -0.080 Cl
BRANCH  22  26
ATOM     26  O   UNL     1       1.626   2.837   1.109  1.00  0.00    -0.506 OA
ATOM     27  H   UNL     1       1.961   3.691   1.439  1.00  0.00     0.293 HD
ENDBRANCH  22  26
ENDBRANCH  18  19
ENDBRANCH  17  18
BRANCH  17  28
ATOM     28  O   UNL     1       8.502  -0.097   1.332  1.00  0.00    -0.383 OA
ATOM     29  H   UNL     1       8.498  -0.383   0.391  1.00  0.00     0.211 HD
ENDBRANCH  17  28
ENDBRANCH  14  17
ENDBRANCH  12  13
BRANCH  12  30
ATOM     30  C   UNL     1       4.988  -3.397   4.341  1.00  0.00     0.018 C 
ATOM     31  C   UNL     1       4.477  -4.720   4.932  1.00  0.00     0.010 C 
BRANCH  30  32
ATOM     32  C   UNL     1       3.806  -2.423   4.116  1.00  0.00     0.002 C 
ATOM     33  C   UNL     1       2.927  -2.733   2.911  1.00  0.00     0.004 C 
ENDBRANCH  30  32
ENDBRANCH  12  30
ENDBRANCH  10  12
ENDBRANCH   1  10
BRANCH   5  34
ATOM     34  C   UNL     1       9.918  -3.653   1.801  1.00  0.00     0.242 C 
ATOM     35  O   UNL     1       9.810  -3.352   0.613  1.00  0.00    -0.273 OA
ATOM     36  N   UNL     1      10.600  -2.867   2.703  1.00  0.00    -0.354 N 
ATOM     37  H   UNL     1      10.760  -3.226   3.645  1.00  0.00     0.163 HD
BRANCH  36  38
ATOM     38  C   UNL     1      11.006  -1.511   2.396  1.00  0.00     0.116 C 
BRANCH  38  39
ATOM     39  C   UNL     1      11.025  -0.674   3.672  1.00  0.00     0.023 C 
BRANCH  39  40
ATOM     40  C   UNL     1      11.736   0.662   3.482  1.00  0.00     0.026 C 
BRANCH  40  41
ATOM     41  C   UNL     1      10.751   1.824   3.615  1.00  0.00     0.146 C 
BRANCH  41  42
ATOM     42  N   UNL     1       9.415   1.308   3.885  1.00  0.00    -0.254 NA
ATOM     43  C   UNL     1       8.653   1.925   4.709  1.00  0.00     0.185 C 
ATOM     44  N   UNL     1       8.876   3.044   5.422  1.00  0.00    -0.370 N 
ATOM     45  N   UNL     1       7.427   1.431   4.948  1.00  0.00    -0.370 N 
ATOM     46  H   UNL     1       8.291   3.277   6.206  1.00  0.00     0.159 HD
ATOM     47  H   UNL     1       9.750   3.556   5.351  1.00  0.00     0.159 HD
ATOM     48  H   UNL     1       7.176   0.592   4.443  1.00  0.00     0.159 HD
ATOM     49  H   UNL     1       6.699   1.969   5.383  1.00  0.00     0.159 HD
ENDBRANCH  41  42
ENDBRANCH  40  41
ENDBRANCH  39  40
ENDBRANCH  38  39
ENDBRANCH  36  38
ENDBRANCH   5  34
BRANCH   8  50
ATOM     50  O   UNL     1       7.328  -4.848  -1.995  1.00  0.00    -0.245 OA
BRANCH  50  51
ATOM     51  S   UNL     1       6.618  -3.632  -2.808  1.00  0.00     0.397 S 
ATOM     52  O   UNL     1       7.156  -2.386  -2.308  1.00  0.00    -0.169 OA
ATOM     53  O   UNL     1       5.191  -3.866  -2.885  1.00  0.00    -0.169 OA
BRANCH  51  54
ATOM     54  O   UNL     1       7.231  -3.812  -4.284  1.00  0.00    -0.264 OA
ATOM     55  H   UNL     1       6.923  -4.674  -4.631  1.00  0.00     0.236 HD
ENDBRANCH  51  54
ENDBRANCH  50  51
ENDBRANCH   8  50
TORSDOF 19
ENDMDL
