MODEL 1
REMARK VINA RESULT:    -5.667      0.000      0.000
REMARK INTER + INTRA:         -21.360
REMARK INTER:                 -16.269
REMARK INTRA:                  -5.091
REMARK UNBOUND:                -5.091
REMARK SMILES CCCCCC(=O)N[C@H](CC(=O)O)C(=O)N[C@H]1C(=O)N[C@H](CCCN=C(N)N)C(=O)N[C@@H]2CC[C@H](O)N(C2=O)[C@@H](CC(C)C)C(=O)N(C)[C@@H](Cc2ccccc2)C(=O)N[C@H](C(C)C)C(=O)O[C@@H]1C
REMARK SMILES IDX 30 1 31 2 29 3 32 5 35 6 37 7 34 8 38 9 33 10 39 11 36 12
REMARK SMILES IDX 40 14 41 15 42 16 43 17 44 18 45 19 46 20 47 21 48 22 49 23
REMARK SMILES IDX 50 24 51 25 52 26 56 27 53 28 55 29 54 30 57 31 58 32 59 33
REMARK SMILES IDX 60 35 61 36 62 37 63 38 64 39 65 40 66 41 67 42 68 43 21 45
REMARK SMILES IDX 20 46 18 47 19 48 17 50 16 52 14 53 15 54 9 56 8 57 6 58
REMARK SMILES IDX 7 59 5 61 4 62 3 63 2 64 1 65 10 66 11 67 12 68 13 69 22 71
REMARK SMILES IDX 23 72 24 73 25 74 26 75 27 76 28 77
REMARK H PARENT 31 4 36 13 59 34 20 49 16 55 8 60 13 70 27 78 27 79 28 80
REMARK H PARENT 28 81
REMARK Flexibility Score:  259.900
ROOT
ATOM      1  O   UNL     1       0.091  -2.878   8.056  1.00  0.00    -0.273 OA
ATOM      2  N   UNL     1       2.000  -3.999   7.482  1.00  0.00    -0.343 N 
ATOM      3  C   UNL     1       0.888  -3.791   8.270  1.00  0.00     0.243 C 
ATOM      4  H   UNL     1       2.626  -4.770   7.679  1.00  0.00     0.164 HD
ENDROOT
BRANCH   2   5
ATOM      5  C   UNL     1       2.343  -3.059   6.421  1.00  0.00     0.171 C 
ATOM      6  C   UNL     1       4.800  -2.549   4.968  1.00  0.00     0.214 C 
ATOM      7  N   UNL     1       4.520  -1.804   6.174  1.00  0.00    -0.303 N 
ATOM      8  C   UNL     1       3.548  -2.968   4.215  1.00  0.00     0.057 C 
ATOM      9  C   UNL     1       3.390  -2.034   6.943  1.00  0.00     0.247 C 
ATOM     10  C   UNL     1       2.658  -3.794   5.118  1.00  0.00     0.040 C 
ATOM     11  O   UNL     1       3.201  -1.453   8.019  1.00  0.00    -0.272 OA
BRANCH   6  12
ATOM     12  O   UNL     1       5.560  -3.680   5.327  1.00  0.00    -0.373 OA
ATOM     13  H   UNL     1       6.384  -3.653   4.796  1.00  0.00     0.213 HD
ENDBRANCH   6  12
BRANCH   7  14
ATOM     14  C   UNL     1       5.568  -0.875   6.647  1.00  0.00     0.177 C 
BRANCH  14  15
ATOM     15  C   UNL     1       7.001  -1.443   6.638  1.00  0.00     0.038 C 
BRANCH  15  16
ATOM     16  C   UNL     1       7.774  -1.577   7.969  1.00  0.00    -0.015 C 
ATOM     17  C   UNL     1       6.845  -1.818   9.162  1.00  0.00     0.007 C 
ATOM     18  C   UNL     1       8.575  -0.296   8.235  1.00  0.00     0.007 C 
ENDBRANCH  15  16
ENDBRANCH  14  15
BRANCH  14  19
ATOM     19  C   UNL     1       5.176   0.604   6.306  1.00  0.00     0.245 C 
ATOM     20  O   UNL     1       4.992   0.872   5.107  1.00  0.00    -0.272 OA
BRANCH  19  21
ATOM     21  N   UNL     1       5.138   1.626   7.239  1.00  0.00    -0.332 N 
ATOM     22  C   UNL     1       4.966   1.455   8.670  1.00  0.00     0.147 C 
BRANCH  21  23
ATOM     23  C   UNL     1       5.274   3.024   6.745  1.00  0.00     0.178 C 
BRANCH  23  24
ATOM     24  C   UNL     1       4.180   3.992   7.239  1.00  0.00     0.070 C 
BRANCH  24  25
ATOM     25  C   UNL     1       3.186   4.489   6.215  1.00  0.00    -0.045 A 
ATOM     26  C   UNL     1       2.899   3.735   5.070  1.00  0.00     0.004 A 
ATOM     27  C   UNL     1       2.538   5.720   6.397  1.00  0.00     0.004 A 
ATOM     28  C   UNL     1       1.992   4.209   4.120  1.00  0.00     0.000 A 
ATOM     29  C   UNL     1       1.630   6.191   5.447  1.00  0.00     0.000 A 
ATOM     30  C   UNL     1       1.360   5.437   4.308  1.00  0.00     0.000 A 
ENDBRANCH  24  25
ENDBRANCH  23  24
BRANCH  23  31
ATOM     31  C   UNL     1       6.720   3.565   6.852  1.00  0.00     0.243 C 
ATOM     32  O   UNL     1       7.716   2.851   6.933  1.00  0.00    -0.273 OA
ATOM     33  N   UNL     1       6.785   4.936   7.037  1.00  0.00    -0.341 N 
ATOM     34  H   UNL     1       5.920   5.477   6.964  1.00  0.00     0.164 HD
BRANCH  33  35
ATOM     35  C   UNL     1       8.042   5.649   7.282  1.00  0.00     0.194 C 
BRANCH  35  36
ATOM     36  C   UNL     1       7.916   6.829   8.287  1.00  0.00     0.017 C 
ATOM     37  C   UNL     1       7.127   6.414   9.541  1.00  0.00     0.010 C 
ATOM     38  C   UNL     1       7.219   8.059   7.692  1.00  0.00     0.010 C 
ENDBRANCH  35  36
BRANCH  35  39
ATOM     39  C   UNL     1       8.750   6.080   5.967  1.00  0.00     0.329 C 
ATOM     40  O   UNL     1       8.195   6.141   4.876  1.00  0.00    -0.250 OA
BRANCH  39  41
ATOM     41  O   UNL     1      10.044   6.469   6.177  1.00  0.00    -0.458 OA
BRANCH  41  42
ATOM     42  C   UNL     1      10.507   7.603   5.405  1.00  0.00     0.205 CG0
ATOM     43  C   UNL     1      11.776   7.168   4.675  1.00  0.00     0.056 C 
ATOM     44  G   UNL     1      10.753   8.783   6.365  1.00  0.00     0.000 G0
ENDBRANCH  41  42
ENDBRANCH  39  41
ENDBRANCH  35  39
ENDBRANCH  33  35
ENDBRANCH  23  31
ENDBRANCH  21  23
ENDBRANCH  19  21
ENDBRANCH  14  19
ENDBRANCH   7  14
ENDBRANCH   2   5
BRANCH   3  45
ATOM     45  C   UNL     1       0.701  -4.791   9.419  1.00  0.00     0.171 C 
BRANCH  45  46
ATOM     46  N   UNL     1      -0.494  -5.555   9.086  1.00  0.00    -0.342 N 
ATOM     47  C   UNL     1      -0.618  -6.254   7.912  1.00  0.00     0.247 C 
ATOM     48  O   UNL     1       0.295  -6.348   7.090  1.00  0.00    -0.273 OA
ATOM     49  H   UNL     1      -1.253  -5.551   9.765  1.00  0.00     0.164 HD
BRANCH  47  50
ATOM     50  C   UNL     1      -1.993  -6.895   7.679  1.00  0.00     0.212 CG0
ATOM     51  G   UNL     1      -1.775  -8.192   6.876  1.00  0.00     0.000 G0
BRANCH  50  52
ATOM     52  N   UNL     1      -2.546  -7.126   9.011  1.00  0.00    -0.339 N 
ATOM     53  C   UNL     1      -3.462  -8.112   9.287  1.00  0.00     0.243 C 
ATOM     54  O   UNL     1      -3.930  -8.844   8.419  1.00  0.00    -0.273 OA
ATOM     55  H   UNL     1      -2.281  -6.480   9.751  1.00  0.00     0.164 HD
BRANCH  53  56
ATOM     56  C   UNL     1      -3.966  -8.109  10.745  1.00  0.00     0.182 C 
BRANCH  56  57
ATOM     57  N   UNL     1      -3.050  -7.367  11.617  1.00  0.00    -0.344 N 
ATOM     58  C   UNL     1      -3.461  -6.303  12.382  1.00  0.00     0.220 C 
ATOM     59  O   UNL     1      -4.602  -5.854  12.335  1.00  0.00    -0.275 OA
ATOM     60  H   UNL     1      -2.127  -7.767  11.762  1.00  0.00     0.164 HD
BRANCH  58  61
ATOM     61  C   UNL     1      -2.360  -5.724  13.250  1.00  0.00     0.100 C 
BRANCH  61  62
ATOM     62  C   UNL     1      -2.721  -4.385  13.893  1.00  0.00     0.010 C 
BRANCH  62  63
ATOM     63  C   UNL     1      -1.510  -3.510  14.243  1.00  0.00     0.000 C 
BRANCH  63  64
ATOM     64  C   UNL     1      -0.533  -4.157  15.224  1.00  0.00    -0.003 C 
ATOM     65  C   UNL     1      -1.227  -4.549  16.521  1.00  0.00     0.004 C 
ENDBRANCH  63  64
ENDBRANCH  62  63
ENDBRANCH  61  62
ENDBRANCH  58  61
ENDBRANCH  56  57
BRANCH  56  66
ATOM     66  C   UNL     1      -4.223  -9.527  11.252  1.00  0.00     0.157 C 
BRANCH  66  67
ATOM     67  C   UNL     1      -2.972 -10.137  11.818  1.00  0.00     0.305 C 
ATOM     68  O   UNL     1      -2.200 -10.889  11.245  1.00  0.00    -0.252 OA
BRANCH  67  69
ATOM     69  O   UNL     1      -2.726  -9.723  13.076  1.00  0.00    -0.481 OA
ATOM     70  H   UNL     1      -1.748  -9.726  13.153  1.00  0.00     0.296 HD
ENDBRANCH  67  69
ENDBRANCH  66  67
ENDBRANCH  56  66
ENDBRANCH  53  56
ENDBRANCH  50  52
ENDBRANCH  47  50
ENDBRANCH  45  46
BRANCH  45  71
ATOM     71  C   UNL     1       0.546  -4.050  10.751  1.00  0.00     0.037 C 
BRANCH  71  72
ATOM     72  C   UNL     1       1.793  -3.236  11.106  1.00  0.00     0.026 C 
BRANCH  72  73
ATOM     73  C   UNL     1       1.512  -1.735  11.069  1.00  0.00     0.146 C 
BRANCH  73  74
ATOM     74  N   UNL     1       0.327  -1.482  11.883  1.00  0.00    -0.254 NA
ATOM     75  C   UNL     1      -0.716  -1.021  11.296  1.00  0.00     0.185 C 
ATOM     76  N   UNL     1      -1.822  -0.779  12.018  1.00  0.00    -0.370 N 
ATOM     77  N   UNL     1      -0.892  -0.724   9.997  1.00  0.00    -0.370 N 
ATOM     78  H   UNL     1      -1.772  -0.969  13.009  1.00  0.00     0.159 HD
ATOM     79  H   UNL     1      -2.621  -0.287  11.659  1.00  0.00     0.159 HD
ATOM     80  H   UNL     1      -0.145  -0.860   9.333  1.00  0.00     0.159 HD
ATOM     81  H   UNL     1      -1.796  -0.476   9.629  1.00  0.00     0.159 HD
ENDBRANCH  73  74
ENDBRANCH  72  73
ENDBRANCH  71  72
ENDBRANCH  45  71
ENDBRANCH   3  45
TORSDOF 20
ENDMDL
MODEL 2
REMARK VINA RESULT:    -5.532      3.167      5.172
REMARK INTER + INTRA:         -20.973
REMARK INTER:                 -16.702
REMARK INTRA:                  -4.272
REMARK UNBOUND:                -5.091
REMARK SMILES CCCCCC(=O)N[C@H](CC(=O)O)C(=O)N[C@H]1C(=O)N[C@H](CCCN=C(N)N)C(=O)N[C@@H]2CC[C@H](O)N(C2=O)[C@@H](CC(C)C)C(=O)N(C)[C@@H](Cc2ccccc2)C(=O)N[C@H](C(C)C)C(=O)O[C@@H]1C
REMARK SMILES IDX 30 1 31 2 29 3 32 5 35 6 37 7 34 8 38 9 33 10 39 11 36 12
REMARK SMILES IDX 40 14 41 15 42 16 43 17 44 18 45 19 46 20 47 21 48 22 49 23
REMARK SMILES IDX 50 24 51 25 52 26 56 27 53 28 55 29 54 30 57 31 58 32 59 33
REMARK SMILES IDX 60 35 61 36 62 37 63 38 64 39 65 40 66 41 67 42 68 43 21 45
REMARK SMILES IDX 20 46 18 47 19 48 17 50 16 52 14 53 15 54 9 56 8 57 6 58
REMARK SMILES IDX 7 59 5 61 4 62 3 63 2 64 1 65 10 66 11 67 12 68 13 69 22 71
REMARK SMILES IDX 23 72 24 73 25 74 26 75 27 76 28 77
REMARK H PARENT 31 4 36 13 59 34 20 49 16 55 8 60 13 70 27 78 27 79 28 80
REMARK H PARENT 28 81
REMARK Flexibility Score:  259.900
ROOT
ATOM      1  O   UNL     1       2.354  -4.282   7.778  1.00  0.00    -0.273 OA
ATOM      2  N   UNL     1       4.384  -3.246   7.976  1.00  0.00    -0.343 N 
ATOM      3  C   UNL     1       3.367  -4.053   8.440  1.00  0.00     0.243 C 
ATOM      4  H   UNL     1       5.209  -3.091   8.542  1.00  0.00     0.164 HD
ENDROOT
BRANCH   2   5
ATOM      5  C   UNL     1       4.244  -2.527   6.714  1.00  0.00     0.171 C 
ATOM      6  C   UNL     1       6.122  -1.039   5.083  1.00  0.00     0.214 C 
ATOM      7  N   UNL     1       5.359  -0.349   6.096  1.00  0.00    -0.303 N 
ATOM      8  C   UNL     1       5.397  -2.241   4.498  1.00  0.00     0.057 C 
ATOM      9  C   UNL     1       4.483  -1.007   6.943  1.00  0.00     0.247 C 
ATOM     10  C   UNL     1       5.039  -3.211   5.603  1.00  0.00     0.040 C 
ATOM     11  O   UNL     1       3.898  -0.424   7.865  1.00  0.00    -0.272 OA
BRANCH   6  12
ATOM     12  O   UNL     1       7.345  -1.435   5.659  1.00  0.00    -0.373 OA
ATOM     13  H   UNL     1       7.284  -1.247   6.620  1.00  0.00     0.213 HD
ENDBRANCH   6  12
BRANCH   7  14
ATOM     14  C   UNL     1       5.657   1.085   6.299  1.00  0.00     0.177 C 
BRANCH  14  15
ATOM     15  C   UNL     1       7.099   1.510   5.957  1.00  0.00     0.038 C 
BRANCH  15  16
ATOM     16  C   UNL     1       7.939   2.267   7.009  1.00  0.00    -0.015 C 
ATOM     17  C   UNL     1       7.507   1.946   8.443  1.00  0.00     0.007 C 
ATOM     18  C   UNL     1       7.800   3.780   6.793  1.00  0.00     0.007 C 
ENDBRANCH  15  16
ENDBRANCH  14  15
BRANCH  14  19
ATOM     19  C   UNL     1       4.373   1.948   6.048  1.00  0.00     0.245 C 
ATOM     20  O   UNL     1       3.691   1.658   5.051  1.00  0.00    -0.272 OA
BRANCH  19  21
ATOM     21  N   UNL     1       4.033   3.060   6.798  1.00  0.00    -0.332 N 
ATOM     22  C   UNL     1       4.022   3.128   8.248  1.00  0.00     0.147 C 
BRANCH  21  23
ATOM     23  C   UNL     1       3.631   4.295   6.068  1.00  0.00     0.178 C 
BRANCH  23  24
ATOM     24  C   UNL     1       2.404   4.130   5.148  1.00  0.00     0.070 C 
BRANCH  24  25
ATOM     25  C   UNL     1       2.320   5.040   3.944  1.00  0.00    -0.045 A 
ATOM     26  C   UNL     1       1.282   4.904   3.014  1.00  0.00     0.004 A 
ATOM     27  C   UNL     1       3.289   6.034   3.739  1.00  0.00     0.004 A 
ATOM     28  C   UNL     1       1.221   5.738   1.895  1.00  0.00     0.000 A 
ATOM     29  C   UNL     1       3.226   6.866   2.621  1.00  0.00     0.000 A 
ATOM     30  C   UNL     1       2.193   6.716   1.698  1.00  0.00     0.000 A 
ENDBRANCH  24  25
ENDBRANCH  23  24
BRANCH  23  31
ATOM     31  C   UNL     1       3.603   5.549   6.974  1.00  0.00     0.243 C 
ATOM     32  O   UNL     1       4.605   6.072   7.454  1.00  0.00    -0.273 OA
ATOM     33  N   UNL     1       2.327   5.928   7.353  1.00  0.00    -0.341 N 
ATOM     34  H   UNL     1       1.530   5.451   6.924  1.00  0.00     0.164 HD
BRANCH  33  35
ATOM     35  C   UNL     1       2.065   7.014   8.302  1.00  0.00     0.194 C 
BRANCH  35  36
ATOM     36  C   UNL     1       1.353   6.559   9.607  1.00  0.00     0.017 C 
ATOM     37  C   UNL     1       2.317   5.800  10.535  1.00  0.00     0.010 C 
ATOM     38  C   UNL     1       0.148   5.646   9.351  1.00  0.00     0.010 C 
ENDBRANCH  35  36
BRANCH  35  39
ATOM     39  C   UNL     1       1.348   8.225   7.642  1.00  0.00     0.329 C 
ATOM     40  O   UNL     1       0.136   8.302   7.484  1.00  0.00    -0.250 OA
BRANCH  39  41
ATOM     41  O   UNL     1       2.215   9.238   7.335  1.00  0.00    -0.458 OA
BRANCH  41  42
ATOM     42  C   UNL     1       1.784  10.160   6.305  1.00  0.00     0.205 CG0
ATOM     43  C   UNL     1       2.344   9.653   4.978  1.00  0.00     0.056 C 
ATOM     44  G   UNL     1       2.297  11.569   6.662  1.00  0.00     0.000 G0
ENDBRANCH  41  42
ENDBRANCH  39  41
ENDBRANCH  35  39
ENDBRANCH  33  35
ENDBRANCH  23  31
ENDBRANCH  21  23
ENDBRANCH  19  21
ENDBRANCH  14  19
ENDBRANCH   7  14
ENDBRANCH   2   5
BRANCH   3  45
ATOM     45  C   UNL     1       3.595  -4.662   9.830  1.00  0.00     0.171 C 
BRANCH  45  46
ATOM     46  N   UNL     1       2.683  -5.796   9.917  1.00  0.00    -0.342 N 
ATOM     47  C   UNL     1       2.975  -6.921  10.647  1.00  0.00     0.247 C 
ATOM     48  O   UNL     1       3.989  -7.025  11.337  1.00  0.00    -0.273 OA
ATOM     49  H   UNL     1       1.806  -5.728   9.405  1.00  0.00     0.164 HD
BRANCH  47  50
ATOM     50  C   UNL     1       1.954  -8.060  10.520  1.00  0.00     0.212 CG0
ATOM     51  G   UNL     1       2.576  -9.318  11.158  1.00  0.00     0.000 G0
BRANCH  50  52
ATOM     52  N   UNL     1       0.759  -7.592  11.216  1.00  0.00    -0.339 N 
ATOM     53  C   UNL     1       0.360  -8.070  12.440  1.00  0.00     0.243 C 
ATOM     54  O   UNL     1       0.953  -8.974  13.023  1.00  0.00    -0.273 OA
ATOM     55  H   UNL     1       0.163  -6.922  10.733  1.00  0.00     0.164 HD
BRANCH  53  56
ATOM     56  C   UNL     1      -0.980  -7.488  12.935  1.00  0.00     0.182 C 
BRANCH  56  57
ATOM     57  N   UNL     1      -2.046  -7.713  11.954  1.00  0.00    -0.344 N 
ATOM     58  C   UNL     1      -2.864  -8.816  11.996  1.00  0.00     0.220 C 
ATOM     59  O   UNL     1      -2.713  -9.723  12.807  1.00  0.00    -0.275 OA
ATOM     60  H   UNL     1      -2.269  -6.941  11.332  1.00  0.00     0.164 HD
BRANCH  58  61
ATOM     61  C   UNL     1      -3.934  -8.812  10.920  1.00  0.00     0.100 C 
BRANCH  61  62
ATOM     62  C   UNL     1      -3.381  -8.944   9.500  1.00  0.00     0.010 C 
BRANCH  62  63
ATOM     63  C   UNL     1      -3.484  -7.662   8.665  1.00  0.00     0.000 C 
BRANCH  63  64
ATOM     64  C   UNL     1      -2.141  -6.996   8.370  1.00  0.00    -0.003 C 
ATOM     65  C   UNL     1      -1.972  -6.724   6.882  1.00  0.00     0.004 C 
ENDBRANCH  63  64
ENDBRANCH  62  63
ENDBRANCH  61  62
ENDBRANCH  58  61
ENDBRANCH  56  57
BRANCH  56  66
ATOM     66  C   UNL     1      -0.844  -6.014  13.312  1.00  0.00     0.157 C 
BRANCH  66  67
ATOM     67  C   UNL     1      -1.570  -5.134  12.336  1.00  0.00     0.305 C 
ATOM     68  O   UNL     1      -2.657  -4.600  12.499  1.00  0.00    -0.252 OA
BRANCH  67  69
ATOM     69  O   UNL     1      -0.862  -4.925  11.210  1.00  0.00    -0.481 OA
ATOM     70  H   UNL     1      -0.390  -5.770  11.051  1.00  0.00     0.296 HD
ENDBRANCH  67  69
ENDBRANCH  66  67
ENDBRANCH  56  66
ENDBRANCH  53  56
ENDBRANCH  50  52
ENDBRANCH  47  50
ENDBRANCH  45  46
BRANCH  45  71
ATOM     71  C   UNL     1       3.311  -3.624  10.921  1.00  0.00     0.037 C 
BRANCH  71  72
ATOM     72  C   UNL     1       4.519  -3.406  11.836  1.00  0.00     0.026 C 
BRANCH  72  73
ATOM     73  C   UNL     1       5.826  -3.776  11.137  1.00  0.00     0.146 C 
BRANCH  73  74
ATOM     74  N   UNL     1       6.241  -2.632  10.331  1.00  0.00    -0.254 NA
ATOM     75  C   UNL     1       7.253  -2.780   9.559  1.00  0.00     0.185 C 
ATOM     76  N   UNL     1       7.659  -1.745   8.804  1.00  0.00    -0.370 N 
ATOM     77  N   UNL     1       8.021  -3.867   9.370  1.00  0.00    -0.370 N 
ATOM     78  H   UNL     1       7.139  -0.884   8.892  1.00  0.00     0.159 HD
ATOM     79  H   UNL     1       8.522  -1.740   8.290  1.00  0.00     0.159 HD
ATOM     80  H   UNL     1       7.831  -4.723   9.869  1.00  0.00     0.159 HD
ATOM     81  H   UNL     1       8.722  -3.900   8.648  1.00  0.00     0.159 HD
ENDBRANCH  73  74
ENDBRANCH  72  73
ENDBRANCH  71  72
ENDBRANCH  45  71
ENDBRANCH   3  45
TORSDOF 20
ENDMDL
MODEL 3
REMARK VINA RESULT:    -5.480      3.331      5.075
REMARK INTER + INTRA:         -20.823
REMARK INTER:                 -16.042
REMARK INTRA:                  -4.781
REMARK UNBOUND:                -5.091
REMARK SMILES CCCCCC(=O)N[C@H](CC(=O)O)C(=O)N[C@H]1C(=O)N[C@H](CCCN=C(N)N)C(=O)N[C@@H]2CC[C@H](O)N(C2=O)[C@@H](CC(C)C)C(=O)N(C)[C@@H](Cc2ccccc2)C(=O)N[C@H](C(C)C)C(=O)O[C@@H]1C
REMARK SMILES IDX 30 1 31 2 29 3 32 5 35 6 37 7 34 8 38 9 33 10 39 11 36 12
REMARK SMILES IDX 40 14 41 15 42 16 43 17 44 18 45 19 46 20 47 21 48 22 49 23
REMARK SMILES IDX 50 24 51 25 52 26 56 27 53 28 55 29 54 30 57 31 58 32 59 33
REMARK SMILES IDX 60 35 61 36 62 37 63 38 64 39 65 40 66 41 67 42 68 43 21 45
REMARK SMILES IDX 20 46 18 47 19 48 17 50 16 52 14 53 15 54 9 56 8 57 6 58
REMARK SMILES IDX 7 59 5 61 4 62 3 63 2 64 1 65 10 66 11 67 12 68 13 69 22 71
REMARK SMILES IDX 23 72 24 73 25 74 26 75 27 76 28 77
REMARK H PARENT 31 4 36 13 59 34 20 49 16 55 8 60 13 70 27 78 27 79 28 80
REMARK H PARENT 28 81
REMARK Flexibility Score:  259.900
ROOT
ATOM      1  O   UNL     1       3.291  -4.692   7.935  1.00  0.00    -0.273 OA
ATOM      2  N   UNL     1       5.149  -3.359   7.955  1.00  0.00    -0.343 N 
ATOM      3  C   UNL     1       4.363  -4.376   8.452  1.00  0.00     0.243 C 
ATOM      4  H   UNL     1       6.032  -3.137   8.397  1.00  0.00     0.164 HD
ENDROOT
BRANCH   2   5
ATOM      5  C   UNL     1       4.678  -2.528   6.853  1.00  0.00     0.171 C 
ATOM      6  C   UNL     1       6.029  -0.696   5.057  1.00  0.00     0.214 C 
ATOM      7  N   UNL     1       5.464  -0.196   6.289  1.00  0.00    -0.303 N 
ATOM      8  C   UNL     1       5.280  -1.894   4.495  1.00  0.00     0.057 C 
ATOM      9  C   UNL     1       4.851  -1.025   7.214  1.00  0.00     0.247 C 
ATOM     10  C   UNL     1       5.251  -3.007   5.520  1.00  0.00     0.040 C 
ATOM     11  O   UNL     1       4.447  -0.603   8.306  1.00  0.00    -0.272 OA
BRANCH   6  12
ATOM     12  O   UNL     1       7.375  -1.028   5.304  1.00  0.00    -0.373 OA
ATOM     13  H   UNL     1       7.376  -1.761   5.955  1.00  0.00     0.213 HD
ENDBRANCH   6  12
BRANCH   7  14
ATOM     14  C   UNL     1       5.695   1.230   6.602  1.00  0.00     0.177 C 
BRANCH  14  15
ATOM     15  C   UNL     1       7.144   1.719   6.405  1.00  0.00     0.038 C 
BRANCH  15  16
ATOM     16  C   UNL     1       8.153   1.593   7.568  1.00  0.00    -0.015 C 
ATOM     17  C   UNL     1       7.474   1.645   8.940  1.00  0.00     0.007 C 
ATOM     18  C   UNL     1       9.174   2.735   7.494  1.00  0.00     0.007 C 
ENDBRANCH  15  16
ENDBRANCH  14  15
BRANCH  14  19
ATOM     19  C   UNL     1       4.406   2.069   6.299  1.00  0.00     0.245 C 
ATOM     20  O   UNL     1       3.767   1.763   5.278  1.00  0.00    -0.272 OA
BRANCH  19  21
ATOM     21  N   UNL     1       4.018   3.177   7.030  1.00  0.00    -0.332 N 
ATOM     22  C   UNL     1       3.967   3.255   8.479  1.00  0.00     0.147 C 
BRANCH  21  23
ATOM     23  C   UNL     1       3.604   4.396   6.280  1.00  0.00     0.178 C 
BRANCH  23  24
ATOM     24  C   UNL     1       2.415   4.190   5.320  1.00  0.00     0.070 C 
BRANCH  24  25
ATOM     25  C   UNL     1       2.371   5.057   4.084  1.00  0.00    -0.045 A 
ATOM     26  C   UNL     1       3.331   6.055   3.872  1.00  0.00     0.004 A 
ATOM     27  C   UNL     1       1.359   4.878   3.129  1.00  0.00     0.004 A 
ATOM     28  C   UNL     1       3.273   6.864   2.736  1.00  0.00     0.000 A 
ATOM     29  C   UNL     1       1.303   5.686   1.992  1.00  0.00     0.000 A 
ATOM     30  C   UNL     1       2.259   6.681   1.799  1.00  0.00     0.000 A 
ENDBRANCH  24  25
ENDBRANCH  23  24
BRANCH  23  31
ATOM     31  C   UNL     1       3.506   5.652   7.178  1.00  0.00     0.243 C 
ATOM     32  O   UNL     1       4.478   6.234   7.654  1.00  0.00    -0.273 OA
ATOM     33  N   UNL     1       2.211   5.963   7.555  1.00  0.00    -0.341 N 
ATOM     34  H   UNL     1       1.442   5.439   7.129  1.00  0.00     0.164 HD
BRANCH  33  35
ATOM     35  C   UNL     1       1.890   7.039   8.497  1.00  0.00     0.194 C 
BRANCH  35  36
ATOM     36  C   UNL     1       1.068   6.577   9.733  1.00  0.00     0.017 C 
ATOM     37  C   UNL     1       1.952   5.828  10.745  1.00  0.00     0.010 C 
ATOM     38  C   UNL     1      -0.100   5.651   9.370  1.00  0.00     0.010 C 
ENDBRANCH  35  36
BRANCH  35  39
ATOM     39  C   UNL     1       1.247   8.271   7.800  1.00  0.00     0.329 C 
ATOM     40  O   UNL     1       0.131   8.269   7.294  1.00  0.00    -0.250 OA
BRANCH  39  41
ATOM     41  O   UNL     1       2.032   9.387   7.891  1.00  0.00    -0.458 OA
BRANCH  41  42
ATOM     42  C   UNL     1       2.264  10.109   6.658  1.00  0.00     0.205 CG0
ATOM     43  C   UNL     1       3.346   9.355   5.887  1.00  0.00     0.056 C 
ATOM     44  G   UNL     1       2.684  11.552   7.004  1.00  0.00     0.000 G0
ENDBRANCH  41  42
ENDBRANCH  39  41
ENDBRANCH  35  39
ENDBRANCH  33  35
ENDBRANCH  23  31
ENDBRANCH  21  23
ENDBRANCH  19  21
ENDBRANCH  14  19
ENDBRANCH   7  14
ENDBRANCH   2   5
BRANCH   3  45
ATOM     45  C   UNL     1       4.927  -5.102   9.681  1.00  0.00     0.171 C 
BRANCH  45  46
ATOM     46  N   UNL     1       4.127  -6.310   9.826  1.00  0.00    -0.342 N 
ATOM     47  C   UNL     1       4.681  -7.528  10.135  1.00  0.00     0.247 C 
ATOM     48  O   UNL     1       5.878  -7.674  10.381  1.00  0.00    -0.273 OA
ATOM     49  H   UNL     1       3.122  -6.223   9.686  1.00  0.00     0.164 HD
BRANCH  47  50
ATOM     50  C   UNL     1       3.700  -8.709  10.123  1.00  0.00     0.212 CG0
ATOM     51  G   UNL     1       3.981  -9.561  11.377  1.00  0.00     0.000 G0
BRANCH  50  52
ATOM     52  N   UNL     1       2.368  -8.110  10.119  1.00  0.00    -0.339 N 
ATOM     53  C   UNL     1       1.485  -8.225  11.165  1.00  0.00     0.243 C 
ATOM     54  O   UNL     1       1.730  -8.889  12.168  1.00  0.00    -0.273 OA
ATOM     55  H   UNL     1       2.064  -7.641   9.269  1.00  0.00     0.164 HD
BRANCH  53  56
ATOM     56  C   UNL     1       0.109  -7.583  10.896  1.00  0.00     0.182 C 
BRANCH  56  57
ATOM     57  N   UNL     1       0.226  -6.455   9.967  1.00  0.00    -0.344 N 
ATOM     58  C   UNL     1      -0.783  -6.104   9.103  1.00  0.00     0.220 C 
ATOM     59  O   UNL     1      -1.819  -6.751   8.996  1.00  0.00    -0.275 OA
ATOM     60  H   UNL     1       1.022  -5.835  10.094  1.00  0.00     0.164 HD
BRANCH  58  61
ATOM     61  C   UNL     1      -0.467  -4.871   8.278  1.00  0.00     0.100 C 
BRANCH  61  62
ATOM     62  C   UNL     1      -0.072  -5.180   6.834  1.00  0.00     0.010 C 
BRANCH  62  63
ATOM     63  C   UNL     1       0.267  -3.940   5.996  1.00  0.00     0.000 C 
BRANCH  63  64
ATOM     64  C   UNL     1       1.504  -4.099   5.114  1.00  0.00    -0.003 C 
ATOM     65  C   UNL     1       1.774  -5.562   4.794  1.00  0.00     0.004 C 
ENDBRANCH  63  64
ENDBRANCH  62  63
ENDBRANCH  61  62
ENDBRANCH  58  61
ENDBRANCH  56  57
BRANCH  56  66
ATOM     66  C   UNL     1      -0.589  -7.189  12.197  1.00  0.00     0.157 C 
BRANCH  66  67
ATOM     67  C   UNL     1      -1.843  -7.988  12.405  1.00  0.00     0.305 C 
ATOM     68  O   UNL     1      -1.977  -8.970  13.120  1.00  0.00    -0.252 OA
BRANCH  67  69
ATOM     69  O   UNL     1      -2.893  -7.475  11.736  1.00  0.00    -0.481 OA
ATOM     70  H   UNL     1      -3.672  -7.681  12.296  1.00  0.00     0.296 HD
ENDBRANCH  67  69
ENDBRANCH  66  67
ENDBRANCH  56  66
ENDBRANCH  53  56
ENDBRANCH  50  52
ENDBRANCH  47  50
ENDBRANCH  45  46
BRANCH  45  71
ATOM     71  C   UNL     1       4.830  -4.206  10.921  1.00  0.00     0.037 C 
BRANCH  71  72
ATOM     72  C   UNL     1       3.569  -4.493  11.740  1.00  0.00     0.026 C 
BRANCH  72  73
ATOM     73  C   UNL     1       2.456  -3.498  11.421  1.00  0.00     0.146 C 
BRANCH  73  74
ATOM     74  N   UNL     1       3.079  -2.222  11.082  1.00  0.00    -0.254 NA
ATOM     75  C   UNL     1       2.356  -1.166  11.146  1.00  0.00     0.185 C 
ATOM     76  N   UNL     1       2.901   0.023  10.842  1.00  0.00    -0.370 N 
ATOM     77  N   UNL     1       1.061  -1.048  11.489  1.00  0.00    -0.370 N 
ATOM     78  H   UNL     1       3.873   0.023  10.565  1.00  0.00     0.159 HD
ATOM     79  H   UNL     1       2.366   0.866  10.730  1.00  0.00     0.159 HD
ATOM     80  H   UNL     1       0.522  -1.861  11.747  1.00  0.00     0.159 HD
ATOM     81  H   UNL     1       0.628  -0.148  11.616  1.00  0.00     0.159 HD
ENDBRANCH  73  74
ENDBRANCH  72  73
ENDBRANCH  71  72
ENDBRANCH  45  71
ENDBRANCH   3  45
TORSDOF 20
ENDMDL
MODEL 4
REMARK VINA RESULT:    -5.286      6.373     12.142
REMARK INTER + INTRA:         -20.264
REMARK INTER:                 -13.796
REMARK INTRA:                  -6.469
REMARK UNBOUND:                -5.091
REMARK SMILES CCCCCC(=O)N[C@H](CC(=O)O)C(=O)N[C@H]1C(=O)N[C@H](CCCN=C(N)N)C(=O)N[C@@H]2CC[C@H](O)N(C2=O)[C@@H](CC(C)C)C(=O)N(C)[C@@H](Cc2ccccc2)C(=O)N[C@H](C(C)C)C(=O)O[C@@H]1C
REMARK SMILES IDX 30 1 31 2 29 3 32 5 35 6 37 7 34 8 38 9 33 10 39 11 36 12
REMARK SMILES IDX 40 14 41 15 42 16 43 17 44 18 45 19 46 20 47 21 48 22 49 23
REMARK SMILES IDX 50 24 51 25 52 26 56 27 53 28 55 29 54 30 57 31 58 32 59 33
REMARK SMILES IDX 60 35 61 36 62 37 63 38 64 39 65 40 66 41 67 42 68 43 21 45
REMARK SMILES IDX 20 46 18 47 19 48 17 50 16 52 14 53 15 54 9 56 8 57 6 58
REMARK SMILES IDX 7 59 5 61 4 62 3 63 2 64 1 65 10 66 11 67 12 68 13 69 22 71
REMARK SMILES IDX 23 72 24 73 25 74 26 75 27 76 28 77
REMARK H PARENT 31 4 36 13 59 34 20 49 16 55 8 60 13 70 27 78 27 79 28 80
REMARK H PARENT 28 81
REMARK Flexibility Score:  259.900
ROOT
ATOM      1  O   UNL     1       1.691   6.682  12.740  1.00  0.00    -0.273 OA
ATOM      2  N   UNL     1       3.195   6.121  11.111  1.00  0.00    -0.343 N 
ATOM      3  C   UNL     1       2.230   6.936  11.662  1.00  0.00     0.243 C 
ATOM      4  H   UNL     1       3.627   6.369  10.229  1.00  0.00     0.164 HD
ENDROOT
BRANCH   2   5
ATOM      5  C   UNL     1       3.535   4.846  11.734  1.00  0.00     0.171 C 
ATOM      6  C   UNL     1       5.875   3.143  11.571  1.00  0.00     0.214 C 
ATOM      7  N   UNL     1       4.779   2.933  10.655  1.00  0.00    -0.303 N 
ATOM      8  C   UNL     1       5.438   3.703  12.915  1.00  0.00     0.057 C 
ATOM      9  C   UNL     1       3.654   3.742  10.645  1.00  0.00     0.247 C 
ATOM     10  C   UNL     1       4.699   5.007  12.711  1.00  0.00     0.040 C 
ATOM     11  O   UNL     1       2.758   3.609   9.801  1.00  0.00    -0.272 OA
BRANCH   6  12
ATOM     12  O   UNL     1       6.794   4.013  10.951  1.00  0.00    -0.373 OA
ATOM     13  H   UNL     1       7.463   4.254  11.627  1.00  0.00     0.213 HD
ENDBRANCH   6  12
BRANCH   7  14
ATOM     14  C   UNL     1       4.963   1.899   9.615  1.00  0.00     0.177 C 
BRANCH  14  15
ATOM     15  C   UNL     1       5.985   2.249   8.515  1.00  0.00     0.038 C 
BRANCH  15  16
ATOM     16  C   UNL     1       5.489   2.839   7.176  1.00  0.00    -0.015 C 
ATOM     17  C   UNL     1       5.115   4.319   7.292  1.00  0.00     0.007 C 
ATOM     18  C   UNL     1       4.254   2.067   6.695  1.00  0.00     0.007 C 
ENDBRANCH  15  16
ENDBRANCH  14  15
BRANCH  14  19
ATOM     19  C   UNL     1       4.737   0.471  10.221  1.00  0.00     0.245 C 
ATOM     20  O   UNL     1       3.727   0.317  10.927  1.00  0.00    -0.272 OA
BRANCH  19  21
ATOM     21  N   UNL     1       5.643  -0.568  10.105  1.00  0.00    -0.332 N 
ATOM     22  C   UNL     1       6.694  -0.881  11.057  1.00  0.00     0.147 C 
BRANCH  21  23
ATOM     23  C   UNL     1       5.551  -1.440   8.901  1.00  0.00     0.178 C 
BRANCH  23  24
ATOM     24  C   UNL     1       6.841  -1.517   8.060  1.00  0.00     0.070 C 
BRANCH  24  25
ATOM     25  C   UNL     1       6.823  -0.841   6.709  1.00  0.00    -0.045 A 
ATOM     26  C   UNL     1       5.863  -1.183   5.747  1.00  0.00     0.004 A 
ATOM     27  C   UNL     1       7.775   0.142   6.396  1.00  0.00     0.004 A 
ATOM     28  C   UNL     1       5.864  -0.566   4.495  1.00  0.00     0.000 A 
ATOM     29  C   UNL     1       7.773   0.759   5.144  1.00  0.00     0.000 A 
ATOM     30  C   UNL     1       6.819   0.402   4.193  1.00  0.00     0.000 A 
ENDBRANCH  24  25
ENDBRANCH  23  24
BRANCH  23  31
ATOM     31  C   UNL     1       4.882  -2.805   9.194  1.00  0.00     0.243 C 
ATOM     32  O   UNL     1       3.949  -2.958   9.977  1.00  0.00    -0.273 OA
ATOM     33  N   UNL     1       5.551  -3.880   8.634  1.00  0.00    -0.341 N 
ATOM     34  H   UNL     1       6.326  -3.689   7.993  1.00  0.00     0.164 HD
BRANCH  33  35
ATOM     35  C   UNL     1       5.167  -5.273   8.876  1.00  0.00     0.194 C 
BRANCH  35  36
ATOM     36  C   UNL     1       6.213  -6.088   9.689  1.00  0.00     0.017 C 
ATOM     37  C   UNL     1       5.589  -6.686  10.962  1.00  0.00     0.010 C 
ATOM     38  C   UNL     1       7.425  -5.254  10.121  1.00  0.00     0.010 C 
ENDBRANCH  35  36
BRANCH  35  39
ATOM     39  C   UNL     1       4.741  -6.011   7.576  1.00  0.00     0.329 C 
ATOM     40  O   UNL     1       3.854  -5.621   6.825  1.00  0.00    -0.250 OA
BRANCH  39  41
ATOM     41  O   UNL     1       5.525  -7.100   7.315  1.00  0.00    -0.458 OA
BRANCH  41  42
ATOM     42  C   UNL     1       4.833  -8.357   7.120  1.00  0.00     0.205 CG0
ATOM     43  C   UNL     1       5.450  -9.369   8.082  1.00  0.00     0.056 C 
ATOM     44  G   UNL     1       4.983  -8.777   5.645  1.00  0.00     0.000 G0
ENDBRANCH  41  42
ENDBRANCH  39  41
ENDBRANCH  35  39
ENDBRANCH  33  35
ENDBRANCH  23  31
ENDBRANCH  21  23
ENDBRANCH  19  21
ENDBRANCH  14  19
ENDBRANCH   7  14
ENDBRANCH   2   5
BRANCH   3  45
ATOM     45  C   UNL     1       1.889   8.193  10.850  1.00  0.00     0.171 C 
BRANCH  45  46
ATOM     46  N   UNL     1       0.746   8.797  11.522  1.00  0.00    -0.342 N 
ATOM     47  C   UNL     1       0.770  10.082  12.003  1.00  0.00     0.247 C 
ATOM     48  O   UNL     1       1.727  10.840  11.839  1.00  0.00    -0.273 OA
ATOM     49  H   UNL     1      -0.088   8.223  11.629  1.00  0.00     0.164 HD
BRANCH  47  50
ATOM     50  C   UNL     1      -0.478  10.505  12.790  1.00  0.00     0.212 CG0
ATOM     51  G   UNL     1      -1.520  11.017  11.775  1.00  0.00     0.000 G0
BRANCH  50  52
ATOM     52  N   UNL     1      -0.911   9.308  13.507  1.00  0.00    -0.339 N 
ATOM     53  C   UNL     1      -0.712   9.120  14.853  1.00  0.00     0.243 C 
ATOM     54  O   UNL     1      -0.104   9.927  15.551  1.00  0.00    -0.273 OA
ATOM     55  H   UNL     1      -1.322   8.553  12.962  1.00  0.00     0.164 HD
BRANCH  53  56
ATOM     56  C   UNL     1      -1.176   7.743  15.370  1.00  0.00     0.182 C 
BRANCH  56  57
ATOM     57  N   UNL     1      -0.070   6.780  15.368  1.00  0.00    -0.344 N 
ATOM     58  C   UNL     1       0.359   6.150  16.511  1.00  0.00     0.220 C 
ATOM     59  O   UNL     1      -0.101   6.401  17.619  1.00  0.00    -0.275 OA
ATOM     60  H   UNL     1       0.269   6.470  14.461  1.00  0.00     0.164 HD
BRANCH  58  61
ATOM     61  C   UNL     1       1.475   5.152  16.264  1.00  0.00     0.100 C 
BRANCH  61  62
ATOM     62  C   UNL     1       2.788   5.795  15.816  1.00  0.00     0.010 C 
BRANCH  62  63
ATOM     63  C   UNL     1       4.013   5.347  16.623  1.00  0.00     0.000 C 
BRANCH  63  64
ATOM     64  C   UNL     1       5.179   6.334  16.593  1.00  0.00    -0.003 C 
ATOM     65  C   UNL     1       6.427   5.701  15.993  1.00  0.00     0.004 C 
ENDBRANCH  63  64
ENDBRANCH  62  63
ENDBRANCH  61  62
ENDBRANCH  58  61
ENDBRANCH  56  57
BRANCH  56  66
ATOM     66  C   UNL     1      -2.387   7.232  14.591  1.00  0.00     0.157 C 
BRANCH  66  67
ATOM     67  C   UNL     1      -2.057   7.038  13.139  1.00  0.00     0.305 C 
ATOM     68  O   UNL     1      -2.635   7.534  12.184  1.00  0.00    -0.252 OA
BRANCH  67  69
ATOM     69  O   UNL     1      -0.972   6.261  12.960  1.00  0.00    -0.481 OA
ATOM     70  H   UNL     1      -0.812   6.273  11.993  1.00  0.00     0.296 HD
ENDBRANCH  67  69
ENDBRANCH  66  67
ENDBRANCH  56  66
ENDBRANCH  53  56
ENDBRANCH  50  52
ENDBRANCH  47  50
ENDBRANCH  45  46
BRANCH  45  71
ATOM     71  C   UNL     1       1.560   7.819   9.401  1.00  0.00     0.037 C 
BRANCH  71  72
ATOM     72  C   UNL     1       1.942   8.930   8.419  1.00  0.00     0.026 C 
BRANCH  72  73
ATOM     73  C   UNL     1       1.692   8.509   6.972  1.00  0.00     0.146 C 
BRANCH  73  74
ATOM     74  N   UNL     1       0.384   9.023   6.577  1.00  0.00    -0.254 NA
ATOM     75  C   UNL     1      -0.535   8.174   6.299  1.00  0.00     0.185 C 
ATOM     76  N   UNL     1      -1.749   8.616   5.934  1.00  0.00    -0.370 N 
ATOM     77  N   UNL     1      -0.476   6.831   6.315  1.00  0.00    -0.370 N 
ATOM     78  H   UNL     1      -1.877   9.617   5.888  1.00  0.00     0.159 HD
ATOM     79  H   UNL     1      -2.468   8.019   5.564  1.00  0.00     0.159 HD
ATOM     80  H   UNL     1       0.375   6.357   6.575  1.00  0.00     0.159 HD
ATOM     81  H   UNL     1      -1.299   6.265   6.188  1.00  0.00     0.159 HD
ENDBRANCH  73  74
ENDBRANCH  72  73
ENDBRANCH  71  72
ENDBRANCH  45  71
ENDBRANCH   3  45
TORSDOF 20
ENDMDL
MODEL 5
REMARK VINA RESULT:    -5.277      7.252     11.653
REMARK INTER + INTRA:         -20.240
REMARK INTER:                 -13.898
REMARK INTRA:                  -6.343
REMARK UNBOUND:                -5.091
REMARK SMILES CCCCCC(=O)N[C@H](CC(=O)O)C(=O)N[C@H]1C(=O)N[C@H](CCCN=C(N)N)C(=O)N[C@@H]2CC[C@H](O)N(C2=O)[C@@H](CC(C)C)C(=O)N(C)[C@@H](Cc2ccccc2)C(=O)N[C@H](C(C)C)C(=O)O[C@@H]1C
REMARK SMILES IDX 30 1 31 2 29 3 32 5 35 6 37 7 34 8 38 9 33 10 39 11 36 12
REMARK SMILES IDX 40 14 41 15 42 16 43 17 44 18 45 19 46 20 47 21 48 22 49 23
REMARK SMILES IDX 50 24 51 25 52 26 56 27 53 28 55 29 54 30 57 31 58 32 59 33
REMARK SMILES IDX 60 35 61 36 62 37 63 38 64 39 65 40 66 41 67 42 68 43 21 45
REMARK SMILES IDX 20 46 18 47 19 48 17 50 16 52 14 53 15 54 9 56 8 57 6 58
REMARK SMILES IDX 7 59 5 61 4 62 3 63 2 64 1 65 10 66 11 67 12 68 13 69 22 71
REMARK SMILES IDX 23 72 24 73 25 74 26 75 27 76 28 77
REMARK H PARENT 31 4 36 13 59 34 20 49 16 55 8 60 13 70 27 78 27 79 28 80
REMARK H PARENT 28 81
REMARK Flexibility Score:  259.900
ROOT
ATOM      1  O   UNL     1       1.541   6.527  12.828  1.00  0.00    -0.273 OA
ATOM      2  N   UNL     1       2.822   6.288  10.949  1.00  0.00    -0.343 N 
ATOM      3  C   UNL     1       1.693   6.706  11.620  1.00  0.00     0.243 C 
ATOM      4  H   UNL     1       2.919   6.465   9.956  1.00  0.00     0.164 HD
ENDROOT
BRANCH   2   5
ATOM      5  C   UNL     1       3.843   5.500  11.632  1.00  0.00     0.171 C 
ATOM      6  C   UNL     1       6.560   4.775  10.930  1.00  0.00     0.214 C 
ATOM      7  N   UNL     1       5.473   3.901  10.557  1.00  0.00    -0.303 N 
ATOM      8  C   UNL     1       6.291   5.562  12.203  1.00  0.00     0.057 C 
ATOM      9  C   UNL     1       4.148   4.211  10.816  1.00  0.00     0.247 C 
ATOM     10  C   UNL     1       5.025   6.376  12.045  1.00  0.00     0.040 C 
ATOM     11  O   UNL     1       3.217   3.499  10.417  1.00  0.00    -0.272 OA
BRANCH   6  12
ATOM     12  O   UNL     1       6.798   5.651   9.852  1.00  0.00    -0.373 OA
ATOM     13  H   UNL     1       6.267   5.325   9.095  1.00  0.00     0.213 HD
ENDBRANCH   6  12
BRANCH   7  14
ATOM     14  C   UNL     1       5.816   2.713   9.747  1.00  0.00     0.177 C 
BRANCH  14  15
ATOM     15  C   UNL     1       6.117   2.996   8.262  1.00  0.00     0.038 C 
BRANCH  15  16
ATOM     16  C   UNL     1       5.089   2.582   7.185  1.00  0.00    -0.015 C 
ATOM     17  C   UNL     1       3.986   3.628   6.998  1.00  0.00     0.007 C 
ATOM     18  C   UNL     1       4.430   1.254   7.580  1.00  0.00     0.007 C 
ENDBRANCH  15  16
ENDBRANCH  14  15
BRANCH  14  19
ATOM     19  C   UNL     1       6.544   1.643  10.632  1.00  0.00     0.245 C 
ATOM     20  O   UNL     1       6.080   1.447  11.767  1.00  0.00    -0.272 OA
BRANCH  19  21
ATOM     21  N   UNL     1       7.716   1.006  10.263  1.00  0.00    -0.332 N 
ATOM     22  C   UNL     1       9.059   1.474  10.559  1.00  0.00     0.147 C 
BRANCH  21  23
ATOM     23  C   UNL     1       7.605  -0.261   9.489  1.00  0.00     0.178 C 
BRANCH  23  24
ATOM     24  C   UNL     1       8.420  -0.290   8.179  1.00  0.00     0.070 C 
BRANCH  24  25
ATOM     25  C   UNL     1       7.644  -0.420   6.889  1.00  0.00    -0.045 A 
ATOM     26  C   UNL     1       7.750   0.552   5.886  1.00  0.00     0.004 A 
ATOM     27  C   UNL     1       6.798  -1.520   6.680  1.00  0.00     0.004 A 
ATOM     28  C   UNL     1       7.016   0.433   4.704  1.00  0.00     0.000 A 
ATOM     29  C   UNL     1       6.067  -1.639   5.497  1.00  0.00     0.000 A 
ATOM     30  C   UNL     1       6.174  -0.660   4.511  1.00  0.00     0.000 A 
ENDBRANCH  24  25
ENDBRANCH  23  24
BRANCH  23  31
ATOM     31  C   UNL     1       7.747  -1.523  10.372  1.00  0.00     0.243 C 
ATOM     32  O   UNL     1       7.042  -1.760  11.349  1.00  0.00    -0.273 OA
ATOM     33  N   UNL     1       8.867  -2.282  10.077  1.00  0.00    -0.341 N 
ATOM     34  H   UNL     1       9.420  -2.031   9.253  1.00  0.00     0.164 HD
BRANCH  33  35
ATOM     35  C   UNL     1       9.267  -3.454  10.860  1.00  0.00     0.194 C 
BRANCH  35  36
ATOM     36  C   UNL     1      10.775  -3.481  11.237  1.00  0.00     0.017 C 
ATOM     37  C   UNL     1      10.984  -4.001  12.670  1.00  0.00     0.010 C 
ATOM     38  C   UNL     1      11.446  -2.105  11.146  1.00  0.00     0.010 C 
ENDBRANCH  35  36
BRANCH  35  39
ATOM     39  C   UNL     1       8.806  -4.790  10.214  1.00  0.00     0.329 C 
ATOM     40  O   UNL     1       7.635  -5.139  10.120  1.00  0.00    -0.250 OA
BRANCH  39  41
ATOM     41  O   UNL     1       9.849  -5.497   9.681  1.00  0.00    -0.458 OA
BRANCH  41  42
ATOM     42  C   UNL     1       9.985  -6.869  10.122  1.00  0.00     0.205 CG0
ATOM     43  C   UNL     1      11.477  -7.143  10.299  1.00  0.00     0.056 C 
ATOM     44  G   UNL     1       9.337  -7.790   9.070  1.00  0.00     0.000 G0
ENDBRANCH  41  42
ENDBRANCH  39  41
ENDBRANCH  35  39
ENDBRANCH  33  35
ENDBRANCH  23  31
ENDBRANCH  21  23
ENDBRANCH  19  21
ENDBRANCH  14  19
ENDBRANCH   7  14
ENDBRANCH   2   5
BRANCH   3  45
ATOM     45  C   UNL     1       0.648   7.429  10.760  1.00  0.00     0.171 C 
BRANCH  45  46
ATOM     46  N   UNL     1       0.100   8.480  11.607  1.00  0.00    -0.342 N 
ATOM     47  C   UNL     1       0.613   9.752  11.627  1.00  0.00     0.247 C 
ATOM     48  O   UNL     1       1.522  10.118  10.881  1.00  0.00    -0.273 OA
ATOM     49  H   UNL     1      -0.691   8.235  12.200  1.00  0.00     0.164 HD
BRANCH  47  50
ATOM     50  C   UNL     1      -0.011  10.689  12.672  1.00  0.00     0.212 CG0
ATOM     51  G   UNL     1      -0.778  11.791  11.913  1.00  0.00     0.000 G0
BRANCH  50  52
ATOM     52  N   UNL     1      -0.877   9.841  13.487  1.00  0.00    -0.339 N 
ATOM     53  C   UNL     1      -0.495   9.312  14.696  1.00  0.00     0.243 C 
ATOM     54  O   UNL     1       0.630   9.469  15.161  1.00  0.00    -0.273 OA
ATOM     55  H   UNL     1      -1.784   9.582  13.103  1.00  0.00     0.164 HD
BRANCH  53  56
ATOM     56  C   UNL     1      -1.545   8.378  15.332  1.00  0.00     0.182 C 
BRANCH  56  57
ATOM     57  N   UNL     1      -1.079   6.988  15.335  1.00  0.00    -0.344 N 
ATOM     58  C   UNL     1      -0.388   6.445  16.391  1.00  0.00     0.220 C 
ATOM     59  O   UNL     1      -0.050   7.102  17.370  1.00  0.00    -0.275 OA
ATOM     60  H   UNL     1      -1.425   6.384  14.593  1.00  0.00     0.164 HD
BRANCH  58  61
ATOM     61  C   UNL     1      -0.059   4.976  16.203  1.00  0.00     0.100 C 
BRANCH  61  62
ATOM     62  C   UNL     1       1.112   4.493  17.060  1.00  0.00     0.010 C 
BRANCH  62  63
ATOM     63  C   UNL     1       2.171   3.698  16.284  1.00  0.00     0.000 C 
BRANCH  63  64
ATOM     64  C   UNL     1       1.808   2.232  16.051  1.00  0.00    -0.003 C 
ATOM     65  C   UNL     1       2.553   1.317  17.012  1.00  0.00     0.004 C 
ENDBRANCH  63  64
ENDBRANCH  62  63
ENDBRANCH  61  62
ENDBRANCH  58  61
ENDBRANCH  56  57
BRANCH  56  66
ATOM     66  C   UNL     1      -2.908   8.528  14.660  1.00  0.00     0.157 C 
BRANCH  66  67
ATOM     67  C   UNL     1      -3.532   7.189  14.389  1.00  0.00     0.305 C 
ATOM     68  O   UNL     1      -4.338   6.601  15.093  1.00  0.00    -0.252 OA
BRANCH  67  69
ATOM     69  O   UNL     1      -3.144   6.673  13.207  1.00  0.00    -0.481 OA
ATOM     70  H   UNL     1      -3.063   5.709  13.369  1.00  0.00     0.296 HD
ENDBRANCH  67  69
ENDBRANCH  66  67
ENDBRANCH  56  66
ENDBRANCH  53  56
ENDBRANCH  50  52
ENDBRANCH  47  50
ENDBRANCH  45  46
BRANCH  45  71
ATOM     71  C   UNL     1      -0.437   6.449  10.301  1.00  0.00     0.037 C 
BRANCH  71  72
ATOM     72  C   UNL     1      -0.118   5.834   8.936  1.00  0.00     0.026 C 
BRANCH  72  73
ATOM     73  C   UNL     1       0.405   6.884   7.957  1.00  0.00     0.146 C 
BRANCH  73  74
ATOM     74  N   UNL     1      -0.197   6.618   6.654  1.00  0.00    -0.254 NA
ATOM     75  C   UNL     1       0.589   6.386   5.668  1.00  0.00     0.185 C 
ATOM     76  N   UNL     1       0.066   6.138   4.457  1.00  0.00    -0.370 N 
ATOM     77  N   UNL     1       1.933   6.349   5.649  1.00  0.00    -0.370 N 
ATOM     78  H   UNL     1      -0.941   6.154   4.381  1.00  0.00     0.159 HD
ATOM     79  H   UNL     1       0.614   6.092   3.616  1.00  0.00     0.159 HD
ATOM     80  H   UNL     1       2.463   6.514   6.491  1.00  0.00     0.159 HD
ATOM     81  H   UNL     1       2.441   6.042   4.836  1.00  0.00     0.159 HD
ENDBRANCH  73  74
ENDBRANCH  72  73
ENDBRANCH  71  72
ENDBRANCH  45  71
ENDBRANCH   3  45
TORSDOF 20
ENDMDL
MODEL 6
REMARK VINA RESULT:    -5.141      6.145     12.994
REMARK INTER + INTRA:         -19.848
REMARK INTER:                 -14.180
REMARK INTRA:                  -5.668
REMARK UNBOUND:                -5.091
REMARK SMILES CCCCCC(=O)N[C@H](CC(=O)O)C(=O)N[C@H]1C(=O)N[C@H](CCCN=C(N)N)C(=O)N[C@@H]2CC[C@H](O)N(C2=O)[C@@H](CC(C)C)C(=O)N(C)[C@@H](Cc2ccccc2)C(=O)N[C@H](C(C)C)C(=O)O[C@@H]1C
REMARK SMILES IDX 30 1 31 2 29 3 32 5 35 6 37 7 34 8 38 9 33 10 39 11 36 12
REMARK SMILES IDX 40 14 41 15 42 16 43 17 44 18 45 19 46 20 47 21 48 22 49 23
REMARK SMILES IDX 50 24 51 25 52 26 56 27 53 28 55 29 54 30 57 31 58 32 59 33
REMARK SMILES IDX 60 35 61 36 62 37 63 38 64 39 65 40 66 41 67 42 68 43 21 45
REMARK SMILES IDX 20 46 18 47 19 48 17 50 16 52 14 53 15 54 9 56 8 57 6 58
REMARK SMILES IDX 7 59 5 61 4 62 3 63 2 64 1 65 10 66 11 67 12 68 13 69 22 71
REMARK SMILES IDX 23 72 24 73 25 74 26 75 27 76 28 77
REMARK H PARENT 31 4 36 13 59 34 20 49 16 55 8 60 13 70 27 78 27 79 28 80
REMARK H PARENT 28 81
REMARK Flexibility Score:  259.900
ROOT
ATOM      1  O   UNL     1       1.308   8.512   7.044  1.00  0.00    -0.273 OA
ATOM      2  N   UNL     1       3.242   7.676   7.933  1.00  0.00    -0.343 N 
ATOM      3  C   UNL     1       2.479   8.684   7.383  1.00  0.00     0.243 C 
ATOM      4  H   UNL     1       4.198   7.857   8.213  1.00  0.00     0.164 HD
ENDROOT
BRANCH   2   5
ATOM      5  C   UNL     1       2.720   6.316   8.026  1.00  0.00     0.171 C 
ATOM      6  C   UNL     1       3.601   3.970   9.483  1.00  0.00     0.214 C 
ATOM      7  N   UNL     1       4.079   4.192   8.138  1.00  0.00    -0.303 N 
ATOM      8  C   UNL     1       2.212   4.538   9.730  1.00  0.00     0.057 C 
ATOM      9  C   UNL     1       3.738   5.317   7.405  1.00  0.00     0.247 C 
ATOM     10  C   UNL     1       2.206   6.022   9.434  1.00  0.00     0.040 C 
ATOM     11  O   UNL     1       4.220   5.543   6.288  1.00  0.00    -0.272 OA
BRANCH   6  12
ATOM     12  O   UNL     1       4.532   4.544  10.371  1.00  0.00    -0.373 OA
ATOM     13  H   UNL     1       5.421   4.424   9.973  1.00  0.00     0.213 HD
ENDBRANCH   6  12
BRANCH   7  14
ATOM     14  C   UNL     1       5.077   3.235   7.615  1.00  0.00     0.177 C 
BRANCH  14  15
ATOM     15  C   UNL     1       6.412   3.194   8.383  1.00  0.00     0.038 C 
BRANCH  15  16
ATOM     16  C   UNL     1       7.414   4.360   8.232  1.00  0.00    -0.015 C 
ATOM     17  C   UNL     1       7.865   4.558   6.782  1.00  0.00     0.007 C 
ATOM     18  C   UNL     1       8.657   4.091   9.089  1.00  0.00     0.007 C 
ENDBRANCH  15  16
ENDBRANCH  14  15
BRANCH  14  19
ATOM     19  C   UNL     1       4.359   1.996   6.976  1.00  0.00     0.245 C 
ATOM     20  O   UNL     1       3.631   2.217   5.994  1.00  0.00    -0.272 OA
BRANCH  19  21
ATOM     21  N   UNL     1       4.405   0.720   7.508  1.00  0.00    -0.332 N 
ATOM     22  C   UNL     1       4.505   0.398   8.921  1.00  0.00     0.147 C 
BRANCH  21  23
ATOM     23  C   UNL     1       4.359  -0.430   6.563  1.00  0.00     0.178 C 
BRANCH  23  24
ATOM     24  C   UNL     1       5.724  -0.828   5.964  1.00  0.00     0.070 C 
BRANCH  24  25
ATOM     25  C   UNL     1       6.956  -0.479   6.767  1.00  0.00    -0.045 A 
ATOM     26  C   UNL     1       7.330  -1.248   7.877  1.00  0.00     0.004 A 
ATOM     27  C   UNL     1       7.742   0.628   6.413  1.00  0.00     0.004 A 
ATOM     28  C   UNL     1       8.460  -0.909   8.624  1.00  0.00     0.000 A 
ATOM     29  C   UNL     1       8.872   0.964   7.160  1.00  0.00     0.000 A 
ATOM     30  C   UNL     1       9.228   0.197   8.267  1.00  0.00     0.000 A 
ENDBRANCH  24  25
ENDBRANCH  23  24
BRANCH  23  31
ATOM     31  C   UNL     1       3.510  -1.611   7.089  1.00  0.00     0.243 C 
ATOM     32  O   UNL     1       2.336  -1.512   7.436  1.00  0.00    -0.273 OA
ATOM     33  N   UNL     1       4.244  -2.764   7.313  1.00  0.00    -0.341 N 
ATOM     34  H   UNL     1       5.220  -2.784   7.008  1.00  0.00     0.164 HD
BRANCH  33  35
ATOM     35  C   UNL     1       3.672  -3.969   7.920  1.00  0.00     0.194 C 
BRANCH  35  36
ATOM     36  C   UNL     1       4.205  -4.273   9.349  1.00  0.00     0.017 C 
ATOM     37  C   UNL     1       3.416  -3.496  10.417  1.00  0.00     0.010 C 
ATOM     38  C   UNL     1       5.687  -3.924   9.529  1.00  0.00     0.010 C 
ENDBRANCH  35  36
BRANCH  35  39
ATOM     39  C   UNL     1       3.767  -5.210   6.989  1.00  0.00     0.329 C 
ATOM     40  O   UNL     1       3.081  -5.369   5.986  1.00  0.00    -0.250 OA
BRANCH  39  41
ATOM     41  O   UNL     1       4.764  -6.067   7.365  1.00  0.00    -0.458 OA
BRANCH  41  42
ATOM     42  C   UNL     1       4.395  -7.460   7.501  1.00  0.00     0.205 CG0
ATOM     43  C   UNL     1       4.982  -7.960   8.819  1.00  0.00     0.056 C 
ATOM     44  G   UNL     1       4.937  -8.234   6.283  1.00  0.00     0.000 G0
ENDBRANCH  41  42
ENDBRANCH  39  41
ENDBRANCH  35  39
ENDBRANCH  33  35
ENDBRANCH  23  31
ENDBRANCH  21  23
ENDBRANCH  19  21
ENDBRANCH  14  19
ENDBRANCH   7  14
ENDBRANCH   2   5
BRANCH   3  45
ATOM     45  C   UNL     1       3.184  10.039   7.243  1.00  0.00     0.171 C 
BRANCH  45  46
ATOM     46  N   UNL     1       2.882  10.769   8.468  1.00  0.00    -0.342 N 
ATOM     47  C   UNL     1       3.695  10.722   9.572  1.00  0.00     0.247 C 
ATOM     48  O   UNL     1       4.771  10.123   9.585  1.00  0.00    -0.273 OA
ATOM     49  H   UNL     1       2.028  11.324   8.481  1.00  0.00     0.164 HD
BRANCH  47  50
ATOM     50  C   UNL     1       3.154  11.451  10.810  1.00  0.00     0.212 CG0
ATOM     51  G   UNL     1       2.345  12.668  10.318  1.00  0.00     0.000 G0
BRANCH  50  52
ATOM     52  N   UNL     1       2.341  10.466  11.518  1.00  0.00    -0.339 N 
ATOM     53  C   UNL     1       1.025  10.673  11.853  1.00  0.00     0.243 C 
ATOM     54  O   UNL     1       0.443  11.730  11.628  1.00  0.00    -0.273 OA
ATOM     55  H   UNL     1       2.799   9.612  11.831  1.00  0.00     0.164 HD
BRANCH  53  56
ATOM     56  C   UNL     1       0.399   9.527  12.674  1.00  0.00     0.182 C 
BRANCH  56  57
ATOM     57  N   UNL     1      -0.984   9.840  13.047  1.00  0.00    -0.344 N 
ATOM     58  C   UNL     1      -2.062   9.379  12.331  1.00  0.00     0.220 C 
ATOM     59  O   UNL     1      -1.943   8.737  11.293  1.00  0.00    -0.275 OA
ATOM     60  H   UNL     1      -1.128  10.281  13.951  1.00  0.00     0.164 HD
BRANCH  58  61
ATOM     61  C   UNL     1      -3.397   9.777  12.931  1.00  0.00     0.100 C 
BRANCH  61  62
ATOM     62  C   UNL     1      -3.678   9.136  14.291  1.00  0.00     0.010 C 
BRANCH  62  63
ATOM     63  C   UNL     1      -3.756   7.605  14.258  1.00  0.00     0.000 C 
BRANCH  63  64
ATOM     64  C   UNL     1      -2.632   6.903  15.018  1.00  0.00    -0.003 C 
ATOM     65  C   UNL     1      -1.576   6.356  14.067  1.00  0.00     0.004 C 
ENDBRANCH  63  64
ENDBRANCH  62  63
ENDBRANCH  61  62
ENDBRANCH  58  61
ENDBRANCH  56  57
BRANCH  56  66
ATOM     66  C   UNL     1       1.257   9.173  13.887  1.00  0.00     0.157 C 
BRANCH  66  67
ATOM     67  C   UNL     1       0.603   9.618  15.164  1.00  0.00     0.305 C 
ATOM     68  O   UNL     1       0.012   8.914  15.968  1.00  0.00    -0.252 OA
BRANCH  67  69
ATOM     69  O   UNL     1       0.773  10.934  15.394  1.00  0.00    -0.481 OA
ATOM     70  H   UNL     1       1.553  10.986  15.986  1.00  0.00     0.296 HD
ENDBRANCH  67  69
ENDBRANCH  66  67
ENDBRANCH  56  66
ENDBRANCH  53  56
ENDBRANCH  50  52
ENDBRANCH  47  50
ENDBRANCH  45  46
BRANCH  45  71
ATOM     71  C   UNL     1       2.673  10.781   6.003  1.00  0.00     0.037 C 
BRANCH  71  72
ATOM     72  C   UNL     1       1.974  12.094   6.364  1.00  0.00     0.026 C 
BRANCH  72  73
ATOM     73  C   UNL     1       0.551  12.141   5.810  1.00  0.00     0.146 C 
BRANCH  73  74
ATOM     74  N   UNL     1       0.356  10.959   4.977  1.00  0.00    -0.254 NA
ATOM     75  C   UNL     1      -0.829  10.479   4.886  1.00  0.00     0.185 C 
ATOM     76  N   UNL     1      -1.040   9.392   4.126  1.00  0.00    -0.370 N 
ATOM     77  N   UNL     1      -1.963  10.914   5.462  1.00  0.00    -0.370 N 
ATOM     78  H   UNL     1      -0.236   8.996   3.661  1.00  0.00     0.159 HD
ATOM     79  H   UNL     1      -1.904   8.879   4.122  1.00  0.00     0.159 HD
ATOM     80  H   UNL     1      -1.957  11.727   6.060  1.00  0.00     0.159 HD
ATOM     81  H   UNL     1      -2.860  10.523   5.225  1.00  0.00     0.159 HD
ENDBRANCH  73  74
ENDBRANCH  72  73
ENDBRANCH  71  72
ENDBRANCH  45  71
ENDBRANCH   3  45
TORSDOF 20
ENDMDL
MODEL 7
REMARK VINA RESULT:    -5.100     10.638     14.323
REMARK INTER + INTRA:         -19.732
REMARK INTER:                 -13.356
REMARK INTRA:                  -6.376
REMARK UNBOUND:                -5.091
REMARK SMILES CCCCCC(=O)N[C@H](CC(=O)O)C(=O)N[C@H]1C(=O)N[C@H](CCCN=C(N)N)C(=O)N[C@@H]2CC[C@H](O)N(C2=O)[C@@H](CC(C)C)C(=O)N(C)[C@@H](Cc2ccccc2)C(=O)N[C@H](C(C)C)C(=O)O[C@@H]1C
REMARK SMILES IDX 30 1 31 2 29 3 32 5 35 6 37 7 34 8 38 9 33 10 39 11 36 12
REMARK SMILES IDX 40 14 41 15 42 16 43 17 44 18 45 19 46 20 47 21 48 22 49 23
REMARK SMILES IDX 50 24 51 25 52 26 56 27 53 28 55 29 54 30 57 31 58 32 59 33
REMARK SMILES IDX 60 35 61 36 62 37 63 38 64 39 65 40 66 41 67 42 68 43 21 45
REMARK SMILES IDX 20 46 18 47 19 48 17 50 16 52 14 53 15 54 9 56 8 57 6 58
REMARK SMILES IDX 7 59 5 61 4 62 3 63 2 64 1 65 10 66 11 67 12 68 13 69 22 71
REMARK SMILES IDX 23 72 24 73 25 74 26 75 27 76 28 77
REMARK H PARENT 31 4 36 13 59 34 20 49 16 55 8 60 13 70 27 78 27 79 28 80
REMARK H PARENT 28 81
REMARK Flexibility Score:  259.900
ROOT
ATOM      1  O   UNL     1       6.211   7.630  -0.487  1.00  0.00    -0.273 OA
ATOM      2  N   UNL     1       6.156   9.904  -0.723  1.00  0.00    -0.343 N 
ATOM      3  C   UNL     1       5.576   8.684  -0.451  1.00  0.00     0.243 C 
ATOM      4  H   UNL     1       5.606  10.752  -0.669  1.00  0.00     0.164 HD
ENDROOT
BRANCH   2   5
ATOM      5  C   UNL     1       7.538   9.982  -1.186  1.00  0.00     0.171 C 
ATOM      6  C   UNL     1       9.678   8.031  -1.320  1.00  0.00     0.214 C 
ATOM      7  N   UNL     1       9.538   8.852  -0.140  1.00  0.00    -0.303 N 
ATOM      8  C   UNL     1       9.196   8.715  -2.590  1.00  0.00     0.057 C 
ATOM      9  C   UNL     1       8.508   9.767   0.010  1.00  0.00     0.247 C 
ATOM     10  C   UNL     1       7.747   9.124  -2.433  1.00  0.00     0.040 C 
ATOM     11  O   UNL     1       8.345  10.404   1.059  1.00  0.00    -0.272 OA
BRANCH   6  12
ATOM     12  O   UNL     1       8.962   6.838  -1.102  1.00  0.00    -0.373 OA
ATOM     13  H   UNL     1       9.497   6.290  -0.488  1.00  0.00     0.213 HD
ENDBRANCH   6  12
BRANCH   7  14
ATOM     14  C   UNL     1      10.460   8.576   0.982  1.00  0.00     0.177 C 
BRANCH  14  15
ATOM     15  C   UNL     1      11.620   9.577   1.140  1.00  0.00     0.038 C 
BRANCH  15  16
ATOM     16  C   UNL     1      13.016   9.220   0.583  1.00  0.00    -0.015 C 
ATOM     17  C   UNL     1      13.018   9.081  -0.942  1.00  0.00     0.007 C 
ATOM     18  C   UNL     1      13.490   7.892   1.187  1.00  0.00     0.007 C 
ENDBRANCH  15  16
ENDBRANCH  14  15
BRANCH  14  19
ATOM     19  C   UNL     1       9.690   7.886   2.161  1.00  0.00     0.245 C 
ATOM     20  O   UNL     1       8.705   7.193   1.856  1.00  0.00    -0.272 OA
BRANCH  19  21
ATOM     21  N   UNL     1       9.977   8.098   3.497  1.00  0.00    -0.332 N 
ATOM     22  C   UNL     1      11.134   7.577   4.203  1.00  0.00     0.147 C 
BRANCH  21  23
ATOM     23  C   UNL     1       9.021   8.916   4.293  1.00  0.00     0.178 C 
BRANCH  23  24
ATOM     24  C   UNL     1       8.929   8.534   5.785  1.00  0.00     0.070 C 
BRANCH  24  25
ATOM     25  C   UNL     1       7.771   7.657   6.200  1.00  0.00    -0.045 A 
ATOM     26  C   UNL     1       7.776   6.283   5.926  1.00  0.00     0.004 A 
ATOM     27  C   UNL     1       6.667   8.212   6.865  1.00  0.00     0.004 A 
ATOM     28  C   UNL     1       6.694   5.483   6.298  1.00  0.00     0.000 A 
ATOM     29  C   UNL     1       5.587   7.410   7.237  1.00  0.00     0.000 A 
ATOM     30  C   UNL     1       5.600   6.047   6.951  1.00  0.00     0.000 A 
ENDBRANCH  24  25
ENDBRANCH  23  24
BRANCH  23  31
ATOM     31  C   UNL     1       9.150  10.433   4.017  1.00  0.00     0.243 C 
ATOM     32  O   UNL     1      10.217  11.006   3.812  1.00  0.00    -0.273 OA
ATOM     33  N   UNL     1       7.970  11.132   4.205  1.00  0.00    -0.341 N 
ATOM     34  H   UNL     1       7.113  10.600   4.379  1.00  0.00     0.164 HD
BRANCH  33  35
ATOM     35  C   UNL     1       7.883  12.592   4.115  1.00  0.00     0.194 C 
BRANCH  35  36
ATOM     36  C   UNL     1       8.034  13.322   5.479  1.00  0.00     0.017 C 
ATOM     37  C   UNL     1       9.467  13.847   5.676  1.00  0.00     0.010 C 
ATOM     38  C   UNL     1       7.703  12.431   6.682  1.00  0.00     0.010 C 
ENDBRANCH  35  36
BRANCH  35  39
ATOM     39  C   UNL     1       6.623  13.069   3.338  1.00  0.00     0.329 C 
ATOM     40  O   UNL     1       6.662  13.659   2.264  1.00  0.00    -0.250 OA
BRANCH  39  41
ATOM     41  O   UNL     1       5.461  12.681   3.944  1.00  0.00    -0.458 OA
BRANCH  41  42
ATOM     42  C   UNL     1       4.313  12.510   3.079  1.00  0.00     0.205 CG0
ATOM     43  C   UNL     1       3.185  13.370   3.644  1.00  0.00     0.056 C 
ATOM     44  G   UNL     1       3.948  11.012   3.038  1.00  0.00     0.000 G0
ENDBRANCH  41  42
ENDBRANCH  39  41
ENDBRANCH  35  39
ENDBRANCH  33  35
ENDBRANCH  23  31
ENDBRANCH  21  23
ENDBRANCH  19  21
ENDBRANCH  14  19
ENDBRANCH   7  14
ENDBRANCH   2   5
BRANCH   3  45
ATOM     45  C   UNL     1       4.088   8.733  -0.079  1.00  0.00     0.171 C 
BRANCH  45  46
ATOM     46  N   UNL     1       4.038   9.267   1.276  1.00  0.00    -0.342 N 
ATOM     47  C   UNL     1       3.851  10.601   1.535  1.00  0.00     0.247 C 
ATOM     48  O   UNL     1       3.639  11.431   0.649  1.00  0.00    -0.273 OA
ATOM     49  H   UNL     1       4.153   8.605   2.042  1.00  0.00     0.164 HD
BRANCH  47  50
ATOM     50  C   UNL     1       3.951  10.997   3.015  1.00  0.00     0.212 CG0
ATOM     51  G   UNL     1       4.295  12.499   3.075  1.00  0.00     0.000 G0
BRANCH  50  52
ATOM     52  N   UNL     1       2.648  10.680   3.592  1.00  0.00    -0.339 N 
ATOM     53  C   UNL     1       2.481  10.226   4.878  1.00  0.00     0.243 C 
ATOM     54  O   UNL     1       3.427   9.999   5.628  1.00  0.00    -0.273 OA
ATOM     55  H   UNL     1       1.834  10.741   2.984  1.00  0.00     0.164 HD
BRANCH  53  56
ATOM     56  C   UNL     1       1.023   9.876   5.236  1.00  0.00     0.182 C 
BRANCH  56  57
ATOM     57  N   UNL     1       0.642   8.574   4.678  1.00  0.00    -0.344 N 
ATOM     58  C   UNL     1       0.450   7.464   5.464  1.00  0.00     0.220 C 
ATOM     59  O   UNL     1       0.654   7.464   6.673  1.00  0.00    -0.275 OA
ATOM     60  H   UNL     1       0.365   8.555   3.700  1.00  0.00     0.164 HD
BRANCH  58  61
ATOM     61  C   UNL     1       0.002   6.243   4.682  1.00  0.00     0.100 C 
BRANCH  61  62
ATOM     62  C   UNL     1       1.050   5.131   4.623  1.00  0.00     0.010 C 
BRANCH  62  63
ATOM     63  C   UNL     1       2.495   5.621   4.784  1.00  0.00     0.000 C 
BRANCH  63  64
ATOM     64  C   UNL     1       3.147   6.088   3.484  1.00  0.00    -0.003 C 
ATOM     65  C   UNL     1       4.221   7.135   3.746  1.00  0.00     0.004 C 
ENDBRANCH  63  64
ENDBRANCH  62  63
ENDBRANCH  61  62
ENDBRANCH  58  61
ENDBRANCH  56  57
BRANCH  56  66
ATOM     66  C   UNL     1       0.061  10.986   4.817  1.00  0.00     0.157 C 
BRANCH  66  67
ATOM     67  C   UNL     1      -1.355  10.491   4.770  1.00  0.00     0.305 C 
ATOM     68  O   UNL     1      -2.031  10.295   3.771  1.00  0.00    -0.252 OA
BRANCH  67  69
ATOM     69  O   UNL     1      -1.841  10.213   5.995  1.00  0.00    -0.481 OA
ATOM     70  H   UNL     1      -1.252  10.696   6.613  1.00  0.00     0.296 HD
ENDBRANCH  67  69
ENDBRANCH  66  67
ENDBRANCH  56  66
ENDBRANCH  53  56
ENDBRANCH  50  52
ENDBRANCH  47  50
ENDBRANCH  45  46
BRANCH  45  71
ATOM     71  C   UNL     1       3.472   7.332  -0.157  1.00  0.00     0.037 C 
BRANCH  71  72
ATOM     72  C   UNL     1       3.381   6.822  -1.598  1.00  0.00     0.026 C 
BRANCH  72  73
ATOM     73  C   UNL     1       2.649   7.815  -2.498  1.00  0.00     0.146 C 
BRANCH  73  74
ATOM     74  N   UNL     1       2.120   7.077  -3.641  1.00  0.00    -0.254 NA
ATOM     75  C   UNL     1       0.847   7.004  -3.769  1.00  0.00     0.185 C 
ATOM     76  N   UNL     1       0.330   6.332  -4.811  1.00  0.00    -0.370 N 
ATOM     77  N   UNL     1      -0.113   7.522  -2.983  1.00  0.00    -0.370 N 
ATOM     78  H   UNL     1       0.985   5.903  -5.449  1.00  0.00     0.159 HD
ATOM     79  H   UNL     1      -0.646   6.111  -4.898  1.00  0.00     0.159 HD
ATOM     80  H   UNL     1       0.129   8.057  -2.163  1.00  0.00     0.159 HD
ATOM     81  H   UNL     1      -1.084   7.498  -3.249  1.00  0.00     0.159 HD
ENDBRANCH  73  74
ENDBRANCH  72  73
ENDBRANCH  71  72
ENDBRANCH  45  71
ENDBRANCH   3  45
TORSDOF 20
ENDMDL
MODEL 8
REMARK VINA RESULT:    -5.011      2.371      3.205
REMARK INTER + INTRA:         -19.476
REMARK INTER:                 -14.347
REMARK INTRA:                  -5.129
REMARK UNBOUND:                -5.091
REMARK SMILES CCCCCC(=O)N[C@H](CC(=O)O)C(=O)N[C@H]1C(=O)N[C@H](CCCN=C(N)N)C(=O)N[C@@H]2CC[C@H](O)N(C2=O)[C@@H](CC(C)C)C(=O)N(C)[C@@H](Cc2ccccc2)C(=O)N[C@H](C(C)C)C(=O)O[C@@H]1C
REMARK SMILES IDX 30 1 31 2 29 3 32 5 35 6 37 7 34 8 38 9 33 10 39 11 36 12
REMARK SMILES IDX 40 14 41 15 42 16 43 17 44 18 45 19 46 20 47 21 48 22 49 23
REMARK SMILES IDX 50 24 51 25 52 26 56 27 53 28 55 29 54 30 57 31 58 32 59 33
REMARK SMILES IDX 60 35 61 36 62 37 63 38 64 39 65 40 66 41 67 42 68 43 21 45
REMARK SMILES IDX 20 46 18 47 19 48 17 50 16 52 14 53 15 54 9 56 8 57 6 58
REMARK SMILES IDX 7 59 5 61 4 62 3 63 2 64 1 65 10 66 11 67 12 68 13 69 22 71
REMARK SMILES IDX 23 72 24 73 25 74 26 75 27 76 28 77
REMARK H PARENT 31 4 36 13 59 34 20 49 16 55 8 60 13 70 27 78 27 79 28 80
REMARK H PARENT 28 81
REMARK Flexibility Score:  259.900
ROOT
ATOM      1  O   UNL     1       1.422  -4.609   9.318  1.00  0.00    -0.273 OA
ATOM      2  N   UNL     1       3.593  -4.030   8.892  1.00  0.00    -0.343 N 
ATOM      3  C   UNL     1       2.614  -4.675   9.617  1.00  0.00     0.243 C 
ATOM      4  H   UNL     1       4.566  -4.119   9.159  1.00  0.00     0.164 HD
ENDROOT
BRANCH   2   5
ATOM      5  C   UNL     1       3.237  -3.136   7.796  1.00  0.00     0.171 C 
ATOM      6  C   UNL     1       4.737  -2.095   5.544  1.00  0.00     0.214 C 
ATOM      7  N   UNL     1       4.703  -1.349   6.780  1.00  0.00    -0.303 N 
ATOM      8  C   UNL     1       3.481  -2.917   5.303  1.00  0.00     0.057 C 
ATOM      9  C   UNL     1       4.049  -1.813   7.910  1.00  0.00     0.247 C 
ATOM     10  C   UNL     1       3.264  -3.871   6.457  1.00  0.00     0.040 C 
ATOM     11  O   UNL     1       4.097  -1.211   8.990  1.00  0.00    -0.272 OA
BRANCH   6  12
ATOM     12  O   UNL     1       5.873  -2.928   5.574  1.00  0.00    -0.373 OA
ATOM     13  H   UNL     1       5.645  -3.743   5.077  1.00  0.00     0.213 HD
ENDBRANCH   6  12
BRANCH   7  14
ATOM     14  C   UNL     1       5.526  -0.123   6.846  1.00  0.00     0.177 C 
BRANCH  14  15
ATOM     15  C   UNL     1       7.000  -0.299   6.432  1.00  0.00     0.038 C 
BRANCH  15  16
ATOM     16  C   UNL     1       8.092  -0.378   7.522  1.00  0.00    -0.015 C 
ATOM     17  C   UNL     1       7.505  -0.535   8.928  1.00  0.00     0.007 C 
ATOM     18  C   UNL     1       8.943   0.898   7.497  1.00  0.00     0.007 C 
ENDBRANCH  15  16
ENDBRANCH  14  15
BRANCH  14  19
ATOM     19  C   UNL     1       4.645   1.139   6.550  1.00  0.00     0.245 C 
ATOM     20  O   UNL     1       4.028   1.150   5.471  1.00  0.00    -0.272 OA
BRANCH  19  21
ATOM     21  N   UNL     1       4.612   2.263   7.356  1.00  0.00    -0.332 N 
ATOM     22  C   UNL     1       4.388   2.264   8.791  1.00  0.00     0.147 C 
BRANCH  21  23
ATOM     23  C   UNL     1       4.808   3.590   6.710  1.00  0.00     0.178 C 
BRANCH  23  24
ATOM     24  C   UNL     1       3.550   4.481   6.669  1.00  0.00     0.070 C 
BRANCH  24  25
ATOM     25  C   UNL     1       3.158   5.057   5.328  1.00  0.00    -0.045 A 
ATOM     26  C   UNL     1       3.682   6.280   4.891  1.00  0.00     0.004 A 
ATOM     27  C   UNL     1       2.254   4.372   4.502  1.00  0.00     0.004 A 
ATOM     28  C   UNL     1       3.301   6.813   3.658  1.00  0.00     0.000 A 
ATOM     29  C   UNL     1       1.875   4.906   3.269  1.00  0.00     0.000 A 
ATOM     30  C   UNL     1       2.397   6.128   2.850  1.00  0.00     0.000 A 
ENDBRANCH  24  25
ENDBRANCH  23  24
BRANCH  23  31
ATOM     31  C   UNL     1       6.098   4.305   7.179  1.00  0.00     0.243 C 
ATOM     32  O   UNL     1       7.214   3.791   7.159  1.00  0.00    -0.273 OA
ATOM     33  N   UNL     1       5.862   5.518   7.801  1.00  0.00    -0.341 N 
ATOM     34  H   UNL     1       4.910   5.892   7.791  1.00  0.00     0.164 HD
BRANCH  33  35
ATOM     35  C   UNL     1       6.922   6.313   8.429  1.00  0.00     0.194 C 
BRANCH  35  36
ATOM     36  C   UNL     1       6.664   6.645   9.926  1.00  0.00     0.017 C 
ATOM     37  C   UNL     1       7.905   6.346  10.786  1.00  0.00     0.010 C 
ATOM     38  C   UNL     1       5.491   5.861  10.526  1.00  0.00     0.010 C 
ENDBRANCH  35  36
BRANCH  35  39
ATOM     39  C   UNL     1       7.283   7.582   7.608  1.00  0.00     0.329 C 
ATOM     40  O   UNL     1       8.253   8.295   7.838  1.00  0.00    -0.250 OA
BRANCH  39  41
ATOM     41  O   UNL     1       6.447   7.768   6.542  1.00  0.00    -0.458 OA
BRANCH  41  42
ATOM     42  C   UNL     1       7.079   8.063   5.274  1.00  0.00     0.205 CG0
ATOM     43  C   UNL     1       7.795   6.793   4.817  1.00  0.00     0.056 C 
ATOM     44  G   UNL     1       8.048   9.246   5.471  1.00  0.00     0.000 G0
ENDBRANCH  41  42
ENDBRANCH  39  41
ENDBRANCH  35  39
ENDBRANCH  33  35
ENDBRANCH  23  31
ENDBRANCH  21  23
ENDBRANCH  19  21
ENDBRANCH  14  19
ENDBRANCH   7  14
ENDBRANCH   2   5
BRANCH   3  45
ATOM     45  C   UNL     1       3.116  -5.499  10.811  1.00  0.00     0.171 C 
BRANCH  45  46
ATOM     46  N   UNL     1       2.162  -6.588  10.967  1.00  0.00    -0.342 N 
ATOM     47  C   UNL     1       2.524  -7.820  11.451  1.00  0.00     0.247 C 
ATOM     48  O   UNL     1       3.659  -8.072  11.856  1.00  0.00    -0.273 OA
ATOM     49  H   UNL     1       1.197  -6.405  10.696  1.00  0.00     0.164 HD
BRANCH  47  50
ATOM     50  C   UNL     1       1.413  -8.880  11.427  1.00  0.00     0.212 CG0
ATOM     51  G   UNL     1       1.399  -9.573  12.804  1.00  0.00     0.000 G0
BRANCH  50  52
ATOM     52  N   UNL     1       0.183  -8.148  11.137  1.00  0.00    -0.339 N 
ATOM     53  C   UNL     1      -0.948  -8.233  11.913  1.00  0.00     0.243 C 
ATOM     54  O   UNL     1      -1.028  -8.976  12.887  1.00  0.00    -0.273 OA
ATOM     55  H   UNL     1       0.150  -7.600  10.279  1.00  0.00     0.164 HD
BRANCH  53  56
ATOM     56  C   UNL     1      -2.149  -7.438  11.360  1.00  0.00     0.182 C 
BRANCH  56  57
ATOM     57  N   UNL     1      -2.152  -6.064  11.873  1.00  0.00    -0.344 N 
ATOM     58  C   UNL     1      -2.435  -5.769  13.184  1.00  0.00     0.220 C 
ATOM     59  O   UNL     1      -2.775  -6.620  13.997  1.00  0.00    -0.275 OA
ATOM     60  H   UNL     1      -1.778  -5.344  11.261  1.00  0.00     0.164 HD
BRANCH  58  61
ATOM     61  C   UNL     1      -2.322  -4.290  13.505  1.00  0.00     0.100 C 
BRANCH  61  62
ATOM     62  C   UNL     1      -2.021  -3.416  12.286  1.00  0.00     0.010 C 
BRANCH  62  63
ATOM     63  C   UNL     1      -2.093  -1.909  12.562  1.00  0.00     0.000 C 
BRANCH  63  64
ATOM     64  C   UNL     1      -1.600  -1.036  11.409  1.00  0.00    -0.003 C 
ATOM     65  C   UNL     1      -0.612  -1.787  10.528  1.00  0.00     0.004 C 
ENDBRANCH  63  64
ENDBRANCH  62  63
ENDBRANCH  61  62
ENDBRANCH  58  61
ENDBRANCH  56  57
BRANCH  56  66
ATOM     66  C   UNL     1      -3.469  -8.158  11.631  1.00  0.00     0.157 C 
BRANCH  66  67
ATOM     67  C   UNL     1      -3.536  -9.466  10.897  1.00  0.00     0.305 C 
ATOM     68  O   UNL     1      -3.787 -10.562  11.374  1.00  0.00    -0.252 OA
BRANCH  67  69
ATOM     69  O   UNL     1      -3.333  -9.321   9.574  1.00  0.00    -0.481 OA
ATOM     70  H   UNL     1      -4.135  -9.697   9.155  1.00  0.00     0.296 HD
ENDBRANCH  67  69
ENDBRANCH  66  67
ENDBRANCH  56  66
ENDBRANCH  53  56
ENDBRANCH  50  52
ENDBRANCH  47  50
ENDBRANCH  45  46
BRANCH  45  71
ATOM     71  C   UNL     1       3.189  -4.626  12.069  1.00  0.00     0.037 C 
BRANCH  71  72
ATOM     72  C   UNL     1       1.871  -3.894  12.338  1.00  0.00     0.026 C 
BRANCH  72  73
ATOM     73  C   UNL     1       1.308  -4.242  13.714  1.00  0.00     0.146 C 
BRANCH  73  74
ATOM     74  N   UNL     1       1.067  -5.682  13.747  1.00  0.00    -0.254 NA
ATOM     75  C   UNL     1       0.947  -6.243  14.894  1.00  0.00     0.185 C 
ATOM     76  N   UNL     1       0.724  -7.565  14.957  1.00  0.00    -0.370 N 
ATOM     77  N   UNL     1       1.012  -5.688  16.117  1.00  0.00    -0.370 N 
ATOM     78  H   UNL     1       0.669  -8.062  14.079  1.00  0.00     0.159 HD
ATOM     79  H   UNL     1       0.764  -8.094  15.810  1.00  0.00     0.159 HD
ATOM     80  H   UNL     1       1.171  -4.698  16.224  1.00  0.00     0.159 HD
ATOM     81  H   UNL     1       0.787  -6.212  16.947  1.00  0.00     0.159 HD
ENDBRANCH  73  74
ENDBRANCH  72  73
ENDBRANCH  71  72
ENDBRANCH  45  71
ENDBRANCH   3  45
TORSDOF 20
ENDMDL
MODEL 9
REMARK VINA RESULT:    -4.954      3.819      6.653
REMARK INTER + INTRA:         -19.312
REMARK INTER:                 -12.094
REMARK INTRA:                  -7.219
REMARK UNBOUND:                -5.091
REMARK SMILES CCCCCC(=O)N[C@H](CC(=O)O)C(=O)N[C@H]1C(=O)N[C@H](CCCN=C(N)N)C(=O)N[C@@H]2CC[C@H](O)N(C2=O)[C@@H](CC(C)C)C(=O)N(C)[C@@H](Cc2ccccc2)C(=O)N[C@H](C(C)C)C(=O)O[C@@H]1C
REMARK SMILES IDX 30 1 31 2 29 3 32 5 35 6 37 7 34 8 38 9 33 10 39 11 36 12
REMARK SMILES IDX 40 14 41 15 42 16 43 17 44 18 45 19 46 20 47 21 48 22 49 23
REMARK SMILES IDX 50 24 51 25 52 26 56 27 53 28 55 29 54 30 57 31 58 32 59 33
REMARK SMILES IDX 60 35 61 36 62 37 63 38 64 39 65 40 66 41 67 42 68 43 21 45
REMARK SMILES IDX 20 46 18 47 19 48 17 50 16 52 14 53 15 54 9 56 8 57 6 58
REMARK SMILES IDX 7 59 5 61 4 62 3 63 2 64 1 65 10 66 11 67 12 68 13 69 22 71
REMARK SMILES IDX 23 72 24 73 25 74 26 75 27 76 28 77
REMARK H PARENT 31 4 36 13 59 34 20 49 16 55 8 60 13 70 27 78 27 79 28 80
REMARK H PARENT 28 81
REMARK Flexibility Score:  259.900
ROOT
ATOM      1  O   UNL     1       4.105  -3.681   9.217  1.00  0.00    -0.273 OA
ATOM      2  N   UNL     1       6.012  -3.048   8.125  1.00  0.00    -0.343 N 
ATOM      3  C   UNL     1       5.330  -3.738   9.104  1.00  0.00     0.243 C 
ATOM      4  H   UNL     1       7.019  -3.129   8.053  1.00  0.00     0.164 HD
ENDROOT
BRANCH   2   5
ATOM      5  C   UNL     1       5.311  -2.118   7.246  1.00  0.00     0.171 C 
ATOM      6  C   UNL     1       6.234  -0.045   5.442  1.00  0.00     0.214 C 
ATOM      7  N   UNL     1       5.927   0.291   6.812  1.00  0.00    -0.303 N 
ATOM      8  C   UNL     1       5.406  -1.203   4.906  1.00  0.00     0.057 C 
ATOM      9  C   UNL     1       5.530  -0.659   7.739  1.00  0.00     0.247 C 
ATOM     10  C   UNL     1       5.606  -2.423   5.779  1.00  0.00     0.040 C 
ATOM     11  O   UNL     1       5.353  -0.378   8.932  1.00  0.00    -0.272 OA
BRANCH   6  12
ATOM     12  O   UNL     1       7.608  -0.349   5.371  1.00  0.00    -0.373 OA
ATOM     13  H   UNL     1       8.015  -0.033   6.205  1.00  0.00     0.213 HD
ENDBRANCH   6  12
BRANCH   7  14
ATOM     14  C   UNL     1       6.194   1.682   7.237  1.00  0.00     0.177 C 
BRANCH  14  15
ATOM     15  C   UNL     1       7.605   2.208   6.911  1.00  0.00     0.038 C 
BRANCH  15  16
ATOM     16  C   UNL     1       8.767   1.927   7.889  1.00  0.00    -0.015 C 
ATOM     17  C   UNL     1       8.405   2.268   9.338  1.00  0.00     0.007 C 
ATOM     18  C   UNL     1       9.992   2.760   7.492  1.00  0.00     0.007 C 
ENDBRANCH  15  16
ENDBRANCH  14  15
BRANCH  14  19
ATOM     19  C   UNL     1       4.876   2.529   7.186  1.00  0.00     0.245 C 
ATOM     20  O   UNL     1       4.184   2.424   6.159  1.00  0.00    -0.272 OA
BRANCH  19  21
ATOM     21  N   UNL     1       4.512   3.449   8.153  1.00  0.00    -0.332 N 
ATOM     22  C   UNL     1       4.117   3.131   9.513  1.00  0.00     0.147 C 
BRANCH  21  23
ATOM     23  C   UNL     1       4.512   4.890   7.776  1.00  0.00     0.178 C 
BRANCH  23  24
ATOM     24  C   UNL     1       5.601   5.293   6.761  1.00  0.00     0.070 C 
BRANCH  24  25
ATOM     25  C   UNL     1       6.959   5.653   7.317  1.00  0.00    -0.045 A 
ATOM     26  C   UNL     1       7.166   5.753   8.698  1.00  0.00     0.004 A 
ATOM     27  C   UNL     1       8.035   5.899   6.450  1.00  0.00     0.004 A 
ATOM     28  C   UNL     1       8.420   6.104   9.203  1.00  0.00     0.000 A 
ATOM     29  C   UNL     1       9.288   6.248   6.956  1.00  0.00     0.000 A 
ATOM     30  C   UNL     1       9.479   6.353   8.332  1.00  0.00     0.000 A 
ENDBRANCH  24  25
ENDBRANCH  23  24
BRANCH  23  31
ATOM     31  C   UNL     1       3.097   5.431   7.462  1.00  0.00     0.243 C 
ATOM     32  O   UNL     1       2.125   5.281   8.198  1.00  0.00    -0.273 OA
ATOM     33  N   UNL     1       2.972   5.944   6.182  1.00  0.00    -0.341 N 
ATOM     34  H   UNL     1       3.817   6.039   5.613  1.00  0.00     0.164 HD
BRANCH  33  35
ATOM     35  C   UNL     1       1.697   6.404   5.626  1.00  0.00     0.194 C 
BRANCH  35  36
ATOM     36  C   UNL     1       1.335   5.765   4.255  1.00  0.00     0.017 C 
ATOM     37  C   UNL     1      -0.107   5.228   4.251  1.00  0.00     0.010 C 
ATOM     38  C   UNL     1       2.259   4.604   3.867  1.00  0.00     0.010 C 
ENDBRANCH  35  36
BRANCH  35  39
ATOM     39  C   UNL     1       1.582   7.953   5.593  1.00  0.00     0.329 C 
ATOM     40  O   UNL     1       2.344   8.710   6.182  1.00  0.00    -0.250 OA
BRANCH  39  41
ATOM     41  O   UNL     1       0.586   8.383   4.761  1.00  0.00    -0.458 OA
BRANCH  41  42
ATOM     42  C   UNL     1      -0.307   9.389   5.296  1.00  0.00     0.205 CG0
ATOM     43  C   UNL     1      -1.450   8.655   5.994  1.00  0.00     0.056 C 
ATOM     44  G   UNL     1      -0.799  10.278   4.136  1.00  0.00     0.000 G0
ENDBRANCH  41  42
ENDBRANCH  39  41
ENDBRANCH  35  39
ENDBRANCH  33  35
ENDBRANCH  23  31
ENDBRANCH  21  23
ENDBRANCH  19  21
ENDBRANCH  14  19
ENDBRANCH   7  14
ENDBRANCH   2   5
BRANCH   3  45
ATOM     45  C   UNL     1       6.201  -4.597  10.030  1.00  0.00     0.171 C 
BRANCH  45  46
ATOM     46  N   UNL     1       5.478  -5.850  10.200  1.00  0.00    -0.342 N 
ATOM     47  C   UNL     1       5.835  -7.001   9.544  1.00  0.00     0.247 C 
ATOM     48  O   UNL     1       6.831  -7.078   8.824  1.00  0.00    -0.273 OA
ATOM     49  H   UNL     1       4.679  -5.845  10.832  1.00  0.00     0.164 HD
BRANCH  47  50
ATOM     50  C   UNL     1       4.883  -8.188   9.749  1.00  0.00     0.212 CG0
ATOM     51  G   UNL     1       5.439  -9.037  10.910  1.00  0.00     0.000 G0
BRANCH  50  52
ATOM     52  N   UNL     1       3.580  -7.597  10.039  1.00  0.00    -0.339 N 
ATOM     53  C   UNL     1       2.826  -6.933   9.102  1.00  0.00     0.243 C 
ATOM     54  O   UNL     1       3.218  -6.737   7.955  1.00  0.00    -0.273 OA
ATOM     55  H   UNL     1       3.250  -7.629  11.001  1.00  0.00     0.164 HD
BRANCH  53  56
ATOM     56  C   UNL     1       1.527  -6.320   9.662  1.00  0.00     0.182 C 
BRANCH  56  57
ATOM     57  N   UNL     1       1.374  -4.926   9.232  1.00  0.00    -0.344 N 
ATOM     58  C   UNL     1       0.422  -4.537   8.322  1.00  0.00     0.220 C 
ATOM     59  O   UNL     1      -0.315  -5.333   7.751  1.00  0.00    -0.275 OA
ATOM     60  H   UNL     1       1.893  -4.224   9.754  1.00  0.00     0.164 HD
BRANCH  58  61
ATOM     61  C   UNL     1       0.407  -3.040   8.071  1.00  0.00     0.100 C 
BRANCH  61  62
ATOM     62  C   UNL     1       0.903  -2.211   9.256  1.00  0.00     0.010 C 
BRANCH  62  63
ATOM     63  C   UNL     1      -0.169  -1.313   9.886  1.00  0.00     0.000 C 
BRANCH  63  64
ATOM     64  C   UNL     1      -1.034  -2.011  10.934  1.00  0.00    -0.003 C 
ATOM     65  C   UNL     1      -1.037  -1.246  12.250  1.00  0.00     0.004 C 
ENDBRANCH  63  64
ENDBRANCH  62  63
ENDBRANCH  61  62
ENDBRANCH  58  61
ENDBRANCH  56  57
BRANCH  56  66
ATOM     66  C   UNL     1       1.447  -6.468  11.180  1.00  0.00     0.157 C 
BRANCH  66  67
ATOM     67  C   UNL     1       1.761  -5.171  11.870  1.00  0.00     0.305 C 
ATOM     68  O   UNL     1       0.992  -4.484  12.525  1.00  0.00    -0.252 OA
BRANCH  67  69
ATOM     69  O   UNL     1       3.056  -4.826  11.744  1.00  0.00    -0.481 OA
ATOM     70  H   UNL     1       3.422  -4.888  12.652  1.00  0.00     0.296 HD
ENDBRANCH  67  69
ENDBRANCH  66  67
ENDBRANCH  56  66
ENDBRANCH  53  56
ENDBRANCH  50  52
ENDBRANCH  47  50
ENDBRANCH  45  46
BRANCH  45  71
ATOM     71  C   UNL     1       6.421  -3.885  11.370  1.00  0.00     0.037 C 
BRANCH  71  72
ATOM     72  C   UNL     1       7.904  -3.795  11.738  1.00  0.00     0.026 C 
BRANCH  72  73
ATOM     73  C   UNL     1       8.528  -5.181  11.891  1.00  0.00     0.146 C 
BRANCH  73  74
ATOM     74  N   UNL     1       9.937  -5.079  11.523  1.00  0.00    -0.254 NA
ATOM     75  C   UNL     1      10.279  -5.467  10.351  1.00  0.00     0.185 C 
ATOM     76  N   UNL     1      11.568  -5.385   9.983  1.00  0.00    -0.370 N 
ATOM     77  N   UNL     1       9.511  -5.972   9.370  1.00  0.00    -0.370 N 
ATOM     78  H   UNL     1      12.217  -5.021  10.667  1.00  0.00     0.159 HD
ATOM     79  H   UNL     1      11.932  -5.799   9.143  1.00  0.00     0.159 HD
ATOM     80  H   UNL     1       8.518  -6.088   9.503  1.00  0.00     0.159 HD
ATOM     81  H   UNL     1       9.875  -6.135   8.445  1.00  0.00     0.159 HD
ENDBRANCH  73  74
ENDBRANCH  72  73
ENDBRANCH  71  72
ENDBRANCH  45  71
ENDBRANCH   3  45
TORSDOF 20
ENDMDL
MODEL 10
REMARK VINA RESULT:    -4.925      2.462      3.144
REMARK INTER + INTRA:         -19.230
REMARK INTER:                 -14.641
REMARK INTRA:                  -4.590
REMARK UNBOUND:                -5.091
REMARK SMILES CCCCCC(=O)N[C@H](CC(=O)O)C(=O)N[C@H]1C(=O)N[C@H](CCCN=C(N)N)C(=O)N[C@@H]2CC[C@H](O)N(C2=O)[C@@H](CC(C)C)C(=O)N(C)[C@@H](Cc2ccccc2)C(=O)N[C@H](C(C)C)C(=O)O[C@@H]1C
REMARK SMILES IDX 30 1 31 2 29 3 32 5 35 6 37 7 34 8 38 9 33 10 39 11 36 12
REMARK SMILES IDX 40 14 41 15 42 16 43 17 44 18 45 19 46 20 47 21 48 22 49 23
REMARK SMILES IDX 50 24 51 25 52 26 56 27 53 28 55 29 54 30 57 31 58 32 59 33
REMARK SMILES IDX 60 35 61 36 62 37 63 38 64 39 65 40 66 41 67 42 68 43 21 45
REMARK SMILES IDX 20 46 18 47 19 48 17 50 16 52 14 53 15 54 9 56 8 57 6 58
REMARK SMILES IDX 7 59 5 61 4 62 3 63 2 64 1 65 10 66 11 67 12 68 13 69 22 71
REMARK SMILES IDX 23 72 24 73 25 74 26 75 27 76 28 77
REMARK H PARENT 31 4 36 13 59 34 20 49 16 55 8 60 13 70 27 78 27 79 28 80
REMARK H PARENT 28 81
REMARK Flexibility Score:  259.900
ROOT
ATOM      1  O   UNL     1       1.195  -3.760   8.788  1.00  0.00    -0.273 OA
ATOM      2  N   UNL     1       3.416  -3.240   8.619  1.00  0.00    -0.343 N 
ATOM      3  C   UNL     1       2.326  -3.772   9.274  1.00  0.00     0.243 C 
ATOM      4  H   UNL     1       4.334  -3.281   9.044  1.00  0.00     0.164 HD
ENDROOT
BRANCH   2   5
ATOM      5  C   UNL     1       3.248  -2.525   7.359  1.00  0.00     0.171 C 
ATOM      6  C   UNL     1       5.137  -1.543   5.391  1.00  0.00     0.214 C 
ATOM      7  N   UNL     1       4.724  -0.679   6.472  1.00  0.00    -0.303 N 
ATOM      8  C   UNL     1       4.071  -2.547   4.983  1.00  0.00     0.057 C 
ATOM      9  C   UNL     1       3.865  -1.101   7.474  1.00  0.00     0.247 C 
ATOM     10  C   UNL     1       3.678  -3.391   6.176  1.00  0.00     0.040 C 
ATOM     11  O   UNL     1       3.584  -0.384   8.443  1.00  0.00    -0.272 OA
BRANCH   6  12
ATOM     12  O   UNL     1       6.311  -2.208   5.796  1.00  0.00    -0.373 OA
ATOM     13  H   UNL     1       6.103  -3.166   5.823  1.00  0.00     0.213 HD
ENDBRANCH   6  12
BRANCH   7  14
ATOM     14  C   UNL     1       5.374   0.647   6.557  1.00  0.00     0.177 C 
BRANCH  14  15
ATOM     15  C   UNL     1       6.857   0.678   6.141  1.00  0.00     0.038 C 
BRANCH  15  16
ATOM     16  C   UNL     1       7.951   0.751   7.230  1.00  0.00    -0.015 C 
ATOM     17  C   UNL     1       7.404   0.452   8.629  1.00  0.00     0.007 C 
ATOM     18  C   UNL     1       8.572   2.154   7.247  1.00  0.00     0.007 C 
ENDBRANCH  15  16
ENDBRANCH  14  15
BRANCH  14  19
ATOM     19  C   UNL     1       4.330   1.782   6.278  1.00  0.00     0.245 C 
ATOM     20  O   UNL     1       3.649   1.675   5.245  1.00  0.00    -0.272 OA
BRANCH  19  21
ATOM     21  N   UNL     1       4.211   2.927   7.047  1.00  0.00    -0.332 N 
ATOM     22  C   UNL     1       4.024   2.959   8.487  1.00  0.00     0.147 C 
BRANCH  21  23
ATOM     23  C   UNL     1       4.268   4.242   6.351  1.00  0.00     0.178 C 
BRANCH  23  24
ATOM     24  C   UNL     1       2.893   4.872   6.049  1.00  0.00     0.070 C 
BRANCH  24  25
ATOM     25  C   UNL     1       2.659   5.371   4.642  1.00  0.00    -0.045 A 
ATOM     26  C   UNL     1       3.443   6.402   4.106  1.00  0.00     0.004 A 
ATOM     27  C   UNL     1       1.646   4.809   3.851  1.00  0.00     0.004 A 
ATOM     28  C   UNL     1       3.209   6.869   2.811  1.00  0.00     0.000 A 
ATOM     29  C   UNL     1       1.414   5.277   2.556  1.00  0.00     0.000 A 
ATOM     30  C   UNL     1       2.195   6.309   2.039  1.00  0.00     0.000 A 
ENDBRANCH  24  25
ENDBRANCH  23  24
BRANCH  23  31
ATOM     31  C   UNL     1       5.306   5.208   6.970  1.00  0.00     0.243 C 
ATOM     32  O   UNL     1       6.505   4.958   7.067  1.00  0.00    -0.273 OA
ATOM     33  N   UNL     1       4.737   6.314   7.579  1.00  0.00    -0.341 N 
ATOM     34  H   UNL     1       3.732   6.466   7.468  1.00  0.00     0.164 HD
BRANCH  33  35
ATOM     35  C   UNL     1       5.517   7.300   8.332  1.00  0.00     0.194 C 
BRANCH  35  36
ATOM     36  C   UNL     1       5.002   7.549   9.777  1.00  0.00     0.017 C 
ATOM     37  C   UNL     1       6.162   7.582  10.787  1.00  0.00     0.010 C 
ATOM     38  C   UNL     1       4.007   6.484  10.255  1.00  0.00     0.010 C 
ENDBRANCH  35  36
BRANCH  35  39
ATOM     39  C   UNL     1       5.714   8.629   7.549  1.00  0.00     0.329 C 
ATOM     40  O   UNL     1       5.261   9.710   7.907  1.00  0.00    -0.250 OA
BRANCH  39  41
ATOM     41  O   UNL     1       6.526   8.475   6.459  1.00  0.00    -0.458 OA
BRANCH  41  42
ATOM     42  C   UNL     1       7.529   9.499   6.257  1.00  0.00     0.205 CG0
ATOM     43  C   UNL     1       8.783   9.061   7.010  1.00  0.00     0.056 C 
ATOM     44  G   UNL     1       6.972  10.842   6.770  1.00  0.00     0.000 G0
ENDBRANCH  41  42
ENDBRANCH  39  41
ENDBRANCH  35  39
ENDBRANCH  33  35
ENDBRANCH  23  31
ENDBRANCH  21  23
ENDBRANCH  19  21
ENDBRANCH  14  19
ENDBRANCH   7  14
ENDBRANCH   2   5
BRANCH   3  45
ATOM     45  C   UNL     1       2.625  -4.401  10.642  1.00  0.00     0.171 C 
BRANCH  45  46
ATOM     46  N   UNL     1       1.961  -5.698  10.632  1.00  0.00    -0.342 N 
ATOM     47  C   UNL     1       2.577  -6.844  11.068  1.00  0.00     0.247 C 
ATOM     48  O   UNL     1       3.704  -6.849  11.565  1.00  0.00    -0.273 OA
ATOM     49  H   UNL     1       1.005  -5.729  10.281  1.00  0.00     0.164 HD
BRANCH  47  50
ATOM     50  C   UNL     1       1.769  -8.133  10.867  1.00  0.00     0.212 CG0
ATOM     51  G   UNL     1       2.035  -9.046  12.081  1.00  0.00     0.000 G0
BRANCH  50  52
ATOM     52  N   UNL     1       0.376  -7.708  10.759  1.00  0.00    -0.339 N 
ATOM     53  C   UNL     1      -0.604  -8.098  11.638  1.00  0.00     0.243 C 
ATOM     54  O   UNL     1      -0.393  -8.883  12.559  1.00  0.00    -0.273 OA
ATOM     55  H   UNL     1       0.115  -7.145   9.952  1.00  0.00     0.164 HD
BRANCH  53  56
ATOM     56  C   UNL     1      -2.014  -7.592  11.272  1.00  0.00     0.182 C 
BRANCH  56  57
ATOM     57  N   UNL     1      -2.209  -6.208  11.716  1.00  0.00    -0.344 N 
ATOM     58  C   UNL     1      -2.400  -5.879  13.035  1.00  0.00     0.220 C 
ATOM     59  O   UNL     1      -2.494  -6.720  13.922  1.00  0.00    -0.275 OA
ATOM     60  H   UNL     1      -2.037  -5.477  11.031  1.00  0.00     0.164 HD
BRANCH  58  61
ATOM     61  C   UNL     1      -2.520  -4.384  13.271  1.00  0.00     0.100 C 
BRANCH  61  62
ATOM     62  C   UNL     1      -1.673  -3.540  12.318  1.00  0.00     0.010 C 
BRANCH  62  63
ATOM     63  C   UNL     1      -1.976  -2.037  12.373  1.00  0.00     0.000 C 
BRANCH  63  64
ATOM     64  C   UNL     1      -0.734  -1.151  12.452  1.00  0.00    -0.003 C 
ATOM     65  C   UNL     1      -0.184  -1.091  13.870  1.00  0.00     0.004 C 
ENDBRANCH  63  64
ENDBRANCH  62  63
ENDBRANCH  61  62
ENDBRANCH  58  61
ENDBRANCH  56  57
BRANCH  56  66
ATOM     66  C   UNL     1      -3.100  -8.526  11.803  1.00  0.00     0.157 C 
BRANCH  66  67
ATOM     67  C   UNL     1      -3.279  -9.718  10.907  1.00  0.00     0.305 C 
ATOM     68  O   UNL     1      -3.593 -10.849  11.245  1.00  0.00    -0.252 OA
BRANCH  67  69
ATOM     69  O   UNL     1      -3.103  -9.411   9.607  1.00  0.00    -0.481 OA
ATOM     70  H   UNL     1      -3.941  -9.674   9.172  1.00  0.00     0.296 HD
ENDBRANCH  67  69
ENDBRANCH  66  67
ENDBRANCH  56  66
ENDBRANCH  53  56
ENDBRANCH  50  52
ENDBRANCH  47  50
ENDBRANCH  45  46
BRANCH  45  71
ATOM     71  C   UNL     1       2.098  -3.504  11.768  1.00  0.00     0.037 C 
BRANCH  71  72
ATOM     72  C   UNL     1       3.018  -3.516  12.991  1.00  0.00     0.026 C 
BRANCH  72  73
ATOM     73  C   UNL     1       3.434  -2.102  13.392  1.00  0.00     0.146 C 
BRANCH  73  74
ATOM     74  N   UNL     1       3.972  -1.441  12.207  1.00  0.00    -0.254 NA
ATOM     75  C   UNL     1       4.027  -0.161  12.208  1.00  0.00     0.185 C 
ATOM     76  N   UNL     1       4.518   0.476  11.132  1.00  0.00    -0.370 N 
ATOM     77  N   UNL     1       3.650   0.700  13.169  1.00  0.00    -0.370 N 
ATOM     78  H   UNL     1       4.818  -0.099  10.358  1.00  0.00     0.159 HD
ATOM     79  H   UNL     1       4.458   1.471  11.003  1.00  0.00     0.159 HD
ATOM     80  H   UNL     1       3.265   0.363  14.039  1.00  0.00     0.159 HD
ATOM     81  H   UNL     1       3.848   1.685  13.104  1.00  0.00     0.159 HD
ENDBRANCH  73  74
ENDBRANCH  72  73
ENDBRANCH  71  72
ENDBRANCH  45  71
ENDBRANCH   3  45
TORSDOF 20
ENDMDL
