MODEL 1
REMARK VINA RESULT:    -5.538      0.000      0.000
REMARK INTER + INTRA:         -10.856
REMARK INTER:                  -9.423
REMARK INTRA:                  -1.433
REMARK UNBOUND:                -1.433
REMARK SMILES CC[C@H](C)[C@@H]1NC(=O)[C@H]2CSC(=N2)[C@@H]([C@@H](C)CC)NC(=O)c2csc(n2)CNC(=O)[C@H]2N=C1O[C@@H]2C
REMARK SMILES IDX 27 1 25 2 22 3 26 4 23 5 24 6 20 7 19 8 21 9 14 11 12 12
REMARK SMILES IDX 11 13 10 14 13 15 9 16 15 18 16 19 17 20 18 21 28 22 29 23
REMARK SMILES IDX 30 24 31 26 32 27 35 28 33 29 34 30 36 31 5 32 6 33 7 34
REMARK SMILES IDX 8 35 3 38 4 39 2 40 1 41
REMARK H PARENT 19 10 28 25 6 36
REMARK Flexibility Score:   91.900
ROOT
ATOM      1  C   UNL     1       3.432  13.322  -1.800  1.00  0.00     0.183 C 
ENDROOT
BRANCH   1   2
ATOM      2  C   UNL     1       4.123  13.070  -0.491  1.00  0.00     0.113 A 
ATOM      3  C   UNL     1       4.401  12.486   1.642  1.00  0.00     0.139 A 
ATOM      4  N   UNL     1       3.549  12.470   0.536  1.00  0.00    -0.234 NA
ATOM      5  C   UNL     1       5.638  13.054   1.403  1.00  0.00     0.101 A 
ATOM      6  S   UNL     1       5.733  13.601  -0.221  1.00  0.00    -0.125 S 
BRANCH   3   7
ATOM      7  C   UNL     1       3.940  11.965   2.930  1.00  0.00     0.271 C 
ATOM      8  N   UNL     1       3.401  10.708   2.803  1.00  0.00    -0.341 N 
ATOM      9  O   UNL     1       4.000  12.593   3.979  1.00  0.00    -0.267 OA
ATOM     10  H   UNL     1       3.442  10.303   1.868  1.00  0.00     0.164 HD
BRANCH   8  11
ATOM     11  C   UNL     1       2.695  10.011   3.865  1.00  0.00     0.140 C 
BRANCH  11  12
ATOM     12  C   UNL     1       1.510   9.273   3.236  1.00  0.00     0.091 C 
ATOM     13  S   UNL     1       1.730   8.303   1.798  1.00  0.00    -0.106 SA
ATOM     14  C   UNL     1       0.081   7.597   2.006  1.00  0.00     0.113 C 
ATOM     15  N   UNL     1       0.303   9.396   3.693  1.00  0.00    -0.267 NA
ATOM     16  C   UNL     1      -0.656   8.651   2.818  1.00  0.00     0.205 CG0
ATOM     17  G   UNL     1      -1.418   9.615   1.894  1.00  0.00     0.000 G0
ENDBRANCH  11  12
BRANCH  11  18
ATOM     18  C   UNL     1       3.615   9.174   4.790  1.00  0.00     0.015 C 
ATOM     19  C   UNL     1       4.799   8.606   3.996  1.00  0.00     0.010 C 
BRANCH  18  20
ATOM     20  C   UNL     1       4.090   9.906   6.062  1.00  0.00     0.002 C 
ATOM     21  C   UNL     1       3.038  10.851   6.632  1.00  0.00     0.004 C 
ENDBRANCH  18  20
ENDBRANCH  11  18
ENDBRANCH   8  11
ENDBRANCH   3   7
ENDBRANCH   1   2
BRANCH   1  22
ATOM     22  N   UNL     1       2.416  12.304  -1.956  1.00  0.00    -0.348 N 
ATOM     23  C   UNL     1       1.944  11.851  -3.158  1.00  0.00     0.249 C 
ATOM     24  O   UNL     1       2.403  12.207  -4.237  1.00  0.00    -0.272 OA
ATOM     25  H   UNL     1       1.950  11.953  -1.120  1.00  0.00     0.163 HD
BRANCH  23  26
ATOM     26  C   UNL     1       0.827  10.808  -3.003  1.00  0.00     0.238 C 
ATOM     27  N   UNL     1       0.584  10.559  -1.555  1.00  0.00    -0.236 NA
ATOM     28  C   UNL     1      -0.496  11.306  -3.558  1.00  0.00     0.206 C 
ATOM     29  C   UNL     1      -0.591  11.076  -1.357  1.00  0.00     0.208 C 
ATOM     30  O   UNL     1      -1.255  11.639  -2.397  1.00  0.00    -0.474 OA
ATOM     31  C   UNL     1      -1.245  10.232  -4.336  1.00  0.00     0.056 C 
BRANCH  29  32
ATOM     32  C   UNL     1      -1.323  11.175  -0.022  1.00  0.00     0.171 C 
BRANCH  32  33
ATOM     33  N   UNL     1      -0.723  10.291   0.965  1.00  0.00    -0.342 N 
ATOM     34  C   UNL     1      -1.469   9.595   1.887  1.00  0.00     0.246 CG0
ATOM     35  O   UNL     1      -2.691   9.684   1.965  1.00  0.00    -0.273 OA
ATOM     36  H   UNL     1       0.284  10.186   1.032  1.00  0.00     0.164 HD
ATOM     37  G   UNL     1      -0.649   8.671   2.802  1.00  0.00     0.000 G0
ENDBRANCH  32  33
BRANCH  32  38
ATOM     38  C   UNL     1      -1.382  12.649   0.457  1.00  0.00     0.017 C 
ATOM     39  C   UNL     1      -2.836  13.061   0.718  1.00  0.00     0.010 C 
BRANCH  38  40
ATOM     40  C   UNL     1      -0.484  12.920   1.687  1.00  0.00     0.002 C 
ATOM     41  C   UNL     1      -1.265  13.289   2.942  1.00  0.00     0.004 C 
ENDBRANCH  38  40
ENDBRANCH  32  38
ENDBRANCH  29  32
ENDBRANCH  23  26
ENDBRANCH   1  22
TORSDOF 4
ENDMDL
MODEL 2
REMARK VINA RESULT:    -5.480      2.572      5.514
REMARK INTER + INTRA:         -10.757
REMARK INTER:                  -9.131
REMARK INTRA:                  -1.626
REMARK UNBOUND:                -1.433
REMARK SMILES CC[C@H](C)[C@@H]1NC(=O)[C@H]2CSC(=N2)[C@@H]([C@@H](C)CC)NC(=O)c2csc(n2)CNC(=O)[C@H]2N=C1O[C@@H]2C
REMARK SMILES IDX 27 1 25 2 22 3 26 4 23 5 24 6 20 7 19 8 21 9 14 11 12 12
REMARK SMILES IDX 11 13 10 14 13 15 9 16 15 18 16 19 17 20 18 21 28 22 29 23
REMARK SMILES IDX 30 24 31 26 32 27 35 28 33 29 34 30 36 31 5 32 6 33 7 34
REMARK SMILES IDX 8 35 3 38 4 39 2 40 1 41
REMARK H PARENT 19 10 28 25 6 36
REMARK Flexibility Score:   91.900
ROOT
ATOM      1  C   UNL     1      -0.757  12.903   5.802  1.00  0.00     0.183 C 
ENDROOT
BRANCH   1   2
ATOM      2  C   UNL     1       0.619  12.302   5.784  1.00  0.00     0.113 A 
ATOM      3  C   UNL     1       2.427  11.253   5.009  1.00  0.00     0.139 A 
ATOM      4  N   UNL     1       1.208  11.855   4.690  1.00  0.00    -0.234 NA
ATOM      5  C   UNL     1       2.761  11.313   6.348  1.00  0.00     0.101 A 
ATOM      6  S   UNL     1       1.523  12.111   7.231  1.00  0.00    -0.125 S 
BRANCH   3   7
ATOM      7  C   UNL     1       3.214  10.594   3.966  1.00  0.00     0.271 C 
ATOM      8  N   UNL     1       3.316  11.374   2.840  1.00  0.00    -0.341 N 
ATOM      9  O   UNL     1       3.690   9.471   4.079  1.00  0.00    -0.267 OA
ATOM     10  H   UNL     1       2.887  12.296   2.903  1.00  0.00     0.164 HD
BRANCH   8  11
ATOM     11  C   UNL     1       3.874  10.918   1.577  1.00  0.00     0.140 C 
BRANCH  11  12
ATOM     12  C   UNL     1       2.947  11.393   0.455  1.00  0.00     0.091 C 
ATOM     13  S   UNL     1       2.391  13.050   0.405  1.00  0.00    -0.106 SA
ATOM     14  C   UNL     1       1.762  12.801  -1.269  1.00  0.00     0.113 C 
ATOM     15  N   UNL     1       2.485  10.582  -0.444  1.00  0.00    -0.267 NA
ATOM     16  C   UNL     1       1.526  11.301  -1.341  1.00  0.00     0.205 CG0
ATOM     17  G   UNL     1       0.072  10.961  -0.973  1.00  0.00     0.000 G0
ENDBRANCH  11  12
BRANCH  11  18
ATOM     18  C   UNL     1       5.382  11.231   1.405  1.00  0.00     0.015 C 
ATOM     19  C   UNL     1       5.771  12.463   2.234  1.00  0.00     0.010 C 
BRANCH  18  20
ATOM     20  C   UNL     1       6.324  10.043   1.685  1.00  0.00     0.002 C 
ATOM     21  C   UNL     1       7.786  10.359   1.389  1.00  0.00     0.004 C 
ENDBRANCH  18  20
ENDBRANCH  11  18
ENDBRANCH   8  11
ENDBRANCH   3   7
ENDBRANCH   1   2
BRANCH   1  22
ATOM     22  N   UNL     1      -1.192  13.029   4.429  1.00  0.00    -0.348 N 
ATOM     23  C   UNL     1      -2.374  13.595   4.035  1.00  0.00     0.249 C 
ATOM     24  O   UNL     1      -3.154  14.134   4.812  1.00  0.00    -0.272 OA
ATOM     25  H   UNL     1      -0.628  12.594   3.700  1.00  0.00     0.163 HD
BRANCH  23  26
ATOM     26  C   UNL     1      -2.585  13.535   2.515  1.00  0.00     0.238 C 
ATOM     27  N   UNL     1      -1.506  12.710   1.901  1.00  0.00    -0.236 NA
ATOM     28  C   UNL     1      -3.885  12.841   2.148  1.00  0.00     0.206 C 
ATOM     29  C   UNL     1      -2.136  11.646   1.502  1.00  0.00     0.208 C 
ATOM     30  O   UNL     1      -3.474  11.551   1.696  1.00  0.00    -0.474 OA
ATOM     31  C   UNL     1      -4.623  13.541   1.014  1.00  0.00     0.056 C 
BRANCH  29  32
ATOM     32  C   UNL     1      -1.509  10.412   0.859  1.00  0.00     0.171 C 
BRANCH  32  33
ATOM     33  N   UNL     1      -0.184  10.714   0.340  1.00  0.00    -0.342 N 
ATOM     34  C   UNL     1       0.055  10.946  -0.994  1.00  0.00     0.246 CG0
ATOM     35  O   UNL     1      -0.824  10.891  -1.851  1.00  0.00    -0.273 OA
ATOM     36  H   UNL     1       0.627  10.727   0.949  1.00  0.00     0.164 HD
ATOM     37  G   UNL     1       1.512  11.305  -1.327  1.00  0.00     0.000 G0
ENDBRANCH  32  33
BRANCH  32  38
ATOM     38  C   UNL     1      -1.500   9.224   1.857  1.00  0.00     0.017 C 
ATOM     39  C   UNL     1      -1.932   7.936   1.146  1.00  0.00     0.010 C 
BRANCH  38  40
ATOM     40  C   UNL     1      -0.143   9.051   2.576  1.00  0.00     0.002 C 
ATOM     41  C   UNL     1       0.607   7.790   2.165  1.00  0.00     0.004 C 
ENDBRANCH  38  40
ENDBRANCH  32  38
ENDBRANCH  29  32
ENDBRANCH  23  26
ENDBRANCH   1  22
TORSDOF 4
ENDMDL
MODEL 3
REMARK VINA RESULT:    -5.428      2.149      6.333
REMARK INTER + INTRA:         -10.669
REMARK INTER:                  -8.858
REMARK INTRA:                  -1.812
REMARK UNBOUND:                -1.433
REMARK SMILES CC[C@H](C)[C@@H]1NC(=O)[C@H]2CSC(=N2)[C@@H]([C@@H](C)CC)NC(=O)c2csc(n2)CNC(=O)[C@H]2N=C1O[C@@H]2C
REMARK SMILES IDX 27 1 25 2 22 3 26 4 23 5 24 6 20 7 19 8 21 9 14 11 12 12
REMARK SMILES IDX 11 13 10 14 13 15 9 16 15 18 16 19 17 20 18 21 28 22 29 23
REMARK SMILES IDX 30 24 31 26 32 27 35 28 33 29 34 30 36 31 5 32 6 33 7 34
REMARK SMILES IDX 8 35 3 38 4 39 2 40 1 41
REMARK H PARENT 19 10 28 25 6 36
REMARK Flexibility Score:   91.900
ROOT
ATOM      1  C   UNL     1       3.869  12.177  -3.071  1.00  0.00     0.183 C 
ENDROOT
BRANCH   1   2
ATOM      2  C   UNL     1       2.401  11.917  -3.251  1.00  0.00     0.113 A 
ATOM      3  C   UNL     1       0.296  11.401  -2.733  1.00  0.00     0.139 A 
ATOM      4  N   UNL     1       1.563  11.733  -2.248  1.00  0.00    -0.234 NA
ATOM      5  C   UNL     1       0.193  11.399  -4.110  1.00  0.00     0.101 A 
ATOM      6  S   UNL     1       1.707  11.794  -4.816  1.00  0.00    -0.125 S 
BRANCH   3   7
ATOM      7  C   UNL     1      -0.778  11.053  -1.800  1.00  0.00     0.271 C 
ATOM      8  N   UNL     1      -0.458  11.397  -0.510  1.00  0.00    -0.341 N 
ATOM      9  O   UNL     1      -1.814  10.492  -2.134  1.00  0.00    -0.267 OA
ATOM     10  H   UNL     1       0.432  11.880  -0.390  1.00  0.00     0.164 HD
BRANCH   8  11
ATOM     11  C   UNL     1      -1.238  11.013   0.656  1.00  0.00     0.140 C 
BRANCH  11  12
ATOM     12  C   UNL     1      -0.365  10.104   1.526  1.00  0.00     0.091 C 
ATOM     13  S   UNL     1      -0.936   9.550   3.082  1.00  0.00    -0.106 SA
ATOM     14  C   UNL     1       0.426   8.368   3.175  1.00  0.00     0.113 C 
ATOM     15  N   UNL     1       0.841   9.776   1.182  1.00  0.00    -0.267 NA
ATOM     16  C   UNL     1       1.486   8.975   2.270  1.00  0.00     0.205 CG0
ATOM     17  G   UNL     1       2.464   9.840   3.082  1.00  0.00     0.000 G0
ENDBRANCH  11  12
BRANCH  11  18
ATOM     18  C   UNL     1      -1.925  12.202   1.375  1.00  0.00     0.015 C 
ATOM     19  C   UNL     1      -0.876  13.206   1.871  1.00  0.00     0.010 C 
BRANCH  18  20
ATOM     20  C   UNL     1      -3.029  12.900   0.555  1.00  0.00     0.002 C 
ATOM     21  C   UNL     1      -4.414  12.755   1.177  1.00  0.00     0.004 C 
ENDBRANCH  18  20
ENDBRANCH  11  18
ENDBRANCH   8  11
ENDBRANCH   3   7
ENDBRANCH   1   2
BRANCH   1  22
ATOM     22  N   UNL     1       4.046  12.776  -1.768  1.00  0.00    -0.348 N 
ATOM     23  C   UNL     1       5.255  13.112  -1.221  1.00  0.00     0.249 C 
ATOM     24  O   UNL     1       6.317  13.014  -1.827  1.00  0.00    -0.272 OA
ATOM     25  H   UNL     1       3.228  12.883  -1.168  1.00  0.00     0.163 HD
BRANCH  23  26
ATOM     26  C   UNL     1       5.129  13.679   0.201  1.00  0.00     0.238 C 
ATOM     27  N   UNL     1       4.185  12.834   0.984  1.00  0.00    -0.236 NA
ATOM     28  C   UNL     1       6.447  13.622   0.954  1.00  0.00     0.206 C 
ATOM     29  C   UNL     1       4.958  12.250   1.851  1.00  0.00     0.208 C 
ATOM     30  O   UNL     1       6.285  12.527   1.854  1.00  0.00    -0.474 OA
ATOM     31  C   UNL     1       6.710  14.883   1.766  1.00  0.00     0.056 C 
BRANCH  29  32
ATOM     32  C   UNL     1       4.535  11.203   2.878  1.00  0.00     0.171 C 
BRANCH  32  33
ATOM     33  N   UNL     1       3.528  10.310   2.326  1.00  0.00    -0.342 N 
ATOM     34  C   UNL     1       2.471   9.838   3.066  1.00  0.00     0.246 CG0
ATOM     35  O   UNL     1       2.309  10.111   4.253  1.00  0.00    -0.273 OA
ATOM     36  H   UNL     1       3.594   9.972   1.372  1.00  0.00     0.164 HD
ATOM     37  G   UNL     1       1.487   8.956   2.280  1.00  0.00     0.000 G0
ENDBRANCH  32  33
BRANCH  32  38
ATOM     38  C   UNL     1       5.775  10.440   3.416  1.00  0.00     0.017 C 
ATOM     39  C   UNL     1       5.661  10.256   4.935  1.00  0.00     0.010 C 
BRANCH  38  40
ATOM     40  C   UNL     1       6.013   9.093   2.696  1.00  0.00     0.002 C 
ATOM     41  C   UNL     1       7.372   8.999   2.014  1.00  0.00     0.004 C 
ENDBRANCH  38  40
ENDBRANCH  32  38
ENDBRANCH  29  32
ENDBRANCH  23  26
ENDBRANCH   1  22
TORSDOF 4
ENDMDL
MODEL 4
REMARK VINA RESULT:    -5.209      2.730      6.904
REMARK INTER + INTRA:         -10.296
REMARK INTER:                  -8.565
REMARK INTRA:                  -1.730
REMARK UNBOUND:                -1.433
REMARK SMILES CC[C@H](C)[C@@H]1NC(=O)[C@H]2CSC(=N2)[C@@H]([C@@H](C)CC)NC(=O)c2csc(n2)CNC(=O)[C@H]2N=C1O[C@@H]2C
REMARK SMILES IDX 27 1 25 2 22 3 26 4 23 5 24 6 20 7 19 8 21 9 14 11 12 12
REMARK SMILES IDX 11 13 10 14 13 15 9 16 15 18 16 19 17 20 18 21 28 22 29 23
REMARK SMILES IDX 30 24 31 26 32 27 35 28 33 29 34 30 36 31 5 32 6 33 7 34
REMARK SMILES IDX 8 35 3 38 4 39 2 40 1 41
REMARK H PARENT 19 10 28 25 6 36
REMARK Flexibility Score:   91.900
ROOT
ATOM      1  C   UNL     1      -1.733  10.730  -2.073  1.00  0.00     0.183 C 
ENDROOT
BRANCH   1   2
ATOM      2  C   UNL     1      -0.441  11.037  -2.775  1.00  0.00     0.113 A 
ATOM      3  C   UNL     1       1.463  12.081  -3.275  1.00  0.00     0.139 A 
ATOM      4  N   UNL     1       0.420  11.946  -2.356  1.00  0.00    -0.234 NA
ATOM      5  C   UNL     1       1.393  11.218  -4.351  1.00  0.00     0.101 A 
ATOM      6  S   UNL     1      -0.010  10.236  -4.230  1.00  0.00    -0.125 S 
BRANCH   3   7
ATOM      7  C   UNL     1       2.490  13.105  -3.073  1.00  0.00     0.271 C 
ATOM      8  N   UNL     1       3.742  12.552  -2.966  1.00  0.00    -0.341 N 
ATOM      9  O   UNL     1       2.248  14.302  -2.978  1.00  0.00    -0.267 OA
ATOM     10  H   UNL     1       3.790  11.541  -3.090  1.00  0.00     0.164 HD
BRANCH   8  11
ATOM     11  C   UNL     1       4.932  13.292  -2.578  1.00  0.00     0.140 C 
BRANCH  11  12
ATOM     12  C   UNL     1       5.224  12.974  -1.108  1.00  0.00     0.091 C 
ATOM     13  S   UNL     1       6.829  12.497  -0.605  1.00  0.00    -0.106 SA
ATOM     14  C   UNL     1       6.359  12.698   1.127  1.00  0.00     0.113 C 
ATOM     15  N   UNL     1       4.292  12.975  -0.208  1.00  0.00    -0.267 NA
ATOM     16  C   UNL     1       4.848  12.525   1.108  1.00  0.00     0.205 CG0
ATOM     17  G   UNL     1       4.465  11.065   1.395  1.00  0.00     0.000 G0
ENDBRANCH  11  12
BRANCH  11  18
ATOM     18  C   UNL     1       6.118  13.140  -3.564  1.00  0.00     0.015 C 
ATOM     19  C   UNL     1       5.865  11.975  -4.530  1.00  0.00     0.010 C 
BRANCH  18  20
ATOM     20  C   UNL     1       6.495  14.429  -4.323  1.00  0.00     0.002 C 
ATOM     21  C   UNL     1       5.508  14.777  -5.431  1.00  0.00     0.004 C 
ENDBRANCH  18  20
ENDBRANCH  11  18
ENDBRANCH   8  11
ENDBRANCH   3   7
ENDBRANCH   1   2
BRANCH   1  22
ATOM     22  N   UNL     1      -1.411  10.386  -0.706  1.00  0.00    -0.348 N 
ATOM     23  C   UNL     1      -0.975   9.156  -0.293  1.00  0.00     0.249 C 
ATOM     24  O   UNL     1      -0.731   8.236  -1.066  1.00  0.00    -0.272 OA
ATOM     25  H   UNL     1      -1.599  11.072   0.024  1.00  0.00     0.163 HD
BRANCH  23  26
ATOM     26  C   UNL     1      -0.770   9.076   1.227  1.00  0.00     0.238 C 
ATOM     27  N   UNL     1       0.594   8.550   1.511  1.00  0.00    -0.236 NA
ATOM     28  C   UNL     1      -0.821  10.446   1.880  1.00  0.00     0.206 C 
ATOM     29  C   UNL     1       1.212   9.578   2.010  1.00  0.00     0.208 C 
ATOM     30  O   UNL     1       0.545  10.749   2.158  1.00  0.00    -0.474 OA
ATOM     31  C   UNL     1      -1.594  10.439   3.193  1.00  0.00     0.056 C 
BRANCH  29  32
ATOM     32  C   UNL     1       2.681   9.640   2.420  1.00  0.00     0.171 C 
BRANCH  32  33
ATOM     33  N   UNL     1       3.257  10.935   2.096  1.00  0.00    -0.342 N 
ATOM     34  C   UNL     1       4.444  11.070   1.416  1.00  0.00     0.246 CG0
ATOM     35  O   UNL     1       5.120  10.111   1.053  1.00  0.00    -0.273 OA
ATOM     36  H   UNL     1       2.814  11.796   2.399  1.00  0.00     0.164 HD
ATOM     37  G   UNL     1       4.848  12.523   1.122  1.00  0.00     0.000 G0
ENDBRANCH  32  33
BRANCH  32  38
ATOM     38  C   UNL     1       2.841   9.275   3.919  1.00  0.00     0.017 C 
ATOM     39  C   UNL     1       4.160   8.524   4.141  1.00  0.00     0.010 C 
BRANCH  38  40
ATOM     40  C   UNL     1       2.721  10.501   4.854  1.00  0.00     0.002 C 
ATOM     41  C   UNL     1       3.958  10.740   5.709  1.00  0.00     0.004 C 
ENDBRANCH  38  40
ENDBRANCH  32  38
ENDBRANCH  29  32
ENDBRANCH  23  26
ENDBRANCH   1  22
TORSDOF 4
ENDMDL
MODEL 5
REMARK VINA RESULT:    -5.102     11.943     14.398
REMARK INTER + INTRA:         -10.115
REMARK INTER:                  -8.862
REMARK INTRA:                  -1.252
REMARK UNBOUND:                -1.433
REMARK SMILES CC[C@H](C)[C@@H]1NC(=O)[C@H]2CSC(=N2)[C@@H]([C@@H](C)CC)NC(=O)c2csc(n2)CNC(=O)[C@H]2N=C1O[C@@H]2C
REMARK SMILES IDX 27 1 25 2 22 3 26 4 23 5 24 6 20 7 19 8 21 9 14 11 12 12
REMARK SMILES IDX 11 13 10 14 13 15 9 16 15 18 16 19 17 20 18 21 28 22 29 23
REMARK SMILES IDX 30 24 31 26 32 27 35 28 33 29 34 30 36 31 5 32 6 33 7 34
REMARK SMILES IDX 8 35 3 38 4 39 2 40 1 41
REMARK H PARENT 19 10 28 25 6 36
REMARK Flexibility Score:   91.900
ROOT
ATOM      1  C   UNL     1       3.766   1.313  10.078  1.00  0.00     0.183 C 
ENDROOT
BRANCH   1   2
ATOM      2  C   UNL     1       3.910   2.289  11.211  1.00  0.00     0.113 A 
ATOM      3  C   UNL     1       3.383   3.908  12.648  1.00  0.00     0.139 A 
ATOM      4  N   UNL     1       2.915   3.019  11.678  1.00  0.00    -0.234 NA
ATOM      5  C   UNL     1       4.728   3.785  12.934  1.00  0.00     0.101 A 
ATOM      6  S   UNL     1       5.430   2.558  11.961  1.00  0.00    -0.125 S 
BRANCH   3   7
ATOM      7  C   UNL     1       2.474   4.892  13.240  1.00  0.00     0.271 C 
ATOM      8  N   UNL     1       2.112   4.542  14.518  1.00  0.00    -0.341 N 
ATOM      9  O   UNL     1       2.066   5.884  12.649  1.00  0.00    -0.267 OA
ATOM     10  H   UNL     1       2.553   3.700  14.885  1.00  0.00     0.164 HD
BRANCH   8  11
ATOM     11  C   UNL     1       1.082   5.218  15.289  1.00  0.00     0.140 C 
BRANCH  11  12
ATOM     12  C   UNL     1      -0.178   4.349  15.253  1.00  0.00     0.091 C 
ATOM     13  S   UNL     1      -0.568   3.294  16.590  1.00  0.00    -0.106 SA
ATOM     14  C   UNL     1      -2.216   3.016  15.908  1.00  0.00     0.113 C 
ATOM     15  N   UNL     1      -0.953   4.307  14.215  1.00  0.00    -0.267 NA
ATOM     16  C   UNL     1      -2.038   3.297  14.424  1.00  0.00     0.205 CG0
ATOM     17  G   UNL     1      -1.735   1.999  13.658  1.00  0.00     0.000 G0
ENDBRANCH  11  12
BRANCH  11  18
ATOM     18  C   UNL     1       1.552   5.692  16.688  1.00  0.00     0.015 C 
ATOM     19  C   UNL     1       2.795   4.908  17.130  1.00  0.00     0.010 C 
BRANCH  18  20
ATOM     20  C   UNL     1       1.772   7.213  16.813  1.00  0.00     0.002 C 
ATOM     21  C   UNL     1       0.505   8.021  16.555  1.00  0.00     0.004 C 
ENDBRANCH  18  20
ENDBRANCH  11  18
ENDBRANCH   8  11
ENDBRANCH   3   7
ENDBRANCH   1   2
BRANCH   1  22
ATOM     22  N   UNL     1       2.395   1.380   9.622  1.00  0.00    -0.348 N 
ATOM     23  C   UNL     1       1.960   2.137   8.568  1.00  0.00     0.249 C 
ATOM     24  O   UNL     1       2.714   2.777   7.844  1.00  0.00    -0.272 OA
ATOM     25  H   UNL     1       1.679   0.901  10.167  1.00  0.00     0.163 HD
BRANCH  23  26
ATOM     26  C   UNL     1       0.441   2.047   8.358  1.00  0.00     0.238 C 
ATOM     27  N   UNL     1      -0.116   0.989   9.246  1.00  0.00    -0.236 NA
ATOM     28  C   UNL     1      -0.266   3.330   8.760  1.00  0.00     0.206 C 
ATOM     29  C   UNL     1      -0.806   1.664  10.117  1.00  0.00     0.208 C 
ATOM     30  O   UNL     1      -0.868   3.015  10.015  1.00  0.00    -0.474 OA
ATOM     31  C   UNL     1      -1.363   3.725   7.780  1.00  0.00     0.056 C 
BRANCH  29  32
ATOM     32  C   UNL     1      -1.545   1.094  11.324  1.00  0.00     0.171 C 
BRANCH  32  33
ATOM     33  N   UNL     1      -1.890   2.146  12.266  1.00  0.00    -0.342 N 
ATOM     34  C   UNL     1      -1.712   2.013  13.623  1.00  0.00     0.246 CG0
ATOM     35  O   UNL     1      -1.274   0.991  14.144  1.00  0.00    -0.273 OA
ATOM     36  H   UNL     1      -2.314   3.013  11.953  1.00  0.00     0.164 HD
ATOM     37  G   UNL     1      -2.083   3.262  14.439  1.00  0.00     0.000 G0
ENDBRANCH  32  33
BRANCH  32  38
ATOM     38  C   UNL     1      -2.782   0.277  10.866  1.00  0.00     0.017 C 
ATOM     39  C   UNL     1      -3.030   0.491   9.367  1.00  0.00     0.010 C 
BRANCH  38  40
ATOM     40  C   UNL     1      -2.676  -1.225  11.216  1.00  0.00     0.002 C 
ATOM     41  C   UNL     1      -1.323  -1.622  11.792  1.00  0.00     0.004 C 
ENDBRANCH  38  40
ENDBRANCH  32  38
ENDBRANCH  29  32
ENDBRANCH  23  26
ENDBRANCH   1  22
TORSDOF 4
ENDMDL
MODEL 6
REMARK VINA RESULT:    -4.993     10.385     13.075
REMARK INTER + INTRA:          -9.929
REMARK INTER:                  -8.390
REMARK INTRA:                  -1.539
REMARK UNBOUND:                -1.433
REMARK SMILES CC[C@H](C)[C@@H]1NC(=O)[C@H]2CSC(=N2)[C@@H]([C@@H](C)CC)NC(=O)c2csc(n2)CNC(=O)[C@H]2N=C1O[C@@H]2C
REMARK SMILES IDX 27 1 25 2 22 3 26 4 23 5 24 6 20 7 19 8 21 9 14 11 12 12
REMARK SMILES IDX 11 13 10 14 13 15 9 16 15 18 16 19 17 20 18 21 28 22 29 23
REMARK SMILES IDX 30 24 31 26 32 27 35 28 33 29 34 30 36 31 5 32 6 33 7 34
REMARK SMILES IDX 8 35 3 38 4 39 2 40 1 41
REMARK H PARENT 19 10 28 25 6 36
REMARK Flexibility Score:   91.900
ROOT
ATOM      1  C   UNL     1       4.204   1.918   9.453  1.00  0.00     0.183 C 
ENDROOT
BRANCH   1   2
ATOM      2  C   UNL     1       4.332   3.314   8.915  1.00  0.00     0.113 A 
ATOM      3  C   UNL     1       4.161   5.533   8.812  1.00  0.00     0.139 A 
ATOM      4  N   UNL     1       4.056   4.397   9.617  1.00  0.00    -0.234 NA
ATOM      5  C   UNL     1       4.577   5.282   7.519  1.00  0.00     0.101 A 
ATOM      6  S   UNL     1       4.817   3.598   7.293  1.00  0.00    -0.125 S 
BRANCH   3   7
ATOM      7  C   UNL     1       3.803   6.848   9.350  1.00  0.00     0.271 C 
ATOM      8  N   UNL     1       3.656   6.814  10.715  1.00  0.00    -0.341 N 
ATOM      9  O   UNL     1       3.624   7.841   8.656  1.00  0.00    -0.267 OA
ATOM     10  H   UNL     1       3.861   5.919  11.157  1.00  0.00     0.164 HD
BRANCH   8  11
ATOM     11  C   UNL     1       3.126   7.911  11.507  1.00  0.00     0.140 C 
BRANCH  11  12
ATOM     12  C   UNL     1       1.881   7.402  12.240  1.00  0.00     0.091 C 
ATOM     13  S   UNL     1       1.712   7.631  13.965  1.00  0.00    -0.106 SA
ATOM     14  C   UNL     1      -0.021   7.130  13.874  1.00  0.00     0.113 C 
ATOM     15  N   UNL     1       0.955   6.727  11.635  1.00  0.00    -0.267 NA
ATOM     16  C   UNL     1      -0.077   6.273  12.619  1.00  0.00     0.205 CG0
ATOM     17  G   UNL     1       0.113   4.787  12.966  1.00  0.00     0.000 G0
ENDBRANCH  11  12
BRANCH  11  18
ATOM     18  C   UNL     1       4.189   8.633  12.374  1.00  0.00     0.015 C 
ATOM     19  C   UNL     1       5.543   7.921  12.264  1.00  0.00     0.010 C 
BRANCH  18  20
ATOM     20  C   UNL     1       4.324  10.145  12.101  1.00  0.00     0.002 C 
ATOM     21  C   UNL     1       3.032  10.913  12.354  1.00  0.00     0.004 C 
ENDBRANCH  18  20
ENDBRANCH  11  18
ENDBRANCH   8  11
ENDBRANCH   3   7
ENDBRANCH   1   2
BRANCH   1  22
ATOM     22  N   UNL     1       2.793   1.649   9.627  1.00  0.00    -0.348 N 
ATOM     23  C   UNL     1       2.282   0.610  10.355  1.00  0.00     0.249 C 
ATOM     24  O   UNL     1       2.977  -0.158  11.011  1.00  0.00    -0.272 OA
ATOM     25  H   UNL     1       2.125   2.216   9.107  1.00  0.00     0.163 HD
BRANCH  23  26
ATOM     26  C   UNL     1       0.747   0.550  10.310  1.00  0.00     0.238 C 
ATOM     27  N   UNL     1       0.210   0.686  11.692  1.00  0.00    -0.236 NA
ATOM     28  C   UNL     1       0.156   1.710   9.528  1.00  0.00     0.206 C 
ATOM     29  C   UNL     1      -0.359   1.854  11.677  1.00  0.00     0.208 C 
ATOM     30  O   UNL     1      -0.350   2.585  10.535  1.00  0.00    -0.474 OA
ATOM     31  C   UNL     1      -0.998   1.282   8.631  1.00  0.00     0.056 C 
BRANCH  29  32
ATOM     32  C   UNL     1      -1.021   2.553  12.861  1.00  0.00     0.171 C 
BRANCH  32  33
ATOM     33  N   UNL     1      -1.004   3.997  12.688  1.00  0.00    -0.342 N 
ATOM     34  C   UNL     1       0.113   4.759  12.936  1.00  0.00     0.246 CG0
ATOM     35  O   UNL     1       1.170   4.286  13.345  1.00  0.00    -0.273 OA
ATOM     36  H   UNL     1      -1.838   4.502  12.410  1.00  0.00     0.164 HD
ATOM     37  G   UNL     1      -0.059   6.257  12.635  1.00  0.00     0.000 G0
ENDBRANCH  32  33
BRANCH  32  38
ATOM     38  C   UNL     1      -2.453   1.999  13.088  1.00  0.00     0.017 C 
ATOM     39  C   UNL     1      -3.357   3.095  13.665  1.00  0.00     0.010 C 
BRANCH  38  40
ATOM     40  C   UNL     1      -3.063   1.369  11.814  1.00  0.00     0.002 C 
ATOM     41  C   UNL     1      -3.448  -0.095  11.983  1.00  0.00     0.004 C 
ENDBRANCH  38  40
ENDBRANCH  32  38
ENDBRANCH  29  32
ENDBRANCH  23  26
ENDBRANCH   1  22
TORSDOF 4
ENDMDL
MODEL 7
REMARK VINA RESULT:    -4.764      3.176      6.480
REMARK INTER + INTRA:          -9.540
REMARK INTER:                  -8.221
REMARK INTRA:                  -1.319
REMARK UNBOUND:                -1.433
REMARK SMILES CC[C@H](C)[C@@H]1NC(=O)[C@H]2CSC(=N2)[C@@H]([C@@H](C)CC)NC(=O)c2csc(n2)CNC(=O)[C@H]2N=C1O[C@@H]2C
REMARK SMILES IDX 27 1 25 2 22 3 26 4 23 5 24 6 20 7 19 8 21 9 14 11 12 12
REMARK SMILES IDX 11 13 10 14 13 15 9 16 15 18 16 19 17 20 18 21 28 22 29 23
REMARK SMILES IDX 30 24 31 26 32 27 35 28 33 29 34 30 36 31 5 32 6 33 7 34
REMARK SMILES IDX 8 35 3 38 4 39 2 40 1 41
REMARK H PARENT 19 10 28 25 6 36
REMARK Flexibility Score:   91.900
ROOT
ATOM      1  C   UNL     1       1.992  10.441  -4.973  1.00  0.00     0.183 C 
ENDROOT
BRANCH   1   2
ATOM      2  C   UNL     1       1.095  10.102  -3.816  1.00  0.00     0.113 A 
ATOM      3  C   UNL     1       0.479   9.437  -1.780  1.00  0.00     0.139 A 
ATOM      4  N   UNL     1       1.539   9.821  -2.605  1.00  0.00    -0.234 NA
ATOM      5  C   UNL     1      -0.763   9.495  -2.381  1.00  0.00     0.101 A 
ATOM      6  S   UNL     1      -0.608  10.012  -4.010  1.00  0.00    -0.125 S 
BRANCH   3   7
ATOM      7  C   UNL     1       0.742   8.982  -0.413  1.00  0.00     0.271 C 
ATOM      8  N   UNL     1       0.608  10.003   0.495  1.00  0.00    -0.341 N 
ATOM      9  O   UNL     1       1.074   7.838  -0.129  1.00  0.00    -0.267 OA
ATOM     10  H   UNL     1       0.302  10.897   0.111  1.00  0.00     0.164 HD
BRANCH   8  11
ATOM     11  C   UNL     1       0.984   9.906   1.896  1.00  0.00     0.140 C 
BRANCH  11  12
ATOM     12  C   UNL     1       2.480  10.215   2.003  1.00  0.00     0.091 C 
ATOM     13  S   UNL     1       3.157  10.814   3.499  1.00  0.00    -0.106 SA
ATOM     14  C   UNL     1       4.826  10.537   2.870  1.00  0.00     0.113 C 
ATOM     15  N   UNL     1       3.276  10.117   0.986  1.00  0.00    -0.267 NA
ATOM     16  C   UNL     1       4.648  10.583   1.360  1.00  0.00     0.205 CG0
ATOM     17  G   UNL     1       4.911  12.000   0.825  1.00  0.00     0.000 G0
ENDBRANCH  11  12
BRANCH  11  18
ATOM     18  C   UNL     1       0.048  10.685   2.855  1.00  0.00     0.015 C 
ATOM     19  C   UNL     1      -0.320  12.048   2.253  1.00  0.00     0.010 C 
BRANCH  18  20
ATOM     20  C   UNL     1      -1.207   9.909   3.303  1.00  0.00     0.002 C 
ATOM     21  C   UNL     1      -1.513  10.077   4.787  1.00  0.00     0.004 C 
ENDBRANCH  18  20
ENDBRANCH  11  18
ENDBRANCH   8  11
ENDBRANCH   3   7
ENDBRANCH   1   2
BRANCH   1  22
ATOM     22  N   UNL     1       2.709  11.647  -4.625  1.00  0.00    -0.348 N 
ATOM     23  C   UNL     1       4.071  11.778  -4.650  1.00  0.00     0.249 C 
ATOM     24  O   UNL     1       4.824  10.900  -5.056  1.00  0.00    -0.272 OA
ATOM     25  H   UNL     1       2.181  12.435  -4.253  1.00  0.00     0.163 HD
BRANCH  23  26
ATOM     26  C   UNL     1       4.545  13.160  -4.175  1.00  0.00     0.238 C 
ATOM     27  N   UNL     1       4.467  13.221  -2.689  1.00  0.00    -0.236 NA
ATOM     28  C   UNL     1       6.004  13.409  -4.516  1.00  0.00     0.206 C 
ATOM     29  C   UNL     1       5.715  13.250  -2.326  1.00  0.00     0.208 C 
ATOM     30  O   UNL     1       6.684  13.240  -3.274  1.00  0.00    -0.474 OA
ATOM     31  C   UNL     1       6.253  14.825  -5.018  1.00  0.00     0.056 C 
BRANCH  29  32
ATOM     32  C   UNL     1       6.241  13.244  -0.894  1.00  0.00     0.171 C 
BRANCH  32  33
ATOM     33  N   UNL     1       5.860  12.019  -0.207  1.00  0.00    -0.342 N 
ATOM     34  C   UNL     1       4.932  11.996   0.807  1.00  0.00     0.246 CG0
ATOM     35  O   UNL     1       4.373  13.007   1.227  1.00  0.00    -0.273 OA
ATOM     36  H   UNL     1       6.301  11.134  -0.431  1.00  0.00     0.164 HD
ATOM     37  G   UNL     1       4.628  10.595   1.361  1.00  0.00     0.000 G0
ENDBRANCH  32  33
BRANCH  32  38
ATOM     38  C   UNL     1       7.773  13.483  -0.877  1.00  0.00     0.017 C 
ATOM     39  C   UNL     1       8.091  14.819  -0.194  1.00  0.00     0.010 C 
BRANCH  38  40
ATOM     40  C   UNL     1       8.559  12.315  -0.236  1.00  0.00     0.002 C 
ATOM     41  C   UNL     1       9.651  11.750  -1.134  1.00  0.00     0.004 C 
ENDBRANCH  38  40
ENDBRANCH  32  38
ENDBRANCH  29  32
ENDBRANCH  23  26
ENDBRANCH   1  22
TORSDOF 4
ENDMDL
MODEL 8
REMARK VINA RESULT:    -4.733      2.708      5.508
REMARK INTER + INTRA:          -9.487
REMARK INTER:                  -8.469
REMARK INTRA:                  -1.018
REMARK UNBOUND:                -1.433
REMARK SMILES CC[C@H](C)[C@@H]1NC(=O)[C@H]2CSC(=N2)[C@@H]([C@@H](C)CC)NC(=O)c2csc(n2)CNC(=O)[C@H]2N=C1O[C@@H]2C
REMARK SMILES IDX 27 1 25 2 22 3 26 4 23 5 24 6 20 7 19 8 21 9 14 11 12 12
REMARK SMILES IDX 11 13 10 14 13 15 9 16 15 18 16 19 17 20 18 21 28 22 29 23
REMARK SMILES IDX 30 24 31 26 32 27 35 28 33 29 34 30 36 31 5 32 6 33 7 34
REMARK SMILES IDX 8 35 3 38 4 39 2 40 1 41
REMARK H PARENT 19 10 28 25 6 36
REMARK Flexibility Score:   91.900
ROOT
ATOM      1  C   UNL     1      -2.269  10.909   2.297  1.00  0.00     0.183 C 
ENDROOT
BRANCH   1   2
ATOM      2  C   UNL     1      -1.219  11.077   3.357  1.00  0.00     0.113 A 
ATOM      3  C   UNL     1       0.802  11.204   4.289  1.00  0.00     0.139 A 
ATOM      4  N   UNL     1       0.073  11.172   3.098  1.00  0.00    -0.234 NA
ATOM      5  C   UNL     1       0.029  11.190   5.433  1.00  0.00     0.101 A 
ATOM      6  S   UNL     1      -1.635  11.111   5.022  1.00  0.00    -0.125 S 
BRANCH   3   7
ATOM      7  C   UNL     1       2.266  11.207   4.251  1.00  0.00     0.271 C 
ATOM      8  N   UNL     1       2.749  10.370   3.276  1.00  0.00    -0.341 N 
ATOM      9  O   UNL     1       2.965  11.854   5.022  1.00  0.00    -0.267 OA
ATOM     10  H   UNL     1       2.045   9.916   2.696  1.00  0.00     0.164 HD
BRANCH   8  11
ATOM     11  C   UNL     1       4.152  10.022   3.120  1.00  0.00     0.140 C 
BRANCH  11  12
ATOM     12  C   UNL     1       4.789  11.048   2.179  1.00  0.00     0.091 C 
ATOM     13  S   UNL     1       5.100  12.680   2.725  1.00  0.00    -0.106 SA
ATOM     14  C   UNL     1       6.099  12.995   1.255  1.00  0.00     0.113 C 
ATOM     15  N   UNL     1       5.050  10.775   0.939  1.00  0.00    -0.267 NA
ATOM     16  C   UNL     1       5.565  11.995   0.241  1.00  0.00     0.205 CG0
ATOM     17  G   UNL     1       4.469  12.633  -0.627  1.00  0.00     0.000 G0
ENDBRANCH  11  12
BRANCH  11  18
ATOM     18  C   UNL     1       4.890   9.762   4.458  1.00  0.00     0.015 C 
ATOM     19  C   UNL     1       4.315   8.521   5.154  1.00  0.00     0.010 C 
BRANCH  18  20
ATOM     20  C   UNL     1       6.426   9.683   4.343  1.00  0.00     0.002 C 
ATOM     21  C   UNL     1       6.983   8.321   4.741  1.00  0.00     0.004 C 
ENDBRANCH  18  20
ENDBRANCH  11  18
ENDBRANCH   8  11
ENDBRANCH   3   7
ENDBRANCH   1   2
BRANCH   1  22
ATOM     22  N   UNL     1      -1.592  10.562   1.068  1.00  0.00    -0.348 N 
ATOM     23  C   UNL     1      -1.626  11.308  -0.079  1.00  0.00     0.249 C 
ATOM     24  O   UNL     1      -2.172  12.403  -0.153  1.00  0.00    -0.272 OA
ATOM     25  H   UNL     1      -1.123   9.658   1.012  1.00  0.00     0.163 HD
BRANCH  23  26
ATOM     26  C   UNL     1      -0.856  10.655  -1.237  1.00  0.00     0.238 C 
ATOM     27  N   UNL     1      -0.040  11.690  -1.930  1.00  0.00    -0.236 NA
ATOM     28  C   UNL     1       0.137   9.615  -0.746  1.00  0.00     0.206 C 
ATOM     29  C   UNL     1       1.180  11.359  -1.627  1.00  0.00     0.208 C 
ATOM     30  O   UNL     1       1.402  10.265  -0.857  1.00  0.00    -0.474 OA
ATOM     31  C   UNL     1       0.153   8.366  -1.615  1.00  0.00     0.056 C 
BRANCH  29  32
ATOM     32  C   UNL     1       2.446  12.121  -2.010  1.00  0.00     0.171 C 
BRANCH  32  33
ATOM     33  N   UNL     1       3.567  11.720  -1.175  1.00  0.00    -0.342 N 
ATOM     34  C   UNL     1       4.472  12.620  -0.668  1.00  0.00     0.246 CG0
ATOM     35  O   UNL     1       4.421  13.825  -0.901  1.00  0.00    -0.273 OA
ATOM     36  H   UNL     1       3.741  10.742  -0.965  1.00  0.00     0.164 HD
ATOM     37  G   UNL     1       5.547  12.000   0.240  1.00  0.00     0.000 G0
ENDBRANCH  32  33
BRANCH  32  38
ATOM     38  C   UNL     1       2.742  11.953  -3.524  1.00  0.00     0.017 C 
ATOM     39  C   UNL     1       2.549  10.489  -3.940  1.00  0.00     0.010 C 
BRANCH  38  40
ATOM     40  C   UNL     1       1.913  12.911  -4.410  1.00  0.00     0.002 C 
ATOM     41  C   UNL     1       0.919  12.196  -5.315  1.00  0.00     0.004 C 
ENDBRANCH  38  40
ENDBRANCH  32  38
ENDBRANCH  29  32
ENDBRANCH  23  26
ENDBRANCH   1  22
TORSDOF 4
ENDMDL
MODEL 9
REMARK VINA RESULT:    -4.698      2.921      5.559
REMARK INTER + INTRA:          -9.428
REMARK INTER:                  -8.512
REMARK INTRA:                  -0.915
REMARK UNBOUND:                -1.433
REMARK SMILES CC[C@H](C)[C@@H]1NC(=O)[C@H]2CSC(=N2)[C@@H]([C@@H](C)CC)NC(=O)c2csc(n2)CNC(=O)[C@H]2N=C1O[C@@H]2C
REMARK SMILES IDX 27 1 25 2 22 3 26 4 23 5 24 6 20 7 19 8 21 9 14 11 12 12
REMARK SMILES IDX 11 13 10 14 13 15 9 16 15 18 16 19 17 20 18 21 28 22 29 23
REMARK SMILES IDX 30 24 31 26 32 27 35 28 33 29 34 30 36 31 5 32 6 33 7 34
REMARK SMILES IDX 8 35 3 38 4 39 2 40 1 41
REMARK H PARENT 19 10 28 25 6 36
REMARK Flexibility Score:   91.900
ROOT
ATOM      1  C   UNL     1      -2.258  12.873   4.494  1.00  0.00     0.183 C 
ENDROOT
BRANCH   1   2
ATOM      2  C   UNL     1      -1.099  12.781   5.445  1.00  0.00     0.113 A 
ATOM      3  C   UNL     1       0.944  12.315   6.203  1.00  0.00     0.139 A 
ATOM      4  N   UNL     1       0.117  12.416   5.083  1.00  0.00    -0.234 NA
ATOM      5  C   UNL     1       0.339  12.668   7.394  1.00  0.00     0.101 A 
ATOM      6  S   UNL     1      -1.296  13.110   7.118  1.00  0.00    -0.125 S 
BRANCH   3   7
ATOM      7  C   UNL     1       2.317  11.828   6.059  1.00  0.00     0.271 C 
ATOM      8  N   UNL     1       2.384  10.746   5.216  1.00  0.00    -0.341 N 
ATOM      9  O   UNL     1       3.276  12.310   6.649  1.00  0.00    -0.267 OA
ATOM     10  H   UNL     1       1.505  10.472   4.780  1.00  0.00     0.164 HD
BRANCH   8  11
ATOM     11  C   UNL     1       3.574   9.933   5.022  1.00  0.00     0.140 C 
BRANCH  11  12
ATOM     12  C   UNL     1       4.280  10.428   3.757  1.00  0.00     0.091 C 
ATOM     13  S   UNL     1       4.857  12.075   3.648  1.00  0.00    -0.106 SA
ATOM     14  C   UNL     1       5.781  11.666   2.152  1.00  0.00     0.113 C 
ATOM     15  N   UNL     1       4.409   9.681   2.706  1.00  0.00    -0.267 NA
ATOM     16  C   UNL     1       5.039  10.461   1.594  1.00  0.00     0.205 CG0
ATOM     17  G   UNL     1       3.984  10.901   0.566  1.00  0.00     0.000 G0
ENDBRANCH  11  12
BRANCH  11  18
ATOM     18  C   UNL     1       4.454   9.791   6.291  1.00  0.00     0.015 C 
ATOM     19  C   UNL     1       3.918   8.669   7.190  1.00  0.00     0.010 C 
BRANCH  18  20
ATOM     20  C   UNL     1       5.961   9.621   6.015  1.00  0.00     0.002 C 
ATOM     21  C   UNL     1       6.358   8.173   5.749  1.00  0.00     0.004 C 
ENDBRANCH  18  20
ENDBRANCH  11  18
ENDBRANCH   8  11
ENDBRANCH   3   7
ENDBRANCH   1   2
BRANCH   1  22
ATOM     22  N   UNL     1      -2.042  11.893   3.452  1.00  0.00    -0.348 N 
ATOM     23  C   UNL     1      -1.548  12.175   2.208  1.00  0.00     0.249 C 
ATOM     24  O   UNL     1      -1.156  13.288   1.876  1.00  0.00    -0.272 OA
ATOM     25  H   UNL     1      -2.354  10.936   3.615  1.00  0.00     0.163 HD
BRANCH  23  26
ATOM     26  C   UNL     1      -1.483  10.938   1.299  1.00  0.00     0.238 C 
ATOM     27  N   UNL     1      -0.557  11.209   0.165  1.00  0.00    -0.236 NA
ATOM     28  C   UNL     1      -0.902   9.733   2.019  1.00  0.00     0.206 C 
ATOM     29  C   UNL     1       0.454  10.431   0.413  1.00  0.00     0.208 C 
ATOM     30  O   UNL     1       0.426   9.630   1.507  1.00  0.00    -0.474 OA
ATOM     31  C   UNL     1      -1.648   8.445   1.699  1.00  0.00     0.056 C 
BRANCH  29  32
ATOM     32  C   UNL     1       1.748  10.345  -0.391  1.00  0.00     0.171 C 
BRANCH  32  33
ATOM     33  N   UNL     1       2.881  10.062   0.477  1.00  0.00    -0.342 N 
ATOM     34  C   UNL     1       3.971  10.895   0.567  1.00  0.00     0.246 CG0
ATOM     35  O   UNL     1       4.085  11.924  -0.095  1.00  0.00    -0.273 OA
ATOM     36  H   UNL     1       2.921   9.210   1.025  1.00  0.00     0.164 HD
ATOM     37  G   UNL     1       5.032  10.446   1.585  1.00  0.00     0.000 G0
ENDBRANCH  32  33
BRANCH  32  38
ATOM     38  C   UNL     1       1.606   9.311  -1.539  1.00  0.00     0.017 C 
ATOM     39  C   UNL     1       0.847   8.074  -1.044  1.00  0.00     0.010 C 
BRANCH  38  40
ATOM     40  C   UNL     1       0.957   9.907  -2.809  1.00  0.00     0.002 C 
ATOM     41  C   UNL     1       1.593  11.214  -3.264  1.00  0.00     0.004 C 
ENDBRANCH  38  40
ENDBRANCH  32  38
ENDBRANCH  29  32
ENDBRANCH  23  26
ENDBRANCH   1  22
TORSDOF 4
ENDMDL
MODEL 10
REMARK VINA RESULT:    -4.349      3.127      7.038
REMARK INTER + INTRA:          -8.833
REMARK INTER:                  -7.253
REMARK INTRA:                  -1.580
REMARK UNBOUND:                -1.433
REMARK SMILES CC[C@H](C)[C@@H]1NC(=O)[C@H]2CSC(=N2)[C@@H]([C@@H](C)CC)NC(=O)c2csc(n2)CNC(=O)[C@H]2N=C1O[C@@H]2C
REMARK SMILES IDX 27 1 25 2 22 3 26 4 23 5 24 6 20 7 19 8 21 9 14 11 12 12
REMARK SMILES IDX 11 13 10 14 13 15 9 16 15 18 16 19 17 20 18 21 28 22 29 23
REMARK SMILES IDX 30 24 31 26 32 27 35 28 33 29 34 30 36 31 5 32 6 33 7 34
REMARK SMILES IDX 8 35 3 38 4 39 2 40 1 41
REMARK H PARENT 19 10 28 25 6 36
REMARK Flexibility Score:   91.900
ROOT
ATOM      1  C   UNL     1       5.086  12.621  -4.771  1.00  0.00     0.183 C 
ENDROOT
BRANCH   1   2
ATOM      2  C   UNL     1       3.890  11.747  -4.525  1.00  0.00     0.113 A 
ATOM      3  C   UNL     1       2.058  10.949  -3.537  1.00  0.00     0.139 A 
ATOM      4  N   UNL     1       2.981  11.996  -3.600  1.00  0.00    -0.234 NA
ATOM      5  C   UNL     1       2.263   9.950  -4.468  1.00  0.00     0.101 A 
ATOM      6  S   UNL     1       3.643  10.306  -5.424  1.00  0.00    -0.125 S 
BRANCH   3   7
ATOM      7  C   UNL     1       1.011  10.956  -2.514  1.00  0.00     0.271 C 
ATOM      8  N   UNL     1       1.529  11.171  -1.261  1.00  0.00    -0.341 N 
ATOM      9  O   UNL     1      -0.174  10.759  -2.752  1.00  0.00    -0.267 OA
ATOM     10  H   UNL     1       2.533  11.343  -1.222  1.00  0.00     0.164 HD
BRANCH   8  11
ATOM     11  C   UNL     1       0.767  11.048  -0.029  1.00  0.00     0.140 C 
BRANCH  11  12
ATOM     12  C   UNL     1       1.715  10.540   1.061  1.00  0.00     0.091 C 
ATOM     13  S   UNL     1       1.284  10.682   2.749  1.00  0.00    -0.106 SA
ATOM     14  C   UNL     1       2.650   9.593   3.203  1.00  0.00     0.113 C 
ATOM     15  N   UNL     1       2.886  10.060   0.784  1.00  0.00    -0.267 NA
ATOM     16  C   UNL     1       3.626   9.746   2.047  1.00  0.00     0.205 CG0
ATOM     17  G   UNL     1       4.669  10.832   2.355  1.00  0.00     0.000 G0
ENDBRANCH  11  12
BRANCH  11  18
ATOM     18  C   UNL     1      -0.075  12.302   0.320  1.00  0.00     0.015 C 
ATOM     19  C   UNL     1       0.339  13.487  -0.564  1.00  0.00     0.010 C 
BRANCH  18  20
ATOM     20  C   UNL     1      -1.601  12.083   0.291  1.00  0.00     0.002 C 
ATOM     21  C   UNL     1      -2.383  13.269   0.844  1.00  0.00     0.004 C 
ENDBRANCH  18  20
ENDBRANCH  11  18
ENDBRANCH   8  11
ENDBRANCH   3   7
ENDBRANCH   1   2
BRANCH   1  22
ATOM     22  N   UNL     1       5.425  13.254  -3.516  1.00  0.00    -0.348 N 
ATOM     23  C   UNL     1       6.527  12.953  -2.763  1.00  0.00     0.249 C 
ATOM     24  O   UNL     1       7.393  12.164  -3.124  1.00  0.00    -0.272 OA
ATOM     25  H   UNL     1       4.760  13.913  -3.111  1.00  0.00     0.163 HD
BRANCH  23  26
ATOM     26  C   UNL     1       6.589  13.753  -1.453  1.00  0.00     0.238 C 
ATOM     27  N   UNL     1       5.942  12.966  -0.366  1.00  0.00    -0.236 NA
ATOM     28  C   UNL     1       8.019  13.981  -0.993  1.00  0.00     0.206 C 
ATOM     29  C   UNL     1       6.940  12.639   0.400  1.00  0.00     0.208 C 
ATOM     30  O   UNL     1       8.190  13.057   0.081  1.00  0.00    -0.474 OA
ATOM     31  C   UNL     1       8.244  15.390  -0.462  1.00  0.00     0.056 C 
BRANCH  29  32
ATOM     32  C   UNL     1       6.875  11.757   1.643  1.00  0.00     0.171 C 
BRANCH  32  33
ATOM     33  N   UNL     1       5.787  10.797   1.543  1.00  0.00    -0.342 N 
ATOM     34  C   UNL     1       4.693  10.827   2.376  1.00  0.00     0.246 CG0
ATOM     35  O   UNL     1       4.563  11.646   3.282  1.00  0.00    -0.273 OA
ATOM     36  H   UNL     1       5.816  10.040   0.869  1.00  0.00     0.164 HD
ATOM     37  G   UNL     1       3.628   9.762   2.066  1.00  0.00     0.000 G0
ENDBRANCH  32  33
BRANCH  32  38
ATOM     38  C   UNL     1       8.246  11.077   1.899  1.00  0.00     0.017 C 
ATOM     39  C   UNL     1       8.580  11.110   3.395  1.00  0.00     0.010 C 
BRANCH  38  40
ATOM     40  C   UNL     1       8.321   9.641   1.331  1.00  0.00     0.002 C 
ATOM     41  C   UNL     1       9.305   8.744   2.071  1.00  0.00     0.004 C 
ENDBRANCH  38  40
ENDBRANCH  32  38
ENDBRANCH  29  32
ENDBRANCH  23  26
ENDBRANCH   1  22
TORSDOF 4
ENDMDL
