MODEL 1
REMARK VINA RESULT:    -6.619      0.000      0.000
REMARK INTER + INTRA:         -26.040
REMARK INTER:                 -19.775
REMARK INTRA:                  -6.266
REMARK UNBOUND:                -6.266
REMARK SMILES C=C1C(=O)N[C@H](C)C(=O)N[C@@H](CC(C)C)C(=O)N[C@@H](C(=O)O)[C@H](C)C(=O)N[C@@H](CCCN=C(N)N)C(=O)N[C@@H](/C=C/C(C)=C/[C@H](C)[C@H](Cc2ccccc2)OC)[C@H](C)C(=O)N[C@@H](C(=O)O)CCC(=O)N1C
REMARK SMILES IDX 39 1 38 2 37 3 36 4 28 6 27 7 25 8 26 9 23 11 24 12 19 13
REMARK SMILES IDX 18 14 16 15 17 16 11 18 10 19 8 20 9 21 12 24 13 25 14 26
REMARK SMILES IDX 15 27 20 28 21 29 22 30 29 32 30 33 31 34 32 35 33 36 34 37
REMARK SMILES IDX 35 38 57 43 58 44 59 45 60 46 61 47 62 49 66 50 67 51 68 52
REMARK SMILES IDX 69 53 70 54 71 55 2 56 1 57 3 58 4 59 5 60 6 62 7 63 63 65
REMARK SMILES IDX 64 66 65 67 40 69 41 70 42 71 44 72 43 73 45 74 46 75 47 76
REMARK SMILES IDX 55 77 56 78 48 79 49 80 50 81 54 82 51 83 53 84 52 85
REMARK H PARENT 38 5 27 10 18 17 10 22 22 31 34 39 34 40 35 41 35 42 61 48
REMARK H PARENT 5 61 65 68
REMARK Flexibility Score:  369.900
ROOT
ATOM      1  C   UNL     1       5.323  -2.193  -9.291  1.00  0.00     0.117 C 
ENDROOT
BRANCH   1   2
ATOM      2  N   UNL     1       5.093  -2.021  -7.856  1.00  0.00    -0.347 N 
ATOM      3  O   UNL     1       4.556   0.211  -7.891  1.00  0.00    -0.273 OA
ATOM      4  C   UNL     1       4.637  -0.850  -7.281  1.00  0.00     0.243 C 
ATOM      5  H   UNL     1       5.221  -2.807  -7.237  1.00  0.00     0.164 HD
BRANCH   4   6
ATOM      6  C   UNL     1       4.394  -0.959  -5.754  1.00  0.00     0.171 C 
BRANCH   6   7
ATOM      7  N   UNL     1       5.650  -1.276  -5.055  1.00  0.00    -0.344 N 
ATOM      8  C   UNL     1       5.722  -2.346  -4.190  1.00  0.00     0.226 C 
ATOM      9  O   UNL     1       4.758  -3.062  -3.944  1.00  0.00    -0.275 OA
ATOM     10  H   UNL     1       6.449  -0.667  -5.180  1.00  0.00     0.164 HD
BRANCH   8  11
ATOM     11  C   UNL     1       7.098  -2.574  -3.590  1.00  0.00     0.109 C 
ATOM     12  C   UNL     1       7.826  -1.241  -3.422  1.00  0.00     0.021 C 
BRANCH  11  13
ATOM     13  C   UNL     1       6.973  -3.411  -2.301  1.00  0.00     0.204 C 
BRANCH  13  14
ATOM     14  N   UNL     1       5.850  -2.974  -1.466  1.00  0.00    -0.340 N 
ATOM     15  C   UNL     1       6.021  -2.366  -0.241  1.00  0.00     0.243 C 
ATOM     16  O   UNL     1       7.132  -2.093   0.211  1.00  0.00    -0.273 OA
ATOM     17  H   UNL     1       4.913  -3.305  -1.710  1.00  0.00     0.164 HD
BRANCH  15  18
ATOM     18  C   UNL     1       4.702  -2.184   0.549  1.00  0.00     0.171 C 
BRANCH  18  19
ATOM     19  N   UNL     1       4.571  -3.349   1.421  1.00  0.00    -0.343 N 
ATOM     20  C   UNL     1       4.105  -4.562   0.951  1.00  0.00     0.242 CG0
ATOM     21  O   UNL     1       3.653  -4.681  -0.185  1.00  0.00    -0.273 OA
ATOM     22  H   UNL     1       4.823  -3.269   2.399  1.00  0.00     0.164 HD
ATOM     23  G   UNL     1       4.111  -5.695   1.998  1.00  0.00     0.000 G0
ENDBRANCH  18  19
BRANCH  18  24
ATOM     24  C   UNL     1       4.729  -0.879   1.355  1.00  0.00     0.038 C 
BRANCH  24  25
ATOM     25  C   UNL     1       4.711  -1.068   2.886  1.00  0.00    -0.015 C 
ATOM     26  C   UNL     1       3.603  -0.259   3.562  1.00  0.00     0.007 C 
ATOM     27  C   UNL     1       6.069  -0.669   3.470  1.00  0.00     0.007 C 
ENDBRANCH  24  25
ENDBRANCH  18  24
ENDBRANCH  15  18
ENDBRANCH  13  14
BRANCH  13  28
ATOM     28  C   UNL     1       6.783  -4.908  -2.570  1.00  0.00     0.327 C 
ATOM     29  O   UNL     1       7.603  -5.662  -3.072  1.00  0.00    -0.250 OA
BRANCH  28  30
ATOM     30  O   UNL     1       5.534  -5.339  -2.301  1.00  0.00    -0.480 OA
ATOM     31  H   UNL     1       4.995  -4.993  -3.042  1.00  0.00     0.296 HD
ENDBRANCH  28  30
ENDBRANCH  13  28
ENDBRANCH  11  13
ENDBRANCH   8  11
ENDBRANCH   6   7
BRANCH   6  32
ATOM     32  C   UNL     1       3.801   0.359  -5.244  1.00  0.00     0.037 C 
BRANCH  32  33
ATOM     33  C   UNL     1       3.179   0.212  -3.848  1.00  0.00     0.026 C 
BRANCH  33  34
ATOM     34  C   UNL     1       1.683   0.530  -3.838  1.00  0.00     0.146 C 
BRANCH  34  35
ATOM     35  N   UNL     1       1.180   0.379  -2.479  1.00  0.00    -0.254 NA
ATOM     36  C   UNL     1       0.205  -0.424  -2.271  1.00  0.00     0.185 C 
ATOM     37  N   UNL     1      -0.264  -0.575  -1.023  1.00  0.00    -0.370 N 
ATOM     38  N   UNL     1      -0.465  -1.187  -3.154  1.00  0.00    -0.370 N 
ATOM     39  H   UNL     1       0.197  -0.040  -0.297  1.00  0.00     0.159 HD
ATOM     40  H   UNL     1      -0.900  -1.305  -0.751  1.00  0.00     0.159 HD
ATOM     41  H   UNL     1      -1.306  -1.673  -2.890  1.00  0.00     0.159 HD
ATOM     42  H   UNL     1      -0.230  -1.163  -4.134  1.00  0.00     0.159 HD
ENDBRANCH  34  35
ENDBRANCH  33  34
ENDBRANCH  32  33
ENDBRANCH   6  32
ENDBRANCH   4   6
ENDBRANCH   1   2
BRANCH   1  43
ATOM     43  C   UNL     1       4.464  -3.391  -9.790  1.00  0.00     0.102 C 
ATOM     44  C   UNL     1       4.403  -4.559  -8.791  1.00  0.00     0.020 C 
BRANCH  43  45
ATOM     45  C   UNL     1       4.869  -3.806 -11.207  1.00  0.00     0.225 C 
ATOM     46  O   UNL     1       5.826  -4.538 -11.444  1.00  0.00    -0.275 OA
ATOM     47  N   UNL     1       4.144  -3.227 -12.224  1.00  0.00    -0.342 N 
ATOM     48  H   UNL     1       3.276  -2.755 -12.013  1.00  0.00     0.164 HD
BRANCH  47  49
ATOM     49  C   UNL     1       4.397  -3.558 -13.629  1.00  0.00     0.192 C 
BRANCH  49  50
ATOM     50  C   UNL     1       4.668  -2.275 -14.419  1.00  0.00     0.047 C 
BRANCH  50  51
ATOM     51  C   UNL     1       6.030  -2.303 -15.125  1.00  0.00     0.103 C 
BRANCH  51  52
ATOM     52  C   UNL     1       5.992  -3.121 -16.414  1.00  0.00     0.226 C 
ATOM     53  O   UNL     1       5.207  -2.808 -17.312  1.00  0.00    -0.275 OA
BRANCH  52  54
ATOM     54  N   UNL     1       6.934  -4.160 -16.526  1.00  0.00    -0.311 N 
ATOM     55  C   UNL     1       6.993  -5.237 -15.529  1.00  0.00     0.153 C 
BRANCH  54  56
ATOM     56  C   UNL     1       7.846  -4.211 -17.593  1.00  0.00     0.102 C 
ATOM     57  C   UNL     1       8.724  -3.242 -17.899  1.00  0.00     0.043 C 
BRANCH  56  58
ATOM     58  C   UNL     1       7.936  -5.431 -18.479  1.00  0.00     0.268 C 
ATOM     59  O   UNL     1       7.033  -5.784 -19.225  1.00  0.00    -0.268 OA
ATOM     60  N   UNL     1       9.155  -6.061 -18.409  1.00  0.00    -0.339 N 
ATOM     61  H   UNL     1       9.847  -5.712 -17.757  1.00  0.00     0.164 HD
BRANCH  60  62
ATOM     62  C   UNL     1       9.478  -7.227 -19.231  1.00  0.00     0.168 CG0
ATOM     63  C   UNL     1      10.778  -7.876 -18.773  1.00  0.00     0.041 C 
ATOM     64  G   UNL     1       9.570  -6.805 -20.712  1.00  0.00     0.000 G0
ENDBRANCH  60  62
ENDBRANCH  56  58
ENDBRANCH  54  56
ENDBRANCH  52  54
ENDBRANCH  51  52
ENDBRANCH  50  51
ENDBRANCH  49  50
BRANCH  49  65
ATOM     65  C   UNL     1       3.209  -4.302 -14.259  1.00  0.00     0.326 C 
ATOM     66  O   UNL     1       3.096  -4.588 -15.442  1.00  0.00    -0.250 OA
BRANCH  65  67
ATOM     67  O   UNL     1       2.207  -4.593 -13.400  1.00  0.00    -0.480 OA
ATOM     68  H   UNL     1       2.215  -3.840 -12.771  1.00  0.00     0.296 HD
ENDBRANCH  65  67
ENDBRANCH  49  65
ENDBRANCH  47  49
ENDBRANCH  43  45
ENDBRANCH   1  43
BRANCH   1  69
ATOM     69  C   UNL     1       6.829  -2.244  -9.476  1.00  0.00    -0.001 C 
ATOM     70  C   UNL     1       7.554  -1.643 -10.435  1.00  0.00     0.001 C 
BRANCH  70  71
ATOM     71  C   UNL     1       9.010  -1.682 -10.591  1.00  0.00    -0.055 C 
ATOM     72  C   UNL     1       9.537  -1.128 -11.704  1.00  0.00    -0.018 C 
ATOM     73  C   UNL     1       9.817  -2.328  -9.495  1.00  0.00     0.044 C 
BRANCH  72  74
ATOM     74  C   UNL     1      10.995  -1.019 -12.127  1.00  0.00     0.038 C 
ATOM     75  C   UNL     1      11.528   0.310 -11.579  1.00  0.00     0.015 C 
BRANCH  74  76
ATOM     76  C   UNL     1      11.079  -1.167 -13.675  1.00  0.00     0.128 C 
BRANCH  76  77
ATOM     77  O   UNL     1      11.994  -2.222 -14.018  1.00  0.00    -0.381 OA
ATOM     78  C   UNL     1      12.146  -2.412 -15.419  1.00  0.00     0.195 C 
ENDBRANCH  76  77
BRANCH  76  79
ATOM     79  C   UNL     1       9.701  -1.319 -14.369  1.00  0.00     0.068 C 
BRANCH  79  80
ATOM     80  C   UNL     1       9.098  -0.097 -15.017  1.00  0.00    -0.045 A 
ATOM     81  C   UNL     1       8.863   1.070 -14.279  1.00  0.00     0.004 A 
ATOM     82  C   UNL     1       8.734  -0.122 -16.372  1.00  0.00     0.004 A 
ATOM     83  C   UNL     1       8.291   2.192 -14.883  1.00  0.00     0.000 A 
ATOM     84  C   UNL     1       8.162   1.000 -16.975  1.00  0.00     0.000 A 
ATOM     85  C   UNL     1       7.942   2.157 -16.231  1.00  0.00     0.000 A 
ENDBRANCH  79  80
ENDBRANCH  76  79
ENDBRANCH  74  76
ENDBRANCH  72  74
ENDBRANCH  70  71
ENDBRANCH   1  69
TORSDOF 17
ENDMDL
MODEL 2
REMARK VINA RESULT:    -6.551      3.447      5.773
REMARK INTER + INTRA:         -25.836
REMARK INTER:                 -17.593
REMARK INTRA:                  -8.243
REMARK UNBOUND:                -6.266
REMARK SMILES C=C1C(=O)N[C@H](C)C(=O)N[C@@H](CC(C)C)C(=O)N[C@@H](C(=O)O)[C@H](C)C(=O)N[C@@H](CCCN=C(N)N)C(=O)N[C@@H](/C=C/C(C)=C/[C@H](C)[C@H](Cc2ccccc2)OC)[C@H](C)C(=O)N[C@@H](C(=O)O)CCC(=O)N1C
REMARK SMILES IDX 39 1 38 2 37 3 36 4 28 6 27 7 25 8 26 9 23 11 24 12 19 13
REMARK SMILES IDX 18 14 16 15 17 16 11 18 10 19 8 20 9 21 12 24 13 25 14 26
REMARK SMILES IDX 15 27 20 28 21 29 22 30 29 32 30 33 31 34 32 35 33 36 34 37
REMARK SMILES IDX 35 38 57 43 58 44 59 45 60 46 61 47 62 49 66 50 67 51 68 52
REMARK SMILES IDX 69 53 70 54 71 55 2 56 1 57 3 58 4 59 5 60 6 62 7 63 63 65
REMARK SMILES IDX 64 66 65 67 40 69 41 70 42 71 44 72 43 73 45 74 46 75 47 76
REMARK SMILES IDX 55 77 56 78 48 79 49 80 50 81 54 82 51 83 53 84 52 85
REMARK H PARENT 38 5 27 10 18 17 10 22 22 31 34 39 34 40 35 41 35 42 61 48
REMARK H PARENT 5 61 65 68
REMARK Flexibility Score:  369.900
ROOT
ATOM      1  C   UNL     1       3.327   0.212 -11.887  1.00  0.00     0.117 C 
ENDROOT
BRANCH   1   2
ATOM      2  N   UNL     1       3.027  -0.342 -10.566  1.00  0.00    -0.347 N 
ATOM      3  O   UNL     1       2.670   1.643  -9.469  1.00  0.00    -0.273 OA
ATOM      4  C   UNL     1       2.631   0.417  -9.482  1.00  0.00     0.243 C 
ATOM      5  H   UNL     1       3.057  -1.341 -10.430  1.00  0.00     0.164 HD
BRANCH   4   6
ATOM      6  C   UNL     1       2.291  -0.423  -8.224  1.00  0.00     0.171 C 
BRANCH   6   7
ATOM      7  N   UNL     1       0.923  -0.132  -7.766  1.00  0.00    -0.344 N 
ATOM      8  C   UNL     1       0.707   0.595  -6.616  1.00  0.00     0.226 C 
ATOM      9  O   UNL     1       1.623   1.009  -5.915  1.00  0.00    -0.275 OA
ATOM     10  H   UNL     1       0.141  -0.516  -8.282  1.00  0.00     0.164 HD
BRANCH   8  11
ATOM     11  C   UNL     1      -0.757   0.857  -6.307  1.00  0.00     0.109 C 
ATOM     12  C   UNL     1      -1.413   1.606  -7.467  1.00  0.00     0.021 C 
BRANCH  11  13
ATOM     13  C   UNL     1      -1.450  -0.461  -5.911  1.00  0.00     0.204 C 
BRANCH  13  14
ATOM     14  N   UNL     1      -1.774  -0.507  -4.481  1.00  0.00    -0.340 N 
ATOM     15  C   UNL     1      -0.965  -1.124  -3.551  1.00  0.00     0.243 C 
ATOM     16  O   UNL     1       0.117  -1.628  -3.846  1.00  0.00    -0.273 OA
ATOM     17  H   UNL     1      -2.720  -0.244  -4.194  1.00  0.00     0.164 HD
BRANCH  15  18
ATOM     18  C   UNL     1      -1.608  -1.228  -2.146  1.00  0.00     0.171 C 
BRANCH  18  19
ATOM     19  N   UNL     1      -0.917  -0.258  -1.297  1.00  0.00    -0.343 N 
ATOM     20  C   UNL     1      -0.616  -0.530   0.023  1.00  0.00     0.242 CG0
ATOM     21  O   UNL     1      -1.030  -1.543   0.583  1.00  0.00    -0.273 OA
ATOM     22  H   UNL     1      -0.656   0.642  -1.682  1.00  0.00     0.164 HD
ATOM     23  G   UNL     1       0.184   0.580   0.735  1.00  0.00     0.000 G0
ENDBRANCH  18  19
BRANCH  18  24
ATOM     24  C   UNL     1      -3.113  -0.942  -2.216  1.00  0.00     0.038 C 
BRANCH  24  25
ATOM     25  C   UNL     1      -3.990  -1.895  -1.376  1.00  0.00    -0.015 C 
ATOM     26  C   UNL     1      -3.417  -3.311  -1.310  1.00  0.00     0.007 C 
ATOM     27  C   UNL     1      -5.405  -1.938  -1.958  1.00  0.00     0.007 C 
ENDBRANCH  24  25
ENDBRANCH  18  24
ENDBRANCH  15  18
ENDBRANCH  13  14
BRANCH  13  28
ATOM     28  C   UNL     1      -2.752  -0.713  -6.678  1.00  0.00     0.327 C 
ATOM     29  O   UNL     1      -2.849  -1.182  -7.802  1.00  0.00    -0.250 OA
BRANCH  28  30
ATOM     30  O   UNL     1      -3.843  -0.249  -6.036  1.00  0.00    -0.480 OA
ATOM     31  H   UNL     1      -4.379  -1.051  -5.861  1.00  0.00     0.296 HD
ENDBRANCH  28  30
ENDBRANCH  13  28
ENDBRANCH  11  13
ENDBRANCH   8  11
ENDBRANCH   6   7
BRANCH   6  32
ATOM     32  C   UNL     1       2.453  -1.911  -8.554  1.00  0.00     0.037 C 
BRANCH  32  33
ATOM     33  C   UNL     1       2.722  -2.757  -7.302  1.00  0.00     0.026 C 
BRANCH  33  34
ATOM     34  C   UNL     1       3.824  -2.165  -6.422  1.00  0.00     0.146 C 
BRANCH  34  35
ATOM     35  N   UNL     1       3.440  -2.311  -5.025  1.00  0.00    -0.254 NA
ATOM     36  C   UNL     1       3.555  -1.299  -4.247  1.00  0.00     0.185 C 
ATOM     37  N   UNL     1       3.199  -1.421  -2.959  1.00  0.00    -0.370 N 
ATOM     38  N   UNL     1       4.000  -0.062  -4.531  1.00  0.00    -0.370 N 
ATOM     39  H   UNL     1       2.843  -2.323  -2.670  1.00  0.00     0.159 HD
ATOM     40  H   UNL     1       3.095  -0.640  -2.335  1.00  0.00     0.159 HD
ATOM     41  H   UNL     1       4.175   0.608  -3.800  1.00  0.00     0.159 HD
ATOM     42  H   UNL     1       4.317   0.168  -5.459  1.00  0.00     0.159 HD
ENDBRANCH  34  35
ENDBRANCH  33  34
ENDBRANCH  32  33
ENDBRANCH   6  32
ENDBRANCH   4   6
ENDBRANCH   1   2
BRANCH   1  43
ATOM     43  C   UNL     1       2.435  -0.507 -12.940  1.00  0.00     0.102 C 
ATOM     44  C   UNL     1       0.968  -0.046 -12.915  1.00  0.00     0.020 C 
BRANCH  43  45
ATOM     45  C   UNL     1       2.610  -2.027 -12.864  1.00  0.00     0.225 C 
ATOM     46  O   UNL     1       2.293  -2.690 -11.880  1.00  0.00    -0.275 OA
ATOM     47  N   UNL     1       3.239  -2.605 -13.942  1.00  0.00    -0.342 N 
ATOM     48  H   UNL     1       3.353  -2.078 -14.796  1.00  0.00     0.164 HD
BRANCH  47  49
ATOM     49  C   UNL     1       3.443  -4.055 -14.023  1.00  0.00     0.192 C 
BRANCH  49  50
ATOM     50  C   UNL     1       4.365  -4.379 -15.201  1.00  0.00     0.047 C 
BRANCH  50  51
ATOM     51  C   UNL     1       5.605  -3.475 -15.236  1.00  0.00     0.103 C 
BRANCH  51  52
ATOM     52  C   UNL     1       6.006  -3.107 -16.664  1.00  0.00     0.226 C 
ATOM     53  O   UNL     1       5.153  -2.691 -17.449  1.00  0.00    -0.275 OA
BRANCH  52  54
ATOM     54  N   UNL     1       7.376  -3.200 -16.973  1.00  0.00    -0.311 N 
ATOM     55  C   UNL     1       8.210  -1.996 -17.080  1.00  0.00     0.153 C 
BRANCH  54  56
ATOM     56  C   UNL     1       7.996  -4.442 -17.185  1.00  0.00     0.102 C 
ATOM     57  C   UNL     1       7.730  -5.269 -18.209  1.00  0.00     0.043 C 
BRANCH  56  58
ATOM     58  C   UNL     1       9.085  -4.933 -16.259  1.00  0.00     0.268 C 
ATOM     59  O   UNL     1       8.976  -4.936 -15.040  1.00  0.00    -0.268 OA
ATOM     60  N   UNL     1      10.176  -5.434 -16.927  1.00  0.00    -0.339 N 
ATOM     61  H   UNL     1      10.193  -5.386 -17.939  1.00  0.00     0.164 HD
BRANCH  60  62
ATOM     62  C   UNL     1      11.318  -6.019 -16.225  1.00  0.00     0.168 CG0
ATOM     63  C   UNL     1      12.451  -5.009 -16.088  1.00  0.00     0.041 C 
ATOM     64  G   UNL     1      11.797  -7.278 -16.975  1.00  0.00     0.000 G0
ENDBRANCH  60  62
ENDBRANCH  56  58
ENDBRANCH  54  56
ENDBRANCH  52  54
ENDBRANCH  51  52
ENDBRANCH  50  51
ENDBRANCH  49  50
BRANCH  49  65
ATOM     65  C   UNL     1       2.113  -4.805 -14.197  1.00  0.00     0.326 C 
ATOM     66  O   UNL     1       1.460  -5.311 -13.295  1.00  0.00    -0.250 OA
BRANCH  65  67
ATOM     67  O   UNL     1       1.703  -4.937 -15.477  1.00  0.00    -0.480 OA
ATOM     68  H   UNL     1       0.771  -4.629 -15.454  1.00  0.00     0.296 HD
ENDBRANCH  65  67
ENDBRANCH  49  65
ENDBRANCH  47  49
ENDBRANCH  43  45
ENDBRANCH   1  43
BRANCH   1  69
ATOM     69  C   UNL     1       4.836   0.150 -12.040  1.00  0.00    -0.001 C 
ATOM     70  C   UNL     1       5.726   1.118 -11.759  1.00  0.00     0.001 C 
BRANCH  70  71
ATOM     71  C   UNL     1       7.182   1.039 -11.890  1.00  0.00    -0.055 C 
ATOM     72  C   UNL     1       7.683   0.257 -12.869  1.00  0.00    -0.018 C 
ATOM     73  C   UNL     1       8.019   1.842 -10.928  1.00  0.00     0.044 C 
BRANCH  72  74
ATOM     74  C   UNL     1       9.134  -0.012 -13.240  1.00  0.00     0.038 C 
ATOM     75  C   UNL     1       9.339   0.503 -14.670  1.00  0.00     0.015 C 
BRANCH  74  76
ATOM     76  C   UNL     1       9.429  -1.529 -13.044  1.00  0.00     0.128 C 
BRANCH  76  77
ATOM     77  O   UNL     1      10.704  -1.859 -13.618  1.00  0.00    -0.381 OA
ATOM     78  C   UNL     1      11.810  -1.339 -12.892  1.00  0.00     0.195 C 
ENDBRANCH  76  77
BRANCH  76  79
ATOM     79  C   UNL     1       9.287  -2.013 -11.579  1.00  0.00     0.068 C 
BRANCH  79  80
ATOM     80  C   UNL     1       7.922  -2.453 -11.108  1.00  0.00    -0.045 A 
ATOM     81  C   UNL     1       7.381  -1.971  -9.909  1.00  0.00     0.004 A 
ATOM     82  C   UNL     1       7.181  -3.380 -11.857  1.00  0.00     0.004 A 
ATOM     83  C   UNL     1       6.124  -2.394  -9.474  1.00  0.00     0.000 A 
ATOM     84  C   UNL     1       5.924  -3.804 -11.420  1.00  0.00     0.000 A 
ATOM     85  C   UNL     1       5.395  -3.309 -10.230  1.00  0.00     0.000 A 
ENDBRANCH  79  80
ENDBRANCH  76  79
ENDBRANCH  74  76
ENDBRANCH  72  74
ENDBRANCH  70  71
ENDBRANCH   1  69
TORSDOF 17
ENDMDL
MODEL 3
REMARK VINA RESULT:    -6.342      9.427     14.900
REMARK INTER + INTRA:         -25.212
REMARK INTER:                 -18.473
REMARK INTRA:                  -6.739
REMARK UNBOUND:                -6.266
REMARK SMILES C=C1C(=O)N[C@H](C)C(=O)N[C@@H](CC(C)C)C(=O)N[C@@H](C(=O)O)[C@H](C)C(=O)N[C@@H](CCCN=C(N)N)C(=O)N[C@@H](/C=C/C(C)=C/[C@H](C)[C@H](Cc2ccccc2)OC)[C@H](C)C(=O)N[C@@H](C(=O)O)CCC(=O)N1C
REMARK SMILES IDX 39 1 38 2 37 3 36 4 28 6 27 7 25 8 26 9 23 11 24 12 19 13
REMARK SMILES IDX 18 14 16 15 17 16 11 18 10 19 8 20 9 21 12 24 13 25 14 26
REMARK SMILES IDX 15 27 20 28 21 29 22 30 29 32 30 33 31 34 32 35 33 36 34 37
REMARK SMILES IDX 35 38 57 43 58 44 59 45 60 46 61 47 62 49 66 50 67 51 68 52
REMARK SMILES IDX 69 53 70 54 71 55 2 56 1 57 3 58 4 59 5 60 6 62 7 63 63 65
REMARK SMILES IDX 64 66 65 67 40 69 41 70 42 71 44 72 43 73 45 74 46 75 47 76
REMARK SMILES IDX 55 77 56 78 48 79 49 80 50 81 54 82 51 83 53 84 52 85
REMARK H PARENT 38 5 27 10 18 17 10 22 22 31 34 39 34 40 35 41 35 42 61 48
REMARK H PARENT 5 61 65 68
REMARK Flexibility Score:  369.900
ROOT
ATOM      1  C   UNL     1       0.717  -0.801   1.414  1.00  0.00     0.117 C 
ENDROOT
BRANCH   1   2
ATOM      2  N   UNL     1       2.009  -0.915   0.738  1.00  0.00    -0.347 N 
ATOM      3  O   UNL     1       2.608   1.299   0.831  1.00  0.00    -0.273 OA
ATOM      4  C   UNL     1       2.895   0.133   0.581  1.00  0.00     0.243 C 
ATOM      5  H   UNL     1       2.313  -1.816   0.401  1.00  0.00     0.164 HD
BRANCH   4   6
ATOM      6  C   UNL     1       4.230  -0.274  -0.094  1.00  0.00     0.171 C 
BRANCH   6   7
ATOM      7  N   UNL     1       4.383  -1.738  -0.089  1.00  0.00    -0.344 N 
ATOM      8  C   UNL     1       5.605  -2.316   0.175  1.00  0.00     0.226 C 
ATOM      9  O   UNL     1       6.614  -1.656   0.393  1.00  0.00    -0.275 OA
ATOM     10  H   UNL     1       3.587  -2.315  -0.331  1.00  0.00     0.164 HD
BRANCH   8  11
ATOM     11  C   UNL     1       5.588  -3.834   0.197  1.00  0.00     0.109 C 
ATOM     12  C   UNL     1       4.923  -4.371  -1.070  1.00  0.00     0.021 C 
BRANCH  11  13
ATOM     13  C   UNL     1       7.010  -4.368   0.459  1.00  0.00     0.204 C 
BRANCH  13  14
ATOM     14  N   UNL     1       7.330  -4.408   1.889  1.00  0.00    -0.340 N 
ATOM     15  C   UNL     1       8.606  -4.222   2.376  1.00  0.00     0.243 C 
ATOM     16  O   UNL     1       9.557  -3.947   1.648  1.00  0.00    -0.273 OA
ATOM     17  H   UNL     1       6.623  -4.779   2.529  1.00  0.00     0.164 HD
BRANCH  15  18
ATOM     18  C   UNL     1       8.738  -4.514   3.891  1.00  0.00     0.171 C 
BRANCH  18  19
ATOM     19  N   UNL     1       9.112  -5.922   4.014  1.00  0.00    -0.343 N 
ATOM     20  C   UNL     1       8.903  -6.632   5.181  1.00  0.00     0.242 CG0
ATOM     21  O   UNL     1       8.517  -6.081   6.209  1.00  0.00    -0.273 OA
ATOM     22  H   UNL     1       9.542  -6.393   3.227  1.00  0.00     0.164 HD
ATOM     23  G   UNL     1       9.287  -8.123   5.096  1.00  0.00     0.000 G0
ENDBRANCH  18  19
BRANCH  18  24
ATOM     24  C   UNL     1       9.788  -3.596   4.530  1.00  0.00     0.038 C 
BRANCH  24  25
ATOM     25  C   UNL     1       9.210  -2.358   5.248  1.00  0.00    -0.015 C 
ATOM     26  C   UNL     1       7.961  -2.687   6.067  1.00  0.00     0.007 C 
ATOM     27  C   UNL     1       8.880  -1.274   4.219  1.00  0.00     0.007 C 
ENDBRANCH  24  25
ENDBRANCH  18  24
ENDBRANCH  15  18
ENDBRANCH  13  14
BRANCH  13  28
ATOM     28  C   UNL     1       7.238  -5.777  -0.097  1.00  0.00     0.327 C 
ATOM     29  O   UNL     1       7.786  -6.059  -1.152  1.00  0.00    -0.250 OA
BRANCH  28  30
ATOM     30  O   UNL     1       6.658  -6.740   0.649  1.00  0.00    -0.480 OA
ATOM     31  H   UNL     1       7.194  -7.540   0.469  1.00  0.00     0.296 HD
ENDBRANCH  28  30
ENDBRANCH  13  28
ENDBRANCH  11  13
ENDBRANCH   8  11
ENDBRANCH   6   7
BRANCH   6  32
ATOM     32  C   UNL     1       4.258   0.275  -1.525  1.00  0.00     0.037 C 
BRANCH  32  33
ATOM     33  C   UNL     1       3.327  -0.506  -2.463  1.00  0.00     0.026 C 
BRANCH  33  34
ATOM     34  C   UNL     1       4.094  -1.303  -3.518  1.00  0.00     0.146 C 
BRANCH  34  35
ATOM     35  N   UNL     1       3.211  -2.319  -4.074  1.00  0.00    -0.254 NA
ATOM     36  C   UNL     1       2.678  -2.109  -5.220  1.00  0.00     0.185 C 
ATOM     37  N   UNL     1       1.866  -3.040  -5.744  1.00  0.00    -0.370 N 
ATOM     38  N   UNL     1       2.810  -1.044  -6.031  1.00  0.00    -0.370 N 
ATOM     39  H   UNL     1       1.725  -3.879  -5.197  1.00  0.00     0.159 HD
ATOM     40  H   UNL     1       1.553  -3.031  -6.700  1.00  0.00     0.159 HD
ATOM     41  H   UNL     1       2.229  -0.935  -6.846  1.00  0.00     0.159 HD
ATOM     42  H   UNL     1       3.379  -0.258  -5.757  1.00  0.00     0.159 HD
ENDBRANCH  34  35
ENDBRANCH  33  34
ENDBRANCH  32  33
ENDBRANCH   6  32
ENDBRANCH   4   6
ENDBRANCH   1   2
BRANCH   1  43
ATOM     43  C   UNL     1      -0.230   0.062   0.531  1.00  0.00     0.102 C 
ATOM     44  C   UNL     1      -1.371   0.724   1.323  1.00  0.00     0.020 C 
BRANCH  43  45
ATOM     45  C   UNL     1      -0.700  -0.720  -0.699  1.00  0.00     0.225 C 
ATOM     46  O   UNL     1      -0.036  -0.815  -1.727  1.00  0.00    -0.275 OA
ATOM     47  N   UNL     1      -1.970  -1.243  -0.619  1.00  0.00    -0.342 N 
ATOM     48  H   UNL     1      -2.437  -1.288   0.276  1.00  0.00     0.164 HD
BRANCH  47  49
ATOM     49  C   UNL     1      -2.539  -2.045  -1.706  1.00  0.00     0.192 C 
BRANCH  49  50
ATOM     50  C   UNL     1      -3.314  -1.138  -2.664  1.00  0.00     0.047 C 
BRANCH  50  51
ATOM     51  C   UNL     1      -3.613   0.237  -2.050  1.00  0.00     0.103 C 
BRANCH  51  52
ATOM     52  C   UNL     1      -4.840   0.205  -1.142  1.00  0.00     0.226 C 
ATOM     53  O   UNL     1      -4.695   0.091   0.077  1.00  0.00    -0.275 OA
BRANCH  52  54
ATOM     54  N   UNL     1      -6.087   0.388  -1.767  1.00  0.00    -0.311 N 
ATOM     55  C   UNL     1      -6.331   1.539  -2.646  1.00  0.00     0.153 C 
BRANCH  54  56
ATOM     56  C   UNL     1      -7.141  -0.523  -1.581  1.00  0.00     0.102 C 
ATOM     57  C   UNL     1      -7.946  -0.558  -0.506  1.00  0.00     0.043 C 
BRANCH  56  58
ATOM     58  C   UNL     1      -7.482  -1.541  -2.643  1.00  0.00     0.268 C 
ATOM     59  O   UNL     1      -6.676  -1.937  -3.475  1.00  0.00    -0.268 OA
ATOM     60  N   UNL     1      -8.765  -2.023  -2.538  1.00  0.00    -0.339 N 
ATOM     61  H   UNL     1      -9.374  -1.635  -1.827  1.00  0.00     0.164 HD
BRANCH  60  62
ATOM     62  C   UNL     1      -9.283  -3.062  -3.427  1.00  0.00     0.168 CG0
ATOM     63  C   UNL     1     -10.287  -2.484  -4.416  1.00  0.00     0.041 C 
ATOM     64  G   UNL     1      -9.926  -4.186  -2.589  1.00  0.00     0.000 G0
ENDBRANCH  60  62
ENDBRANCH  56  58
ENDBRANCH  54  56
ENDBRANCH  52  54
ENDBRANCH  51  52
ENDBRANCH  50  51
ENDBRANCH  49  50
BRANCH  49  65
ATOM     65  C   UNL     1      -3.475  -3.140  -1.172  1.00  0.00     0.326 C 
ATOM     66  O   UNL     1      -4.591  -3.393  -1.603  1.00  0.00    -0.250 OA
BRANCH  65  67
ATOM     67  O   UNL     1      -3.001  -3.815  -0.102  1.00  0.00    -0.480 OA
ATOM     68  H   UNL     1      -2.920  -4.738  -0.428  1.00  0.00     0.296 HD
ENDBRANCH  65  67
ENDBRANCH  49  65
ENDBRANCH  47  49
ENDBRANCH  43  45
ENDBRANCH   1  43
BRANCH   1  69
ATOM     69  C   UNL     1       1.018  -0.344   2.830  1.00  0.00    -0.001 C 
ATOM     70  C   UNL     1       0.652  -0.942   3.977  1.00  0.00     0.001 C 
BRANCH  70  71
ATOM     71  C   UNL     1       0.967  -0.503   5.338  1.00  0.00    -0.055 C 
ATOM     72  C   UNL     1       2.263  -0.275   5.639  1.00  0.00    -0.018 C 
ATOM     73  C   UNL     1      -0.177  -0.329   6.303  1.00  0.00     0.044 C 
BRANCH  72  74
ATOM     74  C   UNL     1       2.880   0.185   6.953  1.00  0.00     0.038 C 
ATOM     75  C   UNL     1       2.871   1.719   6.944  1.00  0.00     0.015 C 
BRANCH  74  76
ATOM     76  C   UNL     1       4.290  -0.459   7.097  1.00  0.00     0.128 C 
BRANCH  76  77
ATOM     77  O   UNL     1       4.235  -1.560   8.018  1.00  0.00    -0.381 OA
ATOM     78  C   UNL     1       4.785  -1.265   9.295  1.00  0.00     0.195 C 
ENDBRANCH  76  77
BRANCH  76  79
ATOM     79  C   UNL     1       4.949  -0.839   5.747  1.00  0.00     0.068 C 
BRANCH  79  80
ATOM     80  C   UNL     1       5.588   0.264   4.937  1.00  0.00    -0.045 A 
ATOM     81  C   UNL     1       5.381   0.356   3.554  1.00  0.00     0.004 A 
ATOM     82  C   UNL     1       6.427   1.202   5.557  1.00  0.00     0.004 A 
ATOM     83  C   UNL     1       5.987   1.370   2.810  1.00  0.00     0.000 A 
ATOM     84  C   UNL     1       7.033   2.215   4.811  1.00  0.00     0.000 A 
ATOM     85  C   UNL     1       6.812   2.300   3.439  1.00  0.00     0.000 A 
ENDBRANCH  79  80
ENDBRANCH  76  79
ENDBRANCH  74  76
ENDBRANCH  72  74
ENDBRANCH  70  71
ENDBRANCH   1  69
TORSDOF 17
ENDMDL
MODEL 4
REMARK VINA RESULT:    -5.752     10.599     18.368
REMARK INTER + INTRA:         -23.449
REMARK INTER:                 -16.892
REMARK INTRA:                  -6.557
REMARK UNBOUND:                -6.266
REMARK SMILES C=C1C(=O)N[C@H](C)C(=O)N[C@@H](CC(C)C)C(=O)N[C@@H](C(=O)O)[C@H](C)C(=O)N[C@@H](CCCN=C(N)N)C(=O)N[C@@H](/C=C/C(C)=C/[C@H](C)[C@H](Cc2ccccc2)OC)[C@H](C)C(=O)N[C@@H](C(=O)O)CCC(=O)N1C
REMARK SMILES IDX 39 1 38 2 37 3 36 4 28 6 27 7 25 8 26 9 23 11 24 12 19 13
REMARK SMILES IDX 18 14 16 15 17 16 11 18 10 19 8 20 9 21 12 24 13 25 14 26
REMARK SMILES IDX 15 27 20 28 21 29 22 30 29 32 30 33 31 34 32 35 33 36 34 37
REMARK SMILES IDX 35 38 57 43 58 44 59 45 60 46 61 47 62 49 66 50 67 51 68 52
REMARK SMILES IDX 69 53 70 54 71 55 2 56 1 57 3 58 4 59 5 60 6 62 7 63 63 65
REMARK SMILES IDX 64 66 65 67 40 69 41 70 42 71 44 72 43 73 45 74 46 75 47 76
REMARK SMILES IDX 55 77 56 78 48 79 49 80 50 81 54 82 51 83 53 84 52 85
REMARK H PARENT 38 5 27 10 18 17 10 22 22 31 34 39 34 40 35 41 35 42 61 48
REMARK H PARENT 5 61 65 68
REMARK Flexibility Score:  369.900
ROOT
ATOM      1  C   UNL     1       5.995   0.705   6.830  1.00  0.00     0.117 C 
ENDROOT
BRANCH   1   2
ATOM      2  N   UNL     1       5.436   0.752   5.479  1.00  0.00    -0.347 N 
ATOM      3  O   UNL     1       3.589  -0.558   5.858  1.00  0.00    -0.273 OA
ATOM      4  C   UNL     1       4.225   0.190   5.123  1.00  0.00     0.243 C 
ATOM      5  H   UNL     1       5.924   1.262   4.759  1.00  0.00     0.164 HD
BRANCH   4   6
ATOM      6  C   UNL     1       3.823   0.457   3.650  1.00  0.00     0.171 C 
BRANCH   6   7
ATOM      7  N   UNL     1       3.600  -0.813   2.939  1.00  0.00    -0.344 N 
ATOM      8  C   UNL     1       4.548  -1.307   2.070  1.00  0.00     0.226 C 
ATOM      9  O   UNL     1       5.594  -0.718   1.829  1.00  0.00    -0.275 OA
ATOM     10  H   UNL     1       2.718  -1.295   3.061  1.00  0.00     0.164 HD
BRANCH   8  11
ATOM     11  C   UNL     1       4.194  -2.652   1.458  1.00  0.00     0.109 C 
ATOM     12  C   UNL     1       2.688  -2.740   1.217  1.00  0.00     0.021 C 
BRANCH  11  13
ATOM     13  C   UNL     1       5.066  -2.902   0.212  1.00  0.00     0.204 C 
BRANCH  13  14
ATOM     14  N   UNL     1       6.320  -3.586   0.544  1.00  0.00    -0.340 N 
ATOM     15  C   UNL     1       7.557  -3.097   0.184  1.00  0.00     0.243 C 
ATOM     16  O   UNL     1       7.700  -2.019  -0.389  1.00  0.00    -0.273 OA
ATOM     17  H   UNL     1       6.266  -4.551   0.881  1.00  0.00     0.164 HD
BRANCH  15  18
ATOM     18  C   UNL     1       8.717  -4.087   0.457  1.00  0.00     0.171 C 
BRANCH  18  19
ATOM     19  N   UNL     1       9.261  -4.463  -0.846  1.00  0.00    -0.343 N 
ATOM     20  C   UNL     1       8.528  -5.201  -1.756  1.00  0.00     0.242 CG0
ATOM     21  O   UNL     1       7.439  -5.687  -1.462  1.00  0.00    -0.273 OA
ATOM     22  H   UNL     1      10.204  -4.183  -1.091  1.00  0.00     0.164 HD
ATOM     23  G   UNL     1       9.238  -5.433  -3.106  1.00  0.00     0.000 G0
ENDBRANCH  18  19
BRANCH  18  24
ATOM     24  C   UNL     1       9.785  -3.438   1.346  1.00  0.00     0.038 C 
BRANCH  24  25
ATOM     25  C   UNL     1       9.512  -3.541   2.861  1.00  0.00    -0.015 C 
ATOM     26  C   UNL     1      10.773  -3.329   3.699  1.00  0.00     0.007 C 
ATOM     27  C   UNL     1       8.904  -4.909   3.183  1.00  0.00     0.007 C 
ENDBRANCH  24  25
ENDBRANCH  18  24
ENDBRANCH  15  18
ENDBRANCH  13  14
BRANCH  13  28
ATOM     28  C   UNL     1       4.362  -3.741  -0.859  1.00  0.00     0.327 C 
ATOM     29  O   UNL     1       4.121  -4.937  -0.797  1.00  0.00    -0.250 OA
BRANCH  28  30
ATOM     30  O   UNL     1       4.110  -3.052  -1.990  1.00  0.00    -0.480 OA
ATOM     31  H   UNL     1       4.115  -3.733  -2.694  1.00  0.00     0.296 HD
ENDBRANCH  28  30
ENDBRANCH  13  28
ENDBRANCH  11  13
ENDBRANCH   8  11
ENDBRANCH   6   7
BRANCH   6  32
ATOM     32  C   UNL     1       2.562   1.328   3.622  1.00  0.00     0.037 C 
BRANCH  32  33
ATOM     33  C   UNL     1       1.283   0.492   3.477  1.00  0.00     0.026 C 
BRANCH  33  34
ATOM     34  C   UNL     1       0.550   0.767   2.163  1.00  0.00     0.146 C 
BRANCH  34  35
ATOM     35  N   UNL     1      -0.482  -0.244   1.981  1.00  0.00    -0.254 NA
ATOM     36  C   UNL     1      -0.578  -0.826   0.844  1.00  0.00     0.185 C 
ATOM     37  N   UNL     1      -1.522  -1.763   0.666  1.00  0.00    -0.370 N 
ATOM     38  N   UNL     1       0.161  -0.641  -0.265  1.00  0.00    -0.370 N 
ATOM     39  H   UNL     1      -2.114  -1.968   1.461  1.00  0.00     0.159 HD
ATOM     40  H   UNL     1      -1.550  -2.381  -0.126  1.00  0.00     0.159 HD
ATOM     41  H   UNL     1      -0.102  -1.061  -1.142  1.00  0.00     0.159 HD
ATOM     42  H   UNL     1       0.898   0.046  -0.281  1.00  0.00     0.159 HD
ENDBRANCH  34  35
ENDBRANCH  33  34
ENDBRANCH  32  33
ENDBRANCH   6  32
ENDBRANCH   4   6
ENDBRANCH   1   2
BRANCH   1  43
ATOM     43  C   UNL     1       5.881   2.122   7.462  1.00  0.00     0.102 C 
ATOM     44  C   UNL     1       6.425   2.196   8.899  1.00  0.00     0.020 C 
BRANCH  43  45
ATOM     45  C   UNL     1       4.465   2.683   7.305  1.00  0.00     0.225 C 
ATOM     46  O   UNL     1       4.137   3.429   6.386  1.00  0.00    -0.275 OA
ATOM     47  N   UNL     1       3.588   2.372   8.319  1.00  0.00    -0.342 N 
ATOM     48  H   UNL     1       3.824   1.643   8.978  1.00  0.00     0.164 HD
BRANCH  47  49
ATOM     49  C   UNL     1       2.190   2.811   8.284  1.00  0.00     0.192 C 
BRANCH  49  50
ATOM     50  C   UNL     1       1.588   2.501   6.911  1.00  0.00     0.047 C 
BRANCH  50  51
ATOM     51  C   UNL     1       0.351   1.598   7.009  1.00  0.00     0.103 C 
BRANCH  51  52
ATOM     52  C   UNL     1      -0.792   2.270   7.767  1.00  0.00     0.226 C 
ATOM     53  O   UNL     1      -0.909   2.088   8.981  1.00  0.00    -0.275 OA
BRANCH  52  54
ATOM     54  N   UNL     1      -1.614   3.136   7.023  1.00  0.00    -0.311 N 
ATOM     55  C   UNL     1      -1.182   4.505   6.709  1.00  0.00     0.153 C 
BRANCH  54  56
ATOM     56  C   UNL     1      -2.871   2.726   6.550  1.00  0.00     0.102 C 
ATOM     57  C   UNL     1      -3.148   2.417   5.272  1.00  0.00     0.043 C 
BRANCH  56  58
ATOM     58  C   UNL     1      -4.037   2.554   7.495  1.00  0.00     0.268 C 
ATOM     59  O   UNL     1      -4.672   1.513   7.593  1.00  0.00    -0.268 OA
ATOM     60  N   UNL     1      -4.267   3.662   8.276  1.00  0.00    -0.339 N 
ATOM     61  H   UNL     1      -3.703   4.489   8.126  1.00  0.00     0.164 HD
BRANCH  60  62
ATOM     62  C   UNL     1      -5.308   3.688   9.302  1.00  0.00     0.168 CG0
ATOM     63  C   UNL     1      -6.473   4.574   8.877  1.00  0.00     0.041 C 
ATOM     64  G   UNL     1      -4.707   4.179  10.635  1.00  0.00     0.000 G0
ENDBRANCH  60  62
ENDBRANCH  56  58
ENDBRANCH  54  56
ENDBRANCH  52  54
ENDBRANCH  51  52
ENDBRANCH  50  51
ENDBRANCH  49  50
BRANCH  49  65
ATOM     65  C   UNL     1       2.060   4.315   8.569  1.00  0.00     0.326 C 
ATOM     66  O   UNL     1       1.779   4.812   9.649  1.00  0.00    -0.250 OA
BRANCH  65  67
ATOM     67  O   UNL     1       2.227   5.110   7.489  1.00  0.00    -0.480 OA
ATOM     68  H   UNL     1       2.135   6.017   7.852  1.00  0.00     0.296 HD
ENDBRANCH  65  67
ENDBRANCH  49  65
ENDBRANCH  47  49
ENDBRANCH  43  45
ENDBRANCH   1  43
BRANCH   1  69
ATOM     69  C   UNL     1       7.366   0.067   6.699  1.00  0.00    -0.001 C 
ATOM     70  C   UNL     1       7.740  -1.158   7.108  1.00  0.00     0.001 C 
BRANCH  70  71
ATOM     71  C   UNL     1       9.062  -1.770   6.957  1.00  0.00    -0.055 C 
ATOM     72  C   UNL     1      10.126  -0.947   6.848  1.00  0.00    -0.018 C 
ATOM     73  C   UNL     1       9.141  -3.275   6.943  1.00  0.00     0.044 C 
BRANCH  72  74
ATOM     74  C   UNL     1      11.599  -1.294   6.686  1.00  0.00     0.038 C 
ATOM     75  C   UNL     1      12.198  -1.394   8.094  1.00  0.00     0.015 C 
BRANCH  74  76
ATOM     76  C   UNL     1      12.266  -0.230   5.766  1.00  0.00     0.128 C 
BRANCH  76  77
ATOM     77  O   UNL     1      11.488  -0.059   4.569  1.00  0.00    -0.381 OA
ATOM     78  C   UNL     1      12.273   0.156   3.404  1.00  0.00     0.195 C 
ENDBRANCH  76  77
BRANCH  76  79
ATOM     79  C   UNL     1      12.575   1.112   6.477  1.00  0.00     0.068 C 
BRANCH  79  80
ATOM     80  C   UNL     1      11.415   2.014   6.820  1.00  0.00    -0.045 A 
ATOM     81  C   UNL     1      10.764   2.761   5.829  1.00  0.00     0.004 A 
ATOM     82  C   UNL     1      10.986   2.141   8.150  1.00  0.00     0.004 A 
ATOM     83  C   UNL     1       9.700   3.604   6.156  1.00  0.00     0.000 A 
ATOM     84  C   UNL     1       9.923   2.986   8.476  1.00  0.00     0.000 A 
ATOM     85  C   UNL     1       9.279   3.715   7.480  1.00  0.00     0.000 A 
ENDBRANCH  79  80
ENDBRANCH  76  79
ENDBRANCH  74  76
ENDBRANCH  72  74
ENDBRANCH  70  71
ENDBRANCH   1  69
TORSDOF 17
ENDMDL
MODEL 5
REMARK VINA RESULT:    -5.736     10.891     18.085
REMARK INTER + INTRA:         -23.402
REMARK INTER:                 -15.491
REMARK INTRA:                  -7.910
REMARK UNBOUND:                -6.266
REMARK SMILES C=C1C(=O)N[C@H](C)C(=O)N[C@@H](CC(C)C)C(=O)N[C@@H](C(=O)O)[C@H](C)C(=O)N[C@@H](CCCN=C(N)N)C(=O)N[C@@H](/C=C/C(C)=C/[C@H](C)[C@H](Cc2ccccc2)OC)[C@H](C)C(=O)N[C@@H](C(=O)O)CCC(=O)N1C
REMARK SMILES IDX 39 1 38 2 37 3 36 4 28 6 27 7 25 8 26 9 23 11 24 12 19 13
REMARK SMILES IDX 18 14 16 15 17 16 11 18 10 19 8 20 9 21 12 24 13 25 14 26
REMARK SMILES IDX 15 27 20 28 21 29 22 30 29 32 30 33 31 34 32 35 33 36 34 37
REMARK SMILES IDX 35 38 57 43 58 44 59 45 60 46 61 47 62 49 66 50 67 51 68 52
REMARK SMILES IDX 69 53 70 54 71 55 2 56 1 57 3 58 4 59 5 60 6 62 7 63 63 65
REMARK SMILES IDX 64 66 65 67 40 69 41 70 42 71 44 72 43 73 45 74 46 75 47 76
REMARK SMILES IDX 55 77 56 78 48 79 49 80 50 81 54 82 51 83 53 84 52 85
REMARK H PARENT 38 5 27 10 18 17 10 22 22 31 34 39 34 40 35 41 35 42 61 48
REMARK H PARENT 5 61 65 68
REMARK Flexibility Score:  369.900
ROOT
ATOM      1  C   UNL     1       6.266  -0.644   6.063  1.00  0.00     0.117 C 
ENDROOT
BRANCH   1   2
ATOM      2  N   UNL     1       5.660  -0.745   4.735  1.00  0.00    -0.347 N 
ATOM      3  O   UNL     1       3.520  -0.159   5.323  1.00  0.00    -0.273 OA
ATOM      4  C   UNL     1       4.350  -0.404   4.455  1.00  0.00     0.243 C 
ATOM      5  H   UNL     1       6.228  -1.032   3.952  1.00  0.00     0.164 HD
BRANCH   4   6
ATOM      6  C   UNL     1       3.983  -0.521   2.954  1.00  0.00     0.171 C 
BRANCH   6   7
ATOM      7  N   UNL     1       4.152  -1.908   2.490  1.00  0.00    -0.344 N 
ATOM      8  C   UNL     1       5.149  -2.233   1.596  1.00  0.00     0.226 C 
ATOM      9  O   UNL     1       5.918  -1.400   1.132  1.00  0.00    -0.275 OA
ATOM     10  H   UNL     1       3.493  -2.612   2.798  1.00  0.00     0.164 HD
BRANCH   8  11
ATOM     11  C   UNL     1       5.227  -3.712   1.257  1.00  0.00     0.109 C 
ATOM     12  C   UNL     1       3.832  -4.253   0.942  1.00  0.00     0.021 C 
BRANCH  11  13
ATOM     13  C   UNL     1       6.276  -3.938   0.150  1.00  0.00     0.204 C 
BRANCH  13  14
ATOM     14  N   UNL     1       7.644  -3.745   0.640  1.00  0.00    -0.340 N 
ATOM     15  C   UNL     1       8.591  -3.020  -0.052  1.00  0.00     0.243 C 
ATOM     16  O   UNL     1       8.336  -2.432  -1.101  1.00  0.00    -0.273 OA
ATOM     17  H   UNL     1       7.962  -4.327   1.419  1.00  0.00     0.164 HD
BRANCH  15  18
ATOM     18  C   UNL     1      10.014  -3.128   0.550  1.00  0.00     0.171 C 
BRANCH  18  19
ATOM     19  N   UNL     1      10.929  -2.552  -0.433  1.00  0.00    -0.343 N 
ATOM     20  C   UNL     1      11.673  -3.343  -1.286  1.00  0.00     0.242 CG0
ATOM     21  O   UNL     1      11.701  -4.566  -1.170  1.00  0.00    -0.273 OA
ATOM     22  H   UNL     1      11.028  -1.545  -0.490  1.00  0.00     0.164 HD
ATOM     23  G   UNL     1      12.522  -2.556  -2.307  1.00  0.00     0.000 G0
ENDBRANCH  18  19
BRANCH  18  24
ATOM     24  C   UNL     1      10.091  -2.387   1.891  1.00  0.00     0.038 C 
BRANCH  24  25
ATOM     25  C   UNL     1       9.774  -0.879   1.814  1.00  0.00    -0.015 C 
ATOM     26  C   UNL     1      11.033  -0.013   1.866  1.00  0.00     0.007 C 
ATOM     27  C   UNL     1       8.834  -0.491   2.959  1.00  0.00     0.007 C 
ENDBRANCH  24  25
ENDBRANCH  18  24
ENDBRANCH  15  18
ENDBRANCH  13  14
BRANCH  13  28
ATOM     28  C   UNL     1       6.208  -5.338  -0.468  1.00  0.00     0.327 C 
ATOM     29  O   UNL     1       5.543  -5.669  -1.437  1.00  0.00    -0.250 OA
BRANCH  28  30
ATOM     30  O   UNL     1       6.888  -6.263   0.241  1.00  0.00    -0.480 OA
ATOM     31  H   UNL     1       6.343  -7.073   0.165  1.00  0.00     0.296 HD
ENDBRANCH  28  30
ENDBRANCH  13  28
ENDBRANCH  11  13
ENDBRANCH   8  11
ENDBRANCH   6   7
BRANCH   6  32
ATOM     32  C   UNL     1       2.540  -0.047   2.750  1.00  0.00     0.037 C 
BRANCH  32  33
ATOM     33  C   UNL     1       2.418   0.962   1.600  1.00  0.00     0.026 C 
BRANCH  33  34
ATOM     34  C   UNL     1       3.772   1.540   1.183  1.00  0.00     0.146 C 
BRANCH  34  35
ATOM     35  N   UNL     1       3.666   2.048  -0.177  1.00  0.00    -0.254 NA
ATOM     36  C   UNL     1       4.412   1.536  -1.084  1.00  0.00     0.185 C 
ATOM     37  N   UNL     1       4.319   1.993  -2.342  1.00  0.00    -0.370 N 
ATOM     38  N   UNL     1       5.325   0.554  -0.972  1.00  0.00    -0.370 N 
ATOM     39  H   UNL     1       3.644   2.728  -2.510  1.00  0.00     0.159 HD
ATOM     40  H   UNL     1       4.735   1.533  -3.134  1.00  0.00     0.159 HD
ATOM     41  H   UNL     1       5.948   0.334  -1.732  1.00  0.00     0.159 HD
ATOM     42  H   UNL     1       5.511   0.127  -0.079  1.00  0.00     0.159 HD
ENDBRANCH  34  35
ENDBRANCH  33  34
ENDBRANCH  32  33
ENDBRANCH   6  32
ENDBRANCH   4   6
ENDBRANCH   1   2
BRANCH   1  43
ATOM     43  C   UNL     1       6.697   0.833   6.299  1.00  0.00     0.102 C 
ATOM     44  C   UNL     1       8.189   0.988   6.637  1.00  0.00     0.020 C 
BRANCH  43  45
ATOM     45  C   UNL     1       5.759   1.527   7.291  1.00  0.00     0.225 C 
ATOM     46  O   UNL     1       5.904   1.463   8.509  1.00  0.00    -0.275 OA
ATOM     47  N   UNL     1       4.673   2.161   6.735  1.00  0.00    -0.342 N 
ATOM     48  H   UNL     1       4.650   2.335   5.739  1.00  0.00     0.164 HD
BRANCH  47  49
ATOM     49  C   UNL     1       3.710   2.898   7.559  1.00  0.00     0.192 C 
BRANCH  49  50
ATOM     50  C   UNL     1       2.307   2.754   6.965  1.00  0.00     0.047 C 
BRANCH  50  51
ATOM     51  C   UNL     1       1.426   1.796   7.778  1.00  0.00     0.103 C 
BRANCH  51  52
ATOM     52  C   UNL     1       0.294   2.529   8.497  1.00  0.00     0.226 C 
ATOM     53  O   UNL     1       0.319   2.636   9.724  1.00  0.00    -0.275 OA
BRANCH  52  54
ATOM     54  N   UNL     1      -0.692   3.113   7.680  1.00  0.00    -0.311 N 
ATOM     55  C   UNL     1      -0.717   4.563   7.445  1.00  0.00     0.153 C 
BRANCH  54  56
ATOM     56  C   UNL     1      -1.682   2.336   7.057  1.00  0.00     0.102 C 
ATOM     57  C   UNL     1      -1.604   1.850   5.807  1.00  0.00     0.043 C 
BRANCH  56  58
ATOM     58  C   UNL     1      -2.937   1.939   7.798  1.00  0.00     0.268 C 
ATOM     59  O   UNL     1      -3.018   1.927   9.019  1.00  0.00    -0.268 OA
ATOM     60  N   UNL     1      -3.992   1.659   6.963  1.00  0.00    -0.339 N 
ATOM     61  H   UNL     1      -3.840   1.681   5.962  1.00  0.00     0.164 HD
BRANCH  60  62
ATOM     62  C   UNL     1      -5.318   1.314   7.473  1.00  0.00     0.168 CG0
ATOM     63  C   UNL     1      -6.256   0.922   6.337  1.00  0.00     0.041 C 
ATOM     64  G   UNL     1      -5.892   2.504   8.269  1.00  0.00     0.000 G0
ENDBRANCH  60  62
ENDBRANCH  56  58
ENDBRANCH  54  56
ENDBRANCH  52  54
ENDBRANCH  51  52
ENDBRANCH  50  51
ENDBRANCH  49  50
BRANCH  49  65
ATOM     65  C   UNL     1       4.071   4.389   7.657  1.00  0.00     0.326 C 
ATOM     66  O   UNL     1       4.767   4.896   8.524  1.00  0.00    -0.250 OA
BRANCH  65  67
ATOM     67  O   UNL     1       3.502   5.170   6.712  1.00  0.00    -0.480 OA
ATOM     68  H   UNL     1       3.692   6.082   7.021  1.00  0.00     0.296 HD
ENDBRANCH  65  67
ENDBRANCH  49  65
ENDBRANCH  47  49
ENDBRANCH  43  45
ENDBRANCH   1  43
BRANCH   1  69
ATOM     69  C   UNL     1       7.319  -1.735   6.132  1.00  0.00    -0.001 C 
ATOM     70  C   UNL     1       7.462  -2.786   5.305  1.00  0.00     0.001 C 
BRANCH  70  71
ATOM     71  C   UNL     1       8.495  -3.821   5.370  1.00  0.00    -0.055 C 
ATOM     72  C   UNL     1       9.296  -3.843   6.456  1.00  0.00    -0.018 C 
ATOM     73  C   UNL     1       8.587  -4.794   4.223  1.00  0.00     0.044 C 
BRANCH  72  74
ATOM     74  C   UNL     1      10.437  -4.791   6.793  1.00  0.00     0.038 C 
ATOM     75  C   UNL     1       9.861  -5.894   7.690  1.00  0.00     0.015 C 
BRANCH  74  76
ATOM     76  C   UNL     1      11.598  -3.972   7.430  1.00  0.00     0.128 C 
BRANCH  76  77
ATOM     77  O   UNL     1      12.649  -3.779   6.468  1.00  0.00    -0.381 OA
ATOM     78  C   UNL     1      12.598  -4.688   5.377  1.00  0.00     0.195 C 
ENDBRANCH  76  77
BRANCH  76  79
ATOM     79  C   UNL     1      11.143  -2.648   8.095  1.00  0.00     0.068 C 
BRANCH  79  80
ATOM     80  C   UNL     1      11.566  -1.351   7.449  1.00  0.00    -0.045 A 
ATOM     81  C   UNL     1      12.278  -0.384   8.170  1.00  0.00     0.004 A 
ATOM     82  C   UNL     1      11.224  -1.081   6.115  1.00  0.00     0.004 A 
ATOM     83  C   UNL     1      12.653   0.820   7.569  1.00  0.00     0.000 A 
ATOM     84  C   UNL     1      11.599   0.123   5.515  1.00  0.00     0.000 A 
ATOM     85  C   UNL     1      12.314   1.072   6.241  1.00  0.00     0.000 A 
ENDBRANCH  79  80
ENDBRANCH  76  79
ENDBRANCH  74  76
ENDBRANCH  72  74
ENDBRANCH  70  71
ENDBRANCH   1  69
TORSDOF 17
ENDMDL
MODEL 6
REMARK VINA RESULT:    -5.732     12.531     17.834
REMARK INTER + INTRA:         -23.392
REMARK INTER:                 -16.596
REMARK INTRA:                  -6.796
REMARK UNBOUND:                -6.266
REMARK SMILES C=C1C(=O)N[C@H](C)C(=O)N[C@@H](CC(C)C)C(=O)N[C@@H](C(=O)O)[C@H](C)C(=O)N[C@@H](CCCN=C(N)N)C(=O)N[C@@H](/C=C/C(C)=C/[C@H](C)[C@H](Cc2ccccc2)OC)[C@H](C)C(=O)N[C@@H](C(=O)O)CCC(=O)N1C
REMARK SMILES IDX 39 1 38 2 37 3 36 4 28 6 27 7 25 8 26 9 23 11 24 12 19 13
REMARK SMILES IDX 18 14 16 15 17 16 11 18 10 19 8 20 9 21 12 24 13 25 14 26
REMARK SMILES IDX 15 27 20 28 21 29 22 30 29 32 30 33 31 34 32 35 33 36 34 37
REMARK SMILES IDX 35 38 57 43 58 44 59 45 60 46 61 47 62 49 66 50 67 51 68 52
REMARK SMILES IDX 69 53 70 54 71 55 2 56 1 57 3 58 4 59 5 60 6 62 7 63 63 65
REMARK SMILES IDX 64 66 65 67 40 69 41 70 42 71 44 72 43 73 45 74 46 75 47 76
REMARK SMILES IDX 55 77 56 78 48 79 49 80 50 81 54 82 51 83 53 84 52 85
REMARK H PARENT 38 5 27 10 18 17 10 22 22 31 34 39 34 40 35 41 35 42 61 48
REMARK H PARENT 5 61 65 68
REMARK Flexibility Score:  369.900
ROOT
ATOM      1  C   UNL     1      -3.266   0.637   1.497  1.00  0.00     0.117 C 
ENDROOT
BRANCH   1   2
ATOM      2  N   UNL     1      -1.944   0.520   2.113  1.00  0.00    -0.347 N 
ATOM      3  O   UNL     1      -1.279  -1.409   1.062  1.00  0.00    -0.273 OA
ATOM      4  C   UNL     1      -1.017  -0.447   1.776  1.00  0.00     0.243 C 
ATOM      5  H   UNL     1      -1.652   1.207   2.791  1.00  0.00     0.164 HD
BRANCH   4   6
ATOM      6  C   UNL     1       0.338  -0.296   2.514  1.00  0.00     0.171 C 
BRANCH   6   7
ATOM      7  N   UNL     1       0.118  -0.070   3.951  1.00  0.00    -0.344 N 
ATOM      8  C   UNL     1       0.510   1.110   4.545  1.00  0.00     0.226 C 
ATOM      9  O   UNL     1       1.072   2.006   3.926  1.00  0.00    -0.275 OA
ATOM     10  H   UNL     1      -0.282  -0.814   4.509  1.00  0.00     0.164 HD
BRANCH   8  11
ATOM     11  C   UNL     1       0.165   1.212   6.021  1.00  0.00     0.109 C 
ATOM     12  C   UNL     1      -0.539  -0.063   6.486  1.00  0.00     0.021 C 
BRANCH  11  13
ATOM     13  C   UNL     1       1.425   1.587   6.826  1.00  0.00     0.204 C 
BRANCH  13  14
ATOM     14  N   UNL     1       2.658   1.210   6.129  1.00  0.00    -0.340 N 
ATOM     15  C   UNL     1       3.423   0.125   6.496  1.00  0.00     0.243 C 
ATOM     16  O   UNL     1       3.092  -0.642   7.399  1.00  0.00    -0.273 OA
ATOM     17  H   UNL     1       3.066   1.884   5.476  1.00  0.00     0.164 HD
BRANCH  15  18
ATOM     18  C   UNL     1       4.780   0.045   5.755  1.00  0.00     0.171 C 
BRANCH  18  19
ATOM     19  N   UNL     1       5.621  -0.876   6.517  1.00  0.00    -0.343 N 
ATOM     20  C   UNL     1       6.687  -0.431   7.276  1.00  0.00     0.242 CG0
ATOM     21  O   UNL     1       7.059   0.739   7.239  1.00  0.00    -0.273 OA
ATOM     22  H   UNL     1       5.424  -1.870   6.487  1.00  0.00     0.164 HD
ATOM     23  G   UNL     1       7.407  -1.539   8.073  1.00  0.00     0.000 G0
ENDBRANCH  18  19
BRANCH  18  24
ATOM     24  C   UNL     1       4.582  -0.438   4.313  1.00  0.00     0.038 C 
BRANCH  24  25
ATOM     25  C   UNL     1       5.480   0.261   3.270  1.00  0.00    -0.015 C 
ATOM     26  C   UNL     1       6.638  -0.623   2.808  1.00  0.00     0.007 C 
ATOM     27  C   UNL     1       6.028   1.565   3.854  1.00  0.00     0.007 C 
ENDBRANCH  24  25
ENDBRANCH  18  24
ENDBRANCH  15  18
ENDBRANCH  13  14
BRANCH  13  28
ATOM     28  C   UNL     1       1.519   3.084   7.137  1.00  0.00     0.327 C 
ATOM     29  O   UNL     1       1.032   3.654   8.101  1.00  0.00    -0.250 OA
BRANCH  28  30
ATOM     30  O   UNL     1       2.116   3.791   6.156  1.00  0.00    -0.480 OA
ATOM     31  H   UNL     1       1.555   4.588   6.057  1.00  0.00     0.296 HD
ENDBRANCH  28  30
ENDBRANCH  13  28
ENDBRANCH  11  13
ENDBRANCH   8  11
ENDBRANCH   6   7
BRANCH   6  32
ATOM     32  C   UNL     1       1.181  -1.554   2.280  1.00  0.00     0.037 C 
BRANCH  32  33
ATOM     33  C   UNL     1       2.250  -1.342   1.199  1.00  0.00     0.026 C 
BRANCH  33  34
ATOM     34  C   UNL     1       3.456  -2.266   1.379  1.00  0.00     0.146 C 
BRANCH  34  35
ATOM     35  N   UNL     1       3.654  -3.024   0.151  1.00  0.00    -0.254 NA
ATOM     36  C   UNL     1       4.085  -4.228   0.235  1.00  0.00     0.185 C 
ATOM     37  N   UNL     1       4.267  -4.937  -0.889  1.00  0.00    -0.370 N 
ATOM     38  N   UNL     1       4.402  -4.937   1.333  1.00  0.00    -0.370 N 
ATOM     39  H   UNL     1       4.039  -4.474  -1.760  1.00  0.00     0.159 HD
ATOM     40  H   UNL     1       4.432  -5.929  -0.901  1.00  0.00     0.159 HD
ATOM     41  H   UNL     1       4.863  -5.829   1.262  1.00  0.00     0.159 HD
ATOM     42  H   UNL     1       4.329  -4.523   2.249  1.00  0.00     0.159 HD
ENDBRANCH  34  35
ENDBRANCH  33  34
ENDBRANCH  32  33
ENDBRANCH   6  32
ENDBRANCH   4   6
ENDBRANCH   1   2
BRANCH   1  43
ATOM     43  C   UNL     1      -3.124   1.426   0.164  1.00  0.00     0.102 C 
ATOM     44  C   UNL     1      -3.998   2.690   0.104  1.00  0.00     0.020 C 
BRANCH  43  45
ATOM     45  C   UNL     1      -3.288   0.499  -1.045  1.00  0.00     0.225 C 
ATOM     46  O   UNL     1      -3.072   0.857  -2.199  1.00  0.00    -0.275 OA
ATOM     47  N   UNL     1      -3.790  -0.752  -0.767  1.00  0.00    -0.342 N 
ATOM     48  H   UNL     1      -3.817  -1.079   0.188  1.00  0.00     0.164 HD
BRANCH  47  49
ATOM     49  C   UNL     1      -3.967  -1.757  -1.820  1.00  0.00     0.192 C 
BRANCH  49  50
ATOM     50  C   UNL     1      -5.454  -2.082  -1.976  1.00  0.00     0.047 C 
BRANCH  50  51
ATOM     51  C   UNL     1      -6.350  -1.079  -1.236  1.00  0.00     0.103 C 
BRANCH  51  52
ATOM     52  C   UNL     1      -7.377  -0.434  -2.165  1.00  0.00     0.226 C 
ATOM     53  O   UNL     1      -7.019   0.439  -2.958  1.00  0.00    -0.275 OA
BRANCH  52  54
ATOM     54  N   UNL     1      -8.686  -0.946  -2.103  1.00  0.00    -0.311 N 
ATOM     55  C   UNL     1      -9.494  -0.811  -0.884  1.00  0.00     0.153 C 
BRANCH  54  56
ATOM     56  C   UNL     1      -9.270  -1.597  -3.202  1.00  0.00     0.102 C 
ATOM     57  C   UNL     1      -9.094  -2.892  -3.511  1.00  0.00     0.043 C 
BRANCH  56  58
ATOM     58  C   UNL     1     -10.213  -0.863  -4.127  1.00  0.00     0.268 C 
ATOM     59  O   UNL     1     -11.413  -1.100  -4.185  1.00  0.00    -0.268 OA
ATOM     60  N   UNL     1      -9.600   0.137  -4.842  1.00  0.00    -0.339 N 
ATOM     61  H   UNL     1      -8.599   0.262  -4.745  1.00  0.00     0.164 HD
BRANCH  60  62
ATOM     62  C   UNL     1     -10.340   1.012  -5.750  1.00  0.00     0.168 CG0
ATOM     63  C   UNL     1      -9.472   1.438  -6.928  1.00  0.00     0.041 C 
ATOM     64  G   UNL     1     -10.852   2.245  -4.976  1.00  0.00     0.000 G0
ENDBRANCH  60  62
ENDBRANCH  56  58
ENDBRANCH  54  56
ENDBRANCH  52  54
ENDBRANCH  51  52
ENDBRANCH  50  51
ENDBRANCH  49  50
BRANCH  49  65
ATOM     65  C   UNL     1      -3.194  -3.047  -1.507  1.00  0.00     0.326 C 
ATOM     66  O   UNL     1      -2.722  -3.812  -2.336  1.00  0.00    -0.250 OA
BRANCH  65  67
ATOM     67  O   UNL     1      -3.103  -3.345  -0.192  1.00  0.00    -0.480 OA
ATOM     68  H   UNL     1      -2.173  -3.643  -0.086  1.00  0.00     0.296 HD
ENDBRANCH  65  67
ENDBRANCH  49  65
ENDBRANCH  47  49
ENDBRANCH  43  45
ENDBRANCH   1  43
BRANCH   1  69
ATOM     69  C   UNL     1      -4.189   1.177   2.574  1.00  0.00    -0.001 C 
ATOM     70  C   UNL     1      -5.478   0.857   2.781  1.00  0.00     0.001 C 
BRANCH  70  71
ATOM     71  C   UNL     1      -6.353   1.369   3.838  1.00  0.00    -0.055 C 
ATOM     72  C   UNL     1      -6.144   0.926   5.095  1.00  0.00    -0.018 C 
ATOM     73  C   UNL     1      -7.419   2.360   3.448  1.00  0.00     0.044 C 
BRANCH  72  74
ATOM     74  C   UNL     1      -6.884   1.281   6.377  1.00  0.00     0.038 C 
ATOM     75  C   UNL     1      -5.918   2.094   7.247  1.00  0.00     0.015 C 
BRANCH  74  76
ATOM     76  C   UNL     1      -7.408  -0.031   7.033  1.00  0.00     0.128 C 
BRANCH  76  77
ATOM     77  O   UNL     1      -7.485   0.130   8.460  1.00  0.00    -0.381 OA
ATOM     78  C   UNL     1      -8.803   0.361   8.938  1.00  0.00     0.195 C 
ENDBRANCH  76  77
BRANCH  76  79
ATOM     79  C   UNL     1      -8.728  -0.560   6.417  1.00  0.00     0.068 C 
BRANCH  79  80
ATOM     80  C   UNL     1      -8.713  -1.928   5.780  1.00  0.00    -0.045 A 
ATOM     81  C   UNL     1      -7.972  -2.174   4.616  1.00  0.00     0.004 A 
ATOM     82  C   UNL     1      -9.468  -2.973   6.331  1.00  0.00     0.004 A 
ATOM     83  C   UNL     1      -7.974  -3.438   4.024  1.00  0.00     0.000 A 
ATOM     84  C   UNL     1      -9.470  -4.238   5.738  1.00  0.00     0.000 A 
ATOM     85  C   UNL     1      -8.723  -4.470   4.586  1.00  0.00     0.000 A 
ENDBRANCH  79  80
ENDBRANCH  76  79
ENDBRANCH  74  76
ENDBRANCH  72  74
ENDBRANCH  70  71
ENDBRANCH   1  69
TORSDOF 17
ENDMDL
MODEL 7
REMARK VINA RESULT:    -5.622     15.554     20.065
REMARK INTER + INTRA:         -23.061
REMARK INTER:                 -15.298
REMARK INTRA:                  -7.763
REMARK UNBOUND:                -6.266
REMARK SMILES C=C1C(=O)N[C@H](C)C(=O)N[C@@H](CC(C)C)C(=O)N[C@@H](C(=O)O)[C@H](C)C(=O)N[C@@H](CCCN=C(N)N)C(=O)N[C@@H](/C=C/C(C)=C/[C@H](C)[C@H](Cc2ccccc2)OC)[C@H](C)C(=O)N[C@@H](C(=O)O)CCC(=O)N1C
REMARK SMILES IDX 39 1 38 2 37 3 36 4 28 6 27 7 25 8 26 9 23 11 24 12 19 13
REMARK SMILES IDX 18 14 16 15 17 16 11 18 10 19 8 20 9 21 12 24 13 25 14 26
REMARK SMILES IDX 15 27 20 28 21 29 22 30 29 32 30 33 31 34 32 35 33 36 34 37
REMARK SMILES IDX 35 38 57 43 58 44 59 45 60 46 61 47 62 49 66 50 67 51 68 52
REMARK SMILES IDX 69 53 70 54 71 55 2 56 1 57 3 58 4 59 5 60 6 62 7 63 63 65
REMARK SMILES IDX 64 66 65 67 40 69 41 70 42 71 44 72 43 73 45 74 46 75 47 76
REMARK SMILES IDX 55 77 56 78 48 79 49 80 50 81 54 82 51 83 53 84 52 85
REMARK H PARENT 38 5 27 10 18 17 10 22 22 31 34 39 34 40 35 41 35 42 61 48
REMARK H PARENT 5 61 65 68
REMARK Flexibility Score:  369.900
ROOT
ATOM      1  C   UNL     1      -5.228   1.475   3.625  1.00  0.00     0.117 C 
ENDROOT
BRANCH   1   2
ATOM      2  N   UNL     1      -3.895   1.712   4.179  1.00  0.00    -0.347 N 
ATOM      3  O   UNL     1      -2.681   0.676   2.529  1.00  0.00    -0.273 OA
ATOM      4  C   UNL     1      -2.719   1.372   3.538  1.00  0.00     0.243 C 
ATOM      5  H   UNL     1      -3.804   2.196   5.059  1.00  0.00     0.164 HD
BRANCH   4   6
ATOM      6  C   UNL     1      -1.443   1.811   4.301  1.00  0.00     0.171 C 
BRANCH   6   7
ATOM      7  N   UNL     1      -1.596   1.563   5.743  1.00  0.00    -0.344 N 
ATOM      8  C   UNL     1      -1.944   2.586   6.599  1.00  0.00     0.226 C 
ATOM      9  O   UNL     1      -2.119   3.736   6.215  1.00  0.00    -0.275 OA
ATOM     10  H   UNL     1      -1.394   0.640   6.107  1.00  0.00     0.164 HD
BRANCH   8  11
ATOM     11  C   UNL     1      -2.116   2.160   8.046  1.00  0.00     0.109 C 
ATOM     12  C   UNL     1      -2.360   0.653   8.125  1.00  0.00     0.021 C 
BRANCH  11  13
ATOM     13  C   UNL     1      -0.926   2.668   8.884  1.00  0.00     0.204 C 
BRANCH  13  14
ATOM     14  N   UNL     1       0.345   2.561   8.160  1.00  0.00    -0.340 N 
ATOM     15  C   UNL     1       1.560   2.425   8.796  1.00  0.00     0.243 C 
ATOM     16  O   UNL     1       1.658   2.323  10.018  1.00  0.00    -0.273 OA
ATOM     17  H   UNL     1       0.350   2.789   7.162  1.00  0.00     0.164 HD
BRANCH  15  18
ATOM     18  C   UNL     1       2.774   2.541   7.842  1.00  0.00     0.171 C 
BRANCH  18  19
ATOM     19  N   UNL     1       3.746   3.407   8.506  1.00  0.00    -0.343 N 
ATOM     20  C   UNL     1       4.482   4.345   7.808  1.00  0.00     0.242 CG0
ATOM     21  O   UNL     1       4.451   4.405   6.581  1.00  0.00    -0.273 OA
ATOM     22  H   UNL     1       3.893   3.316   9.505  1.00  0.00     0.164 HD
ATOM     23  G   UNL     1       5.399   5.219   8.689  1.00  0.00     0.000 G0
ENDBRANCH  18  19
BRANCH  18  24
ATOM     24  C   UNL     1       3.364   1.157   7.546  1.00  0.00     0.038 C 
BRANCH  24  25
ATOM     25  C   UNL     1       2.884   0.521   6.224  1.00  0.00    -0.015 C 
ATOM     26  C   UNL     1       1.782  -0.517   6.440  1.00  0.00     0.007 C 
ATOM     27  C   UNL     1       4.069  -0.128   5.505  1.00  0.00     0.007 C 
ENDBRANCH  24  25
ENDBRANCH  18  24
ENDBRANCH  15  18
ENDBRANCH  13  14
BRANCH  13  28
ATOM     28  C   UNL     1      -1.076   4.128   9.322  1.00  0.00     0.327 C 
ATOM     29  O   UNL     1      -1.507   4.520  10.396  1.00  0.00    -0.250 OA
BRANCH  28  30
ATOM     30  O   UNL     1      -0.788   5.007   8.341  1.00  0.00    -0.480 OA
ATOM     31  H   UNL     1      -1.664   5.321   8.034  1.00  0.00     0.296 HD
ENDBRANCH  28  30
ENDBRANCH  13  28
ENDBRANCH  11  13
ENDBRANCH   8  11
ENDBRANCH   6   7
BRANCH   6  32
ATOM     32  C   UNL     1      -0.236   1.052   3.740  1.00  0.00     0.037 C 
BRANCH  32  33
ATOM     33  C   UNL     1       0.982   1.965   3.543  1.00  0.00     0.026 C 
BRANCH  33  34
ATOM     34  C   UNL     1       0.628   3.448   3.671  1.00  0.00     0.146 C 
BRANCH  34  35
ATOM     35  N   UNL     1       1.421   4.028   4.746  1.00  0.00    -0.254 NA
ATOM     36  C   UNL     1       0.945   5.029   5.388  1.00  0.00     0.185 C 
ATOM     37  N   UNL     1       1.665   5.569   6.384  1.00  0.00    -0.370 N 
ATOM     38  N   UNL     1      -0.229   5.663   5.216  1.00  0.00    -0.370 N 
ATOM     39  H   UNL     1       2.560   5.140   6.582  1.00  0.00     0.159 HD
ATOM     40  H   UNL     1       1.294   6.234   7.041  1.00  0.00     0.159 HD
ATOM     41  H   UNL     1      -0.429   6.527   5.693  1.00  0.00     0.159 HD
ATOM     42  H   UNL     1      -0.866   5.373   4.491  1.00  0.00     0.159 HD
ENDBRANCH  34  35
ENDBRANCH  33  34
ENDBRANCH  32  33
ENDBRANCH   6  32
ENDBRANCH   4   6
ENDBRANCH   1   2
BRANCH   1  43
ATOM     43  C   UNL     1      -5.531   2.581   2.573  1.00  0.00     0.102 C 
ATOM     44  C   UNL     1      -6.746   3.453   2.935  1.00  0.00     0.020 C 
BRANCH  43  45
ATOM     45  C   UNL     1      -5.586   1.996   1.159  1.00  0.00     0.225 C 
ATOM     46  O   UNL     1      -5.684   2.688   0.150  1.00  0.00    -0.275 OA
ATOM     47  N   UNL     1      -5.612   0.622   1.088  1.00  0.00    -0.342 N 
ATOM     48  H   UNL     1      -5.379   0.074   1.904  1.00  0.00     0.164 HD
BRANCH  47  49
ATOM     49  C   UNL     1      -5.628  -0.078  -0.200  1.00  0.00     0.192 C 
BRANCH  49  50
ATOM     50  C   UNL     1      -6.978  -0.773  -0.391  1.00  0.00     0.047 C 
BRANCH  50  51
ATOM     51  C   UNL     1      -8.142   0.225  -0.463  1.00  0.00     0.103 C 
BRANCH  51  52
ATOM     52  C   UNL     1      -9.061   0.123   0.753  1.00  0.00     0.226 C 
ATOM     53  O   UNL     1      -8.642   0.453   1.864  1.00  0.00    -0.275 OA
BRANCH  52  54
ATOM     54  N   UNL     1     -10.386  -0.282   0.505  1.00  0.00    -0.311 N 
ATOM     55  C   UNL     1     -11.435   0.703   0.212  1.00  0.00     0.153 C 
BRANCH  54  56
ATOM     56  C   UNL     1     -10.753  -1.638   0.523  1.00  0.00     0.102 C 
ATOM     57  C   UNL     1     -10.856  -2.391   1.630  1.00  0.00     0.043 C 
BRANCH  56  58
ATOM     58  C   UNL     1     -11.116  -2.360  -0.753  1.00  0.00     0.268 C 
ATOM     59  O   UNL     1     -12.137  -3.023  -0.880  1.00  0.00    -0.268 OA
ATOM     60  N   UNL     1     -10.220  -2.140  -1.771  1.00  0.00    -0.339 N 
ATOM     61  H   UNL     1      -9.393  -1.586  -1.582  1.00  0.00     0.164 HD
BRANCH  60  62
ATOM     62  C   UNL     1     -10.412  -2.694  -3.111  1.00  0.00     0.168 CG0
ATOM     63  C   UNL     1      -9.082  -2.835  -3.841  1.00  0.00     0.041 C 
ATOM     64  G   UNL     1     -11.379  -1.794  -3.908  1.00  0.00     0.000 G0
ENDBRANCH  60  62
ENDBRANCH  56  58
ENDBRANCH  54  56
ENDBRANCH  52  54
ENDBRANCH  51  52
ENDBRANCH  50  51
ENDBRANCH  49  50
BRANCH  49  65
ATOM     65  C   UNL     1      -4.502  -1.119  -0.294  1.00  0.00     0.326 C 
ATOM     66  O   UNL     1      -3.965  -1.672   0.655  1.00  0.00    -0.250 OA
BRANCH  65  67
ATOM     67  O   UNL     1      -4.066  -1.368  -1.549  1.00  0.00    -0.480 OA
ATOM     68  H   UNL     1      -3.128  -1.081  -1.529  1.00  0.00     0.296 HD
ENDBRANCH  65  67
ENDBRANCH  49  65
ENDBRANCH  47  49
ENDBRANCH  43  45
ENDBRANCH   1  43
BRANCH   1  69
ATOM     69  C   UNL     1      -6.159   1.318   4.813  1.00  0.00    -0.001 C 
ATOM     70  C   UNL     1      -7.066   0.346   5.018  1.00  0.00     0.001 C 
BRANCH  70  71
ATOM     71  C   UNL     1      -7.944   0.193   6.180  1.00  0.00    -0.055 C 
ATOM     72  C   UNL     1      -9.229   0.585   6.051  1.00  0.00    -0.018 C 
ATOM     73  C   UNL     1      -7.354  -0.397   7.434  1.00  0.00     0.044 C 
BRANCH  72  74
ATOM     74  C   UNL     1     -10.356   0.543   7.073  1.00  0.00     0.038 C 
ATOM     75  C   UNL     1      -9.959   1.475   8.224  1.00  0.00     0.015 C 
BRANCH  74  76
ATOM     76  C   UNL     1     -10.601  -0.938   7.487  1.00  0.00     0.128 C 
BRANCH  76  77
ATOM     77  O   UNL     1     -11.331  -0.987   8.725  1.00  0.00    -0.381 OA
ATOM     78  C   UNL     1     -10.612  -1.598   9.788  1.00  0.00     0.195 C 
ENDBRANCH  76  77
BRANCH  76  79
ATOM     79  C   UNL     1     -11.247  -1.804   6.377  1.00  0.00     0.068 C 
BRANCH  79  80
ATOM     80  C   UNL     1     -10.493  -3.022   5.902  1.00  0.00    -0.045 A 
ATOM     81  C   UNL     1     -10.976  -3.802   4.842  1.00  0.00     0.004 A 
ATOM     82  C   UNL     1      -9.304  -3.410   6.537  1.00  0.00     0.004 A 
ATOM     83  C   UNL     1     -10.280  -4.936   4.418  1.00  0.00     0.000 A 
ATOM     84  C   UNL     1      -8.609  -4.545   6.113  1.00  0.00     0.000 A 
ATOM     85  C   UNL     1      -9.096  -5.306   5.053  1.00  0.00     0.000 A 
ENDBRANCH  79  80
ENDBRANCH  76  79
ENDBRANCH  74  76
ENDBRANCH  72  74
ENDBRANCH  70  71
ENDBRANCH   1  69
TORSDOF 17
ENDMDL
MODEL 8
REMARK VINA RESULT:    -5.501      7.556     18.005
REMARK INTER + INTRA:         -22.700
REMARK INTER:                 -15.621
REMARK INTRA:                  -7.079
REMARK UNBOUND:                -6.266
REMARK SMILES C=C1C(=O)N[C@H](C)C(=O)N[C@@H](CC(C)C)C(=O)N[C@@H](C(=O)O)[C@H](C)C(=O)N[C@@H](CCCN=C(N)N)C(=O)N[C@@H](/C=C/C(C)=C/[C@H](C)[C@H](Cc2ccccc2)OC)[C@H](C)C(=O)N[C@@H](C(=O)O)CCC(=O)N1C
REMARK SMILES IDX 39 1 38 2 37 3 36 4 28 6 27 7 25 8 26 9 23 11 24 12 19 13
REMARK SMILES IDX 18 14 16 15 17 16 11 18 10 19 8 20 9 21 12 24 13 25 14 26
REMARK SMILES IDX 15 27 20 28 21 29 22 30 29 32 30 33 31 34 32 35 33 36 34 37
REMARK SMILES IDX 35 38 57 43 58 44 59 45 60 46 61 47 62 49 66 50 67 51 68 52
REMARK SMILES IDX 69 53 70 54 71 55 2 56 1 57 3 58 4 59 5 60 6 62 7 63 63 65
REMARK SMILES IDX 64 66 65 67 40 69 41 70 42 71 44 72 43 73 45 74 46 75 47 76
REMARK SMILES IDX 55 77 56 78 48 79 49 80 50 81 54 82 51 83 53 84 52 85
REMARK H PARENT 38 5 27 10 18 17 10 22 22 31 34 39 34 40 35 41 35 42 61 48
REMARK H PARENT 5 61 65 68
REMARK Flexibility Score:  369.900
ROOT
ATOM      1  C   UNL     1       2.460   0.167   6.057  1.00  0.00     0.117 C 
ENDROOT
BRANCH   1   2
ATOM      2  N   UNL     1       2.777   0.101   4.630  1.00  0.00    -0.347 N 
ATOM      3  O   UNL     1       1.064  -1.287   3.992  1.00  0.00    -0.273 OA
ATOM      4  C   UNL     1       1.997  -0.550   3.693  1.00  0.00     0.243 C 
ATOM      5  H   UNL     1       3.584   0.595   4.279  1.00  0.00     0.164 HD
BRANCH   4   6
ATOM      6  C   UNL     1       2.510  -0.394   2.239  1.00  0.00     0.171 C 
BRANCH   6   7
ATOM      7  N   UNL     1       3.138  -1.643   1.779  1.00  0.00    -0.344 N 
ATOM      8  C   UNL     1       4.328  -1.618   1.084  1.00  0.00     0.226 C 
ATOM      9  O   UNL     1       4.903  -0.574   0.799  1.00  0.00    -0.275 OA
ATOM     10  H   UNL     1       2.658  -2.521   1.937  1.00  0.00     0.164 HD
BRANCH   8  11
ATOM     11  C   UNL     1       4.874  -2.989   0.727  1.00  0.00     0.109 C 
ATOM     12  C   UNL     1       4.402  -4.025   1.748  1.00  0.00     0.021 C 
BRANCH  11  13
ATOM     13  C   UNL     1       4.532  -3.321  -0.739  1.00  0.00     0.204 C 
BRANCH  13  14
ATOM     14  N   UNL     1       5.198  -2.415  -1.680  1.00  0.00    -0.340 N 
ATOM     15  C   UNL     1       4.735  -2.191  -2.958  1.00  0.00     0.243 C 
ATOM     16  O   UNL     1       3.694  -2.691  -3.380  1.00  0.00    -0.273 OA
ATOM     17  H   UNL     1       6.141  -2.091  -1.448  1.00  0.00     0.164 HD
BRANCH  15  18
ATOM     18  C   UNL     1       5.710  -1.366  -3.833  1.00  0.00     0.171 C 
BRANCH  18  19
ATOM     19  N   UNL     1       5.019  -1.101  -5.094  1.00  0.00    -0.343 N 
ATOM     20  C   UNL     1       5.634  -1.292  -6.316  1.00  0.00     0.242 CG0
ATOM     21  O   UNL     1       6.829  -1.565  -6.399  1.00  0.00    -0.273 OA
ATOM     22  H   UNL     1       4.064  -0.762  -5.076  1.00  0.00     0.164 HD
ATOM     23  G   UNL     1       4.723  -1.036  -7.534  1.00  0.00     0.000 G0
ENDBRANCH  18  19
BRANCH  18  24
ATOM     24  C   UNL     1       6.104  -0.064  -3.124  1.00  0.00     0.038 C 
BRANCH  24  25
ATOM     25  C   UNL     1       7.600   0.043  -2.759  1.00  0.00    -0.015 C 
ATOM     26  C   UNL     1       8.374  -1.235  -3.082  1.00  0.00     0.007 C 
ATOM     27  C   UNL     1       7.744   0.372  -1.271  1.00  0.00     0.007 C 
ENDBRANCH  24  25
ENDBRANCH  18  24
ENDBRANCH  15  18
ENDBRANCH  13  14
BRANCH  13  28
ATOM     28  C   UNL     1       4.912  -4.750  -1.138  1.00  0.00     0.327 C 
ATOM     29  O   UNL     1       5.948  -5.329  -0.852  1.00  0.00    -0.250 OA
BRANCH  28  30
ATOM     30  O   UNL     1       4.019  -5.321  -1.973  1.00  0.00    -0.480 OA
ATOM     31  H   UNL     1       3.367  -4.611  -2.151  1.00  0.00     0.296 HD
ENDBRANCH  28  30
ENDBRANCH  13  28
ENDBRANCH  11  13
ENDBRANCH   8  11
ENDBRANCH   6   7
BRANCH   6  32
ATOM     32  C   UNL     1       1.339  -0.004   1.331  1.00  0.00     0.037 C 
BRANCH  32  33
ATOM     33  C   UNL     1       0.560  -1.229   0.831  1.00  0.00     0.026 C 
BRANCH  33  34
ATOM     34  C   UNL     1      -0.951  -1.074   1.008  1.00  0.00     0.146 C 
BRANCH  34  35
ATOM     35  N   UNL     1      -1.576  -1.029  -0.307  1.00  0.00    -0.254 NA
ATOM     36  C   UNL     1      -2.366  -1.979  -0.645  1.00  0.00     0.185 C 
ATOM     37  N   UNL     1      -2.952  -1.944  -1.852  1.00  0.00    -0.370 N 
ATOM     38  N   UNL     1      -2.726  -3.068   0.057  1.00  0.00    -0.370 N 
ATOM     39  H   UNL     1      -2.738  -1.147  -2.437  1.00  0.00     0.159 HD
ATOM     40  H   UNL     1      -3.708  -2.550  -2.120  1.00  0.00     0.159 HD
ATOM     41  H   UNL     1      -3.247  -3.815  -0.372  1.00  0.00     0.159 HD
ATOM     42  H   UNL     1      -2.350  -3.232   0.978  1.00  0.00     0.159 HD
ENDBRANCH  34  35
ENDBRANCH  33  34
ENDBRANCH  32  33
ENDBRANCH   6  32
ENDBRANCH   4   6
ENDBRANCH   1   2
BRANCH   1  43
ATOM     43  C   UNL     1       2.212   1.654   6.441  1.00  0.00     0.102 C 
ATOM     44  C   UNL     1       2.743   2.022   7.836  1.00  0.00     0.020 C 
BRANCH  43  45
ATOM     45  C   UNL     1       0.749   2.045   6.210  1.00  0.00     0.225 C 
ATOM     46  O   UNL     1      -0.076   1.289   5.705  1.00  0.00    -0.275 OA
ATOM     47  N   UNL     1       0.428   3.347   6.520  1.00  0.00    -0.342 N 
ATOM     48  H   UNL     1       1.068   3.903   7.069  1.00  0.00     0.164 HD
BRANCH  47  49
ATOM     49  C   UNL     1      -0.942   3.851   6.384  1.00  0.00     0.192 C 
BRANCH  49  50
ATOM     50  C   UNL     1      -0.909   5.331   5.992  1.00  0.00     0.047 C 
BRANCH  50  51
ATOM     51  C   UNL     1      -1.643   5.600   4.672  1.00  0.00     0.103 C 
BRANCH  51  52
ATOM     52  C   UNL     1      -2.939   6.380   4.885  1.00  0.00     0.226 C 
ATOM     53  O   UNL     1      -3.870   5.860   5.503  1.00  0.00    -0.275 OA
BRANCH  52  54
ATOM     54  N   UNL     1      -2.957   7.706   4.414  1.00  0.00    -0.311 N 
ATOM     55  C   UNL     1      -3.291   8.007   3.015  1.00  0.00     0.153 C 
BRANCH  54  56
ATOM     56  C   UNL     1      -2.662   8.788   5.260  1.00  0.00     0.102 C 
ATOM     57  C   UNL     1      -1.523   9.498   5.232  1.00  0.00     0.043 C 
BRANCH  56  58
ATOM     58  C   UNL     1      -3.671   9.276   6.274  1.00  0.00     0.268 C 
ATOM     59  O   UNL     1      -3.439  10.176   7.069  1.00  0.00    -0.268 OA
ATOM     60  N   UNL     1      -4.891   8.652   6.166  1.00  0.00    -0.339 N 
ATOM     61  H   UNL     1      -4.998   7.907   5.487  1.00  0.00     0.164 HD
BRANCH  60  62
ATOM     62  C   UNL     1      -6.029   9.015   7.008  1.00  0.00     0.168 CG0
ATOM     63  C   UNL     1      -6.612  10.359   6.590  1.00  0.00     0.041 C 
ATOM     64  G   UNL     1      -5.589   9.047   8.486  1.00  0.00     0.000 G0
ENDBRANCH  60  62
ENDBRANCH  56  58
ENDBRANCH  54  56
ENDBRANCH  52  54
ENDBRANCH  51  52
ENDBRANCH  50  51
ENDBRANCH  49  50
BRANCH  49  65
ATOM     65  C   UNL     1      -1.739   3.687   7.688  1.00  0.00     0.326 C 
ATOM     66  O   UNL     1      -1.288   3.283   8.750  1.00  0.00    -0.250 OA
BRANCH  65  67
ATOM     67  O   UNL     1      -3.055   3.975   7.584  1.00  0.00    -0.480 OA
ATOM     68  H   UNL     1      -3.300   4.267   8.489  1.00  0.00     0.296 HD
ENDBRANCH  65  67
ENDBRANCH  49  65
ENDBRANCH  47  49
ENDBRANCH  43  45
ENDBRANCH   1  43
BRANCH   1  69
ATOM     69  C   UNL     1       3.557  -0.602   6.771  1.00  0.00    -0.001 C 
ATOM     70  C   UNL     1       4.823  -0.790   6.360  1.00  0.00     0.001 C 
BRANCH  70  71
ATOM     71  C   UNL     1       5.879  -1.516   7.068  1.00  0.00    -0.055 C 
ATOM     72  C   UNL     1       6.989  -1.845   6.374  1.00  0.00    -0.018 C 
ATOM     73  C   UNL     1       5.656  -1.838   8.523  1.00  0.00     0.044 C 
BRANCH  72  74
ATOM     74  C   UNL     1       8.233  -2.586   6.842  1.00  0.00     0.038 C 
ATOM     75  C   UNL     1       9.357  -1.550   6.966  1.00  0.00     0.015 C 
BRANCH  74  76
ATOM     76  C   UNL     1       8.525  -3.750   5.850  1.00  0.00     0.128 C 
BRANCH  76  77
ATOM     77  O   UNL     1       8.735  -4.973   6.577  1.00  0.00    -0.381 OA
ATOM     78  C   UNL     1       8.926  -6.107   5.743  1.00  0.00     0.195 C 
ENDBRANCH  76  77
BRANCH  76  79
ATOM     79  C   UNL     1       7.472  -3.896   4.723  1.00  0.00     0.068 C 
BRANCH  79  80
ATOM     80  C   UNL     1       7.878  -3.506   3.322  1.00  0.00    -0.045 A 
ATOM     81  C   UNL     1       7.945  -2.161   2.938  1.00  0.00     0.004 A 
ATOM     82  C   UNL     1       8.168  -4.495   2.369  1.00  0.00     0.004 A 
ATOM     83  C   UNL     1       8.307  -1.809   1.636  1.00  0.00     0.000 A 
ATOM     84  C   UNL     1       8.529  -4.142   1.067  1.00  0.00     0.000 A 
ATOM     85  C   UNL     1       8.600  -2.800   0.701  1.00  0.00     0.000 A 
ENDBRANCH  79  80
ENDBRANCH  76  79
ENDBRANCH  74  76
ENDBRANCH  72  74
ENDBRANCH  70  71
ENDBRANCH   1  69
TORSDOF 17
ENDMDL
MODEL 9
REMARK VINA RESULT:    -5.457     14.408     21.799
REMARK INTER + INTRA:         -22.569
REMARK INTER:                 -15.864
REMARK INTRA:                  -6.705
REMARK UNBOUND:                -6.266
REMARK SMILES C=C1C(=O)N[C@H](C)C(=O)N[C@@H](CC(C)C)C(=O)N[C@@H](C(=O)O)[C@H](C)C(=O)N[C@@H](CCCN=C(N)N)C(=O)N[C@@H](/C=C/C(C)=C/[C@H](C)[C@H](Cc2ccccc2)OC)[C@H](C)C(=O)N[C@@H](C(=O)O)CCC(=O)N1C
REMARK SMILES IDX 39 1 38 2 37 3 36 4 28 6 27 7 25 8 26 9 23 11 24 12 19 13
REMARK SMILES IDX 18 14 16 15 17 16 11 18 10 19 8 20 9 21 12 24 13 25 14 26
REMARK SMILES IDX 15 27 20 28 21 29 22 30 29 32 30 33 31 34 32 35 33 36 34 37
REMARK SMILES IDX 35 38 57 43 58 44 59 45 60 46 61 47 62 49 66 50 67 51 68 52
REMARK SMILES IDX 69 53 70 54 71 55 2 56 1 57 3 58 4 59 5 60 6 62 7 63 63 65
REMARK SMILES IDX 64 66 65 67 40 69 41 70 42 71 44 72 43 73 45 74 46 75 47 76
REMARK SMILES IDX 55 77 56 78 48 79 49 80 50 81 54 82 51 83 53 84 52 85
REMARK H PARENT 38 5 27 10 18 17 10 22 22 31 34 39 34 40 35 41 35 42 61 48
REMARK H PARENT 5 61 65 68
REMARK Flexibility Score:  369.900
ROOT
ATOM      1  C   UNL     1      -4.549   1.896   7.551  1.00  0.00     0.117 C 
ENDROOT
BRANCH   1   2
ATOM      2  N   UNL     1      -4.555   1.443   6.159  1.00  0.00    -0.347 N 
ATOM      3  O   UNL     1      -4.553   3.508   5.157  1.00  0.00    -0.273 OA
ATOM      4  C   UNL     1      -4.464   2.288   5.070  1.00  0.00     0.243 C 
ATOM      5  H   UNL     1      -4.576   0.454   5.962  1.00  0.00     0.164 HD
BRANCH   4   6
ATOM      6  C   UNL     1      -4.404   1.547   3.710  1.00  0.00     0.171 C 
BRANCH   6   7
ATOM      7  N   UNL     1      -5.670   1.713   2.978  1.00  0.00    -0.344 N 
ATOM      8  C   UNL     1      -6.714   0.835   3.171  1.00  0.00     0.226 C 
ATOM      9  O   UNL     1      -6.638  -0.125   3.929  1.00  0.00    -0.275 OA
ATOM     10  H   UNL     1      -5.747   2.455   2.293  1.00  0.00     0.164 HD
BRANCH   8  11
ATOM     11  C   UNL     1      -7.969   1.172   2.385  1.00  0.00     0.109 C 
ATOM     12  C   UNL     1      -8.001   2.665   2.060  1.00  0.00     0.021 C 
BRANCH  11  13
ATOM     13  C   UNL     1      -8.085   0.240   1.163  1.00  0.00     0.204 C 
BRANCH  13  14
ATOM     14  N   UNL     1      -6.777  -0.250   0.716  1.00  0.00    -0.340 N 
ATOM     15  C   UNL     1      -6.047   0.365  -0.278  1.00  0.00     0.243 C 
ATOM     16  O   UNL     1      -6.415   1.406  -0.820  1.00  0.00    -0.273 OA
ATOM     17  H   UNL     1      -6.487  -1.185   1.014  1.00  0.00     0.164 HD
BRANCH  15  18
ATOM     18  C   UNL     1      -4.804  -0.444  -0.723  1.00  0.00     0.171 C 
BRANCH  18  19
ATOM     19  N   UNL     1      -4.929  -0.645  -2.165  1.00  0.00    -0.343 N 
ATOM     20  C   UNL     1      -5.828  -1.547  -2.700  1.00  0.00     0.242 CG0
ATOM     21  O   UNL     1      -6.468  -2.317  -1.987  1.00  0.00    -0.273 OA
ATOM     22  H   UNL     1      -4.338  -0.114  -2.794  1.00  0.00     0.164 HD
ATOM     23  G   UNL     1      -5.873  -1.563  -4.242  1.00  0.00     0.000 G0
ENDBRANCH  18  19
BRANCH  18  24
ATOM     24  C   UNL     1      -3.514   0.307  -0.370  1.00  0.00     0.038 C 
BRANCH  24  25
ATOM     25  C   UNL     1      -2.489  -0.516   0.438  1.00  0.00    -0.015 C 
ATOM     26  C   UNL     1      -1.121  -0.575  -0.241  1.00  0.00     0.007 C 
ATOM     27  C   UNL     1      -3.021  -1.936   0.649  1.00  0.00     0.007 C 
ENDBRANCH  24  25
ENDBRANCH  18  24
ENDBRANCH  15  18
ENDBRANCH  13  14
BRANCH  13  28
ATOM     28  C   UNL     1      -8.966  -0.987   1.420  1.00  0.00     0.327 C 
ATOM     29  O   UNL     1     -10.141  -1.111   1.111  1.00  0.00    -0.250 OA
BRANCH  28  30
ATOM     30  O   UNL     1      -8.349  -1.935   2.155  1.00  0.00    -0.480 OA
ATOM     31  H   UNL     1      -8.654  -2.779   1.762  1.00  0.00     0.296 HD
ENDBRANCH  28  30
ENDBRANCH  13  28
ENDBRANCH  11  13
ENDBRANCH   8  11
ENDBRANCH   6   7
BRANCH   6  32
ATOM     32  C   UNL     1      -3.225   2.088   2.894  1.00  0.00     0.037 C 
BRANCH  32  33
ATOM     33  C   UNL     1      -1.871   1.691   3.499  1.00  0.00     0.026 C 
BRANCH  33  34
ATOM     34  C   UNL     1      -0.718   2.537   2.959  1.00  0.00     0.146 C 
BRANCH  34  35
ATOM     35  N   UNL     1      -0.996   3.940   3.234  1.00  0.00    -0.254 NA
ATOM     36  C   UNL     1      -0.283   4.548   4.107  1.00  0.00     0.185 C 
ATOM     37  N   UNL     1      -0.527   5.842   4.365  1.00  0.00    -0.370 N 
ATOM     38  N   UNL     1       0.731   4.071   4.851  1.00  0.00    -0.370 N 
ATOM     39  H   UNL     1      -1.272   6.278   3.835  1.00  0.00     0.159 HD
ATOM     40  H   UNL     1       0.090   6.429   4.899  1.00  0.00     0.159 HD
ATOM     41  H   UNL     1       1.122   4.610   5.605  1.00  0.00     0.159 HD
ATOM     42  H   UNL     1       1.014   3.106   4.773  1.00  0.00     0.159 HD
ENDBRANCH  34  35
ENDBRANCH  33  34
ENDBRANCH  32  33
ENDBRANCH   6  32
ENDBRANCH   4   6
ENDBRANCH   1   2
BRANCH   1  43
ATOM     43  C   UNL     1      -3.429   1.133   8.315  1.00  0.00     0.102 C 
ATOM     44  C   UNL     1      -3.615   1.142   9.842  1.00  0.00     0.020 C 
BRANCH  43  45
ATOM     45  C   UNL     1      -2.041   1.587   7.856  1.00  0.00     0.225 C 
ATOM     46  O   UNL     1      -1.368   0.967   7.037  1.00  0.00    -0.275 OA
ATOM     47  N   UNL     1      -1.541   2.700   8.493  1.00  0.00    -0.342 N 
ATOM     48  H   UNL     1      -2.158   3.280   9.044  1.00  0.00     0.164 HD
BRANCH  47  49
ATOM     49  C   UNL     1      -0.240   3.270   8.131  1.00  0.00     0.192 C 
BRANCH  49  50
ATOM     50  C   UNL     1       0.868   2.560   8.914  1.00  0.00     0.047 C 
BRANCH  50  51
ATOM     51  C   UNL     1       2.024   2.112   8.009  1.00  0.00     0.103 C 
BRANCH  51  52
ATOM     52  C   UNL     1       3.210   3.072   8.076  1.00  0.00     0.226 C 
ATOM     53  O   UNL     1       3.118   4.111   8.733  1.00  0.00    -0.275 OA
BRANCH  52  54
ATOM     54  N   UNL     1       4.389   2.659   7.427  1.00  0.00    -0.311 N 
ATOM     55  C   UNL     1       4.508   2.722   5.964  1.00  0.00     0.153 C 
BRANCH  54  56
ATOM     56  C   UNL     1       5.493   2.179   8.150  1.00  0.00     0.102 C 
ATOM     57  C   UNL     1       5.664   0.904   8.536  1.00  0.00     0.043 C 
BRANCH  56  58
ATOM     58  C   UNL     1       6.636   3.096   8.520  1.00  0.00     0.268 C 
ATOM     59  O   UNL     1       7.812   2.769   8.433  1.00  0.00    -0.268 OA
ATOM     60  N   UNL     1       6.221   4.350   8.899  1.00  0.00    -0.339 N 
ATOM     61  H   UNL     1       5.227   4.538   8.956  1.00  0.00     0.164 HD
BRANCH  60  62
ATOM     62  C   UNL     1       7.165   5.414   9.238  1.00  0.00     0.168 CG0
ATOM     63  C   UNL     1       7.429   6.315   8.038  1.00  0.00     0.041 C 
ATOM     64  G   UNL     1       8.480   4.792   9.754  1.00  0.00     0.000 G0
ENDBRANCH  60  62
ENDBRANCH  56  58
ENDBRANCH  54  56
ENDBRANCH  52  54
ENDBRANCH  51  52
ENDBRANCH  50  51
ENDBRANCH  49  50
BRANCH  49  65
ATOM     65  C   UNL     1      -0.181   4.778   8.421  1.00  0.00     0.326 C 
ATOM     66  O   UNL     1       0.142   5.285   9.485  1.00  0.00    -0.250 OA
BRANCH  65  67
ATOM     67  O   UNL     1      -0.583   5.565   7.398  1.00  0.00    -0.480 OA
ATOM     68  H   UNL     1      -1.140   6.245   7.835  1.00  0.00     0.296 HD
ENDBRANCH  65  67
ENDBRANCH  49  65
ENDBRANCH  47  49
ENDBRANCH  43  45
ENDBRANCH   1  43
BRANCH   1  69
ATOM     69  C   UNL     1      -5.981   1.782   8.040  1.00  0.00    -0.001 C 
ATOM     70  C   UNL     1      -6.767   0.691   8.017  1.00  0.00     0.001 C 
BRANCH  70  71
ATOM     71  C   UNL     1      -8.141   0.587   8.513  1.00  0.00    -0.055 C 
ATOM     72  C   UNL     1      -8.975  -0.261   7.875  1.00  0.00    -0.018 C 
ATOM     73  C   UNL     1      -8.524   1.427   9.703  1.00  0.00     0.044 C 
BRANCH  72  74
ATOM     74  C   UNL     1     -10.436  -0.575   8.165  1.00  0.00     0.038 C 
ATOM     75  C   UNL     1     -10.463  -1.575   9.327  1.00  0.00     0.015 C 
BRANCH  74  76
ATOM     76  C   UNL     1     -11.110  -1.078   6.855  1.00  0.00     0.128 C 
BRANCH  76  77
ATOM     77  O   UNL     1     -11.162  -0.014   5.890  1.00  0.00    -0.381 OA
ATOM     78  C   UNL     1     -12.078   1.020   6.228  1.00  0.00     0.195 C 
ENDBRANCH  76  77
BRANCH  76  79
ATOM     79  C   UNL     1     -10.485  -2.375   6.283  1.00  0.00     0.068 C 
BRANCH  79  80
ATOM     80  C   UNL     1     -11.330  -3.222   5.362  1.00  0.00    -0.045 A 
ATOM     81  C   UNL     1     -10.744  -4.168   4.511  1.00  0.00     0.004 A 
ATOM     82  C   UNL     1     -12.722  -3.052   5.325  1.00  0.00     0.004 A 
ATOM     83  C   UNL     1     -11.532  -4.937   3.651  1.00  0.00     0.000 A 
ATOM     84  C   UNL     1     -13.509  -3.821   4.465  1.00  0.00     0.000 A 
ATOM     85  C   UNL     1     -12.914  -4.764   3.630  1.00  0.00     0.000 A 
ENDBRANCH  79  80
ENDBRANCH  76  79
ENDBRANCH  74  76
ENDBRANCH  72  74
ENDBRANCH  70  71
ENDBRANCH   1  69
TORSDOF 17
ENDMDL
MODEL 10
REMARK VINA RESULT:    -5.385     13.294     21.842
REMARK INTER + INTRA:         -22.354
REMARK INTER:                 -15.170
REMARK INTRA:                  -7.184
REMARK UNBOUND:                -6.266
REMARK SMILES C=C1C(=O)N[C@H](C)C(=O)N[C@@H](CC(C)C)C(=O)N[C@@H](C(=O)O)[C@H](C)C(=O)N[C@@H](CCCN=C(N)N)C(=O)N[C@@H](/C=C/C(C)=C/[C@H](C)[C@H](Cc2ccccc2)OC)[C@H](C)C(=O)N[C@@H](C(=O)O)CCC(=O)N1C
REMARK SMILES IDX 39 1 38 2 37 3 36 4 28 6 27 7 25 8 26 9 23 11 24 12 19 13
REMARK SMILES IDX 18 14 16 15 17 16 11 18 10 19 8 20 9 21 12 24 13 25 14 26
REMARK SMILES IDX 15 27 20 28 21 29 22 30 29 32 30 33 31 34 32 35 33 36 34 37
REMARK SMILES IDX 35 38 57 43 58 44 59 45 60 46 61 47 62 49 66 50 67 51 68 52
REMARK SMILES IDX 69 53 70 54 71 55 2 56 1 57 3 58 4 59 5 60 6 62 7 63 63 65
REMARK SMILES IDX 64 66 65 67 40 69 41 70 42 71 44 72 43 73 45 74 46 75 47 76
REMARK SMILES IDX 55 77 56 78 48 79 49 80 50 81 54 82 51 83 53 84 52 85
REMARK H PARENT 38 5 27 10 18 17 10 22 22 31 34 39 34 40 35 41 35 42 61 48
REMARK H PARENT 5 61 65 68
REMARK Flexibility Score:  369.900
ROOT
ATOM      1  C   UNL     1      -8.022  -0.437  -2.140  1.00  0.00     0.117 C 
ENDROOT
BRANCH   1   2
ATOM      2  N   UNL     1      -9.151   0.025  -2.947  1.00  0.00    -0.347 N 
ATOM      3  O   UNL     1      -8.531   2.228  -3.121  1.00  0.00    -0.273 OA
ATOM      4  C   UNL     1      -9.268   1.306  -3.451  1.00  0.00     0.243 C 
ATOM      5  H   UNL     1      -9.876  -0.628  -3.204  1.00  0.00     0.164 HD
BRANCH   4   6
ATOM      6  C   UNL     1     -10.517   1.511  -4.347  1.00  0.00     0.171 C 
BRANCH   6   7
ATOM      7  N   UNL     1     -10.945   0.231  -4.933  1.00  0.00    -0.344 N 
ATOM      8  C   UNL     1     -10.681  -0.059  -6.254  1.00  0.00     0.226 C 
ATOM      9  O   UNL     1     -10.107   0.725  -7.001  1.00  0.00    -0.275 OA
ATOM     10  H   UNL     1     -11.481  -0.414  -4.366  1.00  0.00     0.164 HD
BRANCH   8  11
ATOM     11  C   UNL     1     -11.137  -1.439  -6.694  1.00  0.00     0.109 C 
ATOM     12  C   UNL     1     -11.115  -2.404  -5.509  1.00  0.00     0.021 C 
BRANCH  11  13
ATOM     13  C   UNL     1     -12.495  -1.333  -7.418  1.00  0.00     0.204 C 
BRANCH  13  14
ATOM     14  N   UNL     1     -12.610  -2.296  -8.518  1.00  0.00    -0.340 N 
ATOM     15  C   UNL     1     -12.211  -2.012  -9.806  1.00  0.00     0.243 C 
ATOM     16  O   UNL     1     -11.672  -0.950 -10.112  1.00  0.00    -0.273 OA
ATOM     17  H   UNL     1     -13.182  -3.131  -8.367  1.00  0.00     0.164 HD
BRANCH  15  18
ATOM     18  C   UNL     1     -12.620  -3.097 -10.833  1.00  0.00     0.171 C 
BRANCH  18  19
ATOM     19  N   UNL     1     -12.053  -2.691 -12.118  1.00  0.00    -0.343 N 
ATOM     20  C   UNL     1     -12.848  -2.456 -13.223  1.00  0.00     0.242 CG0
ATOM     21  O   UNL     1     -14.051  -2.706 -13.215  1.00  0.00    -0.273 OA
ATOM     22  H   UNL     1     -11.049  -2.583 -12.207  1.00  0.00     0.164 HD
ATOM     23  G   UNL     1     -12.081  -1.960 -14.466  1.00  0.00     0.000 G0
ENDBRANCH  18  19
BRANCH  18  24
ATOM     24  C   UNL     1     -12.103  -4.474 -10.401  1.00  0.00     0.038 C 
BRANCH  24  25
ATOM     25  C   UNL     1     -13.093  -5.635 -10.630  1.00  0.00    -0.015 C 
ATOM     26  C   UNL     1     -13.188  -6.043 -12.100  1.00  0.00     0.007 C 
ATOM     27  C   UNL     1     -14.479  -5.238 -10.114  1.00  0.00     0.007 C 
ENDBRANCH  24  25
ENDBRANCH  18  24
ENDBRANCH  15  18
ENDBRANCH  13  14
BRANCH  13  28
ATOM     28  C   UNL     1     -13.693  -1.557  -6.491  1.00  0.00     0.327 C 
ATOM     29  O   UNL     1     -13.990  -0.881  -5.518  1.00  0.00    -0.250 OA
BRANCH  28  30
ATOM     30  O   UNL     1     -14.374  -2.687  -6.771  1.00  0.00    -0.480 OA
ATOM     31  H   UNL     1     -14.545  -2.632  -7.734  1.00  0.00     0.296 HD
ENDBRANCH  28  30
ENDBRANCH  13  28
ENDBRANCH  11  13
ENDBRANCH   8  11
ENDBRANCH   6   7
BRANCH   6  32
ATOM     32  C   UNL     1     -11.640   2.132  -3.509  1.00  0.00     0.037 C 
BRANCH  32  33
ATOM     33  C   UNL     1     -12.860   1.207  -3.398  1.00  0.00     0.026 C 
BRANCH  33  34
ATOM     34  C   UNL     1     -13.008   0.599  -2.002  1.00  0.00     0.146 C 
BRANCH  34  35
ATOM     35  N   UNL     1     -12.083  -0.519  -1.876  1.00  0.00    -0.254 NA
ATOM     36  C   UNL     1     -12.487  -1.690  -2.202  1.00  0.00     0.185 C 
ATOM     37  N   UNL     1     -11.642  -2.727  -2.094  1.00  0.00    -0.370 N 
ATOM     38  N   UNL     1     -13.692  -2.070  -2.663  1.00  0.00    -0.370 N 
ATOM     39  H   UNL     1     -10.708  -2.519  -1.762  1.00  0.00     0.159 HD
ATOM     40  H   UNL     1     -11.821  -3.634  -2.488  1.00  0.00     0.159 HD
ATOM     41  H   UNL     1     -13.932  -3.044  -2.751  1.00  0.00     0.159 HD
ATOM     42  H   UNL     1     -14.432  -1.396  -2.779  1.00  0.00     0.159 HD
ENDBRANCH  34  35
ENDBRANCH  33  34
ENDBRANCH  32  33
ENDBRANCH   6  32
ENDBRANCH   4   6
ENDBRANCH   1   2
BRANCH   1  43
ATOM     43  C   UNL     1      -7.016  -1.174  -3.071  1.00  0.00     0.102 C 
ATOM     44  C   UNL     1      -7.656  -2.313  -3.883  1.00  0.00     0.020 C 
BRANCH  43  45
ATOM     45  C   UNL     1      -5.758  -1.589  -2.302  1.00  0.00     0.225 C 
ATOM     46  O   UNL     1      -5.701  -2.596  -1.602  1.00  0.00    -0.275 OA
ATOM     47  N   UNL     1      -4.705  -0.706  -2.369  1.00  0.00    -0.342 N 
ATOM     48  H   UNL     1      -4.711   0.029  -3.062  1.00  0.00     0.164 HD
BRANCH  47  49
ATOM     49  C   UNL     1      -3.425  -0.989  -1.712  1.00  0.00     0.192 C 
BRANCH  49  50
ATOM     50  C   UNL     1      -3.150   0.071  -0.643  1.00  0.00     0.047 C 
BRANCH  50  51
ATOM     51  C   UNL     1      -3.210  -0.507   0.778  1.00  0.00     0.103 C 
BRANCH  51  52
ATOM     52  C   UNL     1      -4.556  -0.240   1.449  1.00  0.00     0.226 C 
ATOM     53  O   UNL     1      -5.519  -0.967   1.195  1.00  0.00    -0.275 OA
BRANCH  52  54
ATOM     54  N   UNL     1      -4.590   0.801   2.395  1.00  0.00    -0.311 N 
ATOM     55  C   UNL     1      -3.353   1.443   2.857  1.00  0.00     0.153 C 
BRANCH  54  56
ATOM     56  C   UNL     1      -5.804   1.267   2.927  1.00  0.00     0.102 C 
ATOM     57  C   UNL     1      -6.817   1.771   2.204  1.00  0.00     0.043 C 
BRANCH  56  58
ATOM     58  C   UNL     1      -6.080   1.189   4.411  1.00  0.00     0.268 C 
ATOM     59  O   UNL     1      -6.016   2.158   5.155  1.00  0.00    -0.268 OA
ATOM     60  N   UNL     1      -6.472  -0.062   4.822  1.00  0.00    -0.339 N 
ATOM     61  H   UNL     1      -6.489  -0.815   4.144  1.00  0.00     0.164 HD
BRANCH  60  62
ATOM     62  C   UNL     1      -6.848  -0.345   6.206  1.00  0.00     0.168 CG0
ATOM     63  C   UNL     1      -8.287   0.077   6.479  1.00  0.00     0.041 C 
ATOM     64  G   UNL     1      -5.878   0.377   7.164  1.00  0.00     0.000 G0
ENDBRANCH  60  62
ENDBRANCH  56  58
ENDBRANCH  54  56
ENDBRANCH  52  54
ENDBRANCH  51  52
ENDBRANCH  50  51
ENDBRANCH  49  50
BRANCH  49  65
ATOM     65  C   UNL     1      -2.264  -1.010  -2.719  1.00  0.00     0.326 C 
ATOM     66  O   UNL     1      -2.375  -0.931  -3.934  1.00  0.00    -0.250 OA
BRANCH  65  67
ATOM     67  O   UNL     1      -1.043  -1.186  -2.168  1.00  0.00    -0.480 OA
ATOM     68  H   UNL     1      -1.240  -1.576  -1.289  1.00  0.00     0.296 HD
ENDBRANCH  65  67
ENDBRANCH  49  65
ENDBRANCH  47  49
ENDBRANCH  43  45
ENDBRANCH   1  43
BRANCH   1  69
ATOM     69  C   UNL     1      -8.620  -1.190  -0.965  1.00  0.00    -0.001 C 
ATOM     70  C   UNL     1      -8.950  -0.693   0.240  1.00  0.00     0.001 C 
BRANCH  70  71
ATOM     71  C   UNL     1      -9.547  -1.425   1.360  1.00  0.00    -0.055 C 
ATOM     72  C   UNL     1     -10.783  -1.938   1.186  1.00  0.00    -0.018 C 
ATOM     73  C   UNL     1      -8.736  -1.561   2.622  1.00  0.00     0.044 C 
BRANCH  72  74
ATOM     74  C   UNL     1     -11.640  -2.737   2.158  1.00  0.00     0.038 C 
ATOM     75  C   UNL     1     -12.813  -3.316   1.357  1.00  0.00     0.015 C 
BRANCH  74  76
ATOM     76  C   UNL     1     -12.051  -1.811   3.341  1.00  0.00     0.128 C 
BRANCH  76  77
ATOM     77  O   UNL     1     -13.276  -1.126   3.026  1.00  0.00    -0.381 OA
ATOM     78  C   UNL     1     -13.153   0.290   3.020  1.00  0.00     0.195 C 
ENDBRANCH  76  77
BRANCH  76  79
ATOM     79  C   UNL     1     -12.101  -2.528   4.713  1.00  0.00     0.068 C 
BRANCH  79  80
ATOM     80  C   UNL     1     -10.913  -3.366   5.117  1.00  0.00    -0.045 A 
ATOM     81  C   UNL     1     -10.574  -4.526   4.408  1.00  0.00     0.004 A 
ATOM     82  C   UNL     1     -10.141  -3.008   6.233  1.00  0.00     0.004 A 
ATOM     83  C   UNL     1      -9.481  -5.304   4.797  1.00  0.00     0.000 A 
ATOM     84  C   UNL     1      -9.049  -3.787   6.621  1.00  0.00     0.000 A 
ATOM     85  C   UNL     1      -8.718  -4.934   5.902  1.00  0.00     0.000 A 
ENDBRANCH  79  80
ENDBRANCH  76  79
ENDBRANCH  74  76
ENDBRANCH  72  74
ENDBRANCH  70  71
ENDBRANCH   1  69
TORSDOF 17
ENDMDL
