MODEL 1
REMARK VINA RESULT:    -7.084      0.000      0.000
REMARK INTER + INTRA:         -18.905
REMARK INTER:                 -14.332
REMARK INTRA:                  -4.573
REMARK UNBOUND:                -4.573
REMARK SMILES CC[C@@H](C)[C@@H](NC(=O)[C@@H](O)Cc1ccc(O)c(Cl)c1)C(=O)N1[C@H](C(=O)NCCCCN=C(N)N)C[C@H]2CC[C@H](OS(=O)(=O)O)C[C@@H]21
REMARK SMILES IDX 22 1 36 2 46 3 35 4 23 5 45 6 37 7 39 8 38 9 20 10 21 11
REMARK SMILES IDX 5 12 6 13 7 14 8 15 9 17 11 18 12 19 17 20 19 21 15 22 14 23
REMARK SMILES IDX 13 24 18 25 16 26 10 28 3 30 4 31 2 32 1 33 24 34 25 35
REMARK SMILES IDX 26 36 27 38 28 39 29 40 30 41 31 42 32 43 33 44 34 45 40 50
REMARK SMILES IDX 41 51 42 52 43 53 44 54
REMARK H PARENT 6 16 16 27 10 29 26 37 33 46 33 47 34 48 34 49 44 55
ROOT
ATOM      1  N   UNL     1       9.642   5.438  -3.594  1.00  0.00    -0.326 N 
ATOM      2  C   UNL     1      11.483   6.738  -2.914  1.00  0.00     0.014 C 
ATOM      3  C   UNL     1       9.952   6.705  -2.927  1.00  0.00     0.091 C 
ATOM      4  C   UNL     1      11.843   6.057  -4.226  1.00  0.00     0.041 C 
ATOM      5  C   UNL     1      10.874   4.861  -4.187  1.00  0.00     0.175 C 
ATOM      6  C   UNL     1       9.453   6.912  -1.498  1.00  0.00     0.059 C 
ATOM      7  C   UNL     1      11.993   8.139  -2.639  1.00  0.00     0.008 C 
ATOM      8  C   UNL     1      10.371   7.813  -0.643  1.00  0.00     0.143 C 
ATOM      9  C   UNL     1      11.179   8.802  -1.507  1.00  0.00     0.034 C 
ENDROOT
BRANCH   1  10
ATOM     10  C   UNL     1       8.416   4.876  -3.908  1.00  0.00     0.246 C 
ATOM     11  O   UNL     1       8.052   4.846  -5.088  1.00  0.00    -0.272 OA
BRANCH  10  12
ATOM     12  C   UNL     1       7.544   4.258  -2.777  1.00  0.00     0.174 C 
BRANCH  12  13
ATOM     13  N   UNL     1       6.924   3.019  -3.245  1.00  0.00    -0.342 N 
ATOM     14  C   UNL     1       7.083   1.784  -2.658  1.00  0.00     0.249 C 
ATOM     15  O   UNL     1       7.749   1.590  -1.649  1.00  0.00    -0.272 OA
ATOM     16  H   UNL     1       6.473   2.995  -4.157  1.00  0.00     0.164 HD
BRANCH  14  17
ATOM     17  C   UNL     1       6.314   0.669  -3.398  1.00  0.00     0.207 C 
BRANCH  17  18
ATOM     18  C   UNL     1       5.189   0.119  -2.516  1.00  0.00     0.077 C 
BRANCH  18  19
ATOM     19  C   UNL     1       4.313   1.223  -1.968  1.00  0.00    -0.043 A 
ATOM     20  C   UNL     1       3.401   2.443  -0.080  1.00  0.00     0.083 A 
ATOM     21  C   UNL     1       4.248   1.456  -0.585  1.00  0.00     0.028 A 
ATOM     22  C   UNL     1       2.615   3.200  -0.948  1.00  0.00     0.134 A 
ATOM     23  C   UNL     1       2.669   2.980  -2.320  1.00  0.00     0.048 A 
ATOM     24  C   UNL     1       3.514   1.992  -2.829  1.00  0.00     0.008 A 
ATOM     25  Cl  UNL     1       3.335   2.713   1.622  1.00  0.00    -0.080 Cl
BRANCH  22  26
ATOM     26  O   UNL     1       1.761   4.171  -0.499  1.00  0.00    -0.506 OA
ATOM     27  H   UNL     1       0.871   3.930  -0.814  1.00  0.00     0.293 HD
ENDBRANCH  22  26
ENDBRANCH  18  19
ENDBRANCH  17  18
BRANCH  17  28
ATOM     28  O   UNL     1       7.192  -0.403  -3.775  1.00  0.00    -0.383 OA
ATOM     29  H   UNL     1       7.185  -1.037  -3.022  1.00  0.00     0.211 HD
ENDBRANCH  17  28
ENDBRANCH  14  17
ENDBRANCH  12  13
BRANCH  12  30
ATOM     30  C   UNL     1       6.506   5.261  -2.204  1.00  0.00     0.018 C 
ATOM     31  C   UNL     1       6.092   4.864  -0.778  1.00  0.00     0.010 C 
BRANCH  30  32
ATOM     32  C   UNL     1       5.250   5.431  -3.094  1.00  0.00     0.002 C 
ATOM     33  C   UNL     1       4.163   6.330  -2.520  1.00  0.00     0.004 C 
ENDBRANCH  30  32
ENDBRANCH  12  30
ENDBRANCH  10  12
ENDBRANCH   1  10
BRANCH   5  34
ATOM     34  C   UNL     1      11.423   3.709  -3.304  1.00  0.00     0.242 C 
ATOM     35  O   UNL     1      10.819   3.294  -2.315  1.00  0.00    -0.273 OA
ATOM     36  N   UNL     1      12.656   3.223  -3.675  1.00  0.00    -0.354 N 
ATOM     37  H   UNL     1      13.161   3.688  -4.431  1.00  0.00     0.163 HD
BRANCH  36  38
ATOM     38  C   UNL     1      13.216   2.016  -3.102  1.00  0.00     0.116 C 
BRANCH  38  39
ATOM     39  C   UNL     1      12.906   0.823  -4.002  1.00  0.00     0.023 C 
BRANCH  39  40
ATOM     40  C   UNL     1      13.357  -0.500  -3.392  1.00  0.00     0.026 C 
BRANCH  40  41
ATOM     41  C   UNL     1      12.835  -0.643  -1.963  1.00  0.00     0.146 C 
BRANCH  41  42
ATOM     42  N   UNL     1      11.491  -1.204  -1.982  1.00  0.00    -0.254 NA
ATOM     43  C   UNL     1      10.506  -0.501  -1.565  1.00  0.00     0.185 C 
ATOM     44  N   UNL     1      10.482   0.752  -1.075  1.00  0.00    -0.370 N 
ATOM     45  N   UNL     1       9.274  -1.038  -1.587  1.00  0.00    -0.370 N 
ATOM     46  H   UNL     1       9.686   1.087  -0.561  1.00  0.00     0.159 HD
ATOM     47  H   UNL     1      11.327   1.311  -1.001  1.00  0.00     0.159 HD
ATOM     48  H   UNL     1       9.202  -1.979  -1.950  1.00  0.00     0.159 HD
ATOM     49  H   UNL     1       8.439  -0.486  -1.505  1.00  0.00     0.159 HD
ENDBRANCH  41  42
ENDBRANCH  40  41
ENDBRANCH  39  40
ENDBRANCH  38  39
ENDBRANCH  36  38
ENDBRANCH   5  34
BRANCH   8  50
ATOM     50  O   UNL     1      11.286   7.011   0.105  1.00  0.00    -0.245 OA
BRANCH  50  51
ATOM     51  S   UNL     1      11.750   7.494   1.587  1.00  0.00     0.397 S 
ATOM     52  O   UNL     1      10.890   8.583   1.991  1.00  0.00    -0.169 OA
ATOM     53  O   UNL     1      13.193   7.608   1.632  1.00  0.00    -0.169 OA
BRANCH  51  54
ATOM     54  O   UNL     1      11.323   6.239   2.497  1.00  0.00    -0.264 OA
ATOM     55  H   UNL     1      11.571   5.423   2.015  1.00  0.00     0.236 HD
ENDBRANCH  51  54
ENDBRANCH  50  51
ENDBRANCH   8  50
TORSDOF 19
ENDMDL
MODEL 2
REMARK VINA RESULT:    -6.818     13.062     16.906
REMARK INTER + INTRA:         -18.365
REMARK INTER:                 -15.269
REMARK INTRA:                  -3.097
REMARK UNBOUND:                -4.573
REMARK SMILES CC[C@@H](C)[C@@H](NC(=O)[C@@H](O)Cc1ccc(O)c(Cl)c1)C(=O)N1[C@H](C(=O)NCCCCN=C(N)N)C[C@H]2CC[C@H](OS(=O)(=O)O)C[C@@H]21
REMARK SMILES IDX 22 1 36 2 46 3 35 4 23 5 45 6 37 7 39 8 38 9 20 10 21 11
REMARK SMILES IDX 5 12 6 13 7 14 8 15 9 17 11 18 12 19 17 20 19 21 15 22 14 23
REMARK SMILES IDX 13 24 18 25 16 26 10 28 3 30 4 31 2 32 1 33 24 34 25 35
REMARK SMILES IDX 26 36 27 38 28 39 29 40 30 41 31 42 32 43 33 44 34 45 40 50
REMARK SMILES IDX 41 51 42 52 43 53 44 54
REMARK H PARENT 6 16 16 27 10 29 26 37 33 46 33 47 34 48 34 49 44 55
ROOT
ATOM      1  N   UNL     1       0.557  -9.536   0.279  1.00  0.00    -0.326 N 
ATOM      2  C   UNL     1       2.430  -9.326  -1.133  1.00  0.00     0.014 C 
ATOM      3  C   UNL     1       1.077 -10.032  -0.999  1.00  0.00     0.091 C 
ATOM      4  C   UNL     1       2.912  -9.250   0.307  1.00  0.00     0.041 C 
ATOM      5  C   UNL     1       1.617  -8.794   1.005  1.00  0.00     0.175 C 
ATOM      6  C   UNL     1       0.265  -9.765  -2.265  1.00  0.00     0.059 C 
ATOM      7  C   UNL     1       3.297 -10.009  -2.173  1.00  0.00     0.008 C 
ATOM      8  C   UNL     1       1.128  -9.611  -3.536  1.00  0.00     0.143 C 
ATOM      9  C   UNL     1       2.466 -10.369  -3.423  1.00  0.00     0.034 C 
ENDROOT
BRANCH   1  10
ATOM     10  C   UNL     1      -0.623  -9.840   0.934  1.00  0.00     0.246 C 
ATOM     11  O   UNL     1      -0.766 -10.966   1.424  1.00  0.00    -0.272 OA
BRANCH  10  12
ATOM     12  C   UNL     1      -1.724  -8.749   1.078  1.00  0.00     0.174 C 
BRANCH  12  13
ATOM     13  N   UNL     1      -2.214  -8.713   2.455  1.00  0.00    -0.342 N 
ATOM     14  C   UNL     1      -1.683  -7.940   3.463  1.00  0.00     0.249 C 
ATOM     15  O   UNL     1      -0.746  -7.167   3.307  1.00  0.00    -0.272 OA
ATOM     16  H   UNL     1      -2.881  -9.413   2.771  1.00  0.00     0.164 HD
BRANCH  14  17
ATOM     17  C   UNL     1      -2.409  -8.137   4.810  1.00  0.00     0.207 C 
BRANCH  17  18
ATOM     18  C   UNL     1      -3.882  -7.732   4.689  1.00  0.00     0.077 C 
BRANCH  18  19
ATOM     19  C   UNL     1      -4.739  -8.411   5.733  1.00  0.00    -0.043 A 
ATOM     20  C   UNL     1      -6.120  -8.289   7.724  1.00  0.00     0.083 A 
ATOM     21  C   UNL     1      -5.370  -7.654   6.733  1.00  0.00     0.028 A 
ATOM     22  C   UNL     1      -6.243  -9.679   7.724  1.00  0.00     0.134 A 
ATOM     23  C   UNL     1      -5.624 -10.440   6.740  1.00  0.00     0.048 A 
ATOM     24  C   UNL     1      -4.872  -9.808   5.747  1.00  0.00     0.008 A 
ATOM     25  Cl  UNL     1      -6.887  -7.342   8.945  1.00  0.00    -0.080 Cl
BRANCH  22  26
ATOM     26  O   UNL     1      -6.959 -10.346   8.681  1.00  0.00    -0.506 OA
ATOM     27  H   UNL     1      -6.595 -11.250   8.724  1.00  0.00     0.293 HD
ENDBRANCH  22  26
ENDBRANCH  18  19
ENDBRANCH  17  18
BRANCH  17  28
ATOM     28  O   UNL     1      -1.788  -7.365   5.851  1.00  0.00    -0.383 OA
ATOM     29  H   UNL     1      -2.503  -7.146   6.491  1.00  0.00     0.211 HD
ENDBRANCH  17  28
ENDBRANCH  14  17
ENDBRANCH  12  13
BRANCH  12  30
ATOM     30  C   UNL     1      -2.871  -8.915   0.045  1.00  0.00     0.018 C 
ATOM     31  C   UNL     1      -3.318  -7.550  -0.500  1.00  0.00     0.010 C 
BRANCH  30  32
ATOM     32  C   UNL     1      -4.092  -9.695   0.592  1.00  0.00     0.002 C 
ATOM     33  C   UNL     1      -4.110 -11.184   0.273  1.00  0.00     0.004 C 
ENDBRANCH  30  32
ENDBRANCH  12  30
ENDBRANCH  10  12
ENDBRANCH   1  10
BRANCH   5  34
ATOM     34  C   UNL     1       1.406  -7.262   0.872  1.00  0.00     0.242 C 
ATOM     35  O   UNL     1       0.803  -6.761  -0.076  1.00  0.00    -0.273 OA
ATOM     36  N   UNL     1       1.987  -6.503   1.863  1.00  0.00    -0.354 N 
ATOM     37  H   UNL     1       2.575  -6.967   2.557  1.00  0.00     0.163 HD
BRANCH  36  38
ATOM     38  C   UNL     1       1.711  -5.090   2.016  1.00  0.00     0.116 C 
BRANCH  38  39
ATOM     39  C   UNL     1       2.681  -4.479   3.025  1.00  0.00     0.023 C 
BRANCH  39  40
ATOM     40  C   UNL     1       2.009  -4.151   4.355  1.00  0.00     0.026 C 
BRANCH  40  41
ATOM     41  C   UNL     1       2.098  -5.339   5.314  1.00  0.00     0.146 C 
BRANCH  41  42
ATOM     42  N   UNL     1       0.802  -5.563   5.940  1.00  0.00    -0.254 NA
ATOM     43  C   UNL     1       0.629  -5.247   7.169  1.00  0.00     0.185 C 
ATOM     44  N   UNL     1       1.487  -4.703   8.051  1.00  0.00    -0.370 N 
ATOM     45  N   UNL     1      -0.572  -5.466   7.729  1.00  0.00    -0.370 N 
ATOM     46  H   UNL     1       1.296  -4.735   9.038  1.00  0.00     0.159 HD
ATOM     47  H   UNL     1       2.438  -4.460   7.790  1.00  0.00     0.159 HD
ATOM     48  H   UNL     1      -1.280  -5.866   7.129  1.00  0.00     0.159 HD
ATOM     49  H   UNL     1      -0.856  -5.037   8.592  1.00  0.00     0.159 HD
ENDBRANCH  41  42
ENDBRANCH  40  41
ENDBRANCH  39  40
ENDBRANCH  38  39
ENDBRANCH  36  38
ENDBRANCH   5  34
BRANCH   8  50
ATOM     50  O   UNL     1       1.406  -8.231  -3.776  1.00  0.00    -0.245 OA
BRANCH  50  51
ATOM     51  S   UNL     1       2.264  -7.802  -5.090  1.00  0.00     0.397 S 
ATOM     52  O   UNL     1       1.848  -8.645  -6.188  1.00  0.00    -0.169 OA
ATOM     53  O   UNL     1       3.659  -7.652  -4.732  1.00  0.00    -0.169 OA
BRANCH  51  54
ATOM     54  O   UNL     1       1.675  -6.341  -5.412  1.00  0.00    -0.264 OA
ATOM     55  H   UNL     1       2.070  -5.712  -4.774  1.00  0.00     0.236 HD
ENDBRANCH  51  54
ENDBRANCH  50  51
ENDBRANCH   8  50
TORSDOF 19
ENDMDL
MODEL 3
REMARK VINA RESULT:    -6.809     15.289     19.358
REMARK INTER + INTRA:         -18.347
REMARK INTER:                 -14.199
REMARK INTRA:                  -4.149
REMARK UNBOUND:                -4.573
REMARK SMILES CC[C@@H](C)[C@@H](NC(=O)[C@@H](O)Cc1ccc(O)c(Cl)c1)C(=O)N1[C@H](C(=O)NCCCCN=C(N)N)C[C@H]2CC[C@H](OS(=O)(=O)O)C[C@@H]21
REMARK SMILES IDX 22 1 36 2 46 3 35 4 23 5 45 6 37 7 39 8 38 9 20 10 21 11
REMARK SMILES IDX 5 12 6 13 7 14 8 15 9 17 11 18 12 19 17 20 19 21 15 22 14 23
REMARK SMILES IDX 13 24 18 25 16 26 10 28 3 30 4 31 2 32 1 33 24 34 25 35
REMARK SMILES IDX 26 36 27 38 28 39 29 40 30 41 31 42 32 43 33 44 34 45 40 50
REMARK SMILES IDX 41 51 42 52 43 53 44 54
REMARK H PARENT 6 16 16 27 10 29 26 37 33 46 33 47 34 48 34 49 44 55
ROOT
ATOM      1  N   UNL     1      -4.060 -10.662   1.819  1.00  0.00    -0.326 N 
ATOM      2  C   UNL     1      -4.705  -9.783   3.905  1.00  0.00     0.014 C 
ATOM      3  C   UNL     1      -4.544 -11.095   3.133  1.00  0.00     0.091 C 
ATOM      4  C   UNL     1      -5.149  -8.809   2.824  1.00  0.00     0.041 C 
ATOM      5  C   UNL     1      -4.168  -9.187   1.699  1.00  0.00     0.175 C 
ATOM      6  C   UNL     1      -3.665 -12.036   3.955  1.00  0.00     0.059 C 
ATOM      7  C   UNL     1      -5.574  -9.978   5.132  1.00  0.00     0.008 C 
ATOM      8  C   UNL     1      -3.815 -11.851   5.481  1.00  0.00     0.143 C 
ATOM      9  C   UNL     1      -5.198 -11.285   5.863  1.00  0.00     0.034 C 
ENDROOT
BRANCH   1  10
ATOM     10  C   UNL     1      -3.754 -11.410   0.695  1.00  0.00     0.246 C 
ATOM     11  O   UNL     1      -4.637 -11.626  -0.142  1.00  0.00    -0.272 OA
BRANCH  10  12
ATOM     12  C   UNL     1      -2.300 -11.925   0.488  1.00  0.00     0.174 C 
BRANCH  12  13
ATOM     13  N   UNL     1      -1.674 -11.217  -0.628  1.00  0.00    -0.342 N 
ATOM     14  C   UNL     1      -0.538 -10.444  -0.537  1.00  0.00     0.249 C 
ATOM     15  O   UNL     1       0.098 -10.286   0.498  1.00  0.00    -0.272 OA
ATOM     16  H   UNL     1      -2.172 -11.127  -1.510  1.00  0.00     0.164 HD
BRANCH  14  17
ATOM     17  C   UNL     1      -0.136  -9.814  -1.887  1.00  0.00     0.207 C 
BRANCH  17  18
ATOM     18  C   UNL     1       1.273 -10.261  -2.289  1.00  0.00     0.077 C 
BRANCH  18  19
ATOM     19  C   UNL     1       1.247 -11.208  -3.467  1.00  0.00    -0.043 A 
ATOM     20  C   UNL     1       1.212 -11.582  -5.864  1.00  0.00     0.083 A 
ATOM     21  C   UNL     1       1.286 -10.708  -4.779  1.00  0.00     0.028 A 
ATOM     22  C   UNL     1       1.098 -12.956  -5.648  1.00  0.00     0.134 A 
ATOM     23  C   UNL     1       1.059 -13.464  -4.354  1.00  0.00     0.048 A 
ATOM     24  C   UNL     1       1.131 -12.592  -3.266  1.00  0.00     0.008 A 
ATOM     25  Cl  UNL     1       1.261 -10.950  -7.467  1.00  0.00    -0.080 Cl
BRANCH  22  26
ATOM     26  O   UNL     1       1.012 -13.851  -6.680  1.00  0.00    -0.506 OA
ATOM     27  H   UNL     1       1.153 -14.736  -6.295  1.00  0.00     0.293 HD
ENDBRANCH  22  26
ENDBRANCH  18  19
ENDBRANCH  17  18
BRANCH  17  28
ATOM     28  O   UNL     1      -0.181  -8.379  -1.822  1.00  0.00    -0.383 OA
ATOM     29  H   UNL     1      -0.664  -8.160  -0.993  1.00  0.00     0.211 HD
ENDBRANCH  17  28
ENDBRANCH  14  17
ENDBRANCH  12  13
BRANCH  12  30
ATOM     30  C   UNL     1      -2.227 -13.467   0.327  1.00  0.00     0.018 C 
ATOM     31  C   UNL     1      -1.937 -14.144   1.676  1.00  0.00     0.010 C 
BRANCH  30  32
ATOM     32  C   UNL     1      -1.200 -13.933  -0.734  1.00  0.00     0.002 C 
ATOM     33  C   UNL     1       0.141 -14.399  -0.181  1.00  0.00     0.004 C 
ENDBRANCH  30  32
ENDBRANCH  12  30
ENDBRANCH  10  12
ENDBRANCH   1  10
BRANCH   5  34
ATOM     34  C   UNL     1      -2.783  -8.515   1.897  1.00  0.00     0.242 C 
ATOM     35  O   UNL     1      -1.858  -9.076   2.485  1.00  0.00    -0.273 OA
ATOM     36  N   UNL     1      -2.682  -7.229   1.418  1.00  0.00    -0.354 N 
ATOM     37  H   UNL     1      -3.518  -6.774   1.049  1.00  0.00     0.163 HD
BRANCH  36  38
ATOM     38  C   UNL     1      -1.414  -6.536   1.325  1.00  0.00     0.116 C 
BRANCH  38  39
ATOM     39  C   UNL     1      -1.457  -5.260   2.163  1.00  0.00     0.023 C 
BRANCH  39  40
ATOM     40  C   UNL     1      -0.210  -5.086   3.024  1.00  0.00     0.026 C 
BRANCH  40  41
ATOM     41  C   UNL     1      -0.545  -5.259   4.505  1.00  0.00     0.146 C 
BRANCH  41  42
ATOM     42  N   UNL     1      -1.569  -6.282   4.663  1.00  0.00    -0.254 NA
ATOM     43  C   UNL     1      -1.330  -7.312   5.385  1.00  0.00     0.185 C 
ATOM     44  N   UNL     1      -0.226  -7.645   6.077  1.00  0.00    -0.370 N 
ATOM     45  N   UNL     1      -2.286  -8.246   5.514  1.00  0.00    -0.370 N 
ATOM     46  H   UNL     1      -0.086  -8.589   6.397  1.00  0.00     0.159 HD
ATOM     47  H   UNL     1       0.591  -7.043   6.101  1.00  0.00     0.159 HD
ATOM     48  H   UNL     1      -3.156  -8.068   5.030  1.00  0.00     0.159 HD
ATOM     49  H   UNL     1      -2.269  -8.946   6.235  1.00  0.00     0.159 HD
ENDBRANCH  41  42
ENDBRANCH  40  41
ENDBRANCH  39  40
ENDBRANCH  38  39
ENDBRANCH  36  38
ENDBRANCH   5  34
BRANCH   8  50
ATOM     50  O   UNL     1      -2.810 -10.961   5.967  1.00  0.00    -0.245 OA
BRANCH  50  51
ATOM     51  S   UNL     1      -1.394 -11.560   6.496  1.00  0.00     0.397 S 
ATOM     52  O   UNL     1      -0.329 -10.812   5.865  1.00  0.00    -0.169 OA
ATOM     53  O   UNL     1      -1.433 -13.007   6.454  1.00  0.00    -0.169 OA
BRANCH  51  54
ATOM     54  O   UNL     1      -1.392 -11.108   8.039  1.00  0.00    -0.264 OA
ATOM     55  H   UNL     1      -2.111 -10.455   8.159  1.00  0.00     0.236 HD
ENDBRANCH  51  54
ENDBRANCH  50  51
ENDBRANCH   8  50
TORSDOF 19
ENDMDL
MODEL 4
REMARK VINA RESULT:    -6.670     14.017     17.883
REMARK INTER + INTRA:         -18.065
REMARK INTER:                 -13.645
REMARK INTRA:                  -4.420
REMARK UNBOUND:                -4.573
REMARK SMILES CC[C@@H](C)[C@@H](NC(=O)[C@@H](O)Cc1ccc(O)c(Cl)c1)C(=O)N1[C@H](C(=O)NCCCCN=C(N)N)C[C@H]2CC[C@H](OS(=O)(=O)O)C[C@@H]21
REMARK SMILES IDX 22 1 36 2 46 3 35 4 23 5 45 6 37 7 39 8 38 9 20 10 21 11
REMARK SMILES IDX 5 12 6 13 7 14 8 15 9 17 11 18 12 19 17 20 19 21 15 22 14 23
REMARK SMILES IDX 13 24 18 25 16 26 10 28 3 30 4 31 2 32 1 33 24 34 25 35
REMARK SMILES IDX 26 36 27 38 28 39 29 40 30 41 31 42 32 43 33 44 34 45 40 50
REMARK SMILES IDX 41 51 42 52 43 53 44 54
REMARK H PARENT 6 16 16 27 10 29 26 37 33 46 33 47 34 48 34 49 44 55
ROOT
ATOM      1  N   UNL     1      -0.368  -9.282   3.284  1.00  0.00    -0.326 N 
ATOM      2  C   UNL     1       0.666  -9.115   1.175  1.00  0.00     0.014 C 
ATOM      3  C   UNL     1      -0.385  -9.907   1.958  1.00  0.00     0.091 C 
ATOM      4  C   UNL     1       1.706  -8.797   2.238  1.00  0.00     0.041 C 
ATOM      5  C   UNL     1       0.788  -8.358   3.394  1.00  0.00     0.175 C 
ATOM      6  C   UNL     1      -1.692  -9.890   1.166  1.00  0.00     0.059 C 
ATOM      7  C   UNL     1       1.086  -9.862  -0.076  1.00  0.00     0.008 C 
ATOM      8  C   UNL     1      -1.490  -9.845  -0.364  1.00  0.00     0.143 C 
ATOM      9  C   UNL     1      -0.143 -10.463  -0.789  1.00  0.00     0.034 C 
ENDROOT
BRANCH   1  10
ATOM     10  C   UNL     1      -1.097  -9.589   4.420  1.00  0.00     0.246 C 
ATOM     11  O   UNL     1      -0.596 -10.329   5.274  1.00  0.00    -0.272 OA
BRANCH  10  12
ATOM     12  C   UNL     1      -2.509  -8.965   4.617  1.00  0.00     0.174 C 
BRANCH  12  13
ATOM     13  N   UNL     1      -2.432  -7.844   5.554  1.00  0.00    -0.342 N 
ATOM     14  C   UNL     1      -3.123  -6.660   5.427  1.00  0.00     0.249 C 
ATOM     15  O   UNL     1      -3.909  -6.423   4.519  1.00  0.00    -0.272 OA
ATOM     16  H   UNL     1      -1.707  -7.833   6.267  1.00  0.00     0.164 HD
BRANCH  14  17
ATOM     17  C   UNL     1      -2.816  -5.667   6.568  1.00  0.00     0.207 C 
BRANCH  17  18
ATOM     18  C   UNL     1      -4.040  -4.795   6.863  1.00  0.00     0.077 C 
BRANCH  18  19
ATOM     19  C   UNL     1      -4.946  -5.427   7.895  1.00  0.00    -0.043 A 
ATOM     20  C   UNL     1      -7.070  -6.433   8.496  1.00  0.00     0.083 A 
ATOM     21  C   UNL     1      -6.218  -5.895   7.531  1.00  0.00     0.028 A 
ATOM     22  C   UNL     1      -6.659  -6.506   9.827  1.00  0.00     0.134 A 
ATOM     23  C   UNL     1      -5.402  -6.047  10.202  1.00  0.00     0.048 A 
ATOM     24  C   UNL     1      -4.547  -5.506   9.239  1.00  0.00     0.008 A 
ATOM     25  Cl  UNL     1      -8.629  -7.002   8.029  1.00  0.00    -0.080 Cl
BRANCH  22  26
ATOM     26  O   UNL     1      -7.463  -7.016  10.811  1.00  0.00    -0.506 OA
ATOM     27  H   UNL     1      -8.370  -6.719  10.612  1.00  0.00     0.293 HD
ENDBRANCH  22  26
ENDBRANCH  18  19
ENDBRANCH  17  18
BRANCH  17  28
ATOM     28  O   UNL     1      -1.700  -4.825   6.235  1.00  0.00    -0.383 OA
ATOM     29  H   UNL     1      -1.400  -4.424   7.082  1.00  0.00     0.211 HD
ENDBRANCH  17  28
ENDBRANCH  14  17
ENDBRANCH  12  13
BRANCH  12  30
ATOM     30  C   UNL     1      -3.575 -10.013   5.034  1.00  0.00     0.018 C 
ATOM     31  C   UNL     1      -4.808  -9.931   4.121  1.00  0.00     0.010 C 
BRANCH  30  32
ATOM     32  C   UNL     1      -4.004  -9.908   6.518  1.00  0.00     0.002 C 
ATOM     33  C   UNL     1      -5.459  -9.521   6.749  1.00  0.00     0.004 C 
ENDBRANCH  30  32
ENDBRANCH  12  30
ENDBRANCH  10  12
ENDBRANCH   1  10
BRANCH   5  34
ATOM     34  C   UNL     1       0.331  -6.884   3.233  1.00  0.00     0.242 C 
ATOM     35  O   UNL     1      -0.841  -6.578   3.014  1.00  0.00    -0.273 OA
ATOM     36  N   UNL     1       1.339  -5.948   3.299  1.00  0.00    -0.354 N 
ATOM     37  H   UNL     1       2.306  -6.270   3.362  1.00  0.00     0.163 HD
BRANCH  36  38
ATOM     38  C   UNL     1       1.070  -4.527   3.386  1.00  0.00     0.116 C 
BRANCH  38  39
ATOM     39  C   UNL     1       1.676  -3.962   4.669  1.00  0.00     0.023 C 
BRANCH  39  40
ATOM     40  C   UNL     1       3.037  -4.570   4.987  1.00  0.00     0.026 C 
BRANCH  40  41
ATOM     41  C   UNL     1       3.031  -5.220   6.371  1.00  0.00     0.146 C 
BRANCH  41  42
ATOM     42  N   UNL     1       2.296  -6.477   6.321  1.00  0.00    -0.254 NA
ATOM     43  C   UNL     1       1.309  -6.665   7.115  1.00  0.00     0.185 C 
ATOM     44  N   UNL     1       0.787  -5.856   8.054  1.00  0.00    -0.370 N 
ATOM     45  N   UNL     1       0.648  -7.833   7.056  1.00  0.00    -0.370 N 
ATOM     46  H   UNL     1       0.177  -6.222   8.765  1.00  0.00     0.159 HD
ATOM     47  H   UNL     1       1.159  -4.926   8.223  1.00  0.00     0.159 HD
ATOM     48  H   UNL     1       0.972  -8.498   6.367  1.00  0.00     0.159 HD
ATOM     49  H   UNL     1      -0.261  -7.964   7.464  1.00  0.00     0.159 HD
ENDBRANCH  41  42
ENDBRANCH  40  41
ENDBRANCH  39  40
ENDBRANCH  38  39
ENDBRANCH  36  38
ENDBRANCH   5  34
BRANCH   8  50
ATOM     50  O   UNL     1      -1.535  -8.494  -0.825  1.00  0.00    -0.245 OA
BRANCH  50  51
ATOM     51  S   UNL     1      -2.740  -8.021  -1.809  1.00  0.00     0.397 S 
ATOM     52  O   UNL     1      -2.207  -7.917  -3.149  1.00  0.00    -0.169 OA
ATOM     53  O   UNL     1      -3.470  -6.931  -1.196  1.00  0.00    -0.169 OA
BRANCH  51  54
ATOM     54  O   UNL     1      -3.695  -9.315  -1.817  1.00  0.00    -0.264 OA
ATOM     55  H   UNL     1      -4.571  -9.037  -2.152  1.00  0.00     0.236 HD
ENDBRANCH  51  54
ENDBRANCH  50  51
ENDBRANCH   8  50
TORSDOF 19
ENDMDL
MODEL 5
REMARK VINA RESULT:    -6.654      2.543      3.742
REMARK INTER + INTRA:         -18.034
REMARK INTER:                 -14.445
REMARK INTRA:                  -3.589
REMARK UNBOUND:                -4.573
REMARK SMILES CC[C@@H](C)[C@@H](NC(=O)[C@@H](O)Cc1ccc(O)c(Cl)c1)C(=O)N1[C@H](C(=O)NCCCCN=C(N)N)C[C@H]2CC[C@H](OS(=O)(=O)O)C[C@@H]21
REMARK SMILES IDX 22 1 36 2 46 3 35 4 23 5 45 6 37 7 39 8 38 9 20 10 21 11
REMARK SMILES IDX 5 12 6 13 7 14 8 15 9 17 11 18 12 19 17 20 19 21 15 22 14 23
REMARK SMILES IDX 13 24 18 25 16 26 10 28 3 30 4 31 2 32 1 33 24 34 25 35
REMARK SMILES IDX 26 36 27 38 28 39 29 40 30 41 31 42 32 43 33 44 34 45 40 50
REMARK SMILES IDX 41 51 42 52 43 53 44 54
REMARK H PARENT 6 16 16 27 10 29 26 37 33 46 33 47 34 48 34 49 44 55
ROOT
ATOM      1  N   UNL     1       9.260   4.341  -3.139  1.00  0.00    -0.326 N 
ATOM      2  C   UNL     1      10.943   5.984  -3.028  1.00  0.00     0.014 C 
ATOM      3  C   UNL     1       9.444   5.758  -2.810  1.00  0.00     0.091 C 
ATOM      4  C   UNL     1      11.252   5.068  -4.202  1.00  0.00     0.041 C 
ATOM      5  C   UNL     1      10.491   3.802  -3.768  1.00  0.00     0.175 C 
ATOM      6  C   UNL     1       9.084   6.227  -1.401  1.00  0.00     0.059 C 
ATOM      7  C   UNL     1      11.257   7.463  -3.136  1.00  0.00     0.008 C 
ATOM      8  C   UNL     1       9.943   7.409  -0.902  1.00  0.00     0.143 C 
ATOM      9  C   UNL     1      10.485   8.263  -2.066  1.00  0.00     0.034 C 
ENDROOT
BRANCH   1  10
ATOM     10  C   UNL     1       8.108   3.573  -3.143  1.00  0.00     0.246 C 
ATOM     11  O   UNL     1       7.953   2.728  -4.031  1.00  0.00    -0.272 OA
BRANCH  10  12
ATOM     12  C   UNL     1       7.058   3.759  -2.010  1.00  0.00     0.174 C 
BRANCH  12  13
ATOM     13  N   UNL     1       7.162   2.663  -1.048  1.00  0.00    -0.342 N 
ATOM     14  C   UNL     1       8.137   2.548  -0.083  1.00  0.00     0.249 C 
ATOM     15  O   UNL     1       9.020   3.378   0.097  1.00  0.00    -0.272 OA
ATOM     16  H   UNL     1       6.598   1.826  -1.175  1.00  0.00     0.164 HD
BRANCH  14  17
ATOM     17  C   UNL     1       7.987   1.268   0.767  1.00  0.00     0.207 C 
BRANCH  17  18
ATOM     18  C   UNL     1       6.580   0.683   0.609  1.00  0.00     0.077 C 
BRANCH  18  19
ATOM     19  C   UNL     1       6.620  -0.782   0.237  1.00  0.00    -0.043 A 
ATOM     20  C   UNL     1       6.789  -3.113   0.887  1.00  0.00     0.083 A 
ATOM     21  C   UNL     1       6.702  -1.765   1.236  1.00  0.00     0.028 A 
ATOM     22  C   UNL     1       6.795  -3.488  -0.457  1.00  0.00     0.134 A 
ATOM     23  C   UNL     1       6.713  -2.525  -1.457  1.00  0.00     0.048 A 
ATOM     24  C   UNL     1       6.628  -1.175  -1.111  1.00  0.00     0.008 A 
ATOM     25  Cl  UNL     1       6.890  -4.306   2.129  1.00  0.00    -0.080 Cl
BRANCH  22  26
ATOM     26  O   UNL     1       6.888  -4.796  -0.848  1.00  0.00    -0.506 OA
ATOM     27  H   UNL     1       6.148  -4.959  -1.461  1.00  0.00     0.293 HD
ENDBRANCH  22  26
ENDBRANCH  18  19
ENDBRANCH  17  18
BRANCH  17  28
ATOM     28  O   UNL     1       8.238   1.537   2.156  1.00  0.00    -0.383 OA
ATOM     29  H   UNL     1       8.940   0.905   2.432  1.00  0.00     0.211 HD
ENDBRANCH  17  28
ENDBRANCH  14  17
ENDBRANCH  12  13
BRANCH  12  30
ATOM     30  C   UNL     1       5.614   3.935  -2.553  1.00  0.00     0.018 C 
ATOM     31  C   UNL     1       5.190   5.412  -2.508  1.00  0.00     0.010 C 
BRANCH  30  32
ATOM     32  C   UNL     1       4.566   3.058  -1.827  1.00  0.00     0.002 C 
ATOM     33  C   UNL     1       3.811   2.077  -2.715  1.00  0.00     0.004 C 
ENDBRANCH  30  32
ENDBRANCH  12  30
ENDBRANCH  10  12
ENDBRANCH   1  10
BRANCH   5  34
ATOM     34  C   UNL     1      11.308   2.965  -2.749  1.00  0.00     0.242 C 
ATOM     35  O   UNL     1      12.428   3.303  -2.367  1.00  0.00    -0.273 OA
ATOM     36  N   UNL     1      10.714   1.790  -2.345  1.00  0.00    -0.354 N 
ATOM     37  H   UNL     1       9.840   1.504  -2.788  1.00  0.00     0.163 HD
BRANCH  36  38
ATOM     38  C   UNL     1      11.230   1.000  -1.247  1.00  0.00     0.116 C 
BRANCH  38  39
ATOM     39  C   UNL     1      10.628  -0.403  -1.290  1.00  0.00     0.023 C 
BRANCH  39  40
ATOM     40  C   UNL     1      11.659  -1.469  -1.641  1.00  0.00     0.026 C 
BRANCH  40  41
ATOM     41  C   UNL     1      12.910  -0.835  -2.248  1.00  0.00     0.146 C 
BRANCH  41  42
ATOM     42  N   UNL     1      12.738  -0.685  -3.687  1.00  0.00    -0.254 NA
ATOM     43  C   UNL     1      13.378   0.232  -4.310  1.00  0.00     0.185 C 
ATOM     44  N   UNL     1      14.246   1.150  -3.845  1.00  0.00    -0.370 N 
ATOM     45  N   UNL     1      13.202   0.357  -5.635  1.00  0.00    -0.370 N 
ATOM     46  H   UNL     1      14.483   1.957  -4.396  1.00  0.00     0.159 HD
ATOM     47  H   UNL     1      14.505   1.190  -2.864  1.00  0.00     0.159 HD
ATOM     48  H   UNL     1      12.569  -0.303  -6.067  1.00  0.00     0.159 HD
ATOM     49  H   UNL     1      13.829   0.878  -6.221  1.00  0.00     0.159 HD
ENDBRANCH  41  42
ENDBRANCH  40  41
ENDBRANCH  39  40
ENDBRANCH  38  39
ENDBRANCH  36  38
ENDBRANCH   5  34
BRANCH   8  50
ATOM     50  O   UNL     1      11.050   6.924  -0.141  1.00  0.00    -0.245 OA
BRANCH  50  51
ATOM     51  S   UNL     1      11.531   7.736   1.183  1.00  0.00     0.397 S 
ATOM     52  O   UNL     1      10.371   8.381   1.757  1.00  0.00    -0.169 OA
ATOM     53  O   UNL     1      12.742   8.474   0.888  1.00  0.00    -0.169 OA
BRANCH  51  54
ATOM     54  O   UNL     1      11.911   6.541   2.190  1.00  0.00    -0.264 OA
ATOM     55  H   UNL     1      11.712   5.696   1.738  1.00  0.00     0.236 HD
ENDBRANCH  51  54
ENDBRANCH  50  51
ENDBRANCH   8  50
TORSDOF 19
ENDMDL
MODEL 6
REMARK VINA RESULT:    -6.591     11.460     15.511
REMARK INTER + INTRA:         -17.906
REMARK INTER:                 -13.672
REMARK INTRA:                  -4.234
REMARK UNBOUND:                -4.573
REMARK SMILES CC[C@@H](C)[C@@H](NC(=O)[C@@H](O)Cc1ccc(O)c(Cl)c1)C(=O)N1[C@H](C(=O)NCCCCN=C(N)N)C[C@H]2CC[C@H](OS(=O)(=O)O)C[C@@H]21
REMARK SMILES IDX 22 1 36 2 46 3 35 4 23 5 45 6 37 7 39 8 38 9 20 10 21 11
REMARK SMILES IDX 5 12 6 13 7 14 8 15 9 17 11 18 12 19 17 20 19 21 15 22 14 23
REMARK SMILES IDX 13 24 18 25 16 26 10 28 3 30 4 31 2 32 1 33 24 34 25 35
REMARK SMILES IDX 26 36 27 38 28 39 29 40 30 41 31 42 32 43 33 44 34 45 40 50
REMARK SMILES IDX 41 51 42 52 43 53 44 54
REMARK H PARENT 6 16 16 27 10 29 26 37 33 46 33 47 34 48 34 49 44 55
ROOT
ATOM      1  N   UNL     1       1.266  -7.893   1.240  1.00  0.00    -0.326 N 
ATOM      2  C   UNL     1       0.257  -6.517   2.862  1.00  0.00     0.014 C 
ATOM      3  C   UNL     1       0.681  -7.961   2.583  1.00  0.00     0.091 C 
ATOM      4  C   UNL     1      -0.171  -6.022   1.489  1.00  0.00     0.041 C 
ATOM      5  C   UNL     1       0.983  -6.570   0.630  1.00  0.00     0.175 C 
ATOM      6  C   UNL     1       1.566  -8.436   3.734  1.00  0.00     0.059 C 
ATOM      7  C   UNL     1      -0.725  -6.453   4.015  1.00  0.00     0.008 C 
ATOM      8  C   UNL     1       1.204  -7.805   5.096  1.00  0.00     0.143 C 
ATOM      9  C   UNL     1      -0.277  -7.381   5.164  1.00  0.00     0.034 C 
ENDROOT
BRANCH   1  10
ATOM     10  C   UNL     1       1.804  -8.898   0.454  1.00  0.00     0.246 C 
ATOM     11  O   UNL     1       2.880  -9.408   0.784  1.00  0.00    -0.272 OA
BRANCH  10  12
ATOM     12  C   UNL     1       1.025  -9.391  -0.800  1.00  0.00     0.174 C 
BRANCH  12  13
ATOM     13  N   UNL     1      -0.413  -9.363  -0.536  1.00  0.00    -0.342 N 
ATOM     14  C   UNL     1      -1.368  -8.886  -1.406  1.00  0.00     0.249 C 
ATOM     15  O   UNL     1      -1.115  -8.452  -2.523  1.00  0.00    -0.272 OA
ATOM     16  H   UNL     1      -0.757  -9.544   0.404  1.00  0.00     0.164 HD
BRANCH  14  17
ATOM     17  C   UNL     1      -2.797  -8.976  -0.831  1.00  0.00     0.207 C 
BRANCH  17  18
ATOM     18  C   UNL     1      -2.912 -10.160   0.135  1.00  0.00     0.077 C 
BRANCH  18  19
ATOM     19  C   UNL     1      -3.067  -9.702   1.568  1.00  0.00    -0.043 A 
ATOM     20  C   UNL     1      -2.530  -9.941   3.922  1.00  0.00     0.083 A 
ATOM     21  C   UNL     1      -2.347 -10.332   2.595  1.00  0.00     0.028 A 
ATOM     22  C   UNL     1      -3.432  -8.922   4.231  1.00  0.00     0.134 A 
ATOM     23  C   UNL     1      -4.152  -8.289   3.224  1.00  0.00     0.048 A 
ATOM     24  C   UNL     1      -3.972  -8.680   1.895  1.00  0.00     0.008 A 
ATOM     25  Cl  UNL     1      -1.637 -10.727   5.169  1.00  0.00    -0.080 Cl
BRANCH  22  26
ATOM     26  O   UNL     1      -3.653  -8.511   5.517  1.00  0.00    -0.506 OA
ATOM     27  H   UNL     1      -3.220  -9.163   6.098  1.00  0.00     0.293 HD
ENDBRANCH  22  26
ENDBRANCH  18  19
ENDBRANCH  17  18
BRANCH  17  28
ATOM     28  O   UNL     1      -3.768  -9.121  -1.879  1.00  0.00    -0.383 OA
ATOM     29  H   UNL     1      -4.313  -9.905  -1.639  1.00  0.00     0.211 HD
ENDBRANCH  17  28
ENDBRANCH  14  17
ENDBRANCH  12  13
BRANCH  12  30
ATOM     30  C   UNL     1       1.509 -10.779  -1.299  1.00  0.00     0.018 C 
ATOM     31  C   UNL     1       1.782 -10.751  -2.811  1.00  0.00     0.010 C 
BRANCH  30  32
ATOM     32  C   UNL     1       0.540 -11.936  -0.955  1.00  0.00     0.002 C 
ATOM     33  C   UNL     1       0.375 -12.992  -2.040  1.00  0.00     0.004 C 
ENDBRANCH  30  32
ENDBRANCH  12  30
ENDBRANCH  10  12
ENDBRANCH   1  10
BRANCH   5  34
ATOM     34  C   UNL     1       2.233  -5.654   0.698  1.00  0.00     0.242 C 
ATOM     35  O   UNL     1       3.345  -6.079   1.012  1.00  0.00    -0.273 OA
ATOM     36  N   UNL     1       1.999  -4.323   0.436  1.00  0.00    -0.354 N 
ATOM     37  H   UNL     1       1.036  -4.011   0.300  1.00  0.00     0.163 HD
BRANCH  36  38
ATOM     38  C   UNL     1       3.074  -3.371   0.245  1.00  0.00     0.116 C 
BRANCH  38  39
ATOM     39  C   UNL     1       2.828  -2.132   1.103  1.00  0.00     0.023 C 
BRANCH  39  40
ATOM     40  C   UNL     1       1.705  -1.257   0.556  1.00  0.00     0.026 C 
BRANCH  40  41
ATOM     41  C   UNL     1       0.843  -0.708   1.692  1.00  0.00     0.146 C 
BRANCH  41  42
ATOM     42  N   UNL     1      -0.458  -1.364   1.684  1.00  0.00    -0.254 NA
ATOM     43  C   UNL     1      -0.688  -2.325   2.498  1.00  0.00     0.185 C 
ATOM     44  N   UNL     1       0.110  -2.880   3.428  1.00  0.00    -0.370 N 
ATOM     45  N   UNL     1      -1.892  -2.920   2.471  1.00  0.00    -0.370 N 
ATOM     46  H   UNL     1      -0.110  -3.779   3.823  1.00  0.00     0.159 HD
ATOM     47  H   UNL     1       1.053  -2.542   3.592  1.00  0.00     0.159 HD
ATOM     48  H   UNL     1      -2.557  -2.555   1.803  1.00  0.00     0.159 HD
ATOM     49  H   UNL     1      -2.227  -3.503   3.217  1.00  0.00     0.159 HD
ENDBRANCH  41  42
ENDBRANCH  40  41
ENDBRANCH  39  40
ENDBRANCH  38  39
ENDBRANCH  36  38
ENDBRANCH   5  34
BRANCH   8  50
ATOM     50  O   UNL     1       2.016  -6.655   5.335  1.00  0.00    -0.245 OA
BRANCH  50  51
ATOM     51  S   UNL     1       2.355  -6.214   6.863  1.00  0.00     0.397 S 
ATOM     52  O   UNL     1       3.709  -5.707   6.892  1.00  0.00    -0.169 OA
ATOM     53  O   UNL     1       1.911  -7.246   7.777  1.00  0.00    -0.169 OA
BRANCH  51  54
ATOM     54  O   UNL     1       1.404  -4.933   7.062  1.00  0.00    -0.264 OA
ATOM     55  H   UNL     1       1.930  -4.236   7.503  1.00  0.00     0.236 HD
ENDBRANCH  51  54
ENDBRANCH  50  51
ENDBRANCH   8  50
TORSDOF 19
ENDMDL
MODEL 7
REMARK VINA RESULT:    -6.588     12.355     16.202
REMARK INTER + INTRA:         -17.901
REMARK INTER:                 -13.880
REMARK INTRA:                  -4.021
REMARK UNBOUND:                -4.573
REMARK SMILES CC[C@@H](C)[C@@H](NC(=O)[C@@H](O)Cc1ccc(O)c(Cl)c1)C(=O)N1[C@H](C(=O)NCCCCN=C(N)N)C[C@H]2CC[C@H](OS(=O)(=O)O)C[C@@H]21
REMARK SMILES IDX 22 1 36 2 46 3 35 4 23 5 45 6 37 7 39 8 38 9 20 10 21 11
REMARK SMILES IDX 5 12 6 13 7 14 8 15 9 17 11 18 12 19 17 20 19 21 15 22 14 23
REMARK SMILES IDX 13 24 18 25 16 26 10 28 3 30 4 31 2 32 1 33 24 34 25 35
REMARK SMILES IDX 26 36 27 38 28 39 29 40 30 41 31 42 32 43 33 44 34 45 40 50
REMARK SMILES IDX 41 51 42 52 43 53 44 54
REMARK H PARENT 6 16 16 27 10 29 26 37 33 46 33 47 34 48 34 49 44 55
ROOT
ATOM      1  N   UNL     1      -0.572  -6.491   2.694  1.00  0.00    -0.326 N 
ATOM      2  C   UNL     1      -1.963  -8.080   3.733  1.00  0.00     0.014 C 
ATOM      3  C   UNL     1      -1.979  -6.894   2.765  1.00  0.00     0.091 C 
ATOM      4  C   UNL     1      -0.868  -7.696   4.716  1.00  0.00     0.041 C 
ATOM      5  C   UNL     1       0.212  -7.196   3.738  1.00  0.00     0.175 C 
ATOM      6  C   UNL     1      -2.674  -7.331   1.477  1.00  0.00     0.059 C 
ATOM      7  C   UNL     1      -3.357  -8.376   4.252  1.00  0.00     0.008 C 
ATOM      8  C   UNL     1      -3.779  -8.387   1.694  1.00  0.00     0.143 C 
ATOM      9  C   UNL     1      -4.390  -8.304   3.107  1.00  0.00     0.034 C 
ENDROOT
BRANCH   1  10
ATOM     10  C   UNL     1       0.021  -5.458   1.987  1.00  0.00     0.246 C 
ATOM     11  O   UNL     1       0.365  -5.651   0.816  1.00  0.00    -0.272 OA
BRANCH  10  12
ATOM     12  C   UNL     1       0.204  -4.070   2.665  1.00  0.00     0.174 C 
BRANCH  12  13
ATOM     13  N   UNL     1       1.237  -4.151   3.698  1.00  0.00    -0.342 N 
ATOM     14  C   UNL     1       2.236  -3.224   3.890  1.00  0.00     0.249 C 
ATOM     15  O   UNL     1       2.355  -2.201   3.226  1.00  0.00    -0.272 OA
ATOM     16  H   UNL     1       1.360  -5.015   4.220  1.00  0.00     0.164 HD
BRANCH  14  17
ATOM     17  C   UNL     1       3.183  -3.600   5.050  1.00  0.00     0.207 C 
BRANCH  17  18
ATOM     18  C   UNL     1       2.969  -2.662   6.242  1.00  0.00     0.077 C 
BRANCH  18  19
ATOM     19  C   UNL     1       1.848  -3.139   7.138  1.00  0.00    -0.043 A 
ATOM     20  C   UNL     1       0.143  -2.676   8.800  1.00  0.00     0.083 A 
ATOM     21  C   UNL     1       1.143  -2.225   7.937  1.00  0.00     0.028 A 
ATOM     22  C   UNL     1      -0.158  -4.036   8.871  1.00  0.00     0.134 A 
ATOM     23  C   UNL     1       0.533  -4.952   8.085  1.00  0.00     0.048 A 
ATOM     24  C   UNL     1       1.536  -4.505   7.222  1.00  0.00     0.008 A 
ATOM     25  Cl  UNL     1      -0.712  -1.538   9.774  1.00  0.00    -0.080 Cl
BRANCH  22  26
ATOM     26  O   UNL     1      -1.123  -4.526   9.709  1.00  0.00    -0.506 OA
ATOM     27  H   UNL     1      -1.884  -3.921   9.643  1.00  0.00     0.293 HD
ENDBRANCH  22  26
ENDBRANCH  18  19
ENDBRANCH  17  18
BRANCH  17  28
ATOM     28  O   UNL     1       4.557  -3.539   4.636  1.00  0.00    -0.383 OA
ATOM     29  H   UNL     1       4.573  -2.979   3.827  1.00  0.00     0.211 HD
ENDBRANCH  17  28
ENDBRANCH  14  17
ENDBRANCH  12  13
BRANCH  12  30
ATOM     30  C   UNL     1      -1.129  -3.486   3.206  1.00  0.00     0.018 C 
ATOM     31  C   UNL     1      -1.448  -2.140   2.537  1.00  0.00     0.010 C 
BRANCH  30  32
ATOM     32  C   UNL     1      -1.163  -3.337   4.746  1.00  0.00     0.002 C 
ATOM     33  C   UNL     1      -2.068  -4.320   5.477  1.00  0.00     0.004 C 
ENDBRANCH  30  32
ENDBRANCH  12  30
ENDBRANCH  10  12
ENDBRANCH   1  10
BRANCH   5  34
ATOM     34  C   UNL     1       1.016  -8.372   3.123  1.00  0.00     0.242 C 
ATOM     35  O   UNL     1       1.038  -9.492   3.633  1.00  0.00    -0.273 OA
ATOM     36  N   UNL     1       1.743  -8.058   1.997  1.00  0.00    -0.354 N 
ATOM     37  H   UNL     1       1.780  -7.085   1.691  1.00  0.00     0.163 HD
BRANCH  36  38
ATOM     38  C   UNL     1       2.373  -9.072   1.175  1.00  0.00     0.116 C 
BRANCH  38  39
ATOM     39  C   UNL     1       3.155  -8.410   0.044  1.00  0.00     0.023 C 
BRANCH  39  40
ATOM     40  C   UNL     1       2.245  -7.836  -1.037  1.00  0.00     0.026 C 
BRANCH  40  41
ATOM     41  C   UNL     1       1.353  -8.927  -1.630  1.00  0.00     0.146 C 
BRANCH  41  42
ATOM     42  N   UNL     1      -0.028  -8.467  -1.669  1.00  0.00    -0.254 NA
ATOM     43  C   UNL     1      -0.880  -9.082  -2.400  1.00  0.00     0.185 C 
ATOM     44  N   UNL     1      -0.722 -10.155  -3.197  1.00  0.00    -0.370 N 
ATOM     45  N   UNL     1      -2.148  -8.639  -2.425  1.00  0.00    -0.370 N 
ATOM     46  H   UNL     1      -1.409 -10.380  -3.895  1.00  0.00     0.159 HD
ATOM     47  H   UNL     1       0.173 -10.625  -3.285  1.00  0.00     0.159 HD
ATOM     48  H   UNL     1      -2.355  -7.838  -1.845  1.00  0.00     0.159 HD
ATOM     49  H   UNL     1      -2.911  -9.193  -2.774  1.00  0.00     0.159 HD
ENDBRANCH  41  42
ENDBRANCH  40  41
ENDBRANCH  39  40
ENDBRANCH  38  39
ENDBRANCH  36  38
ENDBRANCH   5  34
BRANCH   8  50
ATOM     50  O   UNL     1      -3.247  -9.699   1.506  1.00  0.00    -0.245 OA
BRANCH  50  51
ATOM     51  S   UNL     1      -3.900 -10.676   0.382  1.00  0.00     0.397 S 
ATOM     52  O   UNL     1      -4.323  -9.857  -0.731  1.00  0.00    -0.169 OA
ATOM     53  O   UNL     1      -4.800 -11.616   1.019  1.00  0.00    -0.169 OA
BRANCH  51  54
ATOM     54  O   UNL     1      -2.617 -11.494  -0.138  1.00  0.00    -0.264 OA
ATOM     55  H   UNL     1      -2.904 -12.054  -0.888  1.00  0.00     0.236 HD
ENDBRANCH  51  54
ENDBRANCH  50  51
ENDBRANCH   8  50
TORSDOF 19
ENDMDL
MODEL 8
REMARK VINA RESULT:    -6.580      2.861      4.540
REMARK INTER + INTRA:         -17.883
REMARK INTER:                 -14.157
REMARK INTRA:                  -3.726
REMARK UNBOUND:                -4.573
REMARK SMILES CC[C@@H](C)[C@@H](NC(=O)[C@@H](O)Cc1ccc(O)c(Cl)c1)C(=O)N1[C@H](C(=O)NCCCCN=C(N)N)C[C@H]2CC[C@H](OS(=O)(=O)O)C[C@@H]21
REMARK SMILES IDX 22 1 36 2 46 3 35 4 23 5 45 6 37 7 39 8 38 9 20 10 21 11
REMARK SMILES IDX 5 12 6 13 7 14 8 15 9 17 11 18 12 19 17 20 19 21 15 22 14 23
REMARK SMILES IDX 13 24 18 25 16 26 10 28 3 30 4 31 2 32 1 33 24 34 25 35
REMARK SMILES IDX 26 36 27 38 28 39 29 40 30 41 31 42 32 43 33 44 34 45 40 50
REMARK SMILES IDX 41 51 42 52 43 53 44 54
REMARK H PARENT 6 16 16 27 10 29 26 37 33 46 33 47 34 48 34 49 44 55
ROOT
ATOM      1  N   UNL     1       8.507   4.496  -2.222  1.00  0.00    -0.326 N 
ATOM      2  C   UNL     1       9.883   5.981  -1.020  1.00  0.00     0.014 C 
ATOM      3  C   UNL     1       8.433   5.512  -1.168  1.00  0.00     0.091 C 
ATOM      4  C   UNL     1      10.409   5.897  -2.444  1.00  0.00     0.041 C 
ATOM      5  C   UNL     1       9.846   4.526  -2.862  1.00  0.00     0.175 C 
ATOM      6  C   UNL     1       7.918   5.092   0.207  1.00  0.00     0.059 C 
ATOM      7  C   UNL     1       9.952   7.302  -0.279  1.00  0.00     0.008 C 
ATOM      8  C   UNL     1       8.537   5.893   1.374  1.00  0.00     0.143 C 
ATOM      9  C   UNL     1       8.996   7.297   0.933  1.00  0.00     0.034 C 
ENDROOT
BRANCH   1  10
ATOM     10  C   UNL     1       7.502   3.737  -2.796  1.00  0.00     0.246 C 
ATOM     11  O   UNL     1       7.683   3.248  -3.916  1.00  0.00    -0.272 OA
BRANCH  10  12
ATOM     12  C   UNL     1       6.188   3.480  -2.003  1.00  0.00     0.174 C 
BRANCH  12  13
ATOM     13  N   UNL     1       6.024   2.047  -1.761  1.00  0.00    -0.342 N 
ATOM     14  C   UNL     1       6.681   1.330  -0.786  1.00  0.00     0.249 C 
ATOM     15  O   UNL     1       7.465   1.826   0.013  1.00  0.00    -0.272 OA
ATOM     16  H   UNL     1       5.528   1.475  -2.440  1.00  0.00     0.164 HD
BRANCH  14  17
ATOM     17  C   UNL     1       6.307  -0.168  -0.795  1.00  0.00     0.207 C 
BRANCH  17  18
ATOM     18  C   UNL     1       6.694  -0.809  -2.131  1.00  0.00     0.077 C 
BRANCH  18  19
ATOM     19  C   UNL     1       7.405  -2.129  -1.936  1.00  0.00    -0.043 A 
ATOM     20  C   UNL     1       8.541  -3.713  -0.492  1.00  0.00     0.083 A 
ATOM     21  C   UNL     1       7.842  -2.517  -0.660  1.00  0.00     0.028 A 
ATOM     22  C   UNL     1       8.808  -4.526  -1.594  1.00  0.00     0.134 A 
ATOM     23  C   UNL     1       8.380  -4.155  -2.863  1.00  0.00     0.048 A 
ATOM     24  C   UNL     1       7.682  -2.957  -3.035  1.00  0.00     0.008 A 
ATOM     25  Cl  UNL     1       9.070  -4.171   1.084  1.00  0.00    -0.080 Cl
BRANCH  22  26
ATOM     26  O   UNL     1       9.499  -5.702  -1.480  1.00  0.00    -0.506 OA
ATOM     27  H   UNL     1      10.055  -5.625  -0.682  1.00  0.00     0.293 HD
ENDBRANCH  22  26
ENDBRANCH  18  19
ENDBRANCH  17  18
BRANCH  17  28
ATOM     28  O   UNL     1       4.901  -0.351  -0.567  1.00  0.00    -0.383 OA
ATOM     29  H   UNL     1       4.792  -1.285  -0.276  1.00  0.00     0.211 HD
ENDBRANCH  17  28
ENDBRANCH  14  17
ENDBRANCH  12  13
BRANCH  12  30
ATOM     30  C   UNL     1       4.943   4.112  -2.683  1.00  0.00     0.018 C 
ATOM     31  C   UNL     1       5.223   5.567  -3.089  1.00  0.00     0.010 C 
BRANCH  30  32
ATOM     32  C   UNL     1       3.659   4.037  -1.822  1.00  0.00     0.002 C 
ATOM     33  C   UNL     1       2.639   2.996  -2.263  1.00  0.00     0.004 C 
ENDBRANCH  30  32
ENDBRANCH  12  30
ENDBRANCH  10  12
ENDBRANCH   1  10
BRANCH   5  34
ATOM     34  C   UNL     1      10.730   3.362  -2.343  1.00  0.00     0.242 C 
ATOM     35  O   UNL     1      11.959   3.394  -2.398  1.00  0.00    -0.273 OA
ATOM     36  N   UNL     1      10.040   2.269  -1.867  1.00  0.00    -0.354 N 
ATOM     37  H   UNL     1       9.023   2.252  -1.958  1.00  0.00     0.163 HD
BRANCH  36  38
ATOM     38  C   UNL     1      10.694   1.193  -1.151  1.00  0.00     0.116 C 
BRANCH  38  39
ATOM     39  C   UNL     1      10.367  -0.143  -1.814  1.00  0.00     0.023 C 
BRANCH  39  40
ATOM     40  C   UNL     1      11.418  -1.209  -1.523  1.00  0.00     0.026 C 
BRANCH  40  41
ATOM     41  C   UNL     1      12.801  -0.747  -1.983  1.00  0.00     0.146 C 
BRANCH  41  42
ATOM     42  N   UNL     1      12.851  -0.715  -3.439  1.00  0.00    -0.254 NA
ATOM     43  C   UNL     1      13.313   0.319  -4.034  1.00  0.00     0.185 C 
ATOM     44  N   UNL     1      13.798   1.466  -3.524  1.00  0.00    -0.370 N 
ATOM     45  N   UNL     1      13.347   0.331  -5.376  1.00  0.00    -0.370 N 
ATOM     46  H   UNL     1      13.898   2.283  -4.103  1.00  0.00     0.159 HD
ATOM     47  H   UNL     1      13.859   1.621  -2.522  1.00  0.00     0.159 HD
ATOM     48  H   UNL     1      13.007  -0.501  -5.840  1.00  0.00     0.159 HD
ATOM     49  H   UNL     1      13.900   0.985  -5.901  1.00  0.00     0.159 HD
ENDBRANCH  41  42
ENDBRANCH  40  41
ENDBRANCH  39  40
ENDBRANCH  38  39
ENDBRANCH  36  38
ENDBRANCH   5  34
BRANCH   8  50
ATOM     50  O   UNL     1       9.662   5.194   1.906  1.00  0.00    -0.245 OA
BRANCH  50  51
ATOM     51  S   UNL     1       9.442   4.099   3.089  1.00  0.00     0.397 S 
ATOM     52  O   UNL     1      10.588   3.218   3.100  1.00  0.00    -0.169 OA
ATOM     53  O   UNL     1       8.090   3.586   3.031  1.00  0.00    -0.169 OA
BRANCH  51  54
ATOM     54  O   UNL     1       9.573   5.005   4.411  1.00  0.00    -0.264 OA
ATOM     55  H   UNL     1       8.775   5.568   4.468  1.00  0.00     0.236 HD
ENDBRANCH  51  54
ENDBRANCH  50  51
ENDBRANCH   8  50
TORSDOF 19
ENDMDL
MODEL 9
REMARK VINA RESULT:    -6.554     13.604     18.511
REMARK INTER + INTRA:         -17.831
REMARK INTER:                 -13.444
REMARK INTRA:                  -4.388
REMARK UNBOUND:                -4.573
REMARK SMILES CC[C@@H](C)[C@@H](NC(=O)[C@@H](O)Cc1ccc(O)c(Cl)c1)C(=O)N1[C@H](C(=O)NCCCCN=C(N)N)C[C@H]2CC[C@H](OS(=O)(=O)O)C[C@@H]21
REMARK SMILES IDX 22 1 36 2 46 3 35 4 23 5 45 6 37 7 39 8 38 9 20 10 21 11
REMARK SMILES IDX 5 12 6 13 7 14 8 15 9 17 11 18 12 19 17 20 19 21 15 22 14 23
REMARK SMILES IDX 13 24 18 25 16 26 10 28 3 30 4 31 2 32 1 33 24 34 25 35
REMARK SMILES IDX 26 36 27 38 28 39 29 40 30 41 31 42 32 43 33 44 34 45 40 50
REMARK SMILES IDX 41 51 42 52 43 53 44 54
REMARK H PARENT 6 16 16 27 10 29 26 37 33 46 33 47 34 48 34 49 44 55
ROOT
ATOM      1  N   UNL     1      -2.066  -8.820   2.379  1.00  0.00    -0.326 N 
ATOM      2  C   UNL     1      -2.439  -9.286   0.102  1.00  0.00     0.014 C 
ATOM      3  C   UNL     1      -1.331  -9.109   1.144  1.00  0.00     0.091 C 
ATOM      4  C   UNL     1      -3.492  -8.288   0.560  1.00  0.00     0.041 C 
ATOM      5  C   UNL     1      -3.496  -8.572   2.073  1.00  0.00     0.175 C 
ATOM      6  C   UNL     1      -0.432 -10.343   1.107  1.00  0.00     0.059 C 
ATOM      7  C   UNL     1      -1.882  -9.185  -1.305  1.00  0.00     0.008 C 
ATOM      8  C   UNL     1      -0.319 -10.988  -0.292  1.00  0.00     0.143 C 
ATOM      9  C   UNL     1      -0.556  -9.966  -1.422  1.00  0.00     0.034 C 
ENDROOT
BRANCH   1  10
ATOM     10  C   UNL     1      -1.591  -8.552   3.651  1.00  0.00     0.246 C 
ATOM     11  O   UNL     1      -1.555  -9.463   4.485  1.00  0.00    -0.272 OA
BRANCH  10  12
ATOM     12  C   UNL     1      -1.075  -7.123   3.992  1.00  0.00     0.174 C 
BRANCH  12  13
ATOM     13  N   UNL     1      -0.053  -6.719   3.027  1.00  0.00    -0.342 N 
ATOM     14  C   UNL     1      -0.254  -5.841   1.985  1.00  0.00     0.249 C 
ATOM     15  O   UNL     1      -1.317  -5.273   1.766  1.00  0.00    -0.272 OA
ATOM     16  H   UNL     1       0.829  -7.223   2.986  1.00  0.00     0.164 HD
BRANCH  14  17
ATOM     17  C   UNL     1       1.015  -5.631   1.131  1.00  0.00     0.207 C 
BRANCH  17  18
ATOM     18  C   UNL     1       2.130  -6.577   1.587  1.00  0.00     0.077 C 
BRANCH  18  19
ATOM     19  C   UNL     1       2.477  -7.592   0.521  1.00  0.00    -0.043 A 
ATOM     20  C   UNL     1       2.469  -8.286  -1.803  1.00  0.00     0.083 A 
ATOM     21  C   UNL     1       2.194  -7.327  -0.828  1.00  0.00     0.028 A 
ATOM     22  C   UNL     1       3.026  -9.513  -1.439  1.00  0.00     0.134 A 
ATOM     23  C   UNL     1       3.312  -9.788  -0.107  1.00  0.00     0.048 A 
ATOM     24  C   UNL     1       3.035  -8.831   0.872  1.00  0.00     0.008 A 
ATOM     25  Cl  UNL     1       2.114  -7.943  -3.455  1.00  0.00    -0.080 Cl
BRANCH  22  26
ATOM     26  O   UNL     1       3.304 -10.488  -2.358  1.00  0.00    -0.506 OA
ATOM     27  H   UNL     1       2.669 -10.373  -3.089  1.00  0.00     0.293 HD
ENDBRANCH  22  26
ENDBRANCH  18  19
ENDBRANCH  17  18
BRANCH  17  28
ATOM     28  O   UNL     1       1.477  -4.273   1.217  1.00  0.00    -0.383 OA
ATOM     29  H   UNL     1       2.373  -4.316   1.621  1.00  0.00     0.211 HD
ENDBRANCH  17  28
ENDBRANCH  14  17
ENDBRANCH  12  13
BRANCH  12  30
ATOM     30  C   UNL     1      -0.587  -6.996   5.460  1.00  0.00     0.018 C 
ATOM     31  C   UNL     1      -1.075  -5.680   6.086  1.00  0.00     0.010 C 
BRANCH  30  32
ATOM     32  C   UNL     1       0.948  -7.123   5.617  1.00  0.00     0.002 C 
ATOM     33  C   UNL     1       1.439  -8.458   6.161  1.00  0.00     0.004 C 
ENDBRANCH  30  32
ENDBRANCH  12  30
ENDBRANCH  10  12
ENDBRANCH   1  10
BRANCH   5  34
ATOM     34  C   UNL     1      -4.357  -9.816   2.419  1.00  0.00     0.242 C 
ATOM     35  O   UNL     1      -5.552  -9.889   2.135  1.00  0.00    -0.273 OA
ATOM     36  N   UNL     1      -3.701 -10.807   3.115  1.00  0.00    -0.354 N 
ATOM     37  H   UNL     1      -2.744 -10.638   3.427  1.00  0.00     0.163 HD
BRANCH  36  38
ATOM     38  C   UNL     1      -4.283 -12.116   3.329  1.00  0.00     0.116 C 
BRANCH  38  39
ATOM     39  C   UNL     1      -5.054 -12.131   4.647  1.00  0.00     0.023 C 
BRANCH  39  40
ATOM     40  C   UNL     1      -4.748 -13.365   5.488  1.00  0.00     0.026 C 
BRANCH  40  41
ATOM     41  C   UNL     1      -3.835 -13.009   6.661  1.00  0.00     0.146 C 
BRANCH  41  42
ATOM     42  N   UNL     1      -2.447 -12.990   6.217  1.00  0.00    -0.254 NA
ATOM     43  C   UNL     1      -1.725 -11.958   6.443  1.00  0.00     0.185 C 
ATOM     44  N   UNL     1      -2.035 -10.803   7.060  1.00  0.00    -0.370 N 
ATOM     45  N   UNL     1      -0.450 -11.958   6.022  1.00  0.00    -0.370 N 
ATOM     46  H   UNL     1      -1.452  -9.991   6.951  1.00  0.00     0.159 HD
ATOM     47  H   UNL     1      -2.957 -10.639   7.453  1.00  0.00     0.159 HD
ATOM     48  H   UNL     1      -0.132 -12.795   5.553  1.00  0.00     0.159 HD
ATOM     49  H   UNL     1       0.235 -11.305   6.360  1.00  0.00     0.159 HD
ENDBRANCH  41  42
ENDBRANCH  40  41
ENDBRANCH  39  40
ENDBRANCH  38  39
ENDBRANCH  36  38
ENDBRANCH   5  34
BRANCH   8  50
ATOM     50  O   UNL     1      -1.274 -12.041  -0.425  1.00  0.00    -0.245 OA
BRANCH  50  51
ATOM     51  S   UNL     1      -0.804 -13.583  -0.211  1.00  0.00     0.397 S 
ATOM     52  O   UNL     1      -1.446 -14.390  -1.225  1.00  0.00    -0.169 OA
ATOM     53  O   UNL     1      -0.882 -13.925   1.194  1.00  0.00    -0.169 OA
BRANCH  51  54
ATOM     54  O   UNL     1       0.750 -13.520  -0.620  1.00  0.00    -0.264 OA
ATOM     55  H   UNL     1       1.178 -12.838  -0.063  1.00  0.00     0.236 HD
ENDBRANCH  51  54
ENDBRANCH  50  51
ENDBRANCH   8  50
TORSDOF 19
ENDMDL
MODEL 10
REMARK VINA RESULT:    -6.545     14.421     18.562
REMARK INTER + INTRA:         -17.813
REMARK INTER:                 -14.065
REMARK INTRA:                  -3.748
REMARK UNBOUND:                -4.573
REMARK SMILES CC[C@@H](C)[C@@H](NC(=O)[C@@H](O)Cc1ccc(O)c(Cl)c1)C(=O)N1[C@H](C(=O)NCCCCN=C(N)N)C[C@H]2CC[C@H](OS(=O)(=O)O)C[C@@H]21
REMARK SMILES IDX 22 1 36 2 46 3 35 4 23 5 45 6 37 7 39 8 38 9 20 10 21 11
REMARK SMILES IDX 5 12 6 13 7 14 8 15 9 17 11 18 12 19 17 20 19 21 15 22 14 23
REMARK SMILES IDX 13 24 18 25 16 26 10 28 3 30 4 31 2 32 1 33 24 34 25 35
REMARK SMILES IDX 26 36 27 38 28 39 29 40 30 41 31 42 32 43 33 44 34 45 40 50
REMARK SMILES IDX 41 51 42 52 43 53 44 54
REMARK H PARENT 6 16 16 27 10 29 26 37 33 46 33 47 34 48 34 49 44 55
ROOT
ATOM      1  N   UNL     1      -2.930 -10.792   2.265  1.00  0.00    -0.326 N 
ATOM      2  C   UNL     1      -3.291 -10.419  -0.031  1.00  0.00     0.014 C 
ATOM      3  C   UNL     1      -2.992  -9.701   1.288  1.00  0.00     0.091 C 
ATOM      4  C   UNL     1      -4.186 -11.568   0.409  1.00  0.00     0.041 C 
ATOM      5  C   UNL     1      -3.417 -12.052   1.652  1.00  0.00     0.175 C 
ATOM      6  C   UNL     1      -1.752  -8.831   1.094  1.00  0.00     0.059 C 
ATOM      7  C   UNL     1      -3.794  -9.443  -1.077  1.00  0.00     0.008 C 
ATOM      8  C   UNL     1      -1.601  -8.275  -0.338  1.00  0.00     0.143 C 
ATOM      9  C   UNL     1      -2.960  -8.145  -1.056  1.00  0.00     0.034 C 
ENDROOT
BRANCH   1  10
ATOM     10  C   UNL     1      -2.708 -10.749   3.631  1.00  0.00     0.246 C 
ATOM     11  O   UNL     1      -1.591 -11.045   4.069  1.00  0.00    -0.272 OA
BRANCH  10  12
ATOM     12  C   UNL     1      -3.852 -10.288   4.580  1.00  0.00     0.174 C 
BRANCH  12  13
ATOM     13  N   UNL     1      -3.544  -8.968   5.129  1.00  0.00    -0.342 N 
ATOM     14  C   UNL     1      -3.938  -7.771   4.576  1.00  0.00     0.249 C 
ATOM     15  O   UNL     1      -4.622  -7.679   3.565  1.00  0.00    -0.272 OA
ATOM     16  H   UNL     1      -2.857  -8.880   5.873  1.00  0.00     0.164 HD
BRANCH  14  17
ATOM     17  C   UNL     1      -3.441  -6.551   5.381  1.00  0.00     0.207 C 
BRANCH  17  18
ATOM     18  C   UNL     1      -1.918  -6.597   5.538  1.00  0.00     0.077 C 
BRANCH  18  19
ATOM     19  C   UNL     1      -1.210  -6.298   4.236  1.00  0.00    -0.043 A 
ATOM     20  C   UNL     1       0.600  -6.728   2.679  1.00  0.00     0.083 A 
ATOM     21  C   UNL     1      -0.080  -7.040   3.857  1.00  0.00     0.028 A 
ATOM     22  C   UNL     1       0.159  -5.677   1.875  1.00  0.00     0.134 A 
ATOM     23  C   UNL     1      -0.959  -4.935   2.238  1.00  0.00     0.048 A 
ATOM     24  C   UNL     1      -1.641  -5.242   3.417  1.00  0.00     0.008 A 
ATOM     25  Cl  UNL     1       1.987  -7.651   2.231  1.00  0.00    -0.080 Cl
BRANCH  22  26
ATOM     26  O   UNL     1       0.800  -5.328   0.717  1.00  0.00    -0.506 OA
ATOM     27  H   UNL     1       1.070  -6.160   0.285  1.00  0.00     0.293 HD
ENDBRANCH  22  26
ENDBRANCH  18  19
ENDBRANCH  17  18
BRANCH  17  28
ATOM     28  O   UNL     1      -4.053  -6.505   6.680  1.00  0.00    -0.383 OA
ATOM     29  H   UNL     1      -3.751  -7.314   7.152  1.00  0.00     0.211 HD
ENDBRANCH  17  28
ENDBRANCH  14  17
ENDBRANCH  12  13
BRANCH  12  30
ATOM     30  C   UNL     1      -4.171 -11.330   5.686  1.00  0.00     0.018 C 
ATOM     31  C   UNL     1      -3.240 -11.145   6.895  1.00  0.00     0.010 C 
BRANCH  30  32
ATOM     32  C   UNL     1      -4.116 -12.797   5.192  1.00  0.00     0.002 C 
ATOM     33  C   UNL     1      -4.507 -13.846   6.224  1.00  0.00     0.004 C 
ENDBRANCH  30  32
ENDBRANCH  12  30
ENDBRANCH  10  12
ENDBRANCH   1  10
BRANCH   5  34
ATOM     34  C   UNL     1      -2.228 -12.972   1.266  1.00  0.00     0.242 C 
ATOM     35  O   UNL     1      -1.501 -13.496   2.110  1.00  0.00    -0.273 OA
ATOM     36  N   UNL     1      -2.012 -13.114  -0.086  1.00  0.00    -0.354 N 
ATOM     37  H   UNL     1      -2.572 -12.560  -0.735  1.00  0.00     0.163 HD
BRANCH  36  38
ATOM     38  C   UNL     1      -1.092 -14.096  -0.623  1.00  0.00     0.116 C 
BRANCH  38  39
ATOM     39  C   UNL     1      -0.002 -13.397  -1.432  1.00  0.00     0.023 C 
BRANCH  39  40
ATOM     40  C   UNL     1       0.421 -14.201  -2.657  1.00  0.00     0.026 C 
BRANCH  40  41
ATOM     41  C   UNL     1       1.147 -13.311  -3.665  1.00  0.00     0.146 C 
BRANCH  41  42
ATOM     42  N   UNL     1       0.320 -13.135  -4.852  1.00  0.00    -0.254 NA
ATOM     43  C   UNL     1      -0.316 -12.038  -5.023  1.00  0.00     0.185 C 
ATOM     44  N   UNL     1      -0.364 -10.936  -4.253  1.00  0.00    -0.370 N 
ATOM     45  N   UNL     1      -1.077 -11.897  -6.122  1.00  0.00    -0.370 N 
ATOM     46  H   UNL     1      -1.088 -10.251  -4.382  1.00  0.00     0.159 HD
ATOM     47  H   UNL     1       0.165 -10.866  -3.389  1.00  0.00     0.159 HD
ATOM     48  H   UNL     1      -1.090 -12.680  -6.761  1.00  0.00     0.159 HD
ATOM     49  H   UNL     1      -1.407 -11.005  -6.444  1.00  0.00     0.159 HD
ENDBRANCH  41  42
ENDBRANCH  40  41
ENDBRANCH  39  40
ENDBRANCH  38  39
ENDBRANCH  36  38
ENDBRANCH   5  34
BRANCH   8  50
ATOM     50  O   UNL     1      -0.760  -9.132  -1.111  1.00  0.00    -0.245 OA
BRANCH  50  51
ATOM     51  S   UNL     1       0.555  -8.519  -1.845  1.00  0.00     0.397 S 
ATOM     52  O   UNL     1       1.436  -9.617  -2.173  1.00  0.00    -0.169 OA
ATOM     53  O   UNL     1       1.024  -7.360  -1.113  1.00  0.00    -0.169 OA
BRANCH  51  54
ATOM     54  O   UNL     1      -0.049  -8.009  -3.245  1.00  0.00    -0.264 OA
ATOM     55  H   UNL     1      -0.449  -7.128  -3.095  1.00  0.00     0.236 HD
ENDBRANCH  51  54
ENDBRANCH  50  51
ENDBRANCH   8  50
TORSDOF 19
ENDMDL
MODEL 11
REMARK VINA RESULT:    -6.510      1.927      2.623
REMARK INTER + INTRA:         -17.743
REMARK INTER:                 -13.376
REMARK INTRA:                  -4.367
REMARK UNBOUND:                -4.573
REMARK SMILES CC[C@@H](C)[C@@H](NC(=O)[C@@H](O)Cc1ccc(O)c(Cl)c1)C(=O)N1[C@H](C(=O)NCCCCN=C(N)N)C[C@H]2CC[C@H](OS(=O)(=O)O)C[C@@H]21
REMARK SMILES IDX 22 1 36 2 46 3 35 4 23 5 45 6 37 7 39 8 38 9 20 10 21 11
REMARK SMILES IDX 5 12 6 13 7 14 8 15 9 17 11 18 12 19 17 20 19 21 15 22 14 23
REMARK SMILES IDX 13 24 18 25 16 26 10 28 3 30 4 31 2 32 1 33 24 34 25 35
REMARK SMILES IDX 26 36 27 38 28 39 29 40 30 41 31 42 32 43 33 44 34 45 40 50
REMARK SMILES IDX 41 51 42 52 43 53 44 54
REMARK H PARENT 6 16 16 27 10 29 26 37 33 46 33 47 34 48 34 49 44 55
ROOT
ATOM      1  N   UNL     1       8.508   5.061  -2.525  1.00  0.00    -0.326 N 
ATOM      2  C   UNL     1       9.816   6.280  -0.994  1.00  0.00     0.014 C 
ATOM      3  C   UNL     1       8.381   5.831  -1.284  1.00  0.00     0.091 C 
ATOM      4  C   UNL     1      10.385   6.505  -2.386  1.00  0.00     0.041 C 
ATOM      5  C   UNL     1       9.863   5.245  -3.101  1.00  0.00     0.175 C 
ATOM      6  C   UNL     1       7.837   5.122  -0.045  1.00  0.00     0.059 C 
ATOM      7  C   UNL     1       9.836   7.416   0.010  1.00  0.00     0.008 C 
ATOM      8  C   UNL     1       8.404   5.669   1.283  1.00  0.00     0.143 C 
ATOM      9  C   UNL     1       8.846   7.141   1.162  1.00  0.00     0.034 C 
ENDROOT
BRANCH   1  10
ATOM     10  C   UNL     1       7.536   4.424  -3.278  1.00  0.00     0.246 C 
ATOM     11  O   UNL     1       7.682   4.341  -4.502  1.00  0.00    -0.272 OA
BRANCH  10  12
ATOM     12  C   UNL     1       6.306   3.791  -2.565  1.00  0.00     0.174 C 
BRANCH  12  13
ATOM     13  N   UNL     1       6.302   2.343  -2.769  1.00  0.00    -0.342 N 
ATOM     14  C   UNL     1       7.014   1.437  -2.014  1.00  0.00     0.249 C 
ATOM     15  O   UNL     1       7.716   1.746  -1.060  1.00  0.00    -0.272 OA
ATOM     16  H   UNL     1       5.893   1.954  -3.615  1.00  0.00     0.164 HD
BRANCH  14  17
ATOM     17  C   UNL     1       6.816  -0.019  -2.488  1.00  0.00     0.207 C 
BRANCH  17  18
ATOM     18  C   UNL     1       6.384  -0.909  -1.319  1.00  0.00     0.077 C 
BRANCH  18  19
ATOM     19  C   UNL     1       5.125  -0.395  -0.656  1.00  0.00    -0.043 A 
ATOM     20  C   UNL     1       3.879   0.153   1.351  1.00  0.00     0.083 A 
ATOM     21  C   UNL     1       5.059  -0.274   0.740  1.00  0.00     0.028 A 
ATOM     22  C   UNL     1       2.762   0.459   0.574  1.00  0.00     0.134 A 
ATOM     23  C   UNL     1       2.814   0.344  -0.810  1.00  0.00     0.048 A 
ATOM     24  C   UNL     1       3.992  -0.085  -1.424  1.00  0.00     0.008 A 
ATOM     25  Cl  UNL     1       3.817   0.295   3.069  1.00  0.00    -0.080 Cl
BRANCH  22  26
ATOM     26  O   UNL     1       1.580   0.871   1.129  1.00  0.00    -0.506 OA
ATOM     27  H   UNL     1       0.883   0.689   0.472  1.00  0.00     0.293 HD
ENDBRANCH  22  26
ENDBRANCH  18  19
ENDBRANCH  17  18
BRANCH  17  28
ATOM     28  O   UNL     1       8.022  -0.543  -3.067  1.00  0.00    -0.383 OA
ATOM     29  H   UNL     1       8.649  -0.670  -2.319  1.00  0.00     0.211 HD
ENDBRANCH  17  28
ENDBRANCH  14  17
ENDBRANCH  12  13
BRANCH  12  30
ATOM     30  C   UNL     1       4.965   4.451  -2.983  1.00  0.00     0.018 C 
ATOM     31  C   UNL     1       4.992   5.964  -2.710  1.00  0.00     0.010 C 
BRANCH  30  32
ATOM     32  C   UNL     1       3.723   3.813  -2.314  1.00  0.00     0.002 C 
ATOM     33  C   UNL     1       3.696   3.879  -0.793  1.00  0.00     0.004 C 
ENDBRANCH  30  32
ENDBRANCH  12  30
ENDBRANCH  10  12
ENDBRANCH   1  10
BRANCH   5  34
ATOM     34  C   UNL     1      10.757   4.010  -2.809  1.00  0.00     0.242 C 
ATOM     35  O   UNL     1      10.461   3.170  -1.959  1.00  0.00    -0.273 OA
ATOM     36  N   UNL     1      11.929   3.952  -3.530  1.00  0.00    -0.354 N 
ATOM     37  H   UNL     1      12.175   4.739  -4.131  1.00  0.00     0.163 HD
BRANCH  36  38
ATOM     38  C   UNL     1      12.770   2.774  -3.544  1.00  0.00     0.116 C 
BRANCH  38  39
ATOM     39  C   UNL     1      12.306   1.818  -4.640  1.00  0.00     0.023 C 
BRANCH  39  40
ATOM     40  C   UNL     1      13.080   0.504  -4.634  1.00  0.00     0.026 C 
BRANCH  40  41
ATOM     41  C   UNL     1      12.180  -0.654  -4.205  1.00  0.00     0.146 C 
BRANCH  41  42
ATOM     42  N   UNL     1      11.142  -0.164  -3.308  1.00  0.00    -0.254 NA
ATOM     43  C   UNL     1      11.282  -0.300  -2.042  1.00  0.00     0.185 C 
ATOM     44  N   UNL     1      12.287  -0.852  -1.338  1.00  0.00    -0.370 N 
ATOM     45  N   UNL     1      10.312   0.154  -1.233  1.00  0.00    -0.370 N 
ATOM     46  H   UNL     1      12.156  -1.110  -0.374  1.00  0.00     0.159 HD
ATOM     47  H   UNL     1      13.110  -1.234  -1.793  1.00  0.00     0.159 HD
ATOM     48  H   UNL     1       9.520   0.593  -1.684  1.00  0.00     0.159 HD
ATOM     49  H   UNL     1      10.448   0.300  -0.248  1.00  0.00     0.159 HD
ENDBRANCH  41  42
ENDBRANCH  40  41
ENDBRANCH  39  40
ENDBRANCH  38  39
ENDBRANCH  36  38
ENDBRANCH   5  34
BRANCH   8  50
ATOM     50  O   UNL     1       9.529   4.890   1.692  1.00  0.00    -0.245 OA
BRANCH  50  51
ATOM     51  S   UNL     1       9.376   3.847   2.931  1.00  0.00     0.397 S 
ATOM     52  O   UNL     1      10.618   3.120   3.058  1.00  0.00    -0.169 OA
ATOM     53  O   UNL     1       8.102   3.165   2.837  1.00  0.00    -0.169 OA
BRANCH  51  54
ATOM     54  O   UNL     1       9.316   4.837   4.197  1.00  0.00    -0.264 OA
ATOM     55  H   UNL     1       8.811   4.386   4.904  1.00  0.00     0.236 HD
ENDBRANCH  51  54
ENDBRANCH  50  51
ENDBRANCH   8  50
TORSDOF 19
ENDMDL
MODEL 12
REMARK VINA RESULT:    -6.500     15.628     19.591
REMARK INTER + INTRA:         -17.723
REMARK INTER:                 -13.478
REMARK INTRA:                  -4.245
REMARK UNBOUND:                -4.573
REMARK SMILES CC[C@@H](C)[C@@H](NC(=O)[C@@H](O)Cc1ccc(O)c(Cl)c1)C(=O)N1[C@H](C(=O)NCCCCN=C(N)N)C[C@H]2CC[C@H](OS(=O)(=O)O)C[C@@H]21
REMARK SMILES IDX 22 1 36 2 46 3 35 4 23 5 45 6 37 7 39 8 38 9 20 10 21 11
REMARK SMILES IDX 5 12 6 13 7 14 8 15 9 17 11 18 12 19 17 20 19 21 15 22 14 23
REMARK SMILES IDX 13 24 18 25 16 26 10 28 3 30 4 31 2 32 1 33 24 34 25 35
REMARK SMILES IDX 26 36 27 38 28 39 29 40 30 41 31 42 32 43 33 44 34 45 40 50
REMARK SMILES IDX 41 51 42 52 43 53 44 54
REMARK H PARENT 6 16 16 27 10 29 26 37 33 46 33 47 34 48 34 49 44 55
ROOT
ATOM      1  N   UNL     1      -3.729 -11.630   5.837  1.00  0.00    -0.326 N 
ATOM      2  C   UNL     1      -2.752 -12.988   4.179  1.00  0.00     0.014 C 
ATOM      3  C   UNL     1      -4.096 -12.449   4.677  1.00  0.00     0.091 C 
ATOM      4  C   UNL     1      -1.969 -13.179   5.469  1.00  0.00     0.041 C 
ATOM      5  C   UNL     1      -2.306 -11.861   6.190  1.00  0.00     0.175 C 
ATOM      6  C   UNL     1      -4.808 -11.770   3.508  1.00  0.00     0.059 C 
ATOM      7  C   UNL     1      -2.953 -14.168   3.249  1.00  0.00     0.008 C 
ATOM      8  C   UNL     1      -4.496 -12.407   2.137  1.00  0.00     0.143 C 
ATOM      9  C   UNL     1      -4.108 -13.895   2.264  1.00  0.00     0.034 C 
ENDROOT
BRANCH   1  10
ATOM     10  C   UNL     1      -4.531 -10.908   6.703  1.00  0.00     0.246 C 
ATOM     11  O   UNL     1      -4.842 -11.405   7.791  1.00  0.00    -0.272 OA
BRANCH  10  12
ATOM     12  C   UNL     1      -4.987  -9.473   6.310  1.00  0.00     0.174 C 
BRANCH  12  13
ATOM     13  N   UNL     1      -3.862  -8.730   5.742  1.00  0.00    -0.342 N 
ATOM     14  C   UNL     1      -3.908  -7.989   4.583  1.00  0.00     0.249 C 
ATOM     15  O   UNL     1      -4.918  -7.846   3.905  1.00  0.00    -0.272 OA
ATOM     16  H   UNL     1      -2.924  -8.881   6.106  1.00  0.00     0.164 HD
BRANCH  14  17
ATOM     17  C   UNL     1      -2.552  -7.337   4.238  1.00  0.00     0.207 C 
BRANCH  17  18
ATOM     18  C   UNL     1      -2.618  -5.821   4.448  1.00  0.00     0.077 C 
BRANCH  18  19
ATOM     19  C   UNL     1      -2.159  -5.426   5.834  1.00  0.00    -0.043 A 
ATOM     20  C   UNL     1      -2.663  -4.615   8.064  1.00  0.00     0.083 A 
ATOM     21  C   UNL     1      -3.093  -5.026   6.802  1.00  0.00     0.028 A 
ATOM     22  C   UNL     1      -1.301  -4.599   8.366  1.00  0.00     0.134 A 
ATOM     23  C   UNL     1      -0.364  -4.993   7.417  1.00  0.00     0.048 A 
ATOM     24  C   UNL     1      -0.792  -5.403   6.152  1.00  0.00     0.008 A 
ATOM     25  Cl  UNL     1      -3.826  -4.127   9.240  1.00  0.00    -0.080 Cl
BRANCH  22  26
ATOM     26  O   UNL     1      -0.830  -4.194   9.586  1.00  0.00    -0.506 OA
ATOM     27  H   UNL     1      -1.610  -3.972  10.127  1.00  0.00     0.293 HD
ENDBRANCH  22  26
ENDBRANCH  18  19
ENDBRANCH  17  18
BRANCH  17  28
ATOM     28  O   UNL     1      -2.177  -7.614   2.879  1.00  0.00    -0.383 OA
ATOM     29  H   UNL     1      -1.668  -8.456   2.904  1.00  0.00     0.211 HD
ENDBRANCH  17  28
ENDBRANCH  14  17
ENDBRANCH  12  13
BRANCH  12  30
ATOM     30  C   UNL     1      -5.664  -8.716   7.484  1.00  0.00     0.018 C 
ATOM     31  C   UNL     1      -7.066  -9.281   7.761  1.00  0.00     0.010 C 
BRANCH  30  32
ATOM     32  C   UNL     1      -5.740  -7.184   7.274  1.00  0.00     0.002 C 
ATOM     33  C   UNL     1      -6.983  -6.510   7.841  1.00  0.00     0.004 C 
ENDBRANCH  30  32
ENDBRANCH  12  30
ENDBRANCH  10  12
ENDBRANCH   1  10
BRANCH   5  34
ATOM     34  C   UNL     1      -1.418 -10.691   5.688  1.00  0.00     0.242 C 
ATOM     35  O   UNL     1      -1.402 -10.337   4.509  1.00  0.00    -0.273 OA
ATOM     36  N   UNL     1      -0.611 -10.116   6.644  1.00  0.00    -0.354 N 
ATOM     37  H   UNL     1      -0.580 -10.531   7.576  1.00  0.00     0.163 HD
BRANCH  36  38
ATOM     38  C   UNL     1       0.114  -8.885   6.405  1.00  0.00     0.116 C 
BRANCH  38  39
ATOM     39  C   UNL     1       1.281  -9.147   5.455  1.00  0.00     0.023 C 
BRANCH  39  40
ATOM     40  C   UNL     1       1.372  -8.108   4.343  1.00  0.00     0.026 C 
BRANCH  40  41
ATOM     41  C   UNL     1       1.712  -8.771   3.008  1.00  0.00     0.146 C 
BRANCH  41  42
ATOM     42  N   UNL     1       0.509  -8.879   2.192  1.00  0.00    -0.254 NA
ATOM     43  C   UNL     1       0.418  -8.205   1.108  1.00  0.00     0.185 C 
ATOM     44  N   UNL     1       1.293  -7.354   0.541  1.00  0.00    -0.370 N 
ATOM     45  N   UNL     1      -0.700  -8.315   0.372  1.00  0.00    -0.370 N 
ATOM     46  H   UNL     1       0.994  -6.713  -0.174  1.00  0.00     0.159 HD
ATOM     47  H   UNL     1       2.198  -7.164   0.960  1.00  0.00     0.159 HD
ATOM     48  H   UNL     1      -1.409  -8.945   0.724  1.00  0.00     0.159 HD
ATOM     49  H   UNL     1      -0.753  -8.016  -0.586  1.00  0.00     0.159 HD
ENDBRANCH  41  42
ENDBRANCH  40  41
ENDBRANCH  39  40
ENDBRANCH  38  39
ENDBRANCH  36  38
ENDBRANCH   5  34
BRANCH   8  50
ATOM     50  O   UNL     1      -3.421 -11.711   1.505  1.00  0.00    -0.245 OA
BRANCH  50  51
ATOM     51  S   UNL     1      -3.747 -10.567   0.396  1.00  0.00     0.397 S 
ATOM     52  O   UNL     1      -3.762  -9.287   1.065  1.00  0.00    -0.169 OA
ATOM     53  O   UNL     1      -4.848 -11.001  -0.440  1.00  0.00    -0.169 OA
BRANCH  51  54
ATOM     54  O   UNL     1      -2.412 -10.578  -0.500  1.00  0.00    -0.264 OA
ATOM     55  H   UNL     1      -1.936  -9.738  -0.337  1.00  0.00     0.236 HD
ENDBRANCH  51  54
ENDBRANCH  50  51
ENDBRANCH   8  50
TORSDOF 19
ENDMDL
MODEL 13
REMARK VINA RESULT:    -6.439      2.337      4.596
REMARK INTER + INTRA:         -17.600
REMARK INTER:                 -13.900
REMARK INTRA:                  -3.700
REMARK UNBOUND:                -4.573
REMARK SMILES CC[C@@H](C)[C@@H](NC(=O)[C@@H](O)Cc1ccc(O)c(Cl)c1)C(=O)N1[C@H](C(=O)NCCCCN=C(N)N)C[C@H]2CC[C@H](OS(=O)(=O)O)C[C@@H]21
REMARK SMILES IDX 22 1 36 2 46 3 35 4 23 5 45 6 37 7 39 8 38 9 20 10 21 11
REMARK SMILES IDX 5 12 6 13 7 14 8 15 9 17 11 18 12 19 17 20 19 21 15 22 14 23
REMARK SMILES IDX 13 24 18 25 16 26 10 28 3 30 4 31 2 32 1 33 24 34 25 35
REMARK SMILES IDX 26 36 27 38 28 39 29 40 30 41 31 42 32 43 33 44 34 45 40 50
REMARK SMILES IDX 41 51 42 52 43 53 44 54
REMARK H PARENT 6 16 16 27 10 29 26 37 33 46 33 47 34 48 34 49 44 55
ROOT
ATOM      1  N   UNL     1       8.026   2.688  -0.513  1.00  0.00    -0.326 N 
ATOM      2  C   UNL     1       6.723   4.518   0.193  1.00  0.00     0.014 C 
ATOM      3  C   UNL     1       7.228   3.139   0.631  1.00  0.00     0.091 C 
ATOM      4  C   UNL     1       6.517   4.339  -1.303  1.00  0.00     0.041 C 
ATOM      5  C   UNL     1       7.813   3.592  -1.670  1.00  0.00     0.175 C 
ATOM      6  C   UNL     1       7.920   3.286   1.985  1.00  0.00     0.059 C 
ATOM      7  C   UNL     1       5.561   4.968   1.056  1.00  0.00     0.008 C 
ATOM      8  C   UNL     1       7.320   4.397   2.873  1.00  0.00     0.143 C 
ATOM      9  C   UNL     1       5.837   4.664   2.543  1.00  0.00     0.034 C 
ENDROOT
BRANCH   1  10
ATOM     10  C   UNL     1       8.715   1.502  -0.701  1.00  0.00     0.246 C 
ATOM     11  O   UNL     1       9.933   1.476  -0.499  1.00  0.00    -0.272 OA
BRANCH  10  12
ATOM     12  C   UNL     1       7.937   0.221  -1.121  1.00  0.00     0.174 C 
BRANCH  12  13
ATOM     13  N   UNL     1       6.665   0.592  -1.742  1.00  0.00    -0.342 N 
ATOM     14  C   UNL     1       6.462   0.749  -3.095  1.00  0.00     0.249 C 
ATOM     15  O   UNL     1       7.329   0.566  -3.940  1.00  0.00    -0.272 OA
ATOM     16  H   UNL     1       5.900   0.926  -1.162  1.00  0.00     0.164 HD
BRANCH  14  17
ATOM     17  C   UNL     1       5.014   1.160  -3.436  1.00  0.00     0.207 C 
BRANCH  17  18
ATOM     18  C   UNL     1       4.085   0.884  -2.249  1.00  0.00     0.077 C 
BRANCH  18  19
ATOM     19  C   UNL     1       3.412   2.146  -1.757  1.00  0.00    -0.043 A 
ATOM     20  C   UNL     1       2.443   3.445   0.047  1.00  0.00     0.083 A 
ATOM     21  C   UNL     1       3.108   2.301  -0.396  1.00  0.00     0.028 A 
ATOM     22  C   UNL     1       2.076   4.437  -0.863  1.00  0.00     0.134 A 
ATOM     23  C   UNL     1       2.372   4.296  -2.214  1.00  0.00     0.048 A 
ATOM     24  C   UNL     1       3.036   3.151  -2.661  1.00  0.00     0.008 A 
ATOM     25  Cl  UNL     1       2.077   3.618   1.724  1.00  0.00    -0.080 Cl
BRANCH  22  26
ATOM     26  O   UNL     1       1.413   5.570  -0.477  1.00  0.00    -0.506 OA
ATOM     27  H   UNL     1       1.279   6.104  -1.283  1.00  0.00     0.293 HD
ENDBRANCH  22  26
ENDBRANCH  18  19
ENDBRANCH  17  18
BRANCH  17  28
ATOM     28  O   UNL     1       4.534   0.455  -4.592  1.00  0.00    -0.383 OA
ATOM     29  H   UNL     1       5.325   0.039  -5.004  1.00  0.00     0.211 HD
ENDBRANCH  17  28
ENDBRANCH  14  17
ENDBRANCH  12  13
BRANCH  12  30
ATOM     30  C   UNL     1       7.754  -0.781   0.050  1.00  0.00     0.018 C 
ATOM     31  C   UNL     1       7.808  -2.230  -0.458  1.00  0.00     0.010 C 
BRANCH  30  32
ATOM     32  C   UNL     1       6.461  -0.552   0.869  1.00  0.00     0.002 C 
ATOM     33  C   UNL     1       6.449  -1.177   2.257  1.00  0.00     0.004 C 
ENDBRANCH  30  32
ENDBRANCH  12  30
ENDBRANCH  10  12
ENDBRANCH   1  10
BRANCH   5  34
ATOM     34  C   UNL     1       9.008   4.568  -1.833  1.00  0.00     0.242 C 
ATOM     35  O   UNL     1       9.721   4.900  -0.886  1.00  0.00    -0.273 OA
ATOM     36  N   UNL     1       9.181   5.076  -3.101  1.00  0.00    -0.354 N 
ATOM     37  H   UNL     1       8.486   4.857  -3.817  1.00  0.00     0.163 HD
BRANCH  36  38
ATOM     38  C   UNL     1      10.362   5.822  -3.481  1.00  0.00     0.116 C 
BRANCH  38  39
ATOM     39  C   UNL     1      11.360   4.897  -4.173  1.00  0.00     0.023 C 
BRANCH  39  40
ATOM     40  C   UNL     1      10.766   3.528  -4.485  1.00  0.00     0.026 C 
BRANCH  40  41
ATOM     41  C   UNL     1      11.592   2.418  -3.834  1.00  0.00     0.146 C 
BRANCH  41  42
ATOM     42  N   UNL     1      11.789   1.330  -4.783  1.00  0.00    -0.254 NA
ATOM     43  C   UNL     1      12.962   0.848  -4.959  1.00  0.00     0.185 C 
ATOM     44  N   UNL     1      14.131   1.186  -4.386  1.00  0.00    -0.370 N 
ATOM     45  N   UNL     1      13.123  -0.151  -5.842  1.00  0.00    -0.370 N 
ATOM     46  H   UNL     1      15.004   0.896  -4.792  1.00  0.00     0.159 HD
ATOM     47  H   UNL     1      14.188   1.916  -3.683  1.00  0.00     0.159 HD
ATOM     48  H   UNL     1      12.288  -0.473  -6.313  1.00  0.00     0.159 HD
ATOM     49  H   UNL     1      13.943  -0.731  -5.863  1.00  0.00     0.159 HD
ENDBRANCH  41  42
ENDBRANCH  40  41
ENDBRANCH  39  40
ENDBRANCH  38  39
ENDBRANCH  36  38
ENDBRANCH   5  34
BRANCH   8  50
ATOM     50  O   UNL     1       8.049   5.612   2.698  1.00  0.00    -0.245 OA
BRANCH  50  51
ATOM     51  S   UNL     1       9.387   5.880   3.583  1.00  0.00     0.397 S 
ATOM     52  O   UNL     1      10.529   5.800   2.701  1.00  0.00    -0.169 OA
ATOM     53  O   UNL     1       9.319   5.114   4.810  1.00  0.00    -0.169 OA
BRANCH  51  54
ATOM     54  O   UNL     1       9.233   7.436   3.961  1.00  0.00    -0.264 OA
ATOM     55  H   UNL     1      10.089   7.740   4.325  1.00  0.00     0.236 HD
ENDBRANCH  51  54
ENDBRANCH  50  51
ENDBRANCH   8  50
TORSDOF 19
ENDMDL
MODEL 14
REMARK VINA RESULT:    -6.429      5.763      9.602
REMARK INTER + INTRA:         -17.578
REMARK INTER:                 -14.982
REMARK INTRA:                  -2.595
REMARK UNBOUND:                -4.573
REMARK SMILES CC[C@@H](C)[C@@H](NC(=O)[C@@H](O)Cc1ccc(O)c(Cl)c1)C(=O)N1[C@H](C(=O)NCCCCN=C(N)N)C[C@H]2CC[C@H](OS(=O)(=O)O)C[C@@H]21
REMARK SMILES IDX 22 1 36 2 46 3 35 4 23 5 45 6 37 7 39 8 38 9 20 10 21 11
REMARK SMILES IDX 5 12 6 13 7 14 8 15 9 17 11 18 12 19 17 20 19 21 15 22 14 23
REMARK SMILES IDX 13 24 18 25 16 26 10 28 3 30 4 31 2 32 1 33 24 34 25 35
REMARK SMILES IDX 26 36 27 38 28 39 29 40 30 41 31 42 32 43 33 44 34 45 40 50
REMARK SMILES IDX 41 51 42 52 43 53 44 54
REMARK H PARENT 6 16 16 27 10 29 26 37 33 46 33 47 34 48 34 49 44 55
ROOT
ATOM      1  N   UNL     1      10.442  -3.054  -2.994  1.00  0.00    -0.326 N 
ATOM      2  C   UNL     1      10.840  -0.850  -2.268  1.00  0.00     0.014 C 
ATOM      3  C   UNL     1      11.510  -2.051  -2.942  1.00  0.00     0.091 C 
ATOM      4  C   UNL     1       9.886  -1.508  -1.283  1.00  0.00     0.041 C 
ATOM      5  C   UNL     1       9.286  -2.608  -2.178  1.00  0.00     0.175 C 
ATOM      6  C   UNL     1      12.129  -1.584  -4.258  1.00  0.00     0.059 C 
ATOM      7  C   UNL     1      11.876   0.132  -1.757  1.00  0.00     0.008 C 
ATOM      8  C   UNL     1      12.625  -0.122  -4.226  1.00  0.00     0.143 C 
ATOM      9  C   UNL     1      12.995   0.334  -2.800  1.00  0.00     0.034 C 
ENDROOT
BRANCH   1  10
ATOM     10  C   UNL     1      10.464  -4.350  -3.481  1.00  0.00     0.246 C 
ATOM     11  O   UNL     1      10.300  -5.290  -2.696  1.00  0.00    -0.272 OA
BRANCH  10  12
ATOM     12  C   UNL     1      10.650  -4.593  -5.007  1.00  0.00     0.174 C 
BRANCH  12  13
ATOM     13  N   UNL     1       9.551  -5.410  -5.520  1.00  0.00    -0.342 N 
ATOM     14  C   UNL     1       8.992  -5.287  -6.772  1.00  0.00     0.249 C 
ATOM     15  O   UNL     1       9.378  -4.487  -7.615  1.00  0.00    -0.272 OA
ATOM     16  H   UNL     1       9.027  -6.006  -4.883  1.00  0.00     0.164 HD
BRANCH  14  17
ATOM     17  C   UNL     1       7.837  -6.282  -7.009  1.00  0.00     0.207 C 
BRANCH  17  18
ATOM     18  C   UNL     1       6.546  -5.768  -6.364  1.00  0.00     0.077 C 
BRANCH  18  19
ATOM     19  C   UNL     1       5.318  -6.397  -6.984  1.00  0.00    -0.043 A 
ATOM     20  C   UNL     1       3.482  -7.978  -6.873  1.00  0.00     0.083 A 
ATOM     21  C   UNL     1       4.585  -7.363  -6.279  1.00  0.00     0.028 A 
ATOM     22  C   UNL     1       3.106  -7.632  -8.172  1.00  0.00     0.134 A 
ATOM     23  C   UNL     1       3.824  -6.677  -8.881  1.00  0.00     0.048 A 
ATOM     24  C   UNL     1       4.929  -6.061  -8.290  1.00  0.00     0.008 A 
ATOM     25  Cl  UNL     1       2.593  -9.163  -5.991  1.00  0.00    -0.080 Cl
BRANCH  22  26
ATOM     26  O   UNL     1       2.039  -8.215  -8.800  1.00  0.00    -0.506 OA
ATOM     27  H   UNL     1       1.277  -7.620  -8.667  1.00  0.00     0.293 HD
ENDBRANCH  22  26
ENDBRANCH  18  19
ENDBRANCH  17  18
BRANCH  17  28
ATOM     28  O   UNL     1       8.153  -7.578  -6.476  1.00  0.00    -0.383 OA
ATOM     29  H   UNL     1       7.452  -8.186  -6.805  1.00  0.00     0.211 HD
ENDBRANCH  17  28
ENDBRANCH  14  17
ENDBRANCH  12  13
BRANCH  12  30
ATOM     30  C   UNL     1      12.042  -5.187  -5.353  1.00  0.00     0.018 C 
ATOM     31  C   UNL     1      12.624  -4.519  -6.609  1.00  0.00     0.010 C 
BRANCH  30  32
ATOM     32  C   UNL     1      12.036  -6.726  -5.525  1.00  0.00     0.002 C 
ATOM     33  C   UNL     1      12.790  -7.249  -6.740  1.00  0.00     0.004 C 
ENDBRANCH  30  32
ENDBRANCH  12  30
ENDBRANCH  10  12
ENDBRANCH   1  10
BRANCH   5  34
ATOM     34  C   UNL     1       8.154  -2.053  -3.083  1.00  0.00     0.242 C 
ATOM     35  O   UNL     1       8.124  -2.254  -4.297  1.00  0.00    -0.273 OA
ATOM     36  N   UNL     1       7.216  -1.277  -2.440  1.00  0.00    -0.354 N 
ATOM     37  H   UNL     1       7.360  -1.048  -1.456  1.00  0.00     0.163 HD
BRANCH  36  38
ATOM     38  C   UNL     1       5.985  -0.862  -3.080  1.00  0.00     0.116 C 
BRANCH  38  39
ATOM     39  C   UNL     1       5.631   0.560  -2.650  1.00  0.00     0.023 C 
BRANCH  39  40
ATOM     40  C   UNL     1       6.635   1.135  -1.656  1.00  0.00     0.026 C 
BRANCH  40  41
ATOM     41  C   UNL     1       7.570   2.130  -2.345  1.00  0.00     0.146 C 
BRANCH  41  42
ATOM     42  N   UNL     1       6.862   3.378  -2.595  1.00  0.00    -0.254 NA
ATOM     43  C   UNL     1       7.014   3.978  -3.716  1.00  0.00     0.185 C 
ATOM     44  N   UNL     1       7.761   3.642  -4.783  1.00  0.00    -0.370 N 
ATOM     45  N   UNL     1       6.356   5.130  -3.925  1.00  0.00    -0.370 N 
ATOM     46  H   UNL     1       7.977   4.322  -5.492  1.00  0.00     0.159 HD
ATOM     47  H   UNL     1       8.314   2.791  -4.800  1.00  0.00     0.159 HD
ATOM     48  H   UNL     1       5.762   5.451  -3.172  1.00  0.00     0.159 HD
ATOM     49  H   UNL     1       6.234   5.529  -4.839  1.00  0.00     0.159 HD
ENDBRANCH  41  42
ENDBRANCH  40  41
ENDBRANCH  39  40
ENDBRANCH  38  39
ENDBRANCH  36  38
ENDBRANCH   5  34
BRANCH   8  50
ATOM     50  O   UNL     1      11.613   0.750  -4.732  1.00  0.00    -0.245 OA
BRANCH  50  51
ATOM     51  S   UNL     1      12.040   2.062  -5.593  1.00  0.00     0.397 S 
ATOM     52  O   UNL     1      12.221   3.161  -4.671  1.00  0.00    -0.169 OA
ATOM     53  O   UNL     1      11.186   2.179  -6.756  1.00  0.00    -0.169 OA
BRANCH  51  54
ATOM     54  O   UNL     1      13.515   1.666  -6.098  1.00  0.00    -0.264 OA
ATOM     55  H   UNL     1      13.955   2.485  -6.404  1.00  0.00     0.236 HD
ENDBRANCH  51  54
ENDBRANCH  50  51
ENDBRANCH   8  50
TORSDOF 19
ENDMDL
MODEL 15
REMARK VINA RESULT:    -6.389     12.763     17.632
REMARK INTER + INTRA:         -17.498
REMARK INTER:                 -12.818
REMARK INTRA:                  -4.680
REMARK UNBOUND:                -4.573
REMARK SMILES CC[C@@H](C)[C@@H](NC(=O)[C@@H](O)Cc1ccc(O)c(Cl)c1)C(=O)N1[C@H](C(=O)NCCCCN=C(N)N)C[C@H]2CC[C@H](OS(=O)(=O)O)C[C@@H]21
REMARK SMILES IDX 22 1 36 2 46 3 35 4 23 5 45 6 37 7 39 8 38 9 20 10 21 11
REMARK SMILES IDX 5 12 6 13 7 14 8 15 9 17 11 18 12 19 17 20 19 21 15 22 14 23
REMARK SMILES IDX 13 24 18 25 16 26 10 28 3 30 4 31 2 32 1 33 24 34 25 35
REMARK SMILES IDX 26 36 27 38 28 39 29 40 30 41 31 42 32 43 33 44 34 45 40 50
REMARK SMILES IDX 41 51 42 52 43 53 44 54
REMARK H PARENT 6 16 16 27 10 29 26 37 33 46 33 47 34 48 34 49 44 55
ROOT
ATOM      1  N   UNL     1      -2.683  -8.310   2.309  1.00  0.00    -0.326 N 
ATOM      2  C   UNL     1      -4.236  -9.820   3.231  1.00  0.00     0.014 C 
ATOM      3  C   UNL     1      -3.090  -9.715   2.220  1.00  0.00     0.091 C 
ATOM      4  C   UNL     1      -4.909  -8.460   3.117  1.00  0.00     0.041 C 
ATOM      5  C   UNL     1      -3.671  -7.544   3.109  1.00  0.00     0.175 C 
ATOM      6  C   UNL     1      -2.057 -10.791   2.549  1.00  0.00     0.059 C 
ATOM      7  C   UNL     1      -5.053 -11.075   2.996  1.00  0.00     0.008 C 
ATOM      8  C   UNL     1      -2.666 -12.073   3.155  1.00  0.00     0.143 C 
ATOM      9  C   UNL     1      -4.131 -12.281   2.720  1.00  0.00     0.034 C 
ENDROOT
BRANCH   1  10
ATOM     10  C   UNL     1      -1.702  -7.624   1.613  1.00  0.00     0.246 C 
ATOM     11  O   UNL     1      -2.032  -6.889   0.676  1.00  0.00    -0.272 OA
BRANCH  10  12
ATOM     12  C   UNL     1      -0.215  -7.759   2.051  1.00  0.00     0.174 C 
BRANCH  12  13
ATOM     13  N   UNL     1      -0.097  -7.538   3.492  1.00  0.00    -0.342 N 
ATOM     14  C   UNL     1       0.557  -8.375   4.368  1.00  0.00     0.249 C 
ATOM     15  O   UNL     1       1.143  -9.395   4.029  1.00  0.00    -0.272 OA
ATOM     16  H   UNL     1      -0.663  -6.821   3.939  1.00  0.00     0.164 HD
BRANCH  14  17
ATOM     17  C   UNL     1       0.490  -7.877   5.828  1.00  0.00     0.207 C 
BRANCH  17  18
ATOM     18  C   UNL     1       1.876  -7.432   6.306  1.00  0.00     0.077 C 
BRANCH  18  19
ATOM     19  C   UNL     1       2.060  -5.936   6.179  1.00  0.00    -0.043 A 
ATOM     20  C   UNL     1       1.668  -3.691   7.009  1.00  0.00     0.083 A 
ATOM     21  C   UNL     1       1.539  -5.073   7.155  1.00  0.00     0.028 A 
ATOM     22  C   UNL     1       2.314  -3.164   5.890  1.00  0.00     0.134 A 
ATOM     23  C   UNL     1       2.835  -4.008   4.916  1.00  0.00     0.048 A 
ATOM     24  C   UNL     1       2.706  -5.391   5.058  1.00  0.00     0.008 A 
ATOM     25  Cl  UNL     1       1.021  -2.646   8.219  1.00  0.00    -0.080 Cl
BRANCH  22  26
ATOM     26  O   UNL     1       2.455  -1.816   5.699  1.00  0.00    -0.506 OA
ATOM     27  H   UNL     1       3.406  -1.651   5.559  1.00  0.00     0.293 HD
ENDBRANCH  22  26
ENDBRANCH  18  19
ENDBRANCH  17  18
BRANCH  17  28
ATOM     28  O   UNL     1      -0.009  -8.903   6.702  1.00  0.00    -0.383 OA
ATOM     29  H   UNL     1       0.750  -9.168   7.271  1.00  0.00     0.211 HD
ENDBRANCH  17  28
ENDBRANCH  14  17
ENDBRANCH  12  13
BRANCH  12  30
ATOM     30  C   UNL     1       0.736  -6.845   1.232  1.00  0.00     0.018 C 
ATOM     31  C   UNL     1       2.127  -7.485   1.098  1.00  0.00     0.010 C 
BRANCH  30  32
ATOM     32  C   UNL     1       0.864  -5.411   1.801  1.00  0.00     0.002 C 
ATOM     33  C   UNL     1       2.036  -4.599   1.265  1.00  0.00     0.004 C 
ENDBRANCH  30  32
ENDBRANCH  12  30
ENDBRANCH  10  12
ENDBRANCH   1  10
BRANCH   5  34
ATOM     34  C   UNL     1      -3.138  -7.290   4.545  1.00  0.00     0.242 C 
ATOM     35  O   UNL     1      -2.776  -8.206   5.283  1.00  0.00    -0.273 OA
ATOM     36  N   UNL     1      -3.151  -5.975   4.950  1.00  0.00    -0.354 N 
ATOM     37  H   UNL     1      -3.575  -5.276   4.338  1.00  0.00     0.163 HD
BRANCH  36  38
ATOM     38  C   UNL     1      -2.496  -5.533   6.164  1.00  0.00     0.116 C 
BRANCH  38  39
ATOM     39  C   UNL     1      -1.791  -4.201   5.917  1.00  0.00     0.023 C 
BRANCH  39  40
ATOM     40  C   UNL     1      -1.471  -3.975   4.443  1.00  0.00     0.026 C 
BRANCH  40  41
ATOM     41  C   UNL     1      -1.749  -2.526   4.044  1.00  0.00     0.146 C 
BRANCH  41  42
ATOM     42  N   UNL     1      -1.461  -2.341   2.628  1.00  0.00    -0.254 NA
ATOM     43  C   UNL     1      -0.329  -1.862   2.269  1.00  0.00     0.185 C 
ATOM     44  N   UNL     1       0.720  -1.471   3.015  1.00  0.00    -0.370 N 
ATOM     45  N   UNL     1      -0.085  -1.696   0.959  1.00  0.00    -0.370 N 
ATOM     46  H   UNL     1       1.441  -0.891   2.621  1.00  0.00     0.159 HD
ATOM     47  H   UNL     1       0.710  -1.541   4.028  1.00  0.00     0.159 HD
ATOM     48  H   UNL     1      -0.822  -1.975   0.326  1.00  0.00     0.159 HD
ATOM     49  H   UNL     1       0.840  -1.556   0.592  1.00  0.00     0.159 HD
ENDBRANCH  41  42
ENDBRANCH  40  41
ENDBRANCH  39  40
ENDBRANCH  38  39
ENDBRANCH  36  38
ENDBRANCH   5  34
BRANCH   8  50
ATOM     50  O   UNL     1      -2.622 -12.010   4.581  1.00  0.00    -0.245 OA
BRANCH  50  51
ATOM     51  S   UNL     1      -1.904 -13.207   5.416  1.00  0.00     0.397 S 
ATOM     52  O   UNL     1      -1.412 -14.180   4.467  1.00  0.00    -0.169 OA
ATOM     53  O   UNL     1      -2.741 -13.591   6.533  1.00  0.00    -0.169 OA
BRANCH  51  54
ATOM     54  O   UNL     1      -0.600 -12.471   6.003  1.00  0.00    -0.264 OA
ATOM     55  H   UNL     1      -0.053 -12.183   5.245  1.00  0.00     0.236 HD
ENDBRANCH  51  54
ENDBRANCH  50  51
ENDBRANCH   8  50
TORSDOF 19
ENDMDL
MODEL 16
REMARK VINA RESULT:    -6.369     15.115     18.889
REMARK INTER + INTRA:         -17.458
REMARK INTER:                 -14.277
REMARK INTRA:                  -3.181
REMARK UNBOUND:                -4.573
REMARK SMILES CC[C@@H](C)[C@@H](NC(=O)[C@@H](O)Cc1ccc(O)c(Cl)c1)C(=O)N1[C@H](C(=O)NCCCCN=C(N)N)C[C@H]2CC[C@H](OS(=O)(=O)O)C[C@@H]21
REMARK SMILES IDX 22 1 36 2 46 3 35 4 23 5 45 6 37 7 39 8 38 9 20 10 21 11
REMARK SMILES IDX 5 12 6 13 7 14 8 15 9 17 11 18 12 19 17 20 19 21 15 22 14 23
REMARK SMILES IDX 13 24 18 25 16 26 10 28 3 30 4 31 2 32 1 33 24 34 25 35
REMARK SMILES IDX 26 36 27 38 28 39 29 40 30 41 31 42 32 43 33 44 34 45 40 50
REMARK SMILES IDX 41 51 42 52 43 53 44 54
REMARK H PARENT 6 16 16 27 10 29 26 37 33 46 33 47 34 48 34 49 44 55
ROOT
ATOM      1  N   UNL     1      -1.160  -8.715   1.181  1.00  0.00    -0.326 N 
ATOM      2  C   UNL     1      -1.585  -9.234  -1.075  1.00  0.00     0.014 C 
ATOM      3  C   UNL     1      -0.456  -8.937  -0.085  1.00  0.00     0.091 C 
ATOM      4  C   UNL     1      -2.713  -8.345  -0.574  1.00  0.00     0.041 C 
ATOM      5  C   UNL     1      -2.621  -8.616   0.939  1.00  0.00     0.175 C 
ATOM      6  C   UNL     1       0.562 -10.073  -0.158  1.00  0.00     0.059 C 
ATOM      7  C   UNL     1      -1.105  -9.089  -2.506  1.00  0.00     0.008 C 
ATOM      8  C   UNL     1       0.678 -10.715  -1.558  1.00  0.00     0.143 C 
ATOM      9  C   UNL     1       0.288  -9.731  -2.680  1.00  0.00     0.034 C 
ENDROOT
BRANCH   1  10
ATOM     10  C   UNL     1      -0.659  -8.388   2.430  1.00  0.00     0.246 C 
ATOM     11  O   UNL     1       0.100  -9.180   2.999  1.00  0.00    -0.272 OA
BRANCH  10  12
ATOM     12  C   UNL     1      -1.027  -7.018   3.070  1.00  0.00     0.174 C 
BRANCH  12  13
ATOM     13  N   UNL     1      -2.404  -7.050   3.560  1.00  0.00    -0.342 N 
ATOM     14  C   UNL     1      -2.852  -7.824   4.607  1.00  0.00     0.249 C 
ATOM     15  O   UNL     1      -2.130  -8.560   5.269  1.00  0.00    -0.272 OA
ATOM     16  H   UNL     1      -3.143  -6.614   3.015  1.00  0.00     0.164 HD
BRANCH  14  17
ATOM     17  C   UNL     1      -4.362  -7.650   4.873  1.00  0.00     0.207 C 
BRANCH  17  18
ATOM     18  C   UNL     1      -4.887  -8.791   5.751  1.00  0.00     0.077 C 
BRANCH  18  19
ATOM     19  C   UNL     1      -5.621  -8.272   6.967  1.00  0.00    -0.043 A 
ATOM     20  C   UNL     1      -6.068  -6.491   8.552  1.00  0.00     0.083 A 
ATOM     21  C   UNL     1      -5.427  -6.951   7.402  1.00  0.00     0.028 A 
ATOM     22  C   UNL     1      -6.902  -7.344   9.276  1.00  0.00     0.134 A 
ATOM     23  C   UNL     1      -7.103  -8.654   8.857  1.00  0.00     0.048 A 
ATOM     24  C   UNL     1      -6.462  -9.118   7.706  1.00  0.00     0.008 A 
ATOM     25  Cl  UNL     1      -5.817  -4.865   9.071  1.00  0.00    -0.080 Cl
BRANCH  22  26
ATOM     26  O   UNL     1      -7.543  -6.941  10.416  1.00  0.00    -0.506 OA
ATOM     27  H   UNL     1      -7.228  -7.521  11.134  1.00  0.00     0.293 HD
ENDBRANCH  22  26
ENDBRANCH  18  19
ENDBRANCH  17  18
BRANCH  17  28
ATOM     28  O   UNL     1      -5.104  -7.616   3.643  1.00  0.00    -0.383 OA
ATOM     29  H   UNL     1      -6.053  -7.578   3.899  1.00  0.00     0.211 HD
ENDBRANCH  17  28
ENDBRANCH  14  17
ENDBRANCH  12  13
BRANCH  12  30
ATOM     30  C   UNL     1      -0.766  -5.821   2.116  1.00  0.00     0.018 C 
ATOM     31  C   UNL     1       0.688  -5.827   1.617  1.00  0.00     0.010 C 
BRANCH  30  32
ATOM     32  C   UNL     1      -1.109  -4.445   2.736  1.00  0.00     0.002 C 
ATOM     33  C   UNL     1      -0.385  -4.118   4.035  1.00  0.00     0.004 C 
ENDBRANCH  30  32
ENDBRANCH  12  30
ENDBRANCH  10  12
ENDBRANCH   1  10
BRANCH   5  34
ATOM     34  C   UNL     1      -3.333  -9.938   1.329  1.00  0.00     0.242 C 
ATOM     35  O   UNL     1      -4.501 -10.172   1.019  1.00  0.00    -0.273 OA
ATOM     36  N   UNL     1      -2.583 -10.806   2.091  1.00  0.00    -0.354 N 
ATOM     37  H   UNL     1      -1.664 -10.504   2.417  1.00  0.00     0.163 HD
BRANCH  36  38
ATOM     38  C   UNL     1      -3.007 -12.164   2.359  1.00  0.00     0.116 C 
BRANCH  38  39
ATOM     39  C   UNL     1      -3.601 -12.254   3.762  1.00  0.00     0.023 C 
BRANCH  39  40
ATOM     40  C   UNL     1      -3.283 -13.580   4.446  1.00  0.00     0.026 C 
BRANCH  40  41
ATOM     41  C   UNL     1      -1.959 -13.494   5.206  1.00  0.00     0.146 C 
BRANCH  41  42
ATOM     42  N   UNL     1      -2.103 -12.598   6.346  1.00  0.00    -0.254 NA
ATOM     43  C   UNL     1      -1.386 -11.540   6.415  1.00  0.00     0.185 C 
ATOM     44  N   UNL     1      -0.456 -11.068   5.564  1.00  0.00    -0.370 N 
ATOM     45  N   UNL     1      -1.531 -10.730   7.476  1.00  0.00    -0.370 N 
ATOM     46  H   UNL     1       0.197 -10.363   5.859  1.00  0.00     0.159 HD
ATOM     47  H   UNL     1      -0.230 -11.551   4.700  1.00  0.00     0.159 HD
ATOM     48  H   UNL     1      -2.219 -11.009   8.162  1.00  0.00     0.159 HD
ATOM     49  H   UNL     1      -1.191  -9.785   7.489  1.00  0.00     0.159 HD
ENDBRANCH  41  42
ENDBRANCH  40  41
ENDBRANCH  39  40
ENDBRANCH  38  39
ENDBRANCH  36  38
ENDBRANCH   5  34
BRANCH   8  50
ATOM     50  O   UNL     1      -0.169 -11.861  -1.644  1.00  0.00    -0.245 OA
BRANCH  50  51
ATOM     51  S   UNL     1       0.473 -13.308  -2.016  1.00  0.00     0.397 S 
ATOM     52  O   UNL     1       1.106 -13.834  -0.827  1.00  0.00    -0.169 OA
ATOM     53  O   UNL     1       1.180 -13.217  -3.276  1.00  0.00    -0.169 OA
BRANCH  51  54
ATOM     54  O   UNL     1      -0.840 -14.208  -2.247  1.00  0.00    -0.264 OA
ATOM     55  H   UNL     1      -1.035 -14.672  -1.408  1.00  0.00     0.236 HD
ENDBRANCH  51  54
ENDBRANCH  50  51
ENDBRANCH   8  50
TORSDOF 19
ENDMDL
MODEL 17
REMARK VINA RESULT:    -6.359     13.794     17.267
REMARK INTER + INTRA:         -17.437
REMARK INTER:                 -14.635
REMARK INTRA:                  -2.801
REMARK UNBOUND:                -4.573
REMARK SMILES CC[C@@H](C)[C@@H](NC(=O)[C@@H](O)Cc1ccc(O)c(Cl)c1)C(=O)N1[C@H](C(=O)NCCCCN=C(N)N)C[C@H]2CC[C@H](OS(=O)(=O)O)C[C@@H]21
REMARK SMILES IDX 22 1 36 2 46 3 35 4 23 5 45 6 37 7 39 8 38 9 20 10 21 11
REMARK SMILES IDX 5 12 6 13 7 14 8 15 9 17 11 18 12 19 17 20 19 21 15 22 14 23
REMARK SMILES IDX 13 24 18 25 16 26 10 28 3 30 4 31 2 32 1 33 24 34 25 35
REMARK SMILES IDX 26 36 27 38 28 39 29 40 30 41 31 42 32 43 33 44 34 45 40 50
REMARK SMILES IDX 41 51 42 52 43 53 44 54
REMARK H PARENT 6 16 16 27 10 29 26 37 33 46 33 47 34 48 34 49 44 55
ROOT
ATOM      1  N   UNL     1       0.108  -9.316   1.234  1.00  0.00    -0.326 N 
ATOM      2  C   UNL     1       2.189  -8.892   0.218  1.00  0.00     0.014 C 
ATOM      3  C   UNL     1       0.985  -9.837   0.181  1.00  0.00     0.091 C 
ATOM      4  C   UNL     1       2.308  -8.558   1.697  1.00  0.00     0.041 C 
ATOM      5  C   UNL     1       0.829  -8.298   2.038  1.00  0.00     0.175 C 
ATOM      6  C   UNL     1       0.451  -9.884  -1.249  1.00  0.00     0.059 C 
ATOM      7  C   UNL     1       3.376  -9.498  -0.505  1.00  0.00     0.008 C 
ATOM      8  C   UNL     1       1.542  -9.703  -2.326  1.00  0.00     0.143 C 
ATOM      9  C   UNL     1       2.929 -10.157  -1.827  1.00  0.00     0.034 C 
ENDROOT
BRANCH   1  10
ATOM     10  C   UNL     1      -1.121  -9.776   1.675  1.00  0.00     0.246 C 
ATOM     11  O   UNL     1      -1.158 -10.688   2.508  1.00  0.00    -0.272 OA
BRANCH  10  12
ATOM     12  C   UNL     1      -2.424  -9.110   1.147  1.00  0.00     0.174 C 
BRANCH  12  13
ATOM     13  N   UNL     1      -3.400  -8.997   2.229  1.00  0.00    -0.342 N 
ATOM     14  C   UNL     1      -3.623  -7.862   2.978  1.00  0.00     0.249 C 
ATOM     15  O   UNL     1      -3.038  -6.801   2.798  1.00  0.00    -0.272 OA
ATOM     16  H   UNL     1      -3.846  -9.834   2.595  1.00  0.00     0.164 HD
BRANCH  14  17
ATOM     17  C   UNL     1      -4.706  -8.065   4.058  1.00  0.00     0.207 C 
BRANCH  17  18
ATOM     18  C   UNL     1      -4.123  -7.822   5.454  1.00  0.00     0.077 C 
BRANCH  18  19
ATOM     19  C   UNL     1      -5.207  -7.611   6.487  1.00  0.00    -0.043 A 
ATOM     20  C   UNL     1      -6.795  -8.514   8.083  1.00  0.00     0.083 A 
ATOM     21  C   UNL     1      -5.761  -8.707   7.167  1.00  0.00     0.028 A 
ATOM     22  C   UNL     1      -7.282  -7.229   8.325  1.00  0.00     0.134 A 
ATOM     23  C   UNL     1      -6.742  -6.134   7.660  1.00  0.00     0.048 A 
ATOM     24  C   UNL     1      -5.708  -6.325   6.740  1.00  0.00     0.008 A 
ATOM     25  Cl  UNL     1      -7.463  -9.873   8.908  1.00  0.00    -0.080 Cl
BRANCH  22  26
ATOM     26  O   UNL     1      -8.301  -6.991   9.207  1.00  0.00    -0.506 OA
ATOM     27  H   UNL     1      -8.649  -6.104   9.000  1.00  0.00     0.293 HD
ENDBRANCH  22  26
ENDBRANCH  18  19
ENDBRANCH  17  18
BRANCH  17  28
ATOM     28  O   UNL     1      -5.258  -9.390   3.996  1.00  0.00    -0.383 OA
ATOM     29  H   UNL     1      -4.919  -9.787   3.162  1.00  0.00     0.211 HD
ENDBRANCH  17  28
ENDBRANCH  14  17
ENDBRANCH  12  13
BRANCH  12  30
ATOM     30  C   UNL     1      -3.003  -9.830  -0.101  1.00  0.00     0.018 C 
ATOM     31  C   UNL     1      -3.374  -8.816  -1.194  1.00  0.00     0.010 C 
BRANCH  30  32
ATOM     32  C   UNL     1      -4.216 -10.740   0.214  1.00  0.00     0.002 C 
ATOM     33  C   UNL     1      -3.890 -12.215   0.411  1.00  0.00     0.004 C 
ENDBRANCH  30  32
ENDBRANCH  12  30
ENDBRANCH  10  12
ENDBRANCH   1  10
BRANCH   5  34
ATOM     34  C   UNL     1       0.393  -6.865   1.630  1.00  0.00     0.242 C 
ATOM     35  O   UNL     1      -0.226  -6.636   0.591  1.00  0.00    -0.273 OA
ATOM     36  N   UNL     1       0.794  -5.865   2.487  1.00  0.00    -0.354 N 
ATOM     37  H   UNL     1       1.407  -6.103   3.268  1.00  0.00     0.163 HD
BRANCH  36  38
ATOM     38  C   UNL     1       0.297  -4.509   2.379  1.00  0.00     0.116 C 
BRANCH  38  39
ATOM     39  C   UNL     1      -0.846  -4.296   3.369  1.00  0.00     0.023 C 
BRANCH  39  40
ATOM     40  C   UNL     1      -0.669  -5.108   4.647  1.00  0.00     0.026 C 
BRANCH  40  41
ATOM     41  C   UNL     1       0.182  -4.343   5.662  1.00  0.00     0.146 C 
BRANCH  41  42
ATOM     42  N   UNL     1       1.467  -5.009   5.828  1.00  0.00    -0.254 NA
ATOM     43  C   UNL     1       1.723  -5.629   6.918  1.00  0.00     0.185 C 
ATOM     44  N   UNL     1       0.966  -5.793   8.018  1.00  0.00    -0.370 N 
ATOM     45  N   UNL     1       2.915  -6.232   7.053  1.00  0.00    -0.370 N 
ATOM     46  H   UNL     1       1.380  -6.089   8.886  1.00  0.00     0.159 HD
ATOM     47  H   UNL     1       0.027  -5.412   8.081  1.00  0.00     0.159 HD
ATOM     48  H   UNL     1       3.544  -6.165   6.264  1.00  0.00     0.159 HD
ATOM     49  H   UNL     1       3.098  -6.924   7.758  1.00  0.00     0.159 HD
ENDBRANCH  41  42
ENDBRANCH  40  41
ENDBRANCH  39  40
ENDBRANCH  38  39
ENDBRANCH  36  38
ENDBRANCH   5  34
BRANCH   8  50
ATOM     50  O   UNL     1       1.626  -8.332  -2.714  1.00  0.00    -0.245 OA
BRANCH  50  51
ATOM     51  S   UNL     1       1.825  -7.952  -4.283  1.00  0.00     0.397 S 
ATOM     52  O   UNL     1       1.195  -6.672  -4.516  1.00  0.00    -0.169 OA
ATOM     53  O   UNL     1       1.527  -9.106  -5.104  1.00  0.00    -0.169 OA
BRANCH  51  54
ATOM     54  O   UNL     1       3.408  -7.681  -4.364  1.00  0.00    -0.264 OA
ATOM     55  H   UNL     1       3.675  -7.750  -5.303  1.00  0.00     0.236 HD
ENDBRANCH  51  54
ENDBRANCH  50  51
ENDBRANCH   8  50
TORSDOF 19
ENDMDL
MODEL 18
REMARK VINA RESULT:    -6.356     11.539     16.107
REMARK INTER + INTRA:         -17.431
REMARK INTER:                 -12.741
REMARK INTRA:                  -4.690
REMARK UNBOUND:                -4.573
REMARK SMILES CC[C@@H](C)[C@@H](NC(=O)[C@@H](O)Cc1ccc(O)c(Cl)c1)C(=O)N1[C@H](C(=O)NCCCCN=C(N)N)C[C@H]2CC[C@H](OS(=O)(=O)O)C[C@@H]21
REMARK SMILES IDX 22 1 36 2 46 3 35 4 23 5 45 6 37 7 39 8 38 9 20 10 21 11
REMARK SMILES IDX 5 12 6 13 7 14 8 15 9 17 11 18 12 19 17 20 19 21 15 22 14 23
REMARK SMILES IDX 13 24 18 25 16 26 10 28 3 30 4 31 2 32 1 33 24 34 25 35
REMARK SMILES IDX 26 36 27 38 28 39 29 40 30 41 31 42 32 43 33 44 34 45 40 50
REMARK SMILES IDX 41 51 42 52 43 53 44 54
REMARK H PARENT 6 16 16 27 10 29 26 37 33 46 33 47 34 48 34 49 44 55
ROOT
ATOM      1  N   UNL     1      -0.750  -5.830   3.048  1.00  0.00    -0.326 N 
ATOM      2  C   UNL     1      -2.091  -7.048   4.552  1.00  0.00     0.014 C 
ATOM      3  C   UNL     1      -2.140  -6.251   3.245  1.00  0.00     0.091 C 
ATOM      4  C   UNL     1      -1.031  -6.310   5.355  1.00  0.00     0.041 C 
ATOM      5  C   UNL     1       0.044  -6.113   4.270  1.00  0.00     0.175 C 
ATOM      6  C   UNL     1      -2.792  -7.122   2.173  1.00  0.00     0.059 C 
ATOM      7  C   UNL     1      -3.480  -7.219   5.135  1.00  0.00     0.008 C 
ATOM      8  C   UNL     1      -3.855  -8.096   2.725  1.00  0.00     0.143 C 
ATOM      9  C   UNL     1      -4.494  -7.578   4.029  1.00  0.00     0.034 C 
ENDROOT
BRANCH   1  10
ATOM     10  C   UNL     1      -0.189  -5.064   2.041  1.00  0.00     0.246 C 
ATOM     11  O   UNL     1       0.211  -5.622   1.013  1.00  0.00    -0.272 OA
BRANCH  10  12
ATOM     12  C   UNL     1      -0.113  -3.519   2.204  1.00  0.00     0.174 C 
BRANCH  12  13
ATOM     13  N   UNL     1       1.168  -3.142   2.800  1.00  0.00    -0.342 N 
ATOM     14  C   UNL     1       1.906  -2.033   2.452  1.00  0.00     0.249 C 
ATOM     15  O   UNL     1       1.552  -1.214   1.614  1.00  0.00    -0.272 OA
ATOM     16  H   UNL     1       1.662  -3.804   3.394  1.00  0.00     0.164 HD
BRANCH  14  17
ATOM     17  C   UNL     1       3.223  -1.920   3.250  1.00  0.00     0.207 C 
BRANCH  17  18
ATOM     18  C   UNL     1       2.931  -1.751   4.744  1.00  0.00     0.077 C 
BRANCH  18  19
ATOM     19  C   UNL     1       2.818  -3.085   5.449  1.00  0.00    -0.043 A 
ATOM     20  C   UNL     1       1.772  -4.497   7.120  1.00  0.00     0.083 A 
ATOM     21  C   UNL     1       1.842  -3.282   6.438  1.00  0.00     0.028 A 
ATOM     22  C   UNL     1       2.674  -5.519   6.821  1.00  0.00     0.134 A 
ATOM     23  C   UNL     1       3.645  -5.337   5.843  1.00  0.00     0.048 A 
ATOM     24  C   UNL     1       3.718  -4.121   5.160  1.00  0.00     0.008 A 
ATOM     25  Cl  UNL     1       0.567  -4.721   8.333  1.00  0.00    -0.080 Cl
BRANCH  22  26
ATOM     26  O   UNL     1       2.651  -6.724   7.471  1.00  0.00    -0.506 OA
ATOM     27  H   UNL     1       2.521  -7.408   6.788  1.00  0.00     0.293 HD
ENDBRANCH  22  26
ENDBRANCH  18  19
ENDBRANCH  17  18
BRANCH  17  28
ATOM     28  O   UNL     1       4.012  -0.811   2.790  1.00  0.00    -0.383 OA
ATOM     29  H   UNL     1       3.502  -0.400   2.056  1.00  0.00     0.211 HD
ENDBRANCH  17  28
ENDBRANCH  14  17
ENDBRANCH  12  13
BRANCH  12  30
ATOM     30  C   UNL     1      -1.323  -2.938   2.985  1.00  0.00     0.018 C 
ATOM     31  C   UNL     1      -1.841  -1.656   2.315  1.00  0.00     0.010 C 
BRANCH  30  32
ATOM     32  C   UNL     1      -1.027  -2.674   4.482  1.00  0.00     0.002 C 
ATOM     33  C   UNL     1      -1.120  -1.217   4.916  1.00  0.00     0.004 C 
ENDBRANCH  30  32
ENDBRANCH  12  30
ENDBRANCH  10  12
ENDBRANCH   1  10
BRANCH   5  34
ATOM     34  C   UNL     1       0.908  -7.388   4.081  1.00  0.00     0.242 C 
ATOM     35  O   UNL     1       1.152  -8.160   5.008  1.00  0.00    -0.273 OA
ATOM     36  N   UNL     1       1.425  -7.564   2.817  1.00  0.00    -0.354 N 
ATOM     37  H   UNL     1       1.287  -6.829   2.123  1.00  0.00     0.163 HD
BRANCH  36  38
ATOM     38  C   UNL     1       2.067  -8.796   2.409  1.00  0.00     0.116 C 
BRANCH  38  39
ATOM     39  C   UNL     1       2.441  -8.721   0.930  1.00  0.00     0.023 C 
BRANCH  39  40
ATOM     40  C   UNL     1       1.533  -9.579   0.056  1.00  0.00     0.026 C 
BRANCH  40  41
ATOM     41  C   UNL     1       0.071  -9.422   0.474  1.00  0.00     0.146 C 
BRANCH  41  42
ATOM     42  N   UNL     1      -0.605 -10.710   0.395  1.00  0.00    -0.254 NA
ATOM     43  C   UNL     1      -1.837 -10.759   0.049  1.00  0.00     0.185 C 
ATOM     44  N   UNL     1      -2.683  -9.766  -0.281  1.00  0.00    -0.370 N 
ATOM     45  N   UNL     1      -2.443 -11.956  -0.014  1.00  0.00    -0.370 N 
ATOM     46  H   UNL     1      -3.676  -9.922  -0.293  1.00  0.00     0.159 HD
ATOM     47  H   UNL     1      -2.385  -8.796  -0.299  1.00  0.00     0.159 HD
ATOM     48  H   UNL     1      -1.873 -12.760   0.211  1.00  0.00     0.159 HD
ATOM     49  H   UNL     1      -3.313 -12.101  -0.495  1.00  0.00     0.159 HD
ENDBRANCH  41  42
ENDBRANCH  40  41
ENDBRANCH  39  40
ENDBRANCH  38  39
ENDBRANCH  36  38
ENDBRANCH   5  34
BRANCH   8  50
ATOM     50  O   UNL     1      -3.265  -9.370   2.984  1.00  0.00    -0.245 OA
BRANCH  50  51
ATOM     51  S   UNL     1      -4.201 -10.701   2.999  1.00  0.00     0.397 S 
ATOM     52  O   UNL     1      -4.883 -10.781   1.728  1.00  0.00    -0.169 OA
ATOM     53  O   UNL     1      -4.920 -10.775   4.254  1.00  0.00    -0.169 OA
BRANCH  51  54
ATOM     54  O   UNL     1      -3.107 -11.880   2.984  1.00  0.00    -0.264 OA
ATOM     55  H   UNL     1      -3.544 -12.687   2.644  1.00  0.00     0.236 HD
ENDBRANCH  51  54
ENDBRANCH  50  51
ENDBRANCH   8  50
TORSDOF 19
ENDMDL
MODEL 19
REMARK VINA RESULT:    -6.350      3.779      8.139
REMARK INTER + INTRA:         -17.420
REMARK INTER:                 -13.468
REMARK INTRA:                  -3.952
REMARK UNBOUND:                -4.573
REMARK SMILES CC[C@@H](C)[C@@H](NC(=O)[C@@H](O)Cc1ccc(O)c(Cl)c1)C(=O)N1[C@H](C(=O)NCCCCN=C(N)N)C[C@H]2CC[C@H](OS(=O)(=O)O)C[C@@H]21
REMARK SMILES IDX 22 1 36 2 46 3 35 4 23 5 45 6 37 7 39 8 38 9 20 10 21 11
REMARK SMILES IDX 5 12 6 13 7 14 8 15 9 17 11 18 12 19 17 20 19 21 15 22 14 23
REMARK SMILES IDX 13 24 18 25 16 26 10 28 3 30 4 31 2 32 1 33 24 34 25 35
REMARK SMILES IDX 26 36 27 38 28 39 29 40 30 41 31 42 32 43 33 44 34 45 40 50
REMARK SMILES IDX 41 51 42 52 43 53 44 54
REMARK H PARENT 6 16 16 27 10 29 26 37 33 46 33 47 34 48 34 49 44 55
ROOT
ATOM      1  N   UNL     1       7.839   2.582  -2.266  1.00  0.00    -0.326 N 
ATOM      2  C   UNL     1       6.066   1.163  -2.886  1.00  0.00     0.014 C 
ATOM      3  C   UNL     1       7.588   1.315  -2.959  1.00  0.00     0.091 C 
ATOM      4  C   UNL     1       5.580   2.600  -2.991  1.00  0.00     0.041 C 
ATOM      5  C   UNL     1       6.557   3.290  -2.021  1.00  0.00     0.175 C 
ATOM      6  C   UNL     1       8.228   0.046  -2.401  1.00  0.00     0.059 C 
ATOM      7  C   UNL     1       5.575   0.137  -3.889  1.00  0.00     0.008 C 
ATOM      8  C   UNL     1       7.395  -1.231  -2.648  1.00  0.00     0.143 C 
ATOM      9  C   UNL     1       6.494  -1.103  -3.893  1.00  0.00     0.034 C 
ENDROOT
BRANCH   1  10
ATOM     10  C   UNL     1       9.031   3.247  -2.036  1.00  0.00     0.246 C 
ATOM     11  O   UNL     1       9.570   3.148  -0.929  1.00  0.00    -0.272 OA
BRANCH  10  12
ATOM     12  C   UNL     1       9.687   4.067  -3.185  1.00  0.00     0.174 C 
BRANCH  12  13
ATOM     13  N   UNL     1      10.623   3.224  -3.928  1.00  0.00    -0.342 N 
ATOM     14  C   UNL     1      11.888   2.884  -3.504  1.00  0.00     0.249 C 
ATOM     15  O   UNL     1      12.364   3.233  -2.430  1.00  0.00    -0.272 OA
ATOM     16  H   UNL     1      10.430   2.991  -4.899  1.00  0.00     0.164 HD
BRANCH  14  17
ATOM     17  C   UNL     1      12.638   1.996  -4.519  1.00  0.00     0.207 C 
BRANCH  17  18
ATOM     18  C   UNL     1      13.496   0.957  -3.791  1.00  0.00     0.077 C 
BRANCH  18  19
ATOM     19  C   UNL     1      12.660  -0.181  -3.247  1.00  0.00    -0.043 A 
ATOM     20  C   UNL     1      11.201  -2.082  -3.619  1.00  0.00     0.083 A 
ATOM     21  C   UNL     1      12.011  -1.064  -4.123  1.00  0.00     0.028 A 
ATOM     22  C   UNL     1      11.034  -2.223  -2.241  1.00  0.00     0.134 A 
ATOM     23  C   UNL     1      11.671  -1.355  -1.362  1.00  0.00     0.048 A 
ATOM     24  C   UNL     1      12.481  -0.334  -1.864  1.00  0.00     0.008 A 
ATOM     25  Cl  UNL     1      10.411  -3.157  -4.712  1.00  0.00    -0.080 Cl
BRANCH  22  26
ATOM     26  O   UNL     1      10.241  -3.199  -1.700  1.00  0.00    -0.506 OA
ATOM     27  H   UNL     1       9.324  -2.990  -1.958  1.00  0.00     0.293 HD
ENDBRANCH  22  26
ENDBRANCH  18  19
ENDBRANCH  17  18
BRANCH  17  28
ATOM     28  O   UNL     1      13.474   2.787  -5.379  1.00  0.00    -0.383 OA
ATOM     29  H   UNL     1      14.281   2.996  -4.856  1.00  0.00     0.211 HD
ENDBRANCH  17  28
ENDBRANCH  14  17
ENDBRANCH  12  13
BRANCH  12  30
ATOM     30  C   UNL     1      10.342   5.382  -2.685  1.00  0.00     0.018 C 
ATOM     31  C   UNL     1       9.385   6.154  -1.763  1.00  0.00     0.010 C 
BRANCH  30  32
ATOM     32  C   UNL     1      10.839   6.302  -3.827  1.00  0.00     0.002 C 
ATOM     33  C   UNL     1      10.814   7.794  -3.519  1.00  0.00     0.004 C 
ENDBRANCH  30  32
ENDBRANCH  12  30
ENDBRANCH  10  12
ENDBRANCH   1  10
BRANCH   5  34
ATOM     34  C   UNL     1       6.111   3.123  -0.544  1.00  0.00     0.242 C 
ATOM     35  O   UNL     1       4.985   3.437  -0.158  1.00  0.00    -0.273 OA
ATOM     36  N   UNL     1       7.081   2.651   0.311  1.00  0.00    -0.354 N 
ATOM     37  H   UNL     1       8.030   2.523  -0.044  1.00  0.00     0.163 HD
BRANCH  36  38
ATOM     38  C   UNL     1       6.782   2.234   1.666  1.00  0.00     0.116 C 
BRANCH  38  39
ATOM     39  C   UNL     1       6.574   0.722   1.709  1.00  0.00     0.023 C 
BRANCH  39  40
ATOM     40  C   UNL     1       5.099   0.338   1.751  1.00  0.00     0.026 C 
BRANCH  40  41
ATOM     41  C   UNL     1       4.812  -0.585   2.935  1.00  0.00     0.146 C 
BRANCH  41  42
ATOM     42  N   UNL     1       5.222  -1.945   2.610  1.00  0.00    -0.254 NA
ATOM     43  C   UNL     1       6.117  -2.523   3.320  1.00  0.00     0.185 C 
ATOM     44  N   UNL     1       6.797  -2.073   4.390  1.00  0.00    -0.370 N 
ATOM     45  N   UNL     1       6.483  -3.775   3.001  1.00  0.00    -0.370 N 
ATOM     46  H   UNL     1       7.637  -2.535   4.695  1.00  0.00     0.159 HD
ATOM     47  H   UNL     1       6.634  -1.147   4.774  1.00  0.00     0.159 HD
ATOM     48  H   UNL     1       6.011  -4.193   2.211  1.00  0.00     0.159 HD
ATOM     49  H   UNL     1       6.988  -4.372   3.633  1.00  0.00     0.159 HD
ENDBRANCH  41  42
ENDBRANCH  40  41
ENDBRANCH  39  40
ENDBRANCH  38  39
ENDBRANCH  36  38
ENDBRANCH   5  34
BRANCH   8  50
ATOM     50  O   UNL     1       6.567  -1.502  -1.516  1.00  0.00    -0.245 OA
BRANCH  50  51
ATOM     51  S   UNL     1       6.793  -2.870  -0.666  1.00  0.00     0.397 S 
ATOM     52  O   UNL     1       5.497  -3.351  -0.242  1.00  0.00    -0.169 OA
ATOM     53  O   UNL     1       7.879  -2.685   0.273  1.00  0.00    -0.169 OA
BRANCH  51  54
ATOM     54  O   UNL     1       7.289  -3.893  -1.803  1.00  0.00    -0.264 OA
ATOM     55  H   UNL     1       6.771  -4.719  -1.708  1.00  0.00     0.236 HD
ENDBRANCH  51  54
ENDBRANCH  50  51
ENDBRANCH   8  50
TORSDOF 19
ENDMDL
MODEL 20
REMARK VINA RESULT:    -6.338     15.744     18.577
REMARK INTER + INTRA:         -17.395
REMARK INTER:                 -13.009
REMARK INTRA:                  -4.386
REMARK UNBOUND:                -4.573
REMARK SMILES CC[C@@H](C)[C@@H](NC(=O)[C@@H](O)Cc1ccc(O)c(Cl)c1)C(=O)N1[C@H](C(=O)NCCCCN=C(N)N)C[C@H]2CC[C@H](OS(=O)(=O)O)C[C@@H]21
REMARK SMILES IDX 22 1 36 2 46 3 35 4 23 5 45 6 37 7 39 8 38 9 20 10 21 11
REMARK SMILES IDX 5 12 6 13 7 14 8 15 9 17 11 18 12 19 17 20 19 21 15 22 14 23
REMARK SMILES IDX 13 24 18 25 16 26 10 28 3 30 4 31 2 32 1 33 24 34 25 35
REMARK SMILES IDX 26 36 27 38 28 39 29 40 30 41 31 42 32 43 33 44 34 45 40 50
REMARK SMILES IDX 41 51 42 52 43 53 44 54
REMARK H PARENT 6 16 16 27 10 29 26 37 33 46 33 47 34 48 34 49 44 55
ROOT
ATOM      1  N   UNL     1      -1.585  -7.878   1.609  1.00  0.00    -0.326 N 
ATOM      2  C   UNL     1      -1.989  -8.892  -0.476  1.00  0.00     0.014 C 
ATOM      3  C   UNL     1      -0.868  -8.492   0.487  1.00  0.00     0.091 C 
ATOM      4  C   UNL     1      -3.008  -7.780  -0.286  1.00  0.00     0.041 C 
ATOM      5  C   UNL     1      -3.010  -7.671   1.250  1.00  0.00     0.175 C 
ATOM      6  C   UNL     1      -0.007  -9.722   0.765  1.00  0.00     0.059 C 
ATOM      7  C   UNL     1      -1.440  -9.168  -1.862  1.00  0.00     0.008 C 
ATOM      8  C   UNL     1       0.077 -10.703  -0.425  1.00  0.00     0.143 C 
ATOM      9  C   UNL     1      -0.138  -9.993  -1.777  1.00  0.00     0.034 C 
ENDROOT
BRANCH   1  10
ATOM     10  C   UNL     1      -1.093  -7.310   2.773  1.00  0.00     0.246 C 
ATOM     11  O   UNL     1      -0.498  -6.229   2.709  1.00  0.00    -0.272 OA
BRANCH  10  12
ATOM     12  C   UNL     1      -1.336  -8.021   4.135  1.00  0.00     0.174 C 
BRANCH  12  13
ATOM     13  N   UNL     1      -1.365  -7.035   5.214  1.00  0.00    -0.342 N 
ATOM     14  C   UNL     1      -2.447  -6.245   5.534  1.00  0.00     0.249 C 
ATOM     15  O   UNL     1      -3.527  -6.303   4.960  1.00  0.00    -0.272 OA
ATOM     16  H   UNL     1      -0.499  -6.765   5.674  1.00  0.00     0.164 HD
BRANCH  14  17
ATOM     17  C   UNL     1      -2.160  -5.290   6.712  1.00  0.00     0.207 C 
BRANCH  17  18
ATOM     18  C   UNL     1      -2.119  -3.838   6.227  1.00  0.00     0.077 C 
BRANCH  18  19
ATOM     19  C   UNL     1      -3.317  -3.051   6.706  1.00  0.00    -0.043 A 
ATOM     20  C   UNL     1      -5.369  -2.921   7.994  1.00  0.00     0.083 A 
ATOM     21  C   UNL     1      -4.238  -3.632   7.592  1.00  0.00     0.028 A 
ATOM     22  C   UNL     1      -5.588  -1.628   7.515  1.00  0.00     0.134 A 
ATOM     23  C   UNL     1      -4.684  -1.040   6.638  1.00  0.00     0.048 A 
ATOM     24  C   UNL     1      -3.552  -1.751   6.232  1.00  0.00     0.008 A 
ATOM     25  Cl  UNL     1      -6.490  -3.652   9.082  1.00  0.00    -0.080 Cl
BRANCH  22  26
ATOM     26  O   UNL     1      -6.688  -0.896   7.872  1.00  0.00    -0.506 OA
ATOM     27  H   UNL     1      -6.370   0.002   8.082  1.00  0.00     0.293 HD
ENDBRANCH  22  26
ENDBRANCH  18  19
ENDBRANCH  17  18
BRANCH  17  28
ATOM     28  O   UNL     1      -0.914  -5.615   7.350  1.00  0.00    -0.383 OA
ATOM     29  H   UNL     1      -0.909  -6.594   7.454  1.00  0.00     0.211 HD
ENDBRANCH  17  28
ENDBRANCH  14  17
ENDBRANCH  12  13
BRANCH  12  30
ATOM     30  C   UNL     1      -0.321  -9.164   4.405  1.00  0.00     0.018 C 
ATOM     31  C   UNL     1      -0.808 -10.070   5.547  1.00  0.00     0.010 C 
BRANCH  30  32
ATOM     32  C   UNL     1       1.115  -8.664   4.698  1.00  0.00     0.002 C 
ATOM     33  C   UNL     1       2.102  -8.807   3.547  1.00  0.00     0.004 C 
ENDBRANCH  30  32
ENDBRANCH  12  30
ENDBRANCH  10  12
ENDBRANCH   1  10
BRANCH   5  34
ATOM     34  C   UNL     1      -3.904  -8.761   1.900  1.00  0.00     0.242 C 
ATOM     35  O   UNL     1      -4.041  -9.880   1.406  1.00  0.00    -0.273 OA
ATOM     36  N   UNL     1      -4.574  -8.367   3.037  1.00  0.00    -0.354 N 
ATOM     37  H   UNL     1      -4.514  -7.391   3.329  1.00  0.00     0.163 HD
BRANCH  36  38
ATOM     38  C   UNL     1      -5.275  -9.308   3.886  1.00  0.00     0.116 C 
BRANCH  38  39
ATOM     39  C   UNL     1      -4.454  -9.582   5.144  1.00  0.00     0.023 C 
BRANCH  39  40
ATOM     40  C   UNL     1      -4.375 -11.068   5.476  1.00  0.00     0.026 C 
BRANCH  40  41
ATOM     41  C   UNL     1      -4.620 -11.916   4.228  1.00  0.00     0.146 C 
BRANCH  41  42
ATOM     42  N   UNL     1      -3.674 -13.024   4.192  1.00  0.00    -0.254 NA
ATOM     43  C   UNL     1      -2.622 -12.935   3.470  1.00  0.00     0.185 C 
ATOM     44  N   UNL     1      -2.196 -11.932   2.680  1.00  0.00    -0.370 N 
ATOM     45  N   UNL     1      -1.765 -13.969   3.447  1.00  0.00    -0.370 N 
ATOM     46  H   UNL     1      -1.486 -12.092   1.986  1.00  0.00     0.159 HD
ATOM     47  H   UNL     1      -2.719 -11.066   2.590  1.00  0.00     0.159 HD
ATOM     48  H   UNL     1      -2.006 -14.764   4.023  1.00  0.00     0.159 HD
ATOM     49  H   UNL     1      -0.823 -13.888   3.106  1.00  0.00     0.159 HD
ENDBRANCH  41  42
ENDBRANCH  40  41
ENDBRANCH  39  40
ENDBRANCH  38  39
ENDBRANCH  36  38
ENDBRANCH   5  34
BRANCH   8  50
ATOM     50  O   UNL     1      -0.910 -11.726  -0.288  1.00  0.00    -0.245 OA
BRANCH  50  51
ATOM     51  S   UNL     1      -0.473 -13.286  -0.428  1.00  0.00     0.397 S 
ATOM     52  O   UNL     1      -0.499 -13.877   0.892  1.00  0.00    -0.169 OA
ATOM     53  O   UNL     1       0.690 -13.391  -1.285  1.00  0.00    -0.169 OA
BRANCH  51  54
ATOM     54  O   UNL     1      -1.727 -13.916  -1.213  1.00  0.00    -0.264 OA
ATOM     55  H   UNL     1      -1.756 -14.873  -1.011  1.00  0.00     0.236 HD
ENDBRANCH  51  54
ENDBRANCH  50  51
ENDBRANCH   8  50
TORSDOF 19
ENDMDL
MODEL 21
REMARK VINA RESULT:    -6.331     14.191     19.286
REMARK INTER + INTRA:         -17.381
REMARK INTER:                 -13.677
REMARK INTRA:                  -3.704
REMARK UNBOUND:                -4.573
REMARK SMILES CC[C@@H](C)[C@@H](NC(=O)[C@@H](O)Cc1ccc(O)c(Cl)c1)C(=O)N1[C@H](C(=O)NCCCCN=C(N)N)C[C@H]2CC[C@H](OS(=O)(=O)O)C[C@@H]21
REMARK SMILES IDX 22 1 36 2 46 3 35 4 23 5 45 6 37 7 39 8 38 9 20 10 21 11
REMARK SMILES IDX 5 12 6 13 7 14 8 15 9 17 11 18 12 19 17 20 19 21 15 22 14 23
REMARK SMILES IDX 13 24 18 25 16 26 10 28 3 30 4 31 2 32 1 33 24 34 25 35
REMARK SMILES IDX 26 36 27 38 28 39 29 40 30 41 31 42 32 43 33 44 34 45 40 50
REMARK SMILES IDX 41 51 42 52 43 53 44 54
REMARK H PARENT 6 16 16 27 10 29 26 37 33 46 33 47 34 48 34 49 44 55
ROOT
ATOM      1  N   UNL     1      -4.907  -6.398   7.001  1.00  0.00    -0.326 N 
ATOM      2  C   UNL     1      -4.596  -5.213   9.011  1.00  0.00     0.014 C 
ATOM      3  C   UNL     1      -3.938  -5.520   7.663  1.00  0.00     0.091 C 
ATOM      4  C   UNL     1      -5.319  -6.511   9.335  1.00  0.00     0.041 C 
ATOM      5  C   UNL     1      -5.954  -6.817   7.966  1.00  0.00     0.175 C 
ATOM      6  C   UNL     1      -3.579  -4.198   6.988  1.00  0.00     0.059 C 
ATOM      7  C   UNL     1      -3.583  -4.661   9.996  1.00  0.00     0.008 C 
ATOM      8  C   UNL     1      -3.216  -3.072   7.981  1.00  0.00     0.143 C 
ATOM      9  C   UNL     1      -2.666  -3.626   9.310  1.00  0.00     0.034 C 
ENDROOT
BRANCH   1  10
ATOM     10  C   UNL     1      -4.848  -7.011   5.761  1.00  0.00     0.246 C 
ATOM     11  O   UNL     1      -5.659  -6.683   4.889  1.00  0.00    -0.272 OA
BRANCH  10  12
ATOM     12  C   UNL     1      -3.738  -8.064   5.479  1.00  0.00     0.174 C 
BRANCH  12  13
ATOM     13  N   UNL     1      -2.833  -7.571   4.441  1.00  0.00    -0.342 N 
ATOM     14  C   UNL     1      -1.681  -6.854   4.673  1.00  0.00     0.249 C 
ATOM     15  O   UNL     1      -1.266  -6.571   5.790  1.00  0.00    -0.272 OA
ATOM     16  H   UNL     1      -3.125  -7.593   3.467  1.00  0.00     0.164 HD
BRANCH  14  17
ATOM     17  C   UNL     1      -0.952  -6.461   3.370  1.00  0.00     0.207 C 
BRANCH  17  18
ATOM     18  C   UNL     1       0.101  -5.384   3.649  1.00  0.00     0.077 C 
BRANCH  18  19
ATOM     19  C   UNL     1      -0.312  -4.038   3.096  1.00  0.00    -0.043 A 
ATOM     20  C   UNL     1       0.147  -2.109   1.699  1.00  0.00     0.083 A 
ATOM     21  C   UNL     1       0.506  -3.372   2.170  1.00  0.00     0.028 A 
ATOM     22  C   UNL     1      -1.027  -1.503   2.151  1.00  0.00     0.134 A 
ATOM     23  C   UNL     1      -1.846  -2.152   3.068  1.00  0.00     0.048 A 
ATOM     24  C   UNL     1      -1.488  -3.416   3.542  1.00  0.00     0.008 A 
ATOM     25  Cl  UNL     1       1.164  -1.306   0.562  1.00  0.00    -0.080 Cl
BRANCH  22  26
ATOM     26  O   UNL     1      -1.415  -0.261   1.726  1.00  0.00    -0.506 OA
ATOM     27  H   UNL     1      -0.912  -0.074   0.912  1.00  0.00     0.293 HD
ENDBRANCH  22  26
ENDBRANCH  18  19
ENDBRANCH  17  18
BRANCH  17  28
ATOM     28  O   UNL     1      -1.879  -5.978   2.384  1.00  0.00    -0.383 OA
ATOM     29  H   UNL     1      -1.600  -6.377   1.529  1.00  0.00     0.211 HD
ENDBRANCH  17  28
ENDBRANCH  14  17
ENDBRANCH  12  13
BRANCH  12  30
ATOM     30  C   UNL     1      -4.313  -9.467   5.146  1.00  0.00     0.018 C 
ATOM     31  C   UNL     1      -3.735 -10.534   6.089  1.00  0.00     0.010 C 
BRANCH  30  32
ATOM     32  C   UNL     1      -4.103  -9.891   3.671  1.00  0.00     0.002 C 
ATOM     33  C   UNL     1      -5.367  -9.949   2.824  1.00  0.00     0.004 C 
ENDBRANCH  30  32
ENDBRANCH  12  30
ENDBRANCH  10  12
ENDBRANCH   1  10
BRANCH   5  34
ATOM     34  C   UNL     1      -7.260  -6.008   7.747  1.00  0.00     0.242 C 
ATOM     35  O   UNL     1      -7.312  -5.033   6.996  1.00  0.00    -0.273 OA
ATOM     36  N   UNL     1      -8.340  -6.426   8.492  1.00  0.00    -0.354 N 
ATOM     37  H   UNL     1      -8.203  -7.163   9.185  1.00  0.00     0.163 HD
BRANCH  36  38
ATOM     38  C   UNL     1      -9.680  -5.929   8.257  1.00  0.00     0.116 C 
BRANCH  38  39
ATOM     39  C   UNL     1     -10.412  -5.764   9.587  1.00  0.00     0.023 C 
BRANCH  39  40
ATOM     40  C   UNL     1      -9.480  -5.898  10.786  1.00  0.00     0.026 C 
BRANCH  40  41
ATOM     41  C   UNL     1      -9.126  -4.524  11.355  1.00  0.00     0.146 C 
BRANCH  41  42
ATOM     42  N   UNL     1      -7.963  -3.988  10.660  1.00  0.00    -0.254 NA
ATOM     43  C   UNL     1      -8.100  -2.984   9.878  1.00  0.00     0.185 C 
ATOM     44  N   UNL     1      -9.201  -2.282   9.556  1.00  0.00    -0.370 N 
ATOM     45  N   UNL     1      -7.016  -2.508   9.243  1.00  0.00    -0.370 N 
ATOM     46  H   UNL     1      -9.209  -1.681   8.749  1.00  0.00     0.159 HD
ATOM     47  H   UNL     1     -10.108  -2.499   9.957  1.00  0.00     0.159 HD
ATOM     48  H   UNL     1      -6.141  -2.976   9.437  1.00  0.00     0.159 HD
ATOM     49  H   UNL     1      -6.993  -1.601   8.812  1.00  0.00     0.159 HD
ENDBRANCH  41  42
ENDBRANCH  40  41
ENDBRANCH  39  40
ENDBRANCH  38  39
ENDBRANCH  36  38
ENDBRANCH   5  34
BRANCH   8  50
ATOM     50  O   UNL     1      -4.369  -2.277   8.263  1.00  0.00    -0.245 OA
BRANCH  50  51
ATOM     51  S   UNL     1      -4.791  -1.084   7.242  1.00  0.00     0.397 S 
ATOM     52  O   UNL     1      -5.953  -1.520   6.501  1.00  0.00    -0.169 OA
ATOM     53  O   UNL     1      -3.611  -0.575   6.574  1.00  0.00    -0.169 OA
BRANCH  51  54
ATOM     54  O   UNL     1      -5.317   0.052   8.252  1.00  0.00    -0.264 OA
ATOM     55  H   UNL     1      -5.196  -0.282   9.165  1.00  0.00     0.236 HD
ENDBRANCH  51  54
ENDBRANCH  50  51
ENDBRANCH   8  50
TORSDOF 19
ENDMDL
MODEL 22
REMARK VINA RESULT:    -6.307     12.218     16.439
REMARK INTER + INTRA:         -17.332
REMARK INTER:                 -14.138
REMARK INTRA:                  -3.194
REMARK UNBOUND:                -4.573
REMARK SMILES CC[C@@H](C)[C@@H](NC(=O)[C@@H](O)Cc1ccc(O)c(Cl)c1)C(=O)N1[C@H](C(=O)NCCCCN=C(N)N)C[C@H]2CC[C@H](OS(=O)(=O)O)C[C@@H]21
REMARK SMILES IDX 22 1 36 2 46 3 35 4 23 5 45 6 37 7 39 8 38 9 20 10 21 11
REMARK SMILES IDX 5 12 6 13 7 14 8 15 9 17 11 18 12 19 17 20 19 21 15 22 14 23
REMARK SMILES IDX 13 24 18 25 16 26 10 28 3 30 4 31 2 32 1 33 24 34 25 35
REMARK SMILES IDX 26 36 27 38 28 39 29 40 30 41 31 42 32 43 33 44 34 45 40 50
REMARK SMILES IDX 41 51 42 52 43 53 44 54
REMARK H PARENT 6 16 16 27 10 29 26 37 33 46 33 47 34 48 34 49 44 55
ROOT
ATOM      1  N   UNL     1      -1.082  -8.684   0.040  1.00  0.00    -0.326 N 
ATOM      2  C   UNL     1       0.996  -9.588  -0.599  1.00  0.00     0.014 C 
ATOM      3  C   UNL     1      -0.479  -9.518  -1.004  1.00  0.00     0.091 C 
ATOM      4  C   UNL     1       0.926  -9.590   0.920  1.00  0.00     0.041 C 
ATOM      5  C   UNL     1      -0.115  -8.479   1.147  1.00  0.00     0.175 C 
ATOM      6  C   UNL     1      -0.560  -9.037  -2.452  1.00  0.00     0.059 C 
ATOM      7  C   UNL     1       1.701 -10.725  -1.312  1.00  0.00     0.008 C 
ATOM      8  C   UNL     1       0.638  -9.478  -3.321  1.00  0.00     0.143 C 
ATOM      9  C   UNL     1       1.287 -10.775  -2.798  1.00  0.00     0.034 C 
ENDROOT
BRANCH   1  10
ATOM     10  C   UNL     1      -2.398  -8.290   0.211  1.00  0.00     0.246 C 
ATOM     11  O   UNL     1      -2.860  -7.405  -0.517  1.00  0.00    -0.272 OA
BRANCH  10  12
ATOM     12  C   UNL     1      -3.277  -8.997   1.283  1.00  0.00     0.174 C 
BRANCH  12  13
ATOM     13  N   UNL     1      -2.875  -8.566   2.622  1.00  0.00    -0.342 N 
ATOM     14  C   UNL     1      -3.692  -7.922   3.523  1.00  0.00     0.249 C 
ATOM     15  O   UNL     1      -4.869  -7.661   3.311  1.00  0.00    -0.272 OA
ATOM     16  H   UNL     1      -1.891  -8.573   2.878  1.00  0.00     0.164 HD
BRANCH  14  17
ATOM     17  C   UNL     1      -2.969  -7.581   4.844  1.00  0.00     0.207 C 
BRANCH  17  18
ATOM     18  C   UNL     1      -1.463  -7.827   4.710  1.00  0.00     0.077 C 
BRANCH  18  19
ATOM     19  C   UNL     1      -0.667  -6.988   5.684  1.00  0.00    -0.043 A 
ATOM     20  C   UNL     1      -0.342  -4.911   6.893  1.00  0.00     0.083 A 
ATOM     21  C   UNL     1      -1.105  -5.701   6.032  1.00  0.00     0.028 A 
ATOM     22  C   UNL     1       0.859  -5.399   7.410  1.00  0.00     0.134 A 
ATOM     23  C   UNL     1       1.303  -6.672   7.073  1.00  0.00     0.048 A 
ATOM     24  C   UNL     1       0.543  -7.465   6.210  1.00  0.00     0.008 A 
ATOM     25  Cl  UNL     1      -0.896  -3.331   7.309  1.00  0.00    -0.080 Cl
BRANCH  22  26
ATOM     26  O   UNL     1       1.645  -4.657   8.249  1.00  0.00    -0.506 OA
ATOM     27  H   UNL     1       1.678  -3.756   7.879  1.00  0.00     0.293 HD
ENDBRANCH  22  26
ENDBRANCH  18  19
ENDBRANCH  17  18
BRANCH  17  28
ATOM     28  O   UNL     1      -3.485  -8.363   5.933  1.00  0.00    -0.383 OA
ATOM     29  H   UNL     1      -2.824  -9.074   6.094  1.00  0.00     0.211 HD
ENDBRANCH  17  28
ENDBRANCH  14  17
ENDBRANCH  12  13
BRANCH  12  30
ATOM     30  C   UNL     1      -3.278 -10.542   1.134  1.00  0.00     0.018 C 
ATOM     31  C   UNL     1      -4.136 -10.975  -0.064  1.00  0.00     0.010 C 
BRANCH  30  32
ATOM     32  C   UNL     1      -3.733 -11.289   2.412  1.00  0.00     0.002 C 
ATOM     33  C   UNL     1      -2.760 -12.338   2.934  1.00  0.00     0.004 C 
ENDBRANCH  30  32
ENDBRANCH  12  30
ENDBRANCH  10  12
ENDBRANCH   1  10
BRANCH   5  34
ATOM     34  C   UNL     1       0.526  -7.068   1.062  1.00  0.00     0.242 C 
ATOM     35  O   UNL     1       0.686  -6.481  -0.008  1.00  0.00    -0.273 OA
ATOM     36  N   UNL     1       0.951  -6.545   2.262  1.00  0.00    -0.354 N 
ATOM     37  H   UNL     1       0.901  -7.128   3.098  1.00  0.00     0.163 HD
BRANCH  36  38
ATOM     38  C   UNL     1       1.371  -5.165   2.400  1.00  0.00     0.116 C 
BRANCH  38  39
ATOM     39  C   UNL     1       1.867  -4.913   3.821  1.00  0.00     0.023 C 
BRANCH  39  40
ATOM     40  C   UNL     1       1.765  -3.446   4.223  1.00  0.00     0.026 C 
BRANCH  40  41
ATOM     41  C   UNL     1       1.604  -2.556   2.990  1.00  0.00     0.146 C 
BRANCH  41  42
ATOM     42  N   UNL     1       0.270  -1.972   2.975  1.00  0.00    -0.254 NA
ATOM     43  C   UNL     1      -0.237  -1.581   1.866  1.00  0.00     0.185 C 
ATOM     44  N   UNL     1       0.273  -1.614   0.622  1.00  0.00    -0.370 N 
ATOM     45  N   UNL     1      -1.467  -1.041   1.874  1.00  0.00    -0.370 N 
ATOM     46  H   UNL     1      -0.128  -1.055  -0.112  1.00  0.00     0.159 HD
ATOM     47  H   UNL     1       1.191  -2.004   0.432  1.00  0.00     0.159 HD
ATOM     48  H   UNL     1      -1.927  -0.987   2.773  1.00  0.00     0.159 HD
ATOM     49  H   UNL     1      -2.019  -0.933   1.042  1.00  0.00     0.159 HD
ENDBRANCH  41  42
ENDBRANCH  40  41
ENDBRANCH  39  40
ENDBRANCH  38  39
ENDBRANCH  36  38
ENDBRANCH   5  34
BRANCH   8  50
ATOM     50  O   UNL     1       1.631  -8.452  -3.344  1.00  0.00    -0.245 OA
BRANCH  50  51
ATOM     51  S   UNL     1       2.317  -8.030  -4.757  1.00  0.00     0.397 S 
ATOM     52  O   UNL     1       3.744  -8.225  -4.635  1.00  0.00    -0.169 OA
ATOM     53  O   UNL     1       1.758  -6.774  -5.213  1.00  0.00    -0.169 OA
BRANCH  51  54
ATOM     54  O   UNL     1       1.799  -9.191  -5.741  1.00  0.00    -0.264 OA
ATOM     55  H   UNL     1       2.273  -9.094  -6.592  1.00  0.00     0.236 HD
ENDBRANCH  51  54
ENDBRANCH  50  51
ENDBRANCH   8  50
TORSDOF 19
ENDMDL
MODEL 23
REMARK VINA RESULT:    -6.304     12.296     16.700
REMARK INTER + INTRA:         -17.326
REMARK INTER:                 -12.911
REMARK INTRA:                  -4.415
REMARK UNBOUND:                -4.573
REMARK SMILES CC[C@@H](C)[C@@H](NC(=O)[C@@H](O)Cc1ccc(O)c(Cl)c1)C(=O)N1[C@H](C(=O)NCCCCN=C(N)N)C[C@H]2CC[C@H](OS(=O)(=O)O)C[C@@H]21
REMARK SMILES IDX 22 1 36 2 46 3 35 4 23 5 45 6 37 7 39 8 38 9 20 10 21 11
REMARK SMILES IDX 5 12 6 13 7 14 8 15 9 17 11 18 12 19 17 20 19 21 15 22 14 23
REMARK SMILES IDX 13 24 18 25 16 26 10 28 3 30 4 31 2 32 1 33 24 34 25 35
REMARK SMILES IDX 26 36 27 38 28 39 29 40 30 41 31 42 32 43 33 44 34 45 40 50
REMARK SMILES IDX 41 51 42 52 43 53 44 54
REMARK H PARENT 6 16 16 27 10 29 26 37 33 46 33 47 34 48 34 49 44 55
ROOT
ATOM      1  N   UNL     1      -0.315  -7.044   2.393  1.00  0.00    -0.326 N 
ATOM      2  C   UNL     1       0.931  -8.778   3.383  1.00  0.00     0.014 C 
ATOM      3  C   UNL     1       0.074  -7.553   3.712  1.00  0.00     0.091 C 
ATOM      4  C   UNL     1       1.637  -8.360   2.102  1.00  0.00     0.041 C 
ATOM      5  C   UNL     1       0.458  -7.736   1.333  1.00  0.00     0.175 C 
ATOM      6  C   UNL     1      -1.030  -7.981   4.678  1.00  0.00     0.059 C 
ATOM      7  C   UNL     1       1.757  -9.200   4.583  1.00  0.00     0.008 C 
ATOM      8  C   UNL     1      -0.615  -9.125   5.628  1.00  0.00     0.143 C 
ATOM      9  C   UNL     1       0.908  -9.152   5.871  1.00  0.00     0.034 C 
ENDROOT
BRANCH   1  10
ATOM     10  C   UNL     1      -1.080  -5.939   2.059  1.00  0.00     0.246 C 
ATOM     11  O   UNL     1      -2.255  -6.103   1.716  1.00  0.00    -0.272 OA
BRANCH  10  12
ATOM     12  C   UNL     1      -0.458  -4.516   2.163  1.00  0.00     0.174 C 
BRANCH  12  13
ATOM     13  N   UNL     1       0.980  -4.617   2.411  1.00  0.00    -0.342 N 
ATOM     14  C   UNL     1       1.937  -3.796   1.858  1.00  0.00     0.249 C 
ATOM     15  O   UNL     1       1.683  -2.861   1.109  1.00  0.00    -0.272 OA
ATOM     16  H   UNL     1       1.353  -5.437   2.884  1.00  0.00     0.164 HD
BRANCH  14  17
ATOM     17  C   UNL     1       3.368  -4.168   2.301  1.00  0.00     0.207 C 
BRANCH  17  18
ATOM     18  C   UNL     1       3.881  -3.172   3.347  1.00  0.00     0.077 C 
BRANCH  18  19
ATOM     19  C   UNL     1       3.290  -3.439   4.713  1.00  0.00    -0.043 A 
ATOM     20  C   UNL     1       2.410  -2.619   6.820  1.00  0.00     0.083 A 
ATOM     21  C   UNL     1       2.909  -2.371   5.540  1.00  0.00     0.028 A 
ATOM     22  C   UNL     1       2.290  -3.930   7.280  1.00  0.00     0.134 A 
ATOM     23  C   UNL     1       2.664  -4.997   6.472  1.00  0.00     0.048 A 
ATOM     24  C   UNL     1       3.165  -4.752   5.191  1.00  0.00     0.008 A 
ATOM     25  Cl  UNL     1       1.948  -1.293   7.822  1.00  0.00    -0.080 Cl
BRANCH  22  26
ATOM     26  O   UNL     1       1.817  -4.222   8.531  1.00  0.00    -0.506 OA
ATOM     27  H   UNL     1       0.928  -3.825   8.594  1.00  0.00     0.293 HD
ENDBRANCH  22  26
ENDBRANCH  18  19
ENDBRANCH  17  18
BRANCH  17  28
ATOM     28  O   UNL     1       4.268  -4.187   1.181  1.00  0.00    -0.383 OA
ATOM     29  H   UNL     1       4.538  -5.127   1.065  1.00  0.00     0.211 HD
ENDBRANCH  17  28
ENDBRANCH  14  17
ENDBRANCH  12  13
BRANCH  12  30
ATOM     30  C   UNL     1      -1.178  -3.622   3.207  1.00  0.00     0.018 C 
ATOM     31  C   UNL     1      -1.353  -2.191   2.673  1.00  0.00     0.010 C 
BRANCH  30  32
ATOM     32  C   UNL     1      -0.478  -3.592   4.588  1.00  0.00     0.002 C 
ATOM     33  C   UNL     1      -1.011  -2.552   5.565  1.00  0.00     0.004 C 
ENDBRANCH  30  32
ENDBRANCH  12  30
ENDBRANCH  10  12
ENDBRANCH   1  10
BRANCH   5  34
ATOM     34  C   UNL     1      -0.409  -8.820   0.638  1.00  0.00     0.242 C 
ATOM     35  O   UNL     1       0.022  -9.520  -0.278  1.00  0.00    -0.273 OA
ATOM     36  N   UNL     1      -1.709  -8.904   1.084  1.00  0.00    -0.354 N 
ATOM     37  H   UNL     1      -2.042  -8.217   1.761  1.00  0.00     0.163 HD
BRANCH  36  38
ATOM     38  C   UNL     1      -2.588  -9.991   0.705  1.00  0.00     0.116 C 
BRANCH  38  39
ATOM     39  C   UNL     1      -2.842 -10.896   1.908  1.00  0.00     0.023 C 
BRANCH  39  40
ATOM     40  C   UNL     1      -4.329 -11.117   2.166  1.00  0.00     0.026 C 
BRANCH  40  41
ATOM     41  C   UNL     1      -4.995  -9.825   2.640  1.00  0.00     0.146 C 
BRANCH  41  42
ATOM     42  N   UNL     1      -4.320  -9.332   3.834  1.00  0.00    -0.254 NA
ATOM     43  C   UNL     1      -4.644  -9.797   4.982  1.00  0.00     0.185 C 
ATOM     44  N   UNL     1      -5.559 -10.727   5.312  1.00  0.00    -0.370 N 
ATOM     45  N   UNL     1      -4.013  -9.327   6.070  1.00  0.00    -0.370 N 
ATOM     46  H   UNL     1      -5.878 -10.817   6.261  1.00  0.00     0.159 HD
ATOM     47  H   UNL     1      -6.119 -11.198   4.608  1.00  0.00     0.159 HD
ATOM     48  H   UNL     1      -3.301  -8.628   5.908  1.00  0.00     0.159 HD
ATOM     49  H   UNL     1      -4.036  -9.797   6.958  1.00  0.00     0.159 HD
ENDBRANCH  41  42
ENDBRANCH  40  41
ENDBRANCH  39  40
ENDBRANCH  38  39
ENDBRANCH  36  38
ENDBRANCH   5  34
BRANCH   8  50
ATOM     50  O   UNL     1      -1.010 -10.383   5.081  1.00  0.00    -0.245 OA
BRANCH  50  51
ATOM     51  S   UNL     1      -1.384 -11.611   6.081  1.00  0.00     0.397 S 
ATOM     52  O   UNL     1      -0.238 -12.487   6.161  1.00  0.00    -0.169 OA
ATOM     53  O   UNL     1      -2.704 -12.113   5.760  1.00  0.00    -0.169 OA
BRANCH  51  54
ATOM     54  O   UNL     1      -1.470 -10.869   7.505  1.00  0.00    -0.264 OA
ATOM     55  H   UNL     1      -1.822 -11.511   8.155  1.00  0.00     0.236 HD
ENDBRANCH  51  54
ENDBRANCH  50  51
ENDBRANCH   8  50
TORSDOF 19
ENDMDL
MODEL 24
REMARK VINA RESULT:    -6.283      3.851      6.949
REMARK INTER + INTRA:         -17.283
REMARK INTER:                 -13.128
REMARK INTRA:                  -4.156
REMARK UNBOUND:                -4.573
REMARK SMILES CC[C@@H](C)[C@@H](NC(=O)[C@@H](O)Cc1ccc(O)c(Cl)c1)C(=O)N1[C@H](C(=O)NCCCCN=C(N)N)C[C@H]2CC[C@H](OS(=O)(=O)O)C[C@@H]21
REMARK SMILES IDX 22 1 36 2 46 3 35 4 23 5 45 6 37 7 39 8 38 9 20 10 21 11
REMARK SMILES IDX 5 12 6 13 7 14 8 15 9 17 11 18 12 19 17 20 19 21 15 22 14 23
REMARK SMILES IDX 13 24 18 25 16 26 10 28 3 30 4 31 2 32 1 33 24 34 25 35
REMARK SMILES IDX 26 36 27 38 28 39 29 40 30 41 31 42 32 43 33 44 34 45 40 50
REMARK SMILES IDX 41 51 42 52 43 53 44 54
REMARK H PARENT 6 16 16 27 10 29 26 37 33 46 33 47 34 48 34 49 44 55
ROOT
ATOM      1  N   UNL     1       6.251   1.759  -0.613  1.00  0.00    -0.326 N 
ATOM      2  C   UNL     1       6.500   4.024  -0.020  1.00  0.00     0.014 C 
ATOM      3  C   UNL     1       6.133   2.649   0.546  1.00  0.00     0.091 C 
ATOM      4  C   UNL     1       5.943   3.964  -1.434  1.00  0.00     0.041 C 
ATOM      5  C   UNL     1       6.414   2.559  -1.852  1.00  0.00     0.175 C 
ATOM      6  C   UNL     1       7.017   2.376   1.762  1.00  0.00     0.059 C 
ATOM      7  C   UNL     1       6.047   5.132   0.911  1.00  0.00     0.008 C 
ATOM      8  C   UNL     1       7.403   3.648   2.548  1.00  0.00     0.143 C 
ATOM      9  C   UNL     1       6.361   4.772   2.378  1.00  0.00     0.034 C 
ENDROOT
BRANCH   1  10
ATOM     10  C   UNL     1       6.023   0.398  -0.713  1.00  0.00     0.246 C 
ATOM     11  O   UNL     1       4.946   0.001  -1.173  1.00  0.00    -0.272 OA
BRANCH  10  12
ATOM     12  C   UNL     1       7.137  -0.601  -0.286  1.00  0.00     0.174 C 
BRANCH  12  13
ATOM     13  N   UNL     1       7.738  -1.214  -1.471  1.00  0.00    -0.342 N 
ATOM     14  C   UNL     1       9.090  -1.297  -1.718  1.00  0.00     0.249 C 
ATOM     15  O   UNL     1       9.950  -0.885  -0.949  1.00  0.00    -0.272 OA
ATOM     16  H   UNL     1       7.151  -1.456  -2.265  1.00  0.00     0.164 HD
BRANCH  14  17
ATOM     17  C   UNL     1       9.408  -1.985  -3.062  1.00  0.00     0.207 C 
BRANCH  17  18
ATOM     18  C   UNL     1       8.677  -3.327  -3.163  1.00  0.00     0.077 C 
BRANCH  18  19
ATOM     19  C   UNL     1       9.571  -4.484  -2.777  1.00  0.00    -0.043 A 
ATOM     20  C   UNL     1      10.668  -5.817  -1.073  1.00  0.00     0.083 A 
ATOM     21  C   UNL     1       9.803  -4.779  -1.425  1.00  0.00     0.028 A 
ATOM     22  C   UNL     1      11.305  -6.563  -2.065  1.00  0.00     0.134 A 
ATOM     23  C   UNL     1      11.083  -6.281  -3.408  1.00  0.00     0.048 A 
ATOM     24  C   UNL     1      10.220  -5.242  -3.764  1.00  0.00     0.008 A 
ATOM     25  Cl  UNL     1      10.941  -6.164   0.594  1.00  0.00    -0.080 Cl
BRANCH  22  26
ATOM     26  O   UNL     1      12.168  -7.582  -1.768  1.00  0.00    -0.506 OA
ATOM     27  H   UNL     1      12.183  -8.172  -2.545  1.00  0.00     0.293 HD
ENDBRANCH  22  26
ENDBRANCH  18  19
ENDBRANCH  17  18
BRANCH  17  28
ATOM     28  O   UNL     1      10.821  -2.199  -3.212  1.00  0.00    -0.383 OA
ATOM     29  H   UNL     1      11.255  -1.366  -2.918  1.00  0.00     0.211 HD
ENDBRANCH  17  28
ENDBRANCH  14  17
ENDBRANCH  12  13
BRANCH  12  30
ATOM     30  C   UNL     1       6.638  -1.656   0.738  1.00  0.00     0.018 C 
ATOM     31  C   UNL     1       7.184  -1.354   2.142  1.00  0.00     0.010 C 
BRANCH  30  32
ATOM     32  C   UNL     1       6.971  -3.114   0.340  1.00  0.00     0.002 C 
ATOM     33  C   UNL     1       5.775  -3.970  -0.057  1.00  0.00     0.004 C 
ENDBRANCH  30  32
ENDBRANCH  12  30
ENDBRANCH  10  12
ENDBRANCH   1  10
BRANCH   5  34
ATOM     34  C   UNL     1       7.897   2.565  -2.311  1.00  0.00     0.242 C 
ATOM     35  O   UNL     1       8.814   2.191  -1.581  1.00  0.00    -0.273 OA
ATOM     36  N   UNL     1       8.117   3.071  -3.573  1.00  0.00    -0.354 N 
ATOM     37  H   UNL     1       7.332   3.477  -4.084  1.00  0.00     0.163 HD
BRANCH  36  38
ATOM     38  C   UNL     1       9.397   2.955  -4.240  1.00  0.00     0.116 C 
BRANCH  38  39
ATOM     39  C   UNL     1      10.155   4.276  -4.141  1.00  0.00     0.023 C 
BRANCH  39  40
ATOM     40  C   UNL     1      11.193   4.270  -3.023  1.00  0.00     0.026 C 
BRANCH  40  41
ATOM     41  C   UNL     1      12.352   3.333  -3.365  1.00  0.00     0.146 C 
BRANCH  41  42
ATOM     42  N   UNL     1      12.480   2.311  -2.334  1.00  0.00    -0.254 NA
ATOM     43  C   UNL     1      12.329   1.078  -2.642  1.00  0.00     0.185 C 
ATOM     44  N   UNL     1      12.055   0.511  -3.831  1.00  0.00    -0.370 N 
ATOM     45  N   UNL     1      12.446   0.152  -1.676  1.00  0.00    -0.370 N 
ATOM     46  H   UNL     1      11.724  -0.438  -3.883  1.00  0.00     0.159 HD
ATOM     47  H   UNL     1      11.947   1.066  -4.674  1.00  0.00     0.159 HD
ATOM     48  H   UNL     1      12.661   0.496  -0.750  1.00  0.00     0.159 HD
ATOM     49  H   UNL     1      12.578  -0.824  -1.872  1.00  0.00     0.159 HD
ENDBRANCH  41  42
ENDBRANCH  40  41
ENDBRANCH  39  40
ENDBRANCH  38  39
ENDBRANCH  36  38
ENDBRANCH   5  34
BRANCH   8  50
ATOM     50  O   UNL     1       8.670   4.133   2.103  1.00  0.00    -0.245 OA
BRANCH  50  51
ATOM     51  S   UNL     1       9.820   4.495   3.195  1.00  0.00     0.397 S 
ATOM     52  O   UNL     1       9.187   4.601   4.491  1.00  0.00    -0.169 OA
ATOM     53  O   UNL     1      10.669   5.547   2.677  1.00  0.00    -0.169 OA
BRANCH  51  54
ATOM     54  O   UNL     1      10.681   3.138   3.238  1.00  0.00    -0.264 OA
ATOM     55  H   UNL     1      10.068   2.391   3.080  1.00  0.00     0.236 HD
ENDBRANCH  51  54
ENDBRANCH  50  51
ENDBRANCH   8  50
TORSDOF 19
ENDMDL
MODEL 25
REMARK VINA RESULT:    -6.282      3.957      6.673
REMARK INTER + INTRA:         -17.281
REMARK INTER:                 -12.788
REMARK INTRA:                  -4.493
REMARK UNBOUND:                -4.573
REMARK SMILES CC[C@@H](C)[C@@H](NC(=O)[C@@H](O)Cc1ccc(O)c(Cl)c1)C(=O)N1[C@H](C(=O)NCCCCN=C(N)N)C[C@H]2CC[C@H](OS(=O)(=O)O)C[C@@H]21
REMARK SMILES IDX 22 1 36 2 46 3 35 4 23 5 45 6 37 7 39 8 38 9 20 10 21 11
REMARK SMILES IDX 5 12 6 13 7 14 8 15 9 17 11 18 12 19 17 20 19 21 15 22 14 23
REMARK SMILES IDX 13 24 18 25 16 26 10 28 3 30 4 31 2 32 1 33 24 34 25 35
REMARK SMILES IDX 26 36 27 38 28 39 29 40 30 41 31 42 32 43 33 44 34 45 40 50
REMARK SMILES IDX 41 51 42 52 43 53 44 54
REMARK H PARENT 6 16 16 27 10 29 26 37 33 46 33 47 34 48 34 49 44 55
ROOT
ATOM      1  N   UNL     1       7.170   3.445   0.158  1.00  0.00    -0.326 N 
ATOM      2  C   UNL     1       8.731   1.845  -0.580  1.00  0.00     0.014 C 
ATOM      3  C   UNL     1       7.744   2.904  -1.078  1.00  0.00     0.091 C 
ATOM      4  C   UNL     1       8.036   1.293   0.655  1.00  0.00     0.041 C 
ATOM      5  C   UNL     1       7.569   2.604   1.314  1.00  0.00     0.175 C 
ATOM      6  C   UNL     1       8.488   3.859  -2.009  1.00  0.00     0.059 C 
ATOM      7  C   UNL     1       9.121   0.899  -1.699  1.00  0.00     0.008 C 
ATOM      8  C   UNL     1       9.633   3.189  -2.800  1.00  0.00     0.143 C 
ATOM      9  C   UNL     1       9.391   1.680  -3.002  1.00  0.00     0.034 C 
ENDROOT
BRANCH   1  10
ATOM     10  C   UNL     1       6.204   4.421   0.335  1.00  0.00     0.246 C 
ATOM     11  O   UNL     1       6.512   5.476   0.898  1.00  0.00    -0.272 OA
BRANCH  10  12
ATOM     12  C   UNL     1       4.767   4.187  -0.215  1.00  0.00     0.174 C 
BRANCH  12  13
ATOM     13  N   UNL     1       4.457   2.758  -0.207  1.00  0.00    -0.342 N 
ATOM     14  C   UNL     1       3.907   2.074   0.855  1.00  0.00     0.249 C 
ATOM     15  O   UNL     1       3.588   2.601   1.913  1.00  0.00    -0.272 OA
ATOM     16  H   UNL     1       4.808   2.162  -0.952  1.00  0.00     0.164 HD
BRANCH  14  17
ATOM     17  C   UNL     1       3.715   0.571   0.560  1.00  0.00     0.207 C 
BRANCH  17  18
ATOM     18  C   UNL     1       3.348   0.356  -0.911  1.00  0.00     0.077 C 
BRANCH  18  19
ATOM     19  C   UNL     1       4.506  -0.211  -1.702  1.00  0.00    -0.043 A 
ATOM     20  C   UNL     1       6.313  -1.813  -1.927  1.00  0.00     0.083 A 
ATOM     21  C   UNL     1       5.215  -1.323  -1.220  1.00  0.00     0.028 A 
ATOM     22  C   UNL     1       6.710  -1.199  -3.115  1.00  0.00     0.134 A 
ATOM     23  C   UNL     1       6.017  -0.097  -3.604  1.00  0.00     0.048 A 
ATOM     24  C   UNL     1       4.918   0.397  -2.897  1.00  0.00     0.008 A 
ATOM     25  Cl  UNL     1       7.172  -3.180  -1.319  1.00  0.00    -0.080 Cl
BRANCH  22  26
ATOM     26  O   UNL     1       7.787  -1.637  -3.838  1.00  0.00    -0.506 OA
ATOM     27  H   UNL     1       7.579  -1.476  -4.777  1.00  0.00     0.293 HD
ENDBRANCH  22  26
ENDBRANCH  18  19
ENDBRANCH  17  18
BRANCH  17  28
ATOM     28  O   UNL     1       2.690   0.007   1.394  1.00  0.00    -0.383 OA
ATOM     29  H   UNL     1       1.845   0.418   1.102  1.00  0.00     0.211 HD
ENDBRANCH  17  28
ENDBRANCH  14  17
ENDBRANCH  12  13
BRANCH  12  30
ATOM     30  C   UNL     1       4.545   4.833  -1.609  1.00  0.00     0.018 C 
ATOM     31  C   UNL     1       3.788   6.164  -1.480  1.00  0.00     0.010 C 
BRANCH  30  32
ATOM     32  C   UNL     1       3.823   3.906  -2.616  1.00  0.00     0.002 C 
ATOM     33  C   UNL     1       2.443   4.375  -3.059  1.00  0.00     0.004 C 
ENDBRANCH  30  32
ENDBRANCH  12  30
ENDBRANCH  10  12
ENDBRANCH   1  10
BRANCH   5  34
ATOM     34  C   UNL     1       8.712   3.280   2.116  1.00  0.00     0.242 C 
ATOM     35  O   UNL     1       9.825   2.767   2.236  1.00  0.00    -0.273 OA
ATOM     36  N   UNL     1       8.376   4.466   2.729  1.00  0.00    -0.354 N 
ATOM     37  H   UNL     1       7.405   4.780   2.694  1.00  0.00     0.163 HD
BRANCH  36  38
ATOM     38  C   UNL     1       9.367   5.333   3.333  1.00  0.00     0.116 C 
BRANCH  38  39
ATOM     39  C   UNL     1       9.007   5.592   4.794  1.00  0.00     0.023 C 
BRANCH  39  40
ATOM     40  C   UNL     1       8.154   6.843   4.971  1.00  0.00     0.026 C 
BRANCH  40  41
ATOM     41  C   UNL     1       6.736   6.475   5.409  1.00  0.00     0.146 C 
BRANCH  41  42
ATOM     42  N   UNL     1       6.072   5.726   4.350  1.00  0.00    -0.254 NA
ATOM     43  C   UNL     1       4.805   5.826   4.203  1.00  0.00     0.185 C 
ATOM     44  N   UNL     1       3.907   6.549   4.898  1.00  0.00    -0.370 N 
ATOM     45  N   UNL     1       4.211   5.124   3.224  1.00  0.00    -0.370 N 
ATOM     46  H   UNL     1       2.924   6.345   4.833  1.00  0.00     0.159 HD
ATOM     47  H   UNL     1       4.187   7.150   5.667  1.00  0.00     0.159 HD
ATOM     48  H   UNL     1       4.818   4.558   2.646  1.00  0.00     0.159 HD
ATOM     49  H   UNL     1       3.283   5.325   2.896  1.00  0.00     0.159 HD
ENDBRANCH  41  42
ENDBRANCH  40  41
ENDBRANCH  39  40
ENDBRANCH  38  39
ENDBRANCH  36  38
ENDBRANCH   5  34
BRANCH   8  50
ATOM     50  O   UNL     1      10.872   3.362  -2.111  1.00  0.00    -0.245 OA
BRANCH  50  51
ATOM     51  S   UNL     1      12.251   3.500  -2.962  1.00  0.00     0.397 S 
ATOM     52  O   UNL     1      11.908   3.911  -4.305  1.00  0.00    -0.169 OA
ATOM     53  O   UNL     1      13.094   2.350  -2.712  1.00  0.00    -0.169 OA
BRANCH  51  54
ATOM     54  O   UNL     1      12.942   4.780  -2.276  1.00  0.00    -0.264 OA
ATOM     55  H   UNL     1      13.834   4.512  -1.975  1.00  0.00     0.236 HD
ENDBRANCH  51  54
ENDBRANCH  50  51
ENDBRANCH   8  50
TORSDOF 19
ENDMDL
MODEL 26
REMARK VINA RESULT:    -6.281     13.667     18.607
REMARK INTER + INTRA:         -17.280
REMARK INTER:                 -13.734
REMARK INTRA:                  -3.545
REMARK UNBOUND:                -4.573
REMARK SMILES CC[C@@H](C)[C@@H](NC(=O)[C@@H](O)Cc1ccc(O)c(Cl)c1)C(=O)N1[C@H](C(=O)NCCCCN=C(N)N)C[C@H]2CC[C@H](OS(=O)(=O)O)C[C@@H]21
REMARK SMILES IDX 22 1 36 2 46 3 35 4 23 5 45 6 37 7 39 8 38 9 20 10 21 11
REMARK SMILES IDX 5 12 6 13 7 14 8 15 9 17 11 18 12 19 17 20 19 21 15 22 14 23
REMARK SMILES IDX 13 24 18 25 16 26 10 28 3 30 4 31 2 32 1 33 24 34 25 35
REMARK SMILES IDX 26 36 27 38 28 39 29 40 30 41 31 42 32 43 33 44 34 45 40 50
REMARK SMILES IDX 41 51 42 52 43 53 44 54
REMARK H PARENT 6 16 16 27 10 29 26 37 33 46 33 47 34 48 34 49 44 55
ROOT
ATOM      1  N   UNL     1      -1.412  -8.170   3.483  1.00  0.00    -0.326 N 
ATOM      2  C   UNL     1      -3.012  -8.569   1.804  1.00  0.00     0.014 C 
ATOM      3  C   UNL     1      -1.518  -8.320   2.029  1.00  0.00     0.091 C 
ATOM      4  C   UNL     1      -3.661  -7.715   2.882  1.00  0.00     0.041 C 
ATOM      5  C   UNL     1      -2.764  -8.066   4.084  1.00  0.00     0.175 C 
ATOM      6  C   UNL     1      -0.734  -9.445   1.358  1.00  0.00     0.059 C 
ATOM      7  C   UNL     1      -3.387  -8.345   0.352  1.00  0.00     0.008 C 
ATOM      8  C   UNL     1      -1.417 -10.010   0.093  1.00  0.00     0.143 C 
ATOM      9  C   UNL     1      -2.331  -8.969  -0.585  1.00  0.00     0.034 C 
ENDROOT
BRANCH   1  10
ATOM     10  C   UNL     1      -0.302  -7.909   4.270  1.00  0.00     0.246 C 
ATOM     11  O   UNL     1       0.194  -8.826   4.933  1.00  0.00    -0.272 OA
BRANCH  10  12
ATOM     12  C   UNL     1       0.320  -6.482   4.269  1.00  0.00     0.174 C 
BRANCH  12  13
ATOM     13  N   UNL     1       1.024  -6.246   3.009  1.00  0.00    -0.342 N 
ATOM     14  C   UNL     1       0.592  -5.407   2.007  1.00  0.00     0.249 C 
ATOM     15  O   UNL     1      -0.431  -4.736   2.074  1.00  0.00    -0.272 OA
ATOM     16  H   UNL     1       1.801  -6.848   2.746  1.00  0.00     0.164 HD
BRANCH  14  17
ATOM     17  C   UNL     1       1.547  -5.385   0.795  1.00  0.00     0.207 C 
BRANCH  17  18
ATOM     18  C   UNL     1       2.722  -6.342   1.021  1.00  0.00     0.077 C 
BRANCH  18  19
ATOM     19  C   UNL     1       2.562  -7.624   0.236  1.00  0.00    -0.043 A 
ATOM     20  C   UNL     1       1.547  -8.860  -1.588  1.00  0.00     0.083 A 
ATOM     21  C   UNL     1       1.731  -7.663  -0.895  1.00  0.00     0.028 A 
ATOM     22  C   UNL     1       2.188 -10.022  -1.157  1.00  0.00     0.134 A 
ATOM     23  C   UNL     1       3.013  -9.998  -0.039  1.00  0.00     0.048 A 
ATOM     24  C   UNL     1       3.198  -8.802   0.658  1.00  0.00     0.008 A 
ATOM     25  Cl  UNL     1       0.522  -8.888  -2.975  1.00  0.00    -0.080 Cl
BRANCH  22  26
ATOM     26  O   UNL     1       2.029 -11.221  -1.798  1.00  0.00    -0.506 OA
ATOM     27  H   UNL     1       1.454 -11.054  -2.567  1.00  0.00     0.293 HD
ENDBRANCH  22  26
ENDBRANCH  18  19
ENDBRANCH  17  18
BRANCH  17  28
ATOM     28  O   UNL     1       2.049  -4.061   0.556  1.00  0.00    -0.383 OA
ATOM     29  H   UNL     1       1.360  -3.443   0.891  1.00  0.00     0.211 HD
ENDBRANCH  17  28
ENDBRANCH  14  17
ENDBRANCH  12  13
BRANCH  12  30
ATOM     30  C   UNL     1       1.217  -6.219   5.508  1.00  0.00     0.018 C 
ATOM     31  C   UNL     1       0.545  -5.224   6.468  1.00  0.00     0.010 C 
BRANCH  30  32
ATOM     32  C   UNL     1       2.643  -5.732   5.151  1.00  0.00     0.002 C 
ATOM     33  C   UNL     1       2.914  -4.258   5.419  1.00  0.00     0.004 C 
ENDBRANCH  30  32
ENDBRANCH  12  30
ENDBRANCH  10  12
ENDBRANCH   1  10
BRANCH   5  34
ATOM     34  C   UNL     1      -3.182  -9.412   4.735  1.00  0.00     0.242 C 
ATOM     35  O   UNL     1      -2.784 -10.498   4.315  1.00  0.00    -0.273 OA
ATOM     36  N   UNL     1      -4.071  -9.305   5.781  1.00  0.00    -0.354 N 
ATOM     37  H   UNL     1      -4.458  -8.387   6.006  1.00  0.00     0.163 HD
BRANCH  36  38
ATOM     38  C   UNL     1      -4.398 -10.427   6.636  1.00  0.00     0.116 C 
BRANCH  38  39
ATOM     39  C   UNL     1      -5.765 -10.209   7.279  1.00  0.00     0.023 C 
BRANCH  39  40
ATOM     40  C   UNL     1      -6.082  -8.732   7.487  1.00  0.00     0.026 C 
BRANCH  40  41
ATOM     41  C   UNL     1      -7.129  -8.551   8.586  1.00  0.00     0.146 C 
BRANCH  41  42
ATOM     42  N   UNL     1      -8.173  -7.644   8.127  1.00  0.00    -0.254 NA
ATOM     43  C   UNL     1      -8.161  -6.421   8.504  1.00  0.00     0.185 C 
ATOM     44  N   UNL     1      -7.296  -5.771   9.305  1.00  0.00    -0.370 N 
ATOM     45  N   UNL     1      -9.135  -5.603   8.073  1.00  0.00    -0.370 N 
ATOM     46  H   UNL     1      -7.541  -4.884   9.710  1.00  0.00     0.159 HD
ATOM     47  H   UNL     1      -6.490  -6.238   9.708  1.00  0.00     0.159 HD
ATOM     48  H   UNL     1      -9.824  -6.012   7.457  1.00  0.00     0.159 HD
ATOM     49  H   UNL     1      -9.067  -4.602   8.125  1.00  0.00     0.159 HD
ENDBRANCH  41  42
ENDBRANCH  40  41
ENDBRANCH  39  40
ENDBRANCH  38  39
ENDBRANCH  36  38
ENDBRANCH   5  34
BRANCH   8  50
ATOM     50  O   UNL     1      -2.202 -11.154   0.429  1.00  0.00    -0.245 OA
BRANCH  50  51
ATOM     51  S   UNL     1      -1.521 -12.631   0.405  1.00  0.00     0.397 S 
ATOM     52  O   UNL     1      -1.521 -13.144   1.756  1.00  0.00    -0.169 OA
ATOM     53  O   UNL     1      -0.313 -12.596  -0.394  1.00  0.00    -0.169 OA
BRANCH  51  54
ATOM     54  O   UNL     1      -2.618 -13.494  -0.392  1.00  0.00    -0.264 OA
ATOM     55  H   UNL     1      -3.170 -12.871  -0.908  1.00  0.00     0.236 HD
ENDBRANCH  51  54
ENDBRANCH  50  51
ENDBRANCH   8  50
TORSDOF 19
ENDMDL
MODEL 27
REMARK VINA RESULT:    -6.260     12.053     16.213
REMARK INTER + INTRA:         -17.237
REMARK INTER:                 -13.083
REMARK INTRA:                  -4.154
REMARK UNBOUND:                -4.573
REMARK SMILES CC[C@@H](C)[C@@H](NC(=O)[C@@H](O)Cc1ccc(O)c(Cl)c1)C(=O)N1[C@H](C(=O)NCCCCN=C(N)N)C[C@H]2CC[C@H](OS(=O)(=O)O)C[C@@H]21
REMARK SMILES IDX 22 1 36 2 46 3 35 4 23 5 45 6 37 7 39 8 38 9 20 10 21 11
REMARK SMILES IDX 5 12 6 13 7 14 8 15 9 17 11 18 12 19 17 20 19 21 15 22 14 23
REMARK SMILES IDX 13 24 18 25 16 26 10 28 3 30 4 31 2 32 1 33 24 34 25 35
REMARK SMILES IDX 26 36 27 38 28 39 29 40 30 41 31 42 32 43 33 44 34 45 40 50
REMARK SMILES IDX 41 51 42 52 43 53 44 54
REMARK H PARENT 6 16 16 27 10 29 26 37 33 46 33 47 34 48 34 49 44 55
ROOT
ATOM      1  N   UNL     1      -0.247  -8.617   3.700  1.00  0.00    -0.326 N 
ATOM      2  C   UNL     1       1.614  -7.571   2.709  1.00  0.00     0.014 C 
ATOM      3  C   UNL     1       0.138  -7.906   2.478  1.00  0.00     0.091 C 
ATOM      4  C   UNL     1       2.111  -8.773   3.497  1.00  0.00     0.041 C 
ATOM      5  C   UNL     1       0.959  -8.934   4.505  1.00  0.00     0.175 C 
ATOM      6  C   UNL     1      -0.601  -6.615   2.128  1.00  0.00     0.059 C 
ATOM      7  C   UNL     1       2.297  -7.201   1.407  1.00  0.00     0.008 C 
ATOM      8  C   UNL     1       0.265  -5.591   1.363  1.00  0.00     0.143 C 
ATOM      9  C   UNL     1       1.397  -6.270   0.566  1.00  0.00     0.034 C 
ENDROOT
BRANCH   1  10
ATOM     10  C   UNL     1      -1.462  -9.179   4.055  1.00  0.00     0.246 C 
ATOM     11  O   UNL     1      -1.542 -10.406   4.182  1.00  0.00    -0.272 OA
BRANCH  10  12
ATOM     12  C   UNL     1      -2.684  -8.255   4.327  1.00  0.00     0.174 C 
BRANCH  12  13
ATOM     13  N   UNL     1      -2.386  -7.346   5.433  1.00  0.00    -0.342 N 
ATOM     14  C   UNL     1      -2.276  -5.978   5.324  1.00  0.00     0.249 C 
ATOM     15  O   UNL     1      -2.445  -5.362   4.280  1.00  0.00    -0.272 OA
ATOM     16  H   UNL     1      -2.068  -7.723   6.323  1.00  0.00     0.164 HD
BRANCH  14  17
ATOM     17  C   UNL     1      -1.935  -5.299   6.668  1.00  0.00     0.207 C 
BRANCH  17  18
ATOM     18  C   UNL     1      -3.070  -4.363   7.097  1.00  0.00     0.077 C 
BRANCH  18  19
ATOM     19  C   UNL     1      -4.016  -5.036   8.067  1.00  0.00    -0.043 A 
ATOM     20  C   UNL     1      -6.110  -6.176   8.512  1.00  0.00     0.083 A 
ATOM     21  C   UNL     1      -5.216  -5.601   7.608  1.00  0.00     0.028 A 
ATOM     22  C   UNL     1      -5.813  -6.190   9.875  1.00  0.00     0.134 A 
ATOM     23  C   UNL     1      -4.628  -5.635  10.343  1.00  0.00     0.048 A 
ATOM     24  C   UNL     1      -3.732  -5.056   9.441  1.00  0.00     0.008 A 
ATOM     25  Cl  UNL     1      -7.580  -6.865   7.929  1.00  0.00    -0.080 Cl
BRANCH  22  26
ATOM     26  O   UNL     1      -6.663  -6.734  10.800  1.00  0.00    -0.506 OA
ATOM     27  H   UNL     1      -7.537  -6.799  10.373  1.00  0.00     0.293 HD
ENDBRANCH  22  26
ENDBRANCH  18  19
ENDBRANCH  17  18
BRANCH  17  28
ATOM     28  O   UNL     1      -0.711  -4.553   6.575  1.00  0.00    -0.383 OA
ATOM     29  H   UNL     1       0.014  -5.201   6.718  1.00  0.00     0.211 HD
ENDBRANCH  17  28
ENDBRANCH  14  17
ENDBRANCH  12  13
BRANCH  12  30
ATOM     30  C   UNL     1      -3.998  -9.050   4.552  1.00  0.00     0.018 C 
ATOM     31  C   UNL     1      -4.895  -8.987   3.305  1.00  0.00     0.010 C 
BRANCH  30  32
ATOM     32  C   UNL     1      -4.792  -8.599   5.802  1.00  0.00     0.002 C 
ATOM     33  C   UNL     1      -5.152  -9.708   6.781  1.00  0.00     0.004 C 
ENDBRANCH  30  32
ENDBRANCH  12  30
ENDBRANCH  10  12
ENDBRANCH   1  10
BRANCH   5  34
ATOM     34  C   UNL     1       1.100  -7.949   5.696  1.00  0.00     0.242 C 
ATOM     35  O   UNL     1       0.346  -7.980   6.669  1.00  0.00    -0.273 OA
ATOM     36  N   UNL     1       2.092  -7.004   5.561  1.00  0.00    -0.354 N 
ATOM     37  H   UNL     1       2.605  -6.953   4.680  1.00  0.00     0.163 HD
BRANCH  36  38
ATOM     38  C   UNL     1       2.503  -6.152   6.657  1.00  0.00     0.116 C 
BRANCH  38  39
ATOM     39  C   UNL     1       3.624  -5.221   6.199  1.00  0.00     0.023 C 
BRANCH  39  40
ATOM     40  C   UNL     1       3.217  -4.363   5.005  1.00  0.00     0.026 C 
BRANCH  40  41
ATOM     41  C   UNL     1       4.446  -3.739   4.343  1.00  0.00     0.146 C 
BRANCH  41  42
ATOM     42  N   UNL     1       4.439  -4.034   2.916  1.00  0.00    -0.254 NA
ATOM     43  C   UNL     1       4.134  -3.113   2.081  1.00  0.00     0.185 C 
ATOM     44  N   UNL     1       3.793  -1.829   2.295  1.00  0.00    -0.370 N 
ATOM     45  N   UNL     1       4.129  -3.406   0.770  1.00  0.00    -0.370 N 
ATOM     46  H   UNL     1       3.344  -1.291   1.574  1.00  0.00     0.159 HD
ATOM     47  H   UNL     1       3.759  -1.435   3.230  1.00  0.00     0.159 HD
ATOM     48  H   UNL     1       4.384  -4.352   0.522  1.00  0.00     0.159 HD
ATOM     49  H   UNL     1       4.136  -2.701   0.055  1.00  0.00     0.159 HD
ENDBRANCH  41  42
ENDBRANCH  40  41
ENDBRANCH  39  40
ENDBRANCH  38  39
ENDBRANCH  36  38
ENDBRANCH   5  34
BRANCH   8  50
ATOM     50  O   UNL     1       0.849  -4.663   2.278  1.00  0.00    -0.245 OA
BRANCH  50  51
ATOM     51  S   UNL     1       0.326  -3.123   2.301  1.00  0.00     0.397 S 
ATOM     52  O   UNL     1       0.959  -2.454   3.416  1.00  0.00    -0.169 OA
ATOM     53  O   UNL     1      -1.109  -3.093   2.113  1.00  0.00    -0.169 OA
BRANCH  51  54
ATOM     54  O   UNL     1       1.012  -2.515   0.980  1.00  0.00    -0.264 OA
ATOM     55  H   UNL     1       1.139  -3.250   0.345  1.00  0.00     0.236 HD
ENDBRANCH  51  54
ENDBRANCH  50  51
ENDBRANCH   8  50
TORSDOF 19
ENDMDL
MODEL 28
REMARK VINA RESULT:    -6.229     14.421     17.535
REMARK INTER + INTRA:         -17.174
REMARK INTER:                 -14.169
REMARK INTRA:                  -3.005
REMARK UNBOUND:                -4.573
REMARK SMILES CC[C@@H](C)[C@@H](NC(=O)[C@@H](O)Cc1ccc(O)c(Cl)c1)C(=O)N1[C@H](C(=O)NCCCCN=C(N)N)C[C@H]2CC[C@H](OS(=O)(=O)O)C[C@@H]21
REMARK SMILES IDX 22 1 36 2 46 3 35 4 23 5 45 6 37 7 39 8 38 9 20 10 21 11
REMARK SMILES IDX 5 12 6 13 7 14 8 15 9 17 11 18 12 19 17 20 19 21 15 22 14 23
REMARK SMILES IDX 13 24 18 25 16 26 10 28 3 30 4 31 2 32 1 33 24 34 25 35
REMARK SMILES IDX 26 36 27 38 28 39 29 40 30 41 31 42 32 43 33 44 34 45 40 50
REMARK SMILES IDX 41 51 42 52 43 53 44 54
REMARK H PARENT 6 16 16 27 10 29 26 37 33 46 33 47 34 48 34 49 44 55
ROOT
ATOM      1  N   UNL     1      -1.528  -8.195   2.859  1.00  0.00    -0.326 N 
ATOM      2  C   UNL     1      -1.436  -5.912   3.423  1.00  0.00     0.014 C 
ATOM      3  C   UNL     1      -1.748  -7.297   3.996  1.00  0.00     0.091 C 
ATOM      4  C   UNL     1      -1.926  -6.025   1.987  1.00  0.00     0.041 C 
ATOM      5  C   UNL     1      -1.357  -7.406   1.614  1.00  0.00     0.175 C 
ATOM      6  C   UNL     1      -0.905  -7.500   5.253  1.00  0.00     0.059 C 
ATOM      7  C   UNL     1      -1.993  -4.819   4.314  1.00  0.00     0.008 C 
ATOM      8  C   UNL     1      -0.628  -6.197   6.033  1.00  0.00     0.143 C 
ATOM      9  C   UNL     1      -1.724  -5.138   5.800  1.00  0.00     0.034 C 
ENDROOT
BRANCH   1  10
ATOM     10  C   UNL     1      -1.673  -9.570   2.772  1.00  0.00     0.246 C 
ATOM     11  O   UNL     1      -0.745 -10.297   3.142  1.00  0.00    -0.272 OA
BRANCH  10  12
ATOM     12  C   UNL     1      -3.012 -10.168   2.253  1.00  0.00     0.174 C 
BRANCH  12  13
ATOM     13  N   UNL     1      -3.839 -10.594   3.381  1.00  0.00    -0.342 N 
ATOM     14  C   UNL     1      -4.734  -9.792   4.052  1.00  0.00     0.249 C 
ATOM     15  O   UNL     1      -4.960  -8.625   3.756  1.00  0.00    -0.272 OA
ATOM     16  H   UNL     1      -3.649 -11.483   3.837  1.00  0.00     0.164 HD
BRANCH  14  17
ATOM     17  C   UNL     1      -5.443 -10.528   5.210  1.00  0.00     0.207 C 
BRANCH  17  18
ATOM     18  C   UNL     1      -4.912 -10.037   6.560  1.00  0.00     0.077 C 
BRANCH  18  19
ATOM     19  C   UNL     1      -5.856  -9.049   7.209  1.00  0.00    -0.043 A 
ATOM     20  C   UNL     1      -6.440  -6.767   7.787  1.00  0.00     0.083 A 
ATOM     21  C   UNL     1      -5.593  -7.672   7.146  1.00  0.00     0.028 A 
ATOM     22  C   UNL     1      -7.549  -7.230   8.496  1.00  0.00     0.134 A 
ATOM     23  C   UNL     1      -7.821  -8.591   8.567  1.00  0.00     0.048 A 
ATOM     24  C   UNL     1      -6.975  -9.500   7.927  1.00  0.00     0.008 A 
ATOM     25  Cl  UNL     1      -6.100  -5.078   7.698  1.00  0.00    -0.080 Cl
BRANCH  22  26
ATOM     26  O   UNL     1      -8.401  -6.381   9.150  1.00  0.00    -0.506 OA
ATOM     27  H   UNL     1      -7.847  -5.805   9.710  1.00  0.00     0.293 HD
ENDBRANCH  22  26
ENDBRANCH  18  19
ENDBRANCH  17  18
BRANCH  17  28
ATOM     28  O   UNL     1      -5.254 -11.948   5.111  1.00  0.00    -0.383 OA
ATOM     29  H   UNL     1      -6.121 -12.319   4.828  1.00  0.00     0.211 HD
ENDBRANCH  17  28
ENDBRANCH  14  17
ENDBRANCH  12  13
BRANCH  12  30
ATOM     30  C   UNL     1      -2.800 -11.301   1.213  1.00  0.00     0.018 C 
ATOM     31  C   UNL     1      -1.790 -10.873   0.137  1.00  0.00     0.010 C 
BRANCH  30  32
ATOM     32  C   UNL     1      -4.110 -11.789   0.549  1.00  0.00     0.002 C 
ATOM     33  C   UNL     1      -4.407 -13.275   0.707  1.00  0.00     0.004 C 
ENDBRANCH  30  32
ENDBRANCH  12  30
ENDBRANCH  10  12
ENDBRANCH   1  10
BRANCH   5  34
ATOM     34  C   UNL     1       0.142  -7.320   1.219  1.00  0.00     0.242 C 
ATOM     35  O   UNL     1       0.627  -6.317   0.696  1.00  0.00    -0.273 OA
ATOM     36  N   UNL     1       0.875  -8.463   1.446  1.00  0.00    -0.354 N 
ATOM     37  H   UNL     1       0.390  -9.301   1.770  1.00  0.00     0.163 HD
BRANCH  36  38
ATOM     38  C   UNL     1       2.319  -8.490   1.341  1.00  0.00     0.116 C 
BRANCH  38  39
ATOM     39  C   UNL     1       2.743  -9.529   0.306  1.00  0.00     0.023 C 
BRANCH  39  40
ATOM     40  C   UNL     1       2.819  -8.951  -1.103  1.00  0.00     0.026 C 
BRANCH  40  41
ATOM     41  C   UNL     1       1.833  -9.660  -2.033  1.00  0.00     0.146 C 
BRANCH  41  42
ATOM     42  N   UNL     1       0.549  -8.971  -2.007  1.00  0.00    -0.254 NA
ATOM     43  C   UNL     1      -0.405  -9.384  -2.753  1.00  0.00     0.185 C 
ATOM     44  N   UNL     1      -0.444 -10.412  -3.620  1.00  0.00    -0.370 N 
ATOM     45  N   UNL     1      -1.580  -8.732  -2.718  1.00  0.00    -0.370 N 
ATOM     46  H   UNL     1      -1.170 -10.471  -4.314  1.00  0.00     0.159 HD
ATOM     47  H   UNL     1       0.357 -11.020  -3.761  1.00  0.00     0.159 HD
ATOM     48  H   UNL     1      -1.638  -7.948  -2.082  1.00  0.00     0.159 HD
ATOM     49  H   UNL     1      -2.430  -9.124  -3.081  1.00  0.00     0.159 HD
ENDBRANCH  41  42
ENDBRANCH  40  41
ENDBRANCH  39  40
ENDBRANCH  38  39
ENDBRANCH  36  38
ENDBRANCH   5  34
BRANCH   8  50
ATOM     50  O   UNL     1       0.628  -5.645   5.635  1.00  0.00    -0.245 OA
BRANCH  50  51
ATOM     51  S   UNL     1       1.803  -5.444   6.742  1.00  0.00     0.397 S 
ATOM     52  O   UNL     1       1.602  -4.162   7.378  1.00  0.00    -0.169 OA
ATOM     53  O   UNL     1       3.080  -5.815   6.167  1.00  0.00    -0.169 OA
BRANCH  51  54
ATOM     54  O   UNL     1       1.417  -6.547   7.846  1.00  0.00    -0.264 OA
ATOM     55  H   UNL     1       0.794  -6.132   8.477  1.00  0.00     0.236 HD
ENDBRANCH  51  54
ENDBRANCH  50  51
ENDBRANCH   8  50
TORSDOF 19
ENDMDL
MODEL 29
REMARK VINA RESULT:    -6.225     13.338     17.427
REMARK INTER + INTRA:         -17.166
REMARK INTER:                 -13.302
REMARK INTRA:                  -3.864
REMARK UNBOUND:                -4.573
REMARK SMILES CC[C@@H](C)[C@@H](NC(=O)[C@@H](O)Cc1ccc(O)c(Cl)c1)C(=O)N1[C@H](C(=O)NCCCCN=C(N)N)C[C@H]2CC[C@H](OS(=O)(=O)O)C[C@@H]21
REMARK SMILES IDX 22 1 36 2 46 3 35 4 23 5 45 6 37 7 39 8 38 9 20 10 21 11
REMARK SMILES IDX 5 12 6 13 7 14 8 15 9 17 11 18 12 19 17 20 19 21 15 22 14 23
REMARK SMILES IDX 13 24 18 25 16 26 10 28 3 30 4 31 2 32 1 33 24 34 25 35
REMARK SMILES IDX 26 36 27 38 28 39 29 40 30 41 31 42 32 43 33 44 34 45 40 50
REMARK SMILES IDX 41 51 42 52 43 53 44 54
REMARK H PARENT 6 16 16 27 10 29 26 37 33 46 33 47 34 48 34 49 44 55
ROOT
ATOM      1  N   UNL     1      -0.919  -6.540   3.743  1.00  0.00    -0.326 N 
ATOM      2  C   UNL     1      -2.369  -8.349   4.151  1.00  0.00     0.014 C 
ATOM      3  C   UNL     1      -2.290  -6.981   3.468  1.00  0.00     0.091 C 
ATOM      4  C   UNL     1      -1.487  -8.163   5.377  1.00  0.00     0.041 C 
ATOM      5  C   UNL     1      -0.287  -7.437   4.741  1.00  0.00     0.175 C 
ATOM      6  C   UNL     1      -2.721  -7.143   2.012  1.00  0.00     0.059 C 
ATOM      7  C   UNL     1      -3.810  -8.783   4.331  1.00  0.00     0.008 C 
ATOM      8  C   UNL     1      -3.779  -8.246   1.795  1.00  0.00     0.143 C 
ATOM      9  C   UNL     1      -4.631  -8.487   3.058  1.00  0.00     0.034 C 
ENDROOT
BRANCH   1  10
ATOM     10  C   UNL     1      -0.278  -5.365   3.390  1.00  0.00     0.246 C 
ATOM     11  O   UNL     1       0.150  -5.236   2.238  1.00  0.00    -0.272 OA
BRANCH  10  12
ATOM     12  C   UNL     1      -0.146  -4.219   4.434  1.00  0.00     0.174 C 
BRANCH  12  13
ATOM     13  N   UNL     1      -1.364  -4.137   5.241  1.00  0.00    -0.342 N 
ATOM     14  C   UNL     1      -1.458  -4.496   6.567  1.00  0.00     0.249 C 
ATOM     15  O   UNL     1      -0.514  -4.903   7.233  1.00  0.00    -0.272 OA
ATOM     16  H   UNL     1      -2.258  -3.969   4.788  1.00  0.00     0.164 HD
BRANCH  14  17
ATOM     17  C   UNL     1      -2.882  -4.312   7.134  1.00  0.00     0.207 C 
BRANCH  17  18
ATOM     18  C   UNL     1      -3.797  -5.449   6.666  1.00  0.00     0.077 C 
BRANCH  18  19
ATOM     19  C   UNL     1      -4.722  -5.915   7.767  1.00  0.00    -0.043 A 
ATOM     20  C   UNL     1      -6.520  -7.351   8.535  1.00  0.00     0.083 A 
ATOM     21  C   UNL     1      -5.634  -6.956   7.532  1.00  0.00     0.028 A 
ATOM     22  C   UNL     1      -6.502  -6.710   9.774  1.00  0.00     0.134 A 
ATOM     23  C   UNL     1      -5.604  -5.678  10.020  1.00  0.00     0.048 A 
ATOM     24  C   UNL     1      -4.717  -5.279   9.018  1.00  0.00     0.008 A 
ATOM     25  Cl  UNL     1      -7.633  -8.631   8.227  1.00  0.00    -0.080 Cl
BRANCH  22  26
ATOM     26  O   UNL     1      -7.359  -7.055  10.785  1.00  0.00    -0.506 OA
ATOM     27  H   UNL     1      -7.082  -7.936  11.098  1.00  0.00     0.293 HD
ENDBRANCH  22  26
ENDBRANCH  18  19
ENDBRANCH  17  18
BRANCH  17  28
ATOM     28  O   UNL     1      -3.442  -3.052   6.727  1.00  0.00    -0.383 OA
ATOM     29  H   UNL     1      -3.002  -2.368   7.281  1.00  0.00     0.211 HD
ENDBRANCH  17  28
ENDBRANCH  14  17
ENDBRANCH  12  13
BRANCH  12  30
ATOM     30  C   UNL     1       0.228  -2.858   3.788  1.00  0.00     0.018 C 
ATOM     31  C   UNL     1       1.114  -2.030   4.732  1.00  0.00     0.010 C 
BRANCH  30  32
ATOM     32  C   UNL     1      -0.998  -2.024   3.341  1.00  0.00     0.002 C 
ATOM     33  C   UNL     1      -0.677  -0.785   2.516  1.00  0.00     0.004 C 
ENDBRANCH  30  32
ENDBRANCH  12  30
ENDBRANCH  10  12
ENDBRANCH   1  10
BRANCH   5  34
ATOM     34  C   UNL     1       0.683  -8.432   4.050  1.00  0.00     0.242 C 
ATOM     35  O   UNL     1       0.846  -9.582   4.457  1.00  0.00    -0.273 OA
ATOM     36  N   UNL     1       1.387  -7.919   2.984  1.00  0.00    -0.354 N 
ATOM     37  H   UNL     1       1.299  -6.925   2.770  1.00  0.00     0.163 HD
BRANCH  36  38
ATOM     38  C   UNL     1       2.167  -8.757   2.097  1.00  0.00     0.116 C 
BRANCH  38  39
ATOM     39  C   UNL     1       1.323  -9.160   0.891  1.00  0.00     0.023 C 
BRANCH  39  40
ATOM     40  C   UNL     1       0.526  -7.992   0.320  1.00  0.00     0.026 C 
BRANCH  40  41
ATOM     41  C   UNL     1       0.637  -7.953  -1.204  1.00  0.00     0.146 C 
BRANCH  41  42
ATOM     42  N   UNL     1       0.694  -9.312  -1.729  1.00  0.00    -0.254 NA
ATOM     43  C   UNL     1      -0.299  -9.777  -2.389  1.00  0.00     0.185 C 
ATOM     44  N   UNL     1      -1.471  -9.200  -2.711  1.00  0.00    -0.370 N 
ATOM     45  N   UNL     1      -0.229 -11.033  -2.860  1.00  0.00    -0.370 N 
ATOM     46  H   UNL     1      -2.250  -9.757  -3.017  1.00  0.00     0.159 HD
ATOM     47  H   UNL     1      -1.685  -8.244  -2.445  1.00  0.00     0.159 HD
ATOM     48  H   UNL     1       0.626 -11.537  -2.668  1.00  0.00     0.159 HD
ATOM     49  H   UNL     1      -0.846 -11.382  -3.572  1.00  0.00     0.159 HD
ENDBRANCH  41  42
ENDBRANCH  40  41
ENDBRANCH  39  40
ENDBRANCH  38  39
ENDBRANCH  36  38
ENDBRANCH   5  34
BRANCH   8  50
ATOM     50  O   UNL     1      -3.142  -9.473   1.437  1.00  0.00    -0.245 OA
BRANCH  50  51
ATOM     51  S   UNL     1      -3.637 -10.277   0.113  1.00  0.00     0.397 S 
ATOM     52  O   UNL     1      -3.806  -9.318  -0.955  1.00  0.00    -0.169 OA
ATOM     53  O   UNL     1      -4.687 -11.207   0.473  1.00  0.00    -0.169 OA
BRANCH  51  54
ATOM     54  O   UNL     1      -2.329 -11.131  -0.269  1.00  0.00    -0.264 OA
ATOM     55  H   UNL     1      -1.747 -10.559  -0.810  1.00  0.00     0.236 HD
ENDBRANCH  51  54
ENDBRANCH  50  51
ENDBRANCH   8  50
TORSDOF 19
ENDMDL
MODEL 30
REMARK VINA RESULT:    -6.217     11.315     15.279
REMARK INTER + INTRA:         -17.150
REMARK INTER:                 -13.969
REMARK INTRA:                  -3.181
REMARK UNBOUND:                -4.573
REMARK SMILES CC[C@@H](C)[C@@H](NC(=O)[C@@H](O)Cc1ccc(O)c(Cl)c1)C(=O)N1[C@H](C(=O)NCCCCN=C(N)N)C[C@H]2CC[C@H](OS(=O)(=O)O)C[C@@H]21
REMARK SMILES IDX 22 1 36 2 46 3 35 4 23 5 45 6 37 7 39 8 38 9 20 10 21 11
REMARK SMILES IDX 5 12 6 13 7 14 8 15 9 17 11 18 12 19 17 20 19 21 15 22 14 23
REMARK SMILES IDX 13 24 18 25 16 26 10 28 3 30 4 31 2 32 1 33 24 34 25 35
REMARK SMILES IDX 26 36 27 38 28 39 29 40 30 41 31 42 32 43 33 44 34 45 40 50
REMARK SMILES IDX 41 51 42 52 43 53 44 54
REMARK H PARENT 6 16 16 27 10 29 26 37 33 46 33 47 34 48 34 49 44 55
ROOT
ATOM      1  N   UNL     1       1.197  -7.755   1.363  1.00  0.00    -0.326 N 
ATOM      2  C   UNL     1       0.253  -6.348   2.998  1.00  0.00     0.014 C 
ATOM      3  C   UNL     1       0.649  -7.802   2.722  1.00  0.00     0.091 C 
ATOM      4  C   UNL     1      -0.206  -5.861   1.632  1.00  0.00     0.041 C 
ATOM      5  C   UNL     1       0.915  -6.435   0.747  1.00  0.00     0.175 C 
ATOM      6  C   UNL     1       1.558  -8.278   3.853  1.00  0.00     0.059 C 
ATOM      7  C   UNL     1      -0.696  -6.260   4.176  1.00  0.00     0.008 C 
ATOM      8  C   UNL     1       1.243  -7.628   5.218  1.00  0.00     0.143 C 
ATOM      9  C   UNL     1      -0.229  -7.182   5.322  1.00  0.00     0.034 C 
ENDROOT
BRANCH   1  10
ATOM     10  C   UNL     1       1.698  -8.775   0.573  1.00  0.00     0.246 C 
ATOM     11  O   UNL     1       2.802  -9.260   0.846  1.00  0.00    -0.272 OA
BRANCH  10  12
ATOM     12  C   UNL     1       0.847  -9.318  -0.611  1.00  0.00     0.174 C 
BRANCH  12  13
ATOM     13  N   UNL     1      -0.547  -8.904  -0.454  1.00  0.00    -0.342 N 
ATOM     14  C   UNL     1      -1.385  -8.542  -1.485  1.00  0.00     0.249 C 
ATOM     15  O   UNL     1      -1.058  -8.553  -2.665  1.00  0.00    -0.272 OA
ATOM     16  H   UNL     1      -0.909  -8.696   0.473  1.00  0.00     0.164 HD
BRANCH  14  17
ATOM     17  C   UNL     1      -2.792  -8.138  -0.995  1.00  0.00     0.207 C 
BRANCH  17  18
ATOM     18  C   UNL     1      -3.533  -9.355  -0.432  1.00  0.00     0.077 C 
BRANCH  18  19
ATOM     19  C   UNL     1      -3.843  -9.194   1.039  1.00  0.00    -0.043 A 
ATOM     20  C   UNL     1      -4.877 -10.018   3.072  1.00  0.00     0.083 A 
ATOM     21  C   UNL     1      -4.549 -10.192   1.728  1.00  0.00     0.028 A 
ATOM     22  C   UNL     1      -4.506  -8.848   3.736  1.00  0.00     0.134 A 
ATOM     23  C   UNL     1      -3.806  -7.851   3.066  1.00  0.00     0.048 A 
ATOM     24  C   UNL     1      -3.478  -8.022   1.719  1.00  0.00     0.008 A 
ATOM     25  Cl  UNL     1      -5.745 -11.256   3.902  1.00  0.00    -0.080 Cl
BRANCH  22  26
ATOM     26  O   UNL     1      -4.814  -8.627   5.051  1.00  0.00    -0.506 OA
ATOM     27  H   UNL     1      -5.452  -9.318   5.309  1.00  0.00     0.293 HD
ENDBRANCH  22  26
ENDBRANCH  18  19
ENDBRANCH  17  18
BRANCH  17  28
ATOM     28  O   UNL     1      -3.564  -7.560  -2.060  1.00  0.00    -0.383 OA
ATOM     29  H   UNL     1      -4.423  -7.294  -1.659  1.00  0.00     0.211 HD
ENDBRANCH  17  28
ENDBRANCH  14  17
ENDBRANCH  12  13
BRANCH  12  30
ATOM     30  C   UNL     1       0.992 -10.852  -0.801  1.00  0.00     0.018 C 
ATOM     31  C   UNL     1       1.296 -11.195  -2.268  1.00  0.00     0.010 C 
BRANCH  30  32
ATOM     32  C   UNL     1      -0.236 -11.657  -0.310  1.00  0.00     0.002 C 
ATOM     33  C   UNL     1      -0.262 -13.122  -0.726  1.00  0.00     0.004 C 
ENDBRANCH  30  32
ENDBRANCH  12  30
ENDBRANCH  10  12
ENDBRANCH   1  10
BRANCH   5  34
ATOM     34  C   UNL     1       2.180  -5.536   0.772  1.00  0.00     0.242 C 
ATOM     35  O   UNL     1       3.308  -5.991   0.959  1.00  0.00    -0.273 OA
ATOM     36  N   UNL     1       1.943  -4.187   0.623  1.00  0.00    -0.354 N 
ATOM     37  H   UNL     1       0.977  -3.859   0.592  1.00  0.00     0.163 HD
BRANCH  36  38
ATOM     38  C   UNL     1       3.011  -3.234   0.407  1.00  0.00     0.116 C 
BRANCH  38  39
ATOM     39  C   UNL     1       2.486  -1.814   0.607  1.00  0.00     0.023 C 
BRANCH  39  40
ATOM     40  C   UNL     1       1.686  -1.664   1.896  1.00  0.00     0.026 C 
BRANCH  40  41
ATOM     41  C   UNL     1       2.401  -0.730   2.873  1.00  0.00     0.146 C 
BRANCH  41  42
ATOM     42  N   UNL     1       3.413  -1.472   3.613  1.00  0.00    -0.254 NA
ATOM     43  C   UNL     1       4.619  -1.043   3.640  1.00  0.00     0.185 C 
ATOM     44  N   UNL     1       5.163   0.048   3.070  1.00  0.00    -0.370 N 
ATOM     45  N   UNL     1       5.538  -1.744   4.324  1.00  0.00    -0.370 N 
ATOM     46  H   UNL     1       6.160   0.130   2.969  1.00  0.00     0.159 HD
ATOM     47  H   UNL     1       4.605   0.698   2.525  1.00  0.00     0.159 HD
ATOM     48  H   UNL     1       5.209  -2.578   4.792  1.00  0.00     0.159 HD
ATOM     49  H   UNL     1       6.428  -1.361   4.589  1.00  0.00     0.159 HD
ENDBRANCH  41  42
ENDBRANCH  40  41
ENDBRANCH  39  40
ENDBRANCH  38  39
ENDBRANCH  36  38
ENDBRANCH   5  34
BRANCH   8  50
ATOM     50  O   UNL     1       2.078  -6.487   5.422  1.00  0.00    -0.245 OA
BRANCH  50  51
ATOM     51  S   UNL     1       2.509  -6.068   6.933  1.00  0.00     0.397 S 
ATOM     52  O   UNL     1       1.531  -5.128   7.432  1.00  0.00    -0.169 OA
ATOM     53  O   UNL     1       3.928  -5.780   6.972  1.00  0.00    -0.169 OA
BRANCH  51  54
ATOM     54  O   UNL     1       2.258  -7.433   7.745  1.00  0.00    -0.264 OA
ATOM     55  H   UNL     1       3.109  -7.915   7.788  1.00  0.00     0.236 HD
ENDBRANCH  51  54
ENDBRANCH  50  51
ENDBRANCH   8  50
TORSDOF 19
ENDMDL
MODEL 31
REMARK VINA RESULT:    -6.210      2.228      3.001
REMARK INTER + INTRA:         -17.136
REMARK INTER:                 -14.103
REMARK INTRA:                  -3.033
REMARK UNBOUND:                -4.573
REMARK SMILES CC[C@@H](C)[C@@H](NC(=O)[C@@H](O)Cc1ccc(O)c(Cl)c1)C(=O)N1[C@H](C(=O)NCCCCN=C(N)N)C[C@H]2CC[C@H](OS(=O)(=O)O)C[C@@H]21
REMARK SMILES IDX 22 1 36 2 46 3 35 4 23 5 45 6 37 7 39 8 38 9 20 10 21 11
REMARK SMILES IDX 5 12 6 13 7 14 8 15 9 17 11 18 12 19 17 20 19 21 15 22 14 23
REMARK SMILES IDX 13 24 18 25 16 26 10 28 3 30 4 31 2 32 1 33 24 34 25 35
REMARK SMILES IDX 26 36 27 38 28 39 29 40 30 41 31 42 32 43 33 44 34 45 40 50
REMARK SMILES IDX 41 51 42 52 43 53 44 54
REMARK H PARENT 6 16 16 27 10 29 26 37 33 46 33 47 34 48 34 49 44 55
ROOT
ATOM      1  N   UNL     1       9.547   4.899  -2.520  1.00  0.00    -0.326 N 
ATOM      2  C   UNL     1      10.856   6.854  -2.602  1.00  0.00     0.014 C 
ATOM      3  C   UNL     1       9.588   6.261  -1.980  1.00  0.00     0.091 C 
ATOM      4  C   UNL     1      10.891   6.203  -3.976  1.00  0.00     0.041 C 
ATOM      5  C   UNL     1      10.556   4.749  -3.597  1.00  0.00     0.175 C 
ATOM      6  C   UNL     1       9.666   6.438  -0.465  1.00  0.00     0.059 C 
ATOM      7  C   UNL     1      10.855   8.366  -2.495  1.00  0.00     0.008 C 
ATOM      8  C   UNL     1      10.428   7.707  -0.025  1.00  0.00     0.143 C 
ATOM      9  C   UNL     1      10.378   8.813  -1.098  1.00  0.00     0.034 C 
ENDROOT
BRANCH   1  10
ATOM     10  C   UNL     1       8.615   3.894  -2.323  1.00  0.00     0.246 C 
ATOM     11  O   UNL     1       8.678   2.873  -3.016  1.00  0.00    -0.272 OA
BRANCH  10  12
ATOM     12  C   UNL     1       7.540   4.053  -1.210  1.00  0.00     0.174 C 
BRANCH  12  13
ATOM     13  N   UNL     1       7.062   2.737  -0.787  1.00  0.00    -0.342 N 
ATOM     14  C   UNL     1       7.574   2.012   0.266  1.00  0.00     0.249 C 
ATOM     15  O   UNL     1       8.478   2.408   0.991  1.00  0.00    -0.272 OA
ATOM     16  H   UNL     1       6.426   2.215  -1.385  1.00  0.00     0.164 HD
BRANCH  14  17
ATOM     17  C   UNL     1       6.869   0.651   0.451  1.00  0.00     0.207 C 
BRANCH  17  18
ATOM     18  C   UNL     1       5.493   0.665  -0.223  1.00  0.00     0.077 C 
BRANCH  18  19
ATOM     19  C   UNL     1       5.575   0.252  -1.676  1.00  0.00    -0.043 A 
ATOM     20  C   UNL     1       6.543  -1.132  -3.417  1.00  0.00     0.083 A 
ATOM     21  C   UNL     1       6.433  -0.787  -2.069  1.00  0.00     0.028 A 
ATOM     22  C   UNL     1       5.800  -0.444  -4.377  1.00  0.00     0.134 A 
ATOM     23  C   UNL     1       4.947   0.587  -4.001  1.00  0.00     0.048 A 
ATOM     24  C   UNL     1       4.836   0.936  -2.653  1.00  0.00     0.008 A 
ATOM     25  Cl  UNL     1       7.603  -2.411  -3.881  1.00  0.00    -0.080 Cl
BRANCH  22  26
ATOM     26  O   UNL     1       5.883  -0.740  -5.711  1.00  0.00    -0.506 OA
ATOM     27  H   UNL     1       4.972  -0.898  -6.019  1.00  0.00     0.293 HD
ENDBRANCH  22  26
ENDBRANCH  18  19
ENDBRANCH  17  18
BRANCH  17  28
ATOM     28  O   UNL     1       6.714   0.333   1.843  1.00  0.00    -0.383 OA
ATOM     29  H   UNL     1       5.988  -0.330   1.892  1.00  0.00     0.211 HD
ENDBRANCH  17  28
ENDBRANCH  14  17
ENDBRANCH  12  13
BRANCH  12  30
ATOM     30  C   UNL     1       6.380   4.997  -1.627  1.00  0.00     0.018 C 
ATOM     31  C   UNL     1       5.312   5.071  -0.524  1.00  0.00     0.010 C 
BRANCH  30  32
ATOM     32  C   UNL     1       5.725   4.619  -2.978  1.00  0.00     0.002 C 
ATOM     33  C   UNL     1       4.229   4.888  -3.074  1.00  0.00     0.004 C 
ENDBRANCH  30  32
ENDBRANCH  12  30
ENDBRANCH  10  12
ENDBRANCH   1  10
BRANCH   5  34
ATOM     34  C   UNL     1      11.807   3.991  -3.078  1.00  0.00     0.242 C 
ATOM     35  O   UNL     1      12.622   4.511  -2.316  1.00  0.00    -0.273 OA
ATOM     36  N   UNL     1      11.967   2.716  -3.574  1.00  0.00    -0.354 N 
ATOM     37  H   UNL     1      11.324   2.385  -4.294  1.00  0.00     0.163 HD
BRANCH  36  38
ATOM     38  C   UNL     1      12.949   1.796  -3.037  1.00  0.00     0.116 C 
BRANCH  38  39
ATOM     39  C   UNL     1      12.247   0.571  -2.455  1.00  0.00     0.023 C 
BRANCH  39  40
ATOM     40  C   UNL     1      11.162   0.944  -1.451  1.00  0.00     0.026 C 
BRANCH  40  41
ATOM     41  C   UNL     1      10.027  -0.080  -1.473  1.00  0.00     0.146 C 
BRANCH  41  42
ATOM     42  N   UNL     1      10.550  -1.386  -1.854  1.00  0.00    -0.254 NA
ATOM     43  C   UNL     1      10.071  -2.442  -1.313  1.00  0.00     0.185 C 
ATOM     44  N   UNL     1       9.102  -2.579  -0.390  1.00  0.00    -0.370 N 
ATOM     45  N   UNL     1      10.570  -3.636  -1.675  1.00  0.00    -0.370 N 
ATOM     46  H   UNL     1       8.997  -3.439   0.121  1.00  0.00     0.159 HD
ATOM     47  H   UNL     1       8.606  -1.776  -0.015  1.00  0.00     0.159 HD
ATOM     48  H   UNL     1      11.300  -3.623  -2.375  1.00  0.00     0.159 HD
ATOM     49  H   UNL     1      10.099  -4.503  -1.483  1.00  0.00     0.159 HD
ENDBRANCH  41  42
ENDBRANCH  40  41
ENDBRANCH  39  40
ENDBRANCH  38  39
ENDBRANCH  36  38
ENDBRANCH   5  34
BRANCH   8  50
ATOM     50  O   UNL     1      11.796   7.391   0.236  1.00  0.00    -0.245 OA
BRANCH  50  51
ATOM     51  S   UNL     1      12.514   7.978   1.573  1.00  0.00     0.397 S 
ATOM     52  O   UNL     1      13.122   9.245   1.233  1.00  0.00    -0.169 OA
ATOM     53  O   UNL     1      13.266   6.924   2.222  1.00  0.00    -0.169 OA
BRANCH  51  54
ATOM     54  O   UNL     1      11.252   8.333   2.504  1.00  0.00    -0.264 OA
ATOM     55  H   UNL     1      10.751   9.051   2.066  1.00  0.00     0.236 HD
ENDBRANCH  51  54
ENDBRANCH  50  51
ENDBRANCH   8  50
TORSDOF 19
ENDMDL
MODEL 32
REMARK VINA RESULT:    -6.202     12.820     16.607
REMARK INTER + INTRA:         -17.119
REMARK INTER:                 -14.257
REMARK INTRA:                  -2.862
REMARK UNBOUND:                -4.573
REMARK SMILES CC[C@@H](C)[C@@H](NC(=O)[C@@H](O)Cc1ccc(O)c(Cl)c1)C(=O)N1[C@H](C(=O)NCCCCN=C(N)N)C[C@H]2CC[C@H](OS(=O)(=O)O)C[C@@H]21
REMARK SMILES IDX 22 1 36 2 46 3 35 4 23 5 45 6 37 7 39 8 38 9 20 10 21 11
REMARK SMILES IDX 5 12 6 13 7 14 8 15 9 17 11 18 12 19 17 20 19 21 15 22 14 23
REMARK SMILES IDX 13 24 18 25 16 26 10 28 3 30 4 31 2 32 1 33 24 34 25 35
REMARK SMILES IDX 26 36 27 38 28 39 29 40 30 41 31 42 32 43 33 44 34 45 40 50
REMARK SMILES IDX 41 51 42 52 43 53 44 54
REMARK H PARENT 6 16 16 27 10 29 26 37 33 46 33 47 34 48 34 49 44 55
ROOT
ATOM      1  N   UNL     1      -0.064  -7.277   2.061  1.00  0.00    -0.326 N 
ATOM      2  C   UNL     1       0.546  -5.863   3.842  1.00  0.00     0.014 C 
ATOM      3  C   UNL     1       0.799  -6.129   2.355  1.00  0.00     0.091 C 
ATOM      4  C   UNL     1       0.331  -7.261   4.400  1.00  0.00     0.041 C 
ATOM      5  C   UNL     1      -0.602  -7.844   3.322  1.00  0.00     0.175 C 
ATOM      6  C   UNL     1       0.564  -4.830   1.585  1.00  0.00     0.059 C 
ATOM      7  C   UNL     1       1.636  -4.988   4.429  1.00  0.00     0.008 C 
ATOM      8  C   UNL     1       0.914  -3.560   2.390  1.00  0.00     0.143 C 
ATOM      9  C   UNL     1       1.983  -3.832   3.467  1.00  0.00     0.034 C 
ENDROOT
BRANCH   1  10
ATOM     10  C   UNL     1      -0.243  -7.973   0.878  1.00  0.00     0.246 C 
ATOM     11  O   UNL     1      -0.774  -7.403  -0.081  1.00  0.00    -0.272 OA
BRANCH  10  12
ATOM     12  C   UNL     1       0.267  -9.439   0.766  1.00  0.00     0.174 C 
BRANCH  12  13
ATOM     13  N   UNL     1       1.026  -9.611  -0.472  1.00  0.00    -0.342 N 
ATOM     14  C   UNL     1       2.398  -9.549  -0.573  1.00  0.00     0.249 C 
ATOM     15  O   UNL     1       3.144  -9.368   0.381  1.00  0.00    -0.272 OA
ATOM     16  H   UNL     1       0.540  -9.611  -1.365  1.00  0.00     0.164 HD
BRANCH  14  17
ATOM     17  C   UNL     1       2.899  -9.753  -2.019  1.00  0.00     0.207 C 
BRANCH  17  18
ATOM     18  C   UNL     1       1.989 -10.732  -2.767  1.00  0.00     0.077 C 
BRANCH  18  19
ATOM     19  C   UNL     1       1.913 -10.412  -4.243  1.00  0.00    -0.043 A 
ATOM     20  C   UNL     1       1.243 -11.019  -6.495  1.00  0.00     0.083 A 
ATOM     21  C   UNL     1       1.268 -11.292  -5.126  1.00  0.00     0.028 A 
ATOM     22  C   UNL     1       1.861  -9.869  -6.988  1.00  0.00     0.134 A 
ATOM     23  C   UNL     1       2.503  -8.989  -6.125  1.00  0.00     0.048 A 
ATOM     24  C   UNL     1       2.531  -9.261  -4.755  1.00  0.00     0.008 A 
ATOM     25  Cl  UNL     1       0.447 -12.112  -7.564  1.00  0.00    -0.080 Cl
BRANCH  22  26
ATOM     26  O   UNL     1       1.872  -9.564  -8.322  1.00  0.00    -0.506 OA
ATOM     27  H   UNL     1       1.277  -8.801  -8.440  1.00  0.00     0.293 HD
ENDBRANCH  22  26
ENDBRANCH  18  19
ENDBRANCH  17  18
BRANCH  17  28
ATOM     28  O   UNL     1       4.247 -10.249  -2.034  1.00  0.00    -0.383 OA
ATOM     29  H   UNL     1       4.784  -9.591  -1.536  1.00  0.00     0.211 HD
ENDBRANCH  17  28
ENDBRANCH  14  17
ENDBRANCH  12  13
BRANCH  12  30
ATOM     30  C   UNL     1      -0.873 -10.483   0.912  1.00  0.00     0.018 C 
ATOM     31  C   UNL     1      -0.684 -11.640  -0.082  1.00  0.00     0.010 C 
BRANCH  30  32
ATOM     32  C   UNL     1      -2.291  -9.880   0.763  1.00  0.00     0.002 C 
ATOM     33  C   UNL     1      -3.354 -10.485   1.671  1.00  0.00     0.004 C 
ENDBRANCH  30  32
ENDBRANCH  12  30
ENDBRANCH  10  12
ENDBRANCH   1  10
BRANCH   5  34
ATOM     34  C   UNL     1      -2.074  -7.404   3.540  1.00  0.00     0.242 C 
ATOM     35  O   UNL     1      -2.722  -6.820   2.672  1.00  0.00    -0.273 OA
ATOM     36  N   UNL     1      -2.584  -7.665   4.792  1.00  0.00    -0.354 N 
ATOM     37  H   UNL     1      -1.961  -8.042   5.508  1.00  0.00     0.163 HD
BRANCH  36  38
ATOM     38  C   UNL     1      -3.992  -7.520   5.099  1.00  0.00     0.116 C 
BRANCH  38  39
ATOM     39  C   UNL     1      -4.695  -8.868   4.954  1.00  0.00     0.023 C 
BRANCH  39  40
ATOM     40  C   UNL     1      -4.570  -9.729   6.206  1.00  0.00     0.026 C 
BRANCH  40  41
ATOM     41  C   UNL     1      -3.922 -11.074   5.876  1.00  0.00     0.146 C 
BRANCH  41  42
ATOM     42  N   UNL     1      -2.590 -10.858   5.328  1.00  0.00    -0.254 NA
ATOM     43  C   UNL     1      -1.580 -10.821   6.115  1.00  0.00     0.185 C 
ATOM     44  N   UNL     1      -1.520 -10.957   7.452  1.00  0.00    -0.370 N 
ATOM     45  N   UNL     1      -0.361 -10.617   5.591  1.00  0.00    -0.370 N 
ATOM     46  H   UNL     1      -0.703 -10.664   7.961  1.00  0.00     0.159 HD
ATOM     47  H   UNL     1      -2.351 -11.131   8.008  1.00  0.00     0.159 HD
ATOM     48  H   UNL     1      -0.316 -10.513   4.586  1.00  0.00     0.159 HD
ATOM     49  H   UNL     1       0.487 -10.809   6.094  1.00  0.00     0.159 HD
ENDBRANCH  41  42
ENDBRANCH  40  41
ENDBRANCH  39  40
ENDBRANCH  38  39
ENDBRANCH  36  38
ENDBRANCH   5  34
BRANCH   8  50
ATOM     50  O   UNL     1      -0.255  -3.048   3.030  1.00  0.00    -0.245 OA
BRANCH  50  51
ATOM     51  S   UNL     1      -0.909  -1.652   2.512  1.00  0.00     0.397 S 
ATOM     52  O   UNL     1      -0.421  -1.400   1.174  1.00  0.00    -0.169 OA
ATOM     53  O   UNL     1      -0.813  -0.653   3.556  1.00  0.00    -0.169 OA
BRANCH  51  54
ATOM     54  O   UNL     1      -2.458  -2.048   2.345  1.00  0.00    -0.264 OA
ATOM     55  H   UNL     1      -2.812  -2.250   3.235  1.00  0.00     0.236 HD
ENDBRANCH  51  54
ENDBRANCH  50  51
ENDBRANCH   8  50
TORSDOF 19
ENDMDL
MODEL 33
REMARK VINA RESULT:    -6.186      3.843      8.588
REMARK INTER + INTRA:         -17.088
REMARK INTER:                 -12.587
REMARK INTRA:                  -4.501
REMARK UNBOUND:                -4.573
REMARK SMILES CC[C@@H](C)[C@@H](NC(=O)[C@@H](O)Cc1ccc(O)c(Cl)c1)C(=O)N1[C@H](C(=O)NCCCCN=C(N)N)C[C@H]2CC[C@H](OS(=O)(=O)O)C[C@@H]21
REMARK SMILES IDX 22 1 36 2 46 3 35 4 23 5 45 6 37 7 39 8 38 9 20 10 21 11
REMARK SMILES IDX 5 12 6 13 7 14 8 15 9 17 11 18 12 19 17 20 19 21 15 22 14 23
REMARK SMILES IDX 13 24 18 25 16 26 10 28 3 30 4 31 2 32 1 33 24 34 25 35
REMARK SMILES IDX 26 36 27 38 28 39 29 40 30 41 31 42 32 43 33 44 34 45 40 50
REMARK SMILES IDX 41 51 42 52 43 53 44 54
REMARK H PARENT 6 16 16 27 10 29 26 37 33 46 33 47 34 48 34 49 44 55
ROOT
ATOM      1  N   UNL     1       8.007   2.011  -1.932  1.00  0.00    -0.326 N 
ATOM      2  C   UNL     1       6.398   0.344  -2.351  1.00  0.00     0.014 C 
ATOM      3  C   UNL     1       7.790   0.572  -1.755  1.00  0.00     0.091 C 
ATOM      4  C   UNL     1       6.359   1.339  -3.501  1.00  0.00     0.041 C 
ATOM      5  C   UNL     1       6.952   2.579  -2.808  1.00  0.00     0.175 C 
ATOM      6  C   UNL     1       7.807   0.006  -0.337  1.00  0.00     0.059 C 
ATOM      7  C   UNL     1       6.164  -1.127  -2.633  1.00  0.00     0.008 C 
ATOM      8  C   UNL     1       6.888  -1.220  -0.146  1.00  0.00     0.143 C 
ATOM      9  C   UNL     1       6.674  -1.994  -1.462  1.00  0.00     0.034 C 
ENDROOT
BRANCH   1  10
ATOM     10  C   UNL     1       9.101   2.791  -1.600  1.00  0.00     0.246 C 
ATOM     11  O   UNL     1       9.554   2.735  -0.452  1.00  0.00    -0.272 OA
BRANCH  10  12
ATOM     12  C   UNL     1       9.762   3.688  -2.687  1.00  0.00     0.174 C 
BRANCH  12  13
ATOM     13  N   UNL     1      10.953   3.028  -3.221  1.00  0.00    -0.342 N 
ATOM     14  C   UNL     1      11.091   2.567  -4.511  1.00  0.00     0.249 C 
ATOM     15  O   UNL     1      10.229   2.686  -5.373  1.00  0.00    -0.272 OA
ATOM     16  H   UNL     1      11.686   2.721  -2.586  1.00  0.00     0.164 HD
BRANCH  14  17
ATOM     17  C   UNL     1      12.460   1.901  -4.763  1.00  0.00     0.207 C 
BRANCH  17  18
ATOM     18  C   UNL     1      13.028   1.334  -3.458  1.00  0.00     0.077 C 
BRANCH  18  19
ATOM     19  C   UNL     1      12.370   0.026  -3.080  1.00  0.00    -0.043 A 
ATOM     20  C   UNL     1      11.529  -2.162  -3.704  1.00  0.00     0.083 A 
ATOM     21  C   UNL     1      12.181  -0.976  -4.045  1.00  0.00     0.028 A 
ATOM     22  C   UNL     1      11.062  -2.353  -2.404  1.00  0.00     0.134 A 
ATOM     23  C   UNL     1      11.242  -1.369  -1.439  1.00  0.00     0.048 A 
ATOM     24  C   UNL     1      11.892  -0.180  -1.777  1.00  0.00     0.008 A 
ATOM     25  Cl  UNL     1      11.307  -3.382  -4.903  1.00  0.00    -0.080 Cl
BRANCH  22  26
ATOM     26  O   UNL     1      10.407  -3.495  -2.026  1.00  0.00    -0.506 OA
ATOM     27  H   UNL     1       9.832  -3.748  -2.772  1.00  0.00     0.293 HD
ENDBRANCH  22  26
ENDBRANCH  18  19
ENDBRANCH  17  18
BRANCH  17  28
ATOM     28  O   UNL     1      13.395   2.837  -5.323  1.00  0.00    -0.383 OA
ATOM     29  H   UNL     1      13.141   2.944  -6.268  1.00  0.00     0.211 HD
ENDBRANCH  17  28
ENDBRANCH  14  17
ENDBRANCH  12  13
BRANCH  12  30
ATOM     30  C   UNL     1      10.058   5.125  -2.181  1.00  0.00     0.018 C 
ATOM     31  C   UNL     1       8.753   5.866  -1.846  1.00  0.00     0.010 C 
BRANCH  30  32
ATOM     32  C   UNL     1      10.910   5.967  -3.162  1.00  0.00     0.002 C 
ATOM     33  C   UNL     1      10.288   7.286  -3.599  1.00  0.00     0.004 C 
ENDBRANCH  30  32
ENDBRANCH  12  30
ENDBRANCH  10  12
ENDBRANCH   1  10
BRANCH   5  34
ATOM     34  C   UNL     1       5.885   3.330  -1.967  1.00  0.00     0.242 C 
ATOM     35  O   UNL     1       5.892   3.322  -0.736  1.00  0.00    -0.273 OA
ATOM     36  N   UNL     1       4.902   3.960  -2.697  1.00  0.00    -0.354 N 
ATOM     37  H   UNL     1       4.882   3.830  -3.709  1.00  0.00     0.163 HD
BRANCH  36  38
ATOM     38  C   UNL     1       3.959   4.878  -2.093  1.00  0.00     0.116 C 
BRANCH  38  39
ATOM     39  C   UNL     1       2.549   4.298  -2.168  1.00  0.00     0.023 C 
BRANCH  39  40
ATOM     40  C   UNL     1       1.778   4.468  -0.864  1.00  0.00     0.026 C 
BRANCH  40  41
ATOM     41  C   UNL     1       2.542   3.842   0.303  1.00  0.00     0.146 C 
BRANCH  41  42
ATOM     42  N   UNL     1       1.865   2.629   0.741  1.00  0.00    -0.254 NA
ATOM     43  C   UNL     1       2.387   1.487   0.492  1.00  0.00     0.185 C 
ATOM     44  N   UNL     1       3.531   1.180  -0.146  1.00  0.00    -0.370 N 
ATOM     45  N   UNL     1       1.745   0.381   0.901  1.00  0.00    -0.370 N 
ATOM     46  H   UNL     1       3.695   0.247  -0.483  1.00  0.00     0.159 HD
ATOM     47  H   UNL     1       4.148   1.899  -0.509  1.00  0.00     0.159 HD
ATOM     48  H   UNL     1       0.876   0.524   1.398  1.00  0.00     0.159 HD
ATOM     49  H   UNL     1       2.190  -0.518   0.957  1.00  0.00     0.159 HD
ENDBRANCH  41  42
ENDBRANCH  40  41
ENDBRANCH  39  40
ENDBRANCH  38  39
ENDBRANCH  36  38
ENDBRANCH   5  34
BRANCH   8  50
ATOM     50  O   UNL     1       5.615  -0.806   0.349  1.00  0.00    -0.245 OA
BRANCH  50  51
ATOM     51  S   UNL     1       4.608  -1.907   0.998  1.00  0.00     0.397 S 
ATOM     52  O   UNL     1       5.410  -2.983   1.534  1.00  0.00    -0.169 OA
ATOM     53  O   UNL     1       3.510  -2.157   0.088  1.00  0.00    -0.169 OA
BRANCH  51  54
ATOM     54  O   UNL     1       4.025  -1.118   2.273  1.00  0.00    -0.264 OA
ATOM     55  H   UNL     1       4.620  -0.362   2.453  1.00  0.00     0.236 HD
ENDBRANCH  51  54
ENDBRANCH  50  51
ENDBRANCH   8  50
TORSDOF 19
ENDMDL
MODEL 34
REMARK VINA RESULT:    -6.183     13.850     18.801
REMARK INTER + INTRA:         -17.081
REMARK INTER:                 -14.028
REMARK INTRA:                  -3.053
REMARK UNBOUND:                -4.573
REMARK SMILES CC[C@@H](C)[C@@H](NC(=O)[C@@H](O)Cc1ccc(O)c(Cl)c1)C(=O)N1[C@H](C(=O)NCCCCN=C(N)N)C[C@H]2CC[C@H](OS(=O)(=O)O)C[C@@H]21
REMARK SMILES IDX 22 1 36 2 46 3 35 4 23 5 45 6 37 7 39 8 38 9 20 10 21 11
REMARK SMILES IDX 5 12 6 13 7 14 8 15 9 17 11 18 12 19 17 20 19 21 15 22 14 23
REMARK SMILES IDX 13 24 18 25 16 26 10 28 3 30 4 31 2 32 1 33 24 34 25 35
REMARK SMILES IDX 26 36 27 38 28 39 29 40 30 41 31 42 32 43 33 44 34 45 40 50
REMARK SMILES IDX 41 51 42 52 43 53 44 54
REMARK H PARENT 6 16 16 27 10 29 26 37 33 46 33 47 34 48 34 49 44 55
ROOT
ATOM      1  N   UNL     1      -1.349  -8.496   4.223  1.00  0.00    -0.326 N 
ATOM      2  C   UNL     1      -2.882  -7.801   2.578  1.00  0.00     0.014 C 
ATOM      3  C   UNL     1      -1.493  -8.417   2.767  1.00  0.00     0.091 C 
ATOM      4  C   UNL     1      -2.989  -6.848   3.757  1.00  0.00     0.041 C 
ATOM      5  C   UNL     1      -2.444  -7.745   4.884  1.00  0.00     0.175 C 
ATOM      6  C   UNL     1      -1.424  -9.712   1.960  1.00  0.00     0.059 C 
ATOM      7  C   UNL     1      -3.051  -7.265   1.170  1.00  0.00     0.008 C 
ATOM      8  C   UNL     1      -2.280  -9.690   0.675  1.00  0.00     0.143 C 
ATOM      9  C   UNL     1      -2.479  -8.259   0.136  1.00  0.00     0.034 C 
ENDROOT
BRANCH   1  10
ATOM     10  C   UNL     1      -0.288  -8.953   4.986  1.00  0.00     0.246 C 
ATOM     11  O   UNL     1      -0.235 -10.150   5.288  1.00  0.00    -0.272 OA
BRANCH  10  12
ATOM     12  C   UNL     1       0.834  -7.961   5.410  1.00  0.00     0.174 C 
BRANCH  12  13
ATOM     13  N   UNL     1       0.242  -6.748   5.972  1.00  0.00    -0.342 N 
ATOM     14  C   UNL     1       0.714  -6.076   7.078  1.00  0.00     0.249 C 
ATOM     15  O   UNL     1       1.712  -6.411   7.704  1.00  0.00    -0.272 OA
ATOM     16  H   UNL     1      -0.676  -6.443   5.656  1.00  0.00     0.164 HD
BRANCH  14  17
ATOM     17  C   UNL     1      -0.140  -4.840   7.433  1.00  0.00     0.207 C 
BRANCH  17  18
ATOM     18  C   UNL     1       0.468  -3.575   6.818  1.00  0.00     0.077 C 
BRANCH  18  19
ATOM     19  C   UNL     1      -0.246  -3.168   5.549  1.00  0.00    -0.043 A 
ATOM     20  C   UNL     1      -0.189  -2.631   3.184  1.00  0.00     0.083 A 
ATOM     21  C   UNL     1       0.463  -3.054   4.343  1.00  0.00     0.028 A 
ATOM     22  C   UNL     1      -1.548  -2.318   3.222  1.00  0.00     0.134 A 
ATOM     23  C   UNL     1      -2.262  -2.426   4.410  1.00  0.00     0.048 A 
ATOM     24  C   UNL     1      -1.612  -2.848   5.572  1.00  0.00     0.008 A 
ATOM     25  Cl  UNL     1       0.699  -2.497   1.712  1.00  0.00    -0.080 Cl
BRANCH  22  26
ATOM     26  O   UNL     1      -2.227  -1.888   2.115  1.00  0.00    -0.506 OA
ATOM     27  H   UNL     1      -1.587  -1.880   1.379  1.00  0.00     0.293 HD
ENDBRANCH  22  26
ENDBRANCH  18  19
ENDBRANCH  17  18
BRANCH  17  28
ATOM     28  O   UNL     1      -0.244  -4.676   8.856  1.00  0.00    -0.383 OA
ATOM     29  H   UNL     1      -1.185  -4.448   9.035  1.00  0.00     0.211 HD
ENDBRANCH  17  28
ENDBRANCH  14  17
ENDBRANCH  12  13
BRANCH  12  30
ATOM     30  C   UNL     1       1.831  -7.656   4.260  1.00  0.00     0.018 C 
ATOM     31  C   UNL     1       1.403  -6.399   3.486  1.00  0.00     0.010 C 
BRANCH  30  32
ATOM     32  C   UNL     1       2.034  -8.839   3.283  1.00  0.00     0.002 C 
ATOM     33  C   UNL     1       2.145  -8.458   1.813  1.00  0.00     0.004 C 
ENDBRANCH  30  32
ENDBRANCH  12  30
ENDBRANCH  10  12
ENDBRANCH   1  10
BRANCH   5  34
ATOM     34  C   UNL     1      -3.531  -8.714   5.419  1.00  0.00     0.242 C 
ATOM     35  O   UNL     1      -3.530  -9.916   5.154  1.00  0.00    -0.273 OA
ATOM     36  N   UNL     1      -4.526  -8.124   6.167  1.00  0.00    -0.354 N 
ATOM     37  H   UNL     1      -4.539  -7.107   6.252  1.00  0.00     0.163 HD
BRANCH  36  38
ATOM     38  C   UNL     1      -5.492  -8.899   6.918  1.00  0.00     0.116 C 
BRANCH  38  39
ATOM     39  C   UNL     1      -6.321  -7.973   7.805  1.00  0.00     0.023 C 
BRANCH  39  40
ATOM     40  C   UNL     1      -5.696  -6.590   7.949  1.00  0.00     0.026 C 
BRANCH  40  41
ATOM     41  C   UNL     1      -6.520  -5.718   8.897  1.00  0.00     0.146 C 
BRANCH  41  42
ATOM     42  N   UNL     1      -7.755  -5.308   8.242  1.00  0.00    -0.254 NA
ATOM     43  C   UNL     1      -8.876  -5.487   8.834  1.00  0.00     0.185 C 
ATOM     44  N   UNL     1      -9.142  -6.022  10.039  1.00  0.00    -0.370 N 
ATOM     45  N   UNL     1     -10.003  -5.106   8.210  1.00  0.00    -0.370 N 
ATOM     46  H   UNL     1     -10.073  -6.323  10.272  1.00  0.00     0.159 HD
ATOM     47  H   UNL     1      -8.402  -6.351  10.651  1.00  0.00     0.159 HD
ATOM     48  H   UNL     1      -9.890  -4.684   7.299  1.00  0.00     0.159 HD
ATOM     49  H   UNL     1     -10.878  -4.992   8.690  1.00  0.00     0.159 HD
ENDBRANCH  41  42
ENDBRANCH  40  41
ENDBRANCH  39  40
ENDBRANCH  38  39
ENDBRANCH  36  38
ENDBRANCH   5  34
BRANCH   8  50
ATOM     50  O   UNL     1      -3.563 -10.261   0.930  1.00  0.00    -0.245 OA
BRANCH  50  51
ATOM     51  S   UNL     1      -3.784 -11.860   0.730  1.00  0.00     0.397 S 
ATOM     52  O   UNL     1      -4.933 -12.048  -0.127  1.00  0.00    -0.169 OA
ATOM     53  O   UNL     1      -3.673 -12.530   2.009  1.00  0.00    -0.169 OA
BRANCH  51  54
ATOM     54  O   UNL     1      -2.506 -12.268  -0.155  1.00  0.00    -0.264 OA
ATOM     55  H   UNL     1      -2.816 -12.432  -1.069  1.00  0.00     0.236 HD
ENDBRANCH  51  54
ENDBRANCH  50  51
ENDBRANCH   8  50
TORSDOF 19
ENDMDL
MODEL 35
REMARK VINA RESULT:    -6.170     13.153     17.108
REMARK INTER + INTRA:         -17.055
REMARK INTER:                 -14.117
REMARK INTRA:                  -2.938
REMARK UNBOUND:                -4.573
REMARK SMILES CC[C@@H](C)[C@@H](NC(=O)[C@@H](O)Cc1ccc(O)c(Cl)c1)C(=O)N1[C@H](C(=O)NCCCCN=C(N)N)C[C@H]2CC[C@H](OS(=O)(=O)O)C[C@@H]21
REMARK SMILES IDX 22 1 36 2 46 3 35 4 23 5 45 6 37 7 39 8 38 9 20 10 21 11
REMARK SMILES IDX 5 12 6 13 7 14 8 15 9 17 11 18 12 19 17 20 19 21 15 22 14 23
REMARK SMILES IDX 13 24 18 25 16 26 10 28 3 30 4 31 2 32 1 33 24 34 25 35
REMARK SMILES IDX 26 36 27 38 28 39 29 40 30 41 31 42 32 43 33 44 34 45 40 50
REMARK SMILES IDX 41 51 42 52 43 53 44 54
REMARK H PARENT 6 16 16 27 10 29 26 37 33 46 33 47 34 48 34 49 44 55
ROOT
ATOM      1  N   UNL     1      -1.723  -6.370   4.801  1.00  0.00    -0.326 N 
ATOM      2  C   UNL     1       0.372  -5.354   4.453  1.00  0.00     0.014 C 
ATOM      3  C   UNL     1      -0.822  -5.969   3.717  1.00  0.00     0.091 C 
ATOM      4  C   UNL     1       0.460  -6.200   5.713  1.00  0.00     0.041 C 
ATOM      5  C   UNL     1      -1.027  -6.259   6.107  1.00  0.00     0.175 C 
ATOM      6  C   UNL     1      -1.329  -4.958   2.690  1.00  0.00     0.059 C 
ATOM      7  C   UNL     1       1.578  -5.251   3.540  1.00  0.00     0.008 C 
ATOM      8  C   UNL     1      -0.220  -4.058   2.103  1.00  0.00     0.143 C 
ATOM      9  C   UNL     1       1.162  -4.741   2.144  1.00  0.00     0.034 C 
ENDROOT
BRANCH   1  10
ATOM     10  C   UNL     1      -2.955  -6.999   4.744  1.00  0.00     0.246 C 
ATOM     11  O   UNL     1      -3.944  -6.427   5.214  1.00  0.00    -0.272 OA
BRANCH  10  12
ATOM     12  C   UNL     1      -3.076  -8.389   4.054  1.00  0.00     0.174 C 
BRANCH  12  13
ATOM     13  N   UNL     1      -2.660  -8.289   2.655  1.00  0.00    -0.342 N 
ATOM     14  C   UNL     1      -1.635  -9.008   2.082  1.00  0.00     0.249 C 
ATOM     15  O   UNL     1      -0.968  -9.841   2.682  1.00  0.00    -0.272 OA
ATOM     16  H   UNL     1      -3.014  -7.531   2.077  1.00  0.00     0.164 HD
BRANCH  14  17
ATOM     17  C   UNL     1      -1.428  -8.665   0.591  1.00  0.00     0.207 C 
BRANCH  17  18
ATOM     18  C   UNL     1      -0.260  -7.689   0.423  1.00  0.00     0.077 C 
BRANCH  18  19
ATOM     19  C   UNL     1       0.908  -8.327  -0.295  1.00  0.00    -0.043 A 
ATOM     20  C   UNL     1       1.785 -10.036  -1.777  1.00  0.00     0.083 A 
ATOM     21  C   UNL     1       0.700  -9.418  -1.154  1.00  0.00     0.028 A 
ATOM     22  C   UNL     1       3.080  -9.572  -1.545  1.00  0.00     0.134 A 
ATOM     23  C   UNL     1       3.300  -8.493  -0.696  1.00  0.00     0.048 A 
ATOM     24  C   UNL     1       2.216  -7.873  -0.070  1.00  0.00     0.008 A 
ATOM     25  Cl  UNL     1       1.510 -11.375  -2.829  1.00  0.00    -0.080 Cl
BRANCH  22  26
ATOM     26  O   UNL     1       4.176 -10.153  -2.124  1.00  0.00    -0.506 OA
ATOM     27  H   UNL     1       4.337 -10.987  -1.645  1.00  0.00     0.293 HD
ENDBRANCH  22  26
ENDBRANCH  18  19
ENDBRANCH  17  18
BRANCH  17  28
ATOM     28  O   UNL     1      -2.616  -8.090   0.023  1.00  0.00    -0.383 OA
ATOM     29  H   UNL     1      -2.545  -8.224  -0.949  1.00  0.00     0.211 HD
ENDBRANCH  17  28
ENDBRANCH  14  17
ENDBRANCH  12  13
BRANCH  12  30
ATOM     30  C   UNL     1      -4.488  -9.015   4.209  1.00  0.00     0.018 C 
ATOM     31  C   UNL     1      -4.598  -9.795   5.528  1.00  0.00     0.010 C 
BRANCH  30  32
ATOM     32  C   UNL     1      -4.901  -9.917   3.021  1.00  0.00     0.002 C 
ATOM     33  C   UNL     1      -5.385 -11.311   3.399  1.00  0.00     0.004 C 
ENDBRANCH  30  32
ENDBRANCH  12  30
ENDBRANCH  10  12
ENDBRANCH   1  10
BRANCH   5  34
ATOM     34  C   UNL     1      -1.471  -4.976   6.859  1.00  0.00     0.242 C 
ATOM     35  O   UNL     1      -1.784  -3.942   6.269  1.00  0.00    -0.273 OA
ATOM     36  N   UNL     1      -1.438  -5.062   8.233  1.00  0.00    -0.354 N 
ATOM     37  H   UNL     1      -1.056  -5.905   8.664  1.00  0.00     0.163 HD
BRANCH  36  38
ATOM     38  C   UNL     1      -2.018  -4.045   9.086  1.00  0.00     0.116 C 
BRANCH  38  39
ATOM     39  C   UNL     1      -3.215  -4.622   9.839  1.00  0.00     0.023 C 
BRANCH  39  40
ATOM     40  C   UNL     1      -4.509  -3.875   9.537  1.00  0.00     0.026 C 
BRANCH  40  41
ATOM     41  C   UNL     1      -4.795  -3.871   8.035  1.00  0.00     0.146 C 
BRANCH  41  42
ATOM     42  N   UNL     1      -6.194  -4.202   7.800  1.00  0.00    -0.254 NA
ATOM     43  C   UNL     1      -6.533  -5.423   7.614  1.00  0.00     0.185 C 
ATOM     44  N   UNL     1      -5.779  -6.537   7.597  1.00  0.00    -0.370 N 
ATOM     45  N   UNL     1      -7.827  -5.707   7.394  1.00  0.00    -0.370 N 
ATOM     46  H   UNL     1      -6.135  -7.390   7.201  1.00  0.00     0.159 HD
ATOM     47  H   UNL     1      -4.778  -6.506   7.760  1.00  0.00     0.159 HD
ATOM     48  H   UNL     1      -8.466  -4.923   7.400  1.00  0.00     0.159 HD
ATOM     49  H   UNL     1      -8.202  -6.635   7.477  1.00  0.00     0.159 HD
ENDBRANCH  41  42
ENDBRANCH  40  41
ENDBRANCH  39  40
ENDBRANCH  38  39
ENDBRANCH  36  38
ENDBRANCH   5  34
BRANCH   8  50
ATOM     50  O   UNL     1      -0.143  -2.834   2.835  1.00  0.00    -0.245 OA
BRANCH  50  51
ATOM     51  S   UNL     1      -0.484  -1.430   2.089  1.00  0.00     0.397 S 
ATOM     52  O   UNL     1       0.311  -0.392   2.707  1.00  0.00    -0.169 OA
ATOM     53  O   UNL     1      -1.917  -1.297   1.933  1.00  0.00    -0.169 OA
BRANCH  51  54
ATOM     54  O   UNL     1       0.155  -1.660   0.632  1.00  0.00    -0.264 OA
ATOM     55  H   UNL     1       0.197  -0.791   0.183  1.00  0.00     0.236 HD
ENDBRANCH  51  54
ENDBRANCH  50  51
ENDBRANCH   8  50
TORSDOF 19
ENDMDL
MODEL 36
REMARK VINA RESULT:    -6.091     10.107     14.356
REMARK INTER + INTRA:         -16.894
REMARK INTER:                 -11.112
REMARK INTRA:                  -5.782
REMARK UNBOUND:                -4.573
REMARK SMILES CC[C@@H](C)[C@@H](NC(=O)[C@@H](O)Cc1ccc(O)c(Cl)c1)C(=O)N1[C@H](C(=O)NCCCCN=C(N)N)C[C@H]2CC[C@H](OS(=O)(=O)O)C[C@@H]21
REMARK SMILES IDX 22 1 36 2 46 3 35 4 23 5 45 6 37 7 39 8 38 9 20 10 21 11
REMARK SMILES IDX 5 12 6 13 7 14 8 15 9 17 11 18 12 19 17 20 19 21 15 22 14 23
REMARK SMILES IDX 13 24 18 25 16 26 10 28 3 30 4 31 2 32 1 33 24 34 25 35
REMARK SMILES IDX 26 36 27 38 28 39 29 40 30 41 31 42 32 43 33 44 34 45 40 50
REMARK SMILES IDX 41 51 42 52 43 53 44 54
REMARK H PARENT 6 16 16 27 10 29 26 37 33 46 33 47 34 48 34 49 44 55
ROOT
ATOM      1  N   UNL     1      -0.867  -4.052   2.697  1.00  0.00    -0.326 N 
ATOM      2  C   UNL     1      -1.745  -2.385   4.109  1.00  0.00     0.014 C 
ATOM      3  C   UNL     1      -1.608  -3.903   3.952  1.00  0.00     0.091 C 
ATOM      4  C   UNL     1      -1.890  -1.912   2.670  1.00  0.00     0.041 C 
ATOM      5  C   UNL     1      -0.786  -2.747   1.996  1.00  0.00     0.175 C 
ATOM      6  C   UNL     1      -0.990  -4.466   5.230  1.00  0.00     0.059 C 
ATOM      7  C   UNL     1      -2.821  -2.039   5.118  1.00  0.00     0.008 C 
ATOM      8  C   UNL     1      -1.368  -3.678   6.503  1.00  0.00     0.143 C 
ATOM      9  C   UNL     1      -2.722  -2.955   6.356  1.00  0.00     0.034 C 
ENDROOT
BRANCH   1  10
ATOM     10  C   UNL     1      -0.466  -5.200   2.034  1.00  0.00     0.246 C 
ATOM     11  O   UNL     1       0.603  -5.194   1.414  1.00  0.00    -0.272 OA
BRANCH  10  12
ATOM     12  C   UNL     1      -1.345  -6.481   2.119  1.00  0.00     0.174 C 
BRANCH  12  13
ATOM     13  N   UNL     1      -0.781  -7.409   3.099  1.00  0.00    -0.342 N 
ATOM     14  C   UNL     1      -1.452  -7.903   4.196  1.00  0.00     0.249 C 
ATOM     15  O   UNL     1      -2.618  -7.638   4.459  1.00  0.00    -0.272 OA
ATOM     16  H   UNL     1       0.219  -7.594   3.101  1.00  0.00     0.164 HD
BRANCH  14  17
ATOM     17  C   UNL     1      -0.580  -8.847   5.051  1.00  0.00     0.207 C 
BRANCH  17  18
ATOM     18  C   UNL     1       0.907  -8.608   4.766  1.00  0.00     0.077 C 
BRANCH  18  19
ATOM     19  C   UNL     1       1.418  -7.364   5.456  1.00  0.00    -0.043 A 
ATOM     20  C   UNL     1       2.797  -5.368   5.442  1.00  0.00     0.083 A 
ATOM     21  C   UNL     1       2.288  -6.489   4.785  1.00  0.00     0.028 A 
ATOM     22  C   UNL     1       2.444  -5.114   6.767  1.00  0.00     0.134 A 
ATOM     23  C   UNL     1       1.584  -5.972   7.443  1.00  0.00     0.048 A 
ATOM     24  C   UNL     1       1.074  -7.096   6.790  1.00  0.00     0.008 A 
ATOM     25  Cl  UNL     1       3.864  -4.305   4.601  1.00  0.00    -0.080 Cl
BRANCH  22  26
ATOM     26  O   UNL     1       2.926  -4.034   7.455  1.00  0.00    -0.506 OA
ATOM     27  H   UNL     1       2.152  -3.508   7.729  1.00  0.00     0.293 HD
ENDBRANCH  22  26
ENDBRANCH  18  19
ENDBRANCH  17  18
BRANCH  17  28
ATOM     28  O   UNL     1      -0.900 -10.223   4.792  1.00  0.00    -0.383 OA
ATOM     29  H   UNL     1      -1.404 -10.231   3.947  1.00  0.00     0.211 HD
ENDBRANCH  17  28
ENDBRANCH  14  17
ENDBRANCH  12  13
BRANCH  12  30
ATOM     30  C   UNL     1      -1.570  -7.147   0.735  1.00  0.00     0.018 C 
ATOM     31  C   UNL     1      -3.060  -7.443   0.506  1.00  0.00     0.010 C 
BRANCH  30  32
ATOM     32  C   UNL     1      -0.734  -8.433   0.520  1.00  0.00     0.002 C 
ATOM     33  C   UNL     1       0.499  -8.268  -0.359  1.00  0.00     0.004 C 
ENDBRANCH  30  32
ENDBRANCH  12  30
ENDBRANCH  10  12
ENDBRANCH   1  10
BRANCH   5  34
ATOM     34  C   UNL     1       0.614  -2.105   2.188  1.00  0.00     0.242 C 
ATOM     35  O   UNL     1       1.460  -2.585   2.942  1.00  0.00    -0.273 OA
ATOM     36  N   UNL     1       0.820  -0.932   1.496  1.00  0.00    -0.354 N 
ATOM     37  H   UNL     1       0.040  -0.521   0.982  1.00  0.00     0.163 HD
BRANCH  36  38
ATOM     38  C   UNL     1       2.127  -0.318   1.388  1.00  0.00     0.116 C 
BRANCH  38  39
ATOM     39  C   UNL     1       2.131   1.024   2.115  1.00  0.00     0.023 C 
BRANCH  39  40
ATOM     40  C   UNL     1       3.235   1.116   3.163  1.00  0.00     0.026 C 
BRANCH  40  41
ATOM     41  C   UNL     1       3.797  -0.269   3.481  1.00  0.00     0.146 C 
BRANCH  41  42
ATOM     42  N   UNL     1       4.149  -0.345   4.893  1.00  0.00    -0.254 NA
ATOM     43  C   UNL     1       3.329  -0.874   5.722  1.00  0.00     0.185 C 
ATOM     44  N   UNL     1       2.114  -1.413   5.513  1.00  0.00    -0.370 N 
ATOM     45  N   UNL     1       3.670  -0.931   7.020  1.00  0.00    -0.370 N 
ATOM     46  H   UNL     1       1.483  -1.567   6.281  1.00  0.00     0.159 HD
ATOM     47  H   UNL     1       1.707  -1.465   4.585  1.00  0.00     0.159 HD
ATOM     48  H   UNL     1       4.576  -0.553   7.262  1.00  0.00     0.159 HD
ATOM     49  H   UNL     1       3.204  -1.528   7.679  1.00  0.00     0.159 HD
ENDBRANCH  41  42
ENDBRANCH  40  41
ENDBRANCH  39  40
ENDBRANCH  38  39
ENDBRANCH  36  38
ENDBRANCH   5  34
BRANCH   8  50
ATOM     50  O   UNL     1      -0.363  -2.706   6.795  1.00  0.00    -0.245 OA
BRANCH  50  51
ATOM     51  S   UNL     1      -0.062  -2.302   8.341  1.00  0.00     0.397 S 
ATOM     52  O   UNL     1       1.320  -1.886   8.433  1.00  0.00    -0.169 OA
ATOM     53  O   UNL     1      -0.611  -3.311   9.223  1.00  0.00    -0.169 OA
BRANCH  51  54
ATOM     54  O   UNL     1      -0.935  -0.963   8.515  1.00  0.00    -0.264 OA
ATOM     55  H   UNL     1      -1.879  -1.221   8.515  1.00  0.00     0.236 HD
ENDBRANCH  51  54
ENDBRANCH  50  51
ENDBRANCH   8  50
TORSDOF 19
ENDMDL
MODEL 37
REMARK VINA RESULT:    -6.074     14.579     17.746
REMARK INTER + INTRA:         -16.860
REMARK INTER:                 -13.240
REMARK INTRA:                  -3.620
REMARK UNBOUND:                -4.573
REMARK SMILES CC[C@@H](C)[C@@H](NC(=O)[C@@H](O)Cc1ccc(O)c(Cl)c1)C(=O)N1[C@H](C(=O)NCCCCN=C(N)N)C[C@H]2CC[C@H](OS(=O)(=O)O)C[C@@H]21
REMARK SMILES IDX 22 1 36 2 46 3 35 4 23 5 45 6 37 7 39 8 38 9 20 10 21 11
REMARK SMILES IDX 5 12 6 13 7 14 8 15 9 17 11 18 12 19 17 20 19 21 15 22 14 23
REMARK SMILES IDX 13 24 18 25 16 26 10 28 3 30 4 31 2 32 1 33 24 34 25 35
REMARK SMILES IDX 26 36 27 38 28 39 29 40 30 41 31 42 32 43 33 44 34 45 40 50
REMARK SMILES IDX 41 51 42 52 43 53 44 54
REMARK H PARENT 6 16 16 27 10 29 26 37 33 46 33 47 34 48 34 49 44 55
ROOT
ATOM      1  N   UNL     1      -0.905  -6.629   4.804  1.00  0.00    -0.326 N 
ATOM      2  C   UNL     1      -1.956  -8.631   4.148  1.00  0.00     0.014 C 
ATOM      3  C   UNL     1      -2.166  -7.116   4.238  1.00  0.00     0.091 C 
ATOM      4  C   UNL     1      -1.103  -8.924   5.372  1.00  0.00     0.041 C 
ATOM      5  C   UNL     1      -0.085  -7.772   5.276  1.00  0.00     0.175 C 
ATOM      6  C   UNL     1      -2.588  -6.604   2.862  1.00  0.00     0.059 C 
ATOM      7  C   UNL     1      -3.279  -9.352   3.974  1.00  0.00     0.008 C 
ATOM      8  C   UNL     1      -3.411  -7.624   2.045  1.00  0.00     0.143 C 
ATOM      9  C   UNL     1      -4.169  -8.615   2.951  1.00  0.00     0.034 C 
ENDROOT
BRANCH   1  10
ATOM     10  C   UNL     1      -0.517  -5.341   5.130  1.00  0.00     0.246 C 
ATOM     11  O   UNL     1       0.133  -4.683   4.310  1.00  0.00    -0.272 OA
BRANCH  10  12
ATOM     12  C   UNL     1      -0.943  -4.735   6.498  1.00  0.00     0.174 C 
BRANCH  12  13
ATOM     13  N   UNL     1      -2.397  -4.792   6.639  1.00  0.00    -0.342 N 
ATOM     14  C   UNL     1      -3.075  -4.821   7.837  1.00  0.00     0.249 C 
ATOM     15  O   UNL     1      -2.528  -4.773   8.931  1.00  0.00    -0.272 OA
ATOM     16  H   UNL     1      -2.974  -4.994   5.826  1.00  0.00     0.164 HD
BRANCH  14  17
ATOM     17  C   UNL     1      -4.606  -4.900   7.653  1.00  0.00     0.207 C 
BRANCH  17  18
ATOM     18  C   UNL     1      -4.967  -5.968   6.617  1.00  0.00     0.077 C 
BRANCH  18  19
ATOM     19  C   UNL     1      -5.583  -7.190   7.260  1.00  0.00    -0.043 A 
ATOM     20  C   UNL     1      -5.879  -9.596   7.350  1.00  0.00     0.083 A 
ATOM     21  C   UNL     1      -5.270  -8.474   6.787  1.00  0.00     0.028 A 
ATOM     22  C   UNL     1      -6.801  -9.444   8.386  1.00  0.00     0.134 A 
ATOM     23  C   UNL     1      -7.119  -8.178   8.865  1.00  0.00     0.048 A 
ATOM     24  C   UNL     1      -6.514  -7.053   8.302  1.00  0.00     0.008 A 
ATOM     25  Cl  UNL     1      -5.482 -11.165   6.755  1.00  0.00    -0.080 Cl
BRANCH  22  26
ATOM     26  O   UNL     1      -7.431 -10.513   8.963  1.00  0.00    -0.506 OA
ATOM     27  H   UNL     1      -7.744 -11.081   8.234  1.00  0.00     0.293 HD
ENDBRANCH  22  26
ENDBRANCH  18  19
ENDBRANCH  17  18
BRANCH  17  28
ATOM     28  O   UNL     1      -5.143  -3.633   7.239  1.00  0.00    -0.383 OA
ATOM     29  H   UNL     1      -5.146  -3.064   8.042  1.00  0.00     0.211 HD
ENDBRANCH  17  28
ENDBRANCH  14  17
ENDBRANCH  12  13
BRANCH  12  30
ATOM     30  C   UNL     1      -0.382  -3.304   6.721  1.00  0.00     0.018 C 
ATOM     31  C   UNL     1       0.343  -3.206   8.072  1.00  0.00     0.010 C 
BRANCH  30  32
ATOM     32  C   UNL     1      -1.454  -2.193   6.611  1.00  0.00     0.002 C 
ATOM     33  C   UNL     1      -1.613  -1.316   7.846  1.00  0.00     0.004 C 
ENDBRANCH  30  32
ENDBRANCH  12  30
ENDBRANCH  10  12
ENDBRANCH   1  10
BRANCH   5  34
ATOM     34  C   UNL     1       1.048  -8.092   4.265  1.00  0.00     0.242 C 
ATOM     35  O   UNL     1       1.818  -9.040   4.418  1.00  0.00    -0.273 OA
ATOM     36  N   UNL     1       1.163  -7.209   3.216  1.00  0.00    -0.354 N 
ATOM     37  H   UNL     1       0.573  -6.375   3.208  1.00  0.00     0.163 HD
BRANCH  36  38
ATOM     38  C   UNL     1       2.015  -7.470   2.074  1.00  0.00     0.116 C 
BRANCH  38  39
ATOM     39  C   UNL     1       1.456  -8.641   1.268  1.00  0.00     0.023 C 
BRANCH  39  40
ATOM     40  C   UNL     1       2.120  -8.777  -0.098  1.00  0.00     0.026 C 
BRANCH  40  41
ATOM     41  C   UNL     1       1.988 -10.206  -0.625  1.00  0.00     0.146 C 
BRANCH  41  42
ATOM     42  N   UNL     1       0.733 -10.786  -0.166  1.00  0.00    -0.254 NA
ATOM     43  C   UNL     1      -0.155 -11.131  -1.020  1.00  0.00     0.185 C 
ATOM     44  N   UNL     1      -0.141 -11.052  -2.363  1.00  0.00    -0.370 N 
ATOM     45  N   UNL     1      -1.307 -11.660  -0.576  1.00  0.00    -0.370 N 
ATOM     46  H   UNL     1      -0.994 -11.130  -2.891  1.00  0.00     0.159 HD
ATOM     47  H   UNL     1       0.661 -10.687  -2.867  1.00  0.00     0.159 HD
ATOM     48  H   UNL     1      -1.396 -11.764   0.426  1.00  0.00     0.159 HD
ATOM     49  H   UNL     1      -1.939 -12.165  -1.172  1.00  0.00     0.159 HD
ENDBRANCH  41  42
ENDBRANCH  40  41
ENDBRANCH  39  40
ENDBRANCH  38  39
ENDBRANCH  36  38
ENDBRANCH   5  34
BRANCH   8  50
ATOM     50  O   UNL     1      -2.551  -8.367   1.180  1.00  0.00    -0.245 OA
BRANCH  50  51
ATOM     51  S   UNL     1      -2.806  -8.337  -0.426  1.00  0.00     0.397 S 
ATOM     52  O   UNL     1      -3.357  -7.045  -0.766  1.00  0.00    -0.169 OA
ATOM     53  O   UNL     1      -3.447  -9.568  -0.839  1.00  0.00    -0.169 OA
BRANCH  51  54
ATOM     54  O   UNL     1      -1.306  -8.340  -1.004  1.00  0.00    -0.264 OA
ATOM     55  H   UNL     1      -0.748  -8.853  -0.384  1.00  0.00     0.236 HD
ENDBRANCH  51  54
ENDBRANCH  50  51
ENDBRANCH   8  50
TORSDOF 19
ENDMDL
MODEL 38
REMARK VINA RESULT:    -6.064     12.517     16.889
REMARK INTER + INTRA:         -16.840
REMARK INTER:                 -13.451
REMARK INTRA:                  -3.390
REMARK UNBOUND:                -4.573
REMARK SMILES CC[C@@H](C)[C@@H](NC(=O)[C@@H](O)Cc1ccc(O)c(Cl)c1)C(=O)N1[C@H](C(=O)NCCCCN=C(N)N)C[C@H]2CC[C@H](OS(=O)(=O)O)C[C@@H]21
REMARK SMILES IDX 22 1 36 2 46 3 35 4 23 5 45 6 37 7 39 8 38 9 20 10 21 11
REMARK SMILES IDX 5 12 6 13 7 14 8 15 9 17 11 18 12 19 17 20 19 21 15 22 14 23
REMARK SMILES IDX 13 24 18 25 16 26 10 28 3 30 4 31 2 32 1 33 24 34 25 35
REMARK SMILES IDX 26 36 27 38 28 39 29 40 30 41 31 42 32 43 33 44 34 45 40 50
REMARK SMILES IDX 41 51 42 52 43 53 44 54
REMARK H PARENT 6 16 16 27 10 29 26 37 33 46 33 47 34 48 34 49 44 55
ROOT
ATOM      1  N   UNL     1      -2.129  -3.323   5.961  1.00  0.00    -0.326 N 
ATOM      2  C   UNL     1      -2.634  -4.649   7.840  1.00  0.00     0.014 C 
ATOM      3  C   UNL     1      -2.839  -3.255   7.242  1.00  0.00     0.091 C 
ATOM      4  C   UNL     1      -1.236  -5.015   7.364  1.00  0.00     0.041 C 
ATOM      5  C   UNL     1      -1.324  -4.567   5.893  1.00  0.00     0.175 C 
ATOM      6  C   UNL     1      -4.337  -2.952   7.225  1.00  0.00     0.059 C 
ATOM      7  C   UNL     1      -2.938  -4.652   9.325  1.00  0.00     0.008 C 
ATOM      8  C   UNL     1      -5.116  -3.605   8.387  1.00  0.00     0.143 C 
ATOM      9  C   UNL     1      -4.221  -3.848   9.619  1.00  0.00     0.034 C 
ENDROOT
BRANCH   1  10
ATOM     10  C   UNL     1      -1.954  -2.351   4.990  1.00  0.00     0.246 C 
ATOM     11  O   UNL     1      -2.937  -1.721   4.586  1.00  0.00    -0.272 OA
BRANCH  10  12
ATOM     12  C   UNL     1      -0.523  -2.045   4.461  1.00  0.00     0.174 C 
BRANCH  12  13
ATOM     13  N   UNL     1       0.083  -3.264   3.927  1.00  0.00    -0.342 N 
ATOM     14  C   UNL     1       0.453  -3.453   2.614  1.00  0.00     0.249 C 
ATOM     15  O   UNL     1       0.340  -2.598   1.744  1.00  0.00    -0.272 OA
ATOM     16  H   UNL     1       0.094  -4.110   4.491  1.00  0.00     0.164 HD
BRANCH  14  17
ATOM     17  C   UNL     1       1.048  -4.854   2.359  1.00  0.00     0.207 C 
BRANCH  17  18
ATOM     18  C   UNL     1       2.407  -4.994   3.054  1.00  0.00     0.077 C 
BRANCH  18  19
ATOM     19  C   UNL     1       2.290  -5.723   4.373  1.00  0.00    -0.043 A 
ATOM     20  C   UNL     1       1.302  -7.476   5.727  1.00  0.00     0.083 A 
ATOM     21  C   UNL     1       1.444  -6.836   4.495  1.00  0.00     0.028 A 
ATOM     22  C   UNL     1       1.999  -7.009   6.842  1.00  0.00     0.134 A 
ATOM     23  C   UNL     1       2.840  -5.908   6.735  1.00  0.00     0.048 A 
ATOM     24  C   UNL     1       2.983  -5.264   5.504  1.00  0.00     0.008 A 
ATOM     25  Cl  UNL     1       0.258  -8.843   5.857  1.00  0.00    -0.080 Cl
BRANCH  22  26
ATOM     26  O   UNL     1       1.882  -7.598   8.072  1.00  0.00    -0.506 OA
ATOM     27  H   UNL     1       0.994  -7.375   8.406  1.00  0.00     0.293 HD
ENDBRANCH  22  26
ENDBRANCH  18  19
ENDBRANCH  17  18
BRANCH  17  28
ATOM     28  O   UNL     1       1.205  -5.101   0.952  1.00  0.00    -0.383 OA
ATOM     29  H   UNL     1       0.789  -4.335   0.494  1.00  0.00     0.211 HD
ENDBRANCH  17  28
ENDBRANCH  14  17
ENDBRANCH  12  13
BRANCH  12  30
ATOM     30  C   UNL     1       0.374  -1.355   5.524  1.00  0.00     0.018 C 
ATOM     31  C   UNL     1       0.946  -0.035   4.982  1.00  0.00     0.010 C 
BRANCH  30  32
ATOM     32  C   UNL     1       1.519  -2.254   6.050  1.00  0.00     0.002 C 
ATOM     33  C   UNL     1       2.917  -1.657   5.946  1.00  0.00     0.004 C 
ENDBRANCH  30  32
ENDBRANCH  12  30
ENDBRANCH  10  12
ENDBRANCH   1  10
BRANCH   5  34
ATOM     34  C   UNL     1      -2.029  -5.632   5.011  1.00  0.00     0.242 C 
ATOM     35  O   UNL     1      -2.182  -5.486   3.799  1.00  0.00    -0.273 OA
ATOM     36  N   UNL     1      -2.519  -6.724   5.692  1.00  0.00    -0.354 N 
ATOM     37  H   UNL     1      -2.468  -6.732   6.711  1.00  0.00     0.163 HD
BRANCH  36  38
ATOM     38  C   UNL     1      -3.009  -7.904   5.010  1.00  0.00     0.116 C 
BRANCH  38  39
ATOM     39  C   UNL     1      -4.475  -7.712   4.630  1.00  0.00     0.023 C 
BRANCH  39  40
ATOM     40  C   UNL     1      -4.848  -8.453   3.350  1.00  0.00     0.026 C 
BRANCH  40  41
ATOM     41  C   UNL     1      -3.594  -8.877   2.585  1.00  0.00     0.146 C 
BRANCH  41  42
ATOM     42  N   UNL     1      -3.770  -8.609   1.164  1.00  0.00    -0.254 NA
ATOM     43  C   UNL     1      -3.099  -7.671   0.609  1.00  0.00     0.185 C 
ATOM     44  N   UNL     1      -2.194  -6.826   1.136  1.00  0.00    -0.370 N 
ATOM     45  N   UNL     1      -3.279  -7.436  -0.701  1.00  0.00    -0.370 N 
ATOM     46  H   UNL     1      -1.929  -5.988   0.647  1.00  0.00     0.159 HD
ATOM     47  H   UNL     1      -1.927  -6.873   2.114  1.00  0.00     0.159 HD
ATOM     48  H   UNL     1      -3.939  -8.036  -1.177  1.00  0.00     0.159 HD
ATOM     49  H   UNL     1      -2.635  -6.895  -1.251  1.00  0.00     0.159 HD
ENDBRANCH  41  42
ENDBRANCH  40  41
ENDBRANCH  39  40
ENDBRANCH  38  39
ENDBRANCH  36  38
ENDBRANCH   5  34
BRANCH   8  50
ATOM     50  O   UNL     1      -5.662  -4.857   7.969  1.00  0.00    -0.245 OA
BRANCH  50  51
ATOM     51  S   UNL     1      -7.184  -5.248   8.386  1.00  0.00     0.397 S 
ATOM     52  O   UNL     1      -7.120  -6.282   9.394  1.00  0.00    -0.169 OA
ATOM     53  O   UNL     1      -7.991  -5.399   7.193  1.00  0.00    -0.169 OA
BRANCH  51  54
ATOM     54  O   UNL     1      -7.674  -3.921   9.151  1.00  0.00    -0.264 OA
ATOM     55  H   UNL     1      -8.566  -4.097   9.513  1.00  0.00     0.236 HD
ENDBRANCH  51  54
ENDBRANCH  50  51
ENDBRANCH   8  50
TORSDOF 19
ENDMDL
MODEL 39
REMARK VINA RESULT:    -6.057     13.087     18.005
REMARK INTER + INTRA:         -16.826
REMARK INTER:                 -12.809
REMARK INTRA:                  -4.018
REMARK UNBOUND:                -4.573
REMARK SMILES CC[C@@H](C)[C@@H](NC(=O)[C@@H](O)Cc1ccc(O)c(Cl)c1)C(=O)N1[C@H](C(=O)NCCCCN=C(N)N)C[C@H]2CC[C@H](OS(=O)(=O)O)C[C@@H]21
REMARK SMILES IDX 22 1 36 2 46 3 35 4 23 5 45 6 37 7 39 8 38 9 20 10 21 11
REMARK SMILES IDX 5 12 6 13 7 14 8 15 9 17 11 18 12 19 17 20 19 21 15 22 14 23
REMARK SMILES IDX 13 24 18 25 16 26 10 28 3 30 4 31 2 32 1 33 24 34 25 35
REMARK SMILES IDX 26 36 27 38 28 39 29 40 30 41 31 42 32 43 33 44 34 45 40 50
REMARK SMILES IDX 41 51 42 52 43 53 44 54
REMARK H PARENT 6 16 16 27 10 29 26 37 33 46 33 47 34 48 34 49 44 55
ROOT
ATOM      1  N   UNL     1      -2.625  -8.277   2.489  1.00  0.00    -0.326 N 
ATOM      2  C   UNL     1      -4.190  -9.741   3.464  1.00  0.00     0.014 C 
ATOM      3  C   UNL     1      -3.057  -9.677   2.435  1.00  0.00     0.091 C 
ATOM      4  C   UNL     1      -4.841  -8.373   3.331  1.00  0.00     0.041 C 
ATOM      5  C   UNL     1      -3.589  -7.479   3.287  1.00  0.00     0.175 C 
ATOM      6  C   UNL     1      -2.037 -10.763   2.772  1.00  0.00     0.059 C 
ATOM      7  C   UNL     1      -5.031 -10.987   3.267  1.00  0.00     0.008 C 
ATOM      8  C   UNL     1      -2.659 -12.022   3.413  1.00  0.00     0.143 C 
ATOM      9  C   UNL     1      -4.133 -12.214   3.002  1.00  0.00     0.034 C 
ENDROOT
BRANCH   1  10
ATOM     10  C   UNL     1      -1.643  -7.623   1.765  1.00  0.00     0.246 C 
ATOM     11  O   UNL     1      -1.974  -6.905   0.816  1.00  0.00    -0.272 OA
BRANCH  10  12
ATOM     12  C   UNL     1      -0.153  -7.771   2.187  1.00  0.00     0.174 C 
BRANCH  12  13
ATOM     13  N   UNL     1       0.054  -7.175   3.506  1.00  0.00    -0.342 N 
ATOM     14  C   UNL     1       0.859  -7.699   4.493  1.00  0.00     0.249 C 
ATOM     15  O   UNL     1       1.520  -8.721   4.362  1.00  0.00    -0.272 OA
ATOM     16  H   UNL     1      -0.547  -6.415   3.815  1.00  0.00     0.164 HD
BRANCH  14  17
ATOM     17  C   UNL     1       0.855  -6.847   5.780  1.00  0.00     0.207 C 
BRANCH  17  18
ATOM     18  C   UNL     1       2.278  -6.406   6.135  1.00  0.00     0.077 C 
BRANCH  18  19
ATOM     19  C   UNL     1       2.651  -5.109   5.452  1.00  0.00    -0.043 A 
ATOM     20  C   UNL     1       1.999  -3.080   4.293  1.00  0.00     0.083 A 
ATOM     21  C   UNL     1       1.651  -4.252   4.966  1.00  0.00     0.028 A 
ATOM     22  C   UNL     1       3.343  -2.758   4.101  1.00  0.00     0.134 A 
ATOM     23  C   UNL     1       4.343  -3.598   4.577  1.00  0.00     0.048 A 
ATOM     24  C   UNL     1       3.998  -4.773   5.249  1.00  0.00     0.008 A 
ATOM     25  Cl  UNL     1       0.757  -2.040   3.703  1.00  0.00    -0.080 Cl
BRANCH  22  26
ATOM     26  O   UNL     1       3.733  -1.626   3.438  1.00  0.00    -0.506 OA
ATOM     27  H   UNL     1       4.342  -1.150   4.032  1.00  0.00     0.293 HD
ENDBRANCH  22  26
ENDBRANCH  18  19
ENDBRANCH  17  18
BRANCH  17  28
ATOM     28  O   UNL     1       0.294  -7.578   6.882  1.00  0.00    -0.383 OA
ATOM     29  H   UNL     1       1.039  -7.750   7.502  1.00  0.00     0.211 HD
ENDBRANCH  17  28
ENDBRANCH  14  17
ENDBRANCH  12  13
BRANCH  12  30
ATOM     30  C   UNL     1       0.830  -7.210   1.124  1.00  0.00     0.018 C 
ATOM     31  C   UNL     1       2.052  -8.129   0.971  1.00  0.00     0.010 C 
BRANCH  30  32
ATOM     32  C   UNL     1       1.288  -5.758   1.405  1.00  0.00     0.002 C 
ATOM     33  C   UNL     1       2.787  -5.574   1.599  1.00  0.00     0.004 C 
ENDBRANCH  30  32
ENDBRANCH  12  30
ENDBRANCH  10  12
ENDBRANCH   1  10
BRANCH   5  34
ATOM     34  C   UNL     1      -3.031  -7.205   4.709  1.00  0.00     0.242 C 
ATOM     35  O   UNL     1      -2.275  -7.989   5.282  1.00  0.00    -0.273 OA
ATOM     36  N   UNL     1      -3.485  -6.049   5.304  1.00  0.00    -0.354 N 
ATOM     37  H   UNL     1      -4.203  -5.501   4.828  1.00  0.00     0.163 HD
BRANCH  36  38
ATOM     38  C   UNL     1      -2.909  -5.531   6.527  1.00  0.00     0.116 C 
BRANCH  38  39
ATOM     39  C   UNL     1      -1.837  -4.495   6.197  1.00  0.00     0.023 C 
BRANCH  39  40
ATOM     40  C   UNL     1      -2.427  -3.125   5.882  1.00  0.00     0.026 C 
BRANCH  40  41
ATOM     41  C   UNL     1      -3.047  -2.501   7.133  1.00  0.00     0.146 C 
BRANCH  41  42
ATOM     42  N   UNL     1      -4.483  -2.342   6.944  1.00  0.00    -0.254 NA
ATOM     43  C   UNL     1      -5.005  -1.176   7.017  1.00  0.00     0.185 C 
ATOM     44  N   UNL     1      -4.430   0.018   7.251  1.00  0.00    -0.370 N 
ATOM     45  N   UNL     1      -6.331  -1.051   6.844  1.00  0.00    -0.370 N 
ATOM     46  H   UNL     1      -4.985   0.811   7.522  1.00  0.00     0.159 HD
ATOM     47  H   UNL     1      -3.428   0.108   7.391  1.00  0.00     0.159 HD
ATOM     48  H   UNL     1      -6.841  -1.903   6.653  1.00  0.00     0.159 HD
ATOM     49  H   UNL     1      -6.774  -0.170   6.651  1.00  0.00     0.159 HD
ENDBRANCH  41  42
ENDBRANCH  40  41
ENDBRANCH  39  40
ENDBRANCH  38  39
ENDBRANCH  36  38
ENDBRANCH   5  34
BRANCH   8  50
ATOM     50  O   UNL     1      -2.593 -11.931   4.837  1.00  0.00    -0.245 OA
BRANCH  50  51
ATOM     51  S   UNL     1      -1.843 -13.100   5.683  1.00  0.00     0.397 S 
ATOM     52  O   UNL     1      -2.840 -13.793   6.467  1.00  0.00    -0.169 OA
ATOM     53  O   UNL     1      -0.638 -12.568   6.284  1.00  0.00    -0.169 OA
BRANCH  51  54
ATOM     54  O   UNL     1      -1.406 -14.125   4.523  1.00  0.00    -0.264 OA
ATOM     55  H   UNL     1      -2.222 -14.458   4.096  1.00  0.00     0.236 HD
ENDBRANCH  51  54
ENDBRANCH  50  51
ENDBRANCH   8  50
TORSDOF 19
ENDMDL
MODEL 40
REMARK VINA RESULT:    -6.050      5.896      8.683
REMARK INTER + INTRA:         -16.812
REMARK INTER:                 -12.510
REMARK INTRA:                  -4.302
REMARK UNBOUND:                -4.573
REMARK SMILES CC[C@@H](C)[C@@H](NC(=O)[C@@H](O)Cc1ccc(O)c(Cl)c1)C(=O)N1[C@H](C(=O)NCCCCN=C(N)N)C[C@H]2CC[C@H](OS(=O)(=O)O)C[C@@H]21
REMARK SMILES IDX 22 1 36 2 46 3 35 4 23 5 45 6 37 7 39 8 38 9 20 10 21 11
REMARK SMILES IDX 5 12 6 13 7 14 8 15 9 17 11 18 12 19 17 20 19 21 15 22 14 23
REMARK SMILES IDX 13 24 18 25 16 26 10 28 3 30 4 31 2 32 1 33 24 34 25 35
REMARK SMILES IDX 26 36 27 38 28 39 29 40 30 41 31 42 32 43 33 44 34 45 40 50
REMARK SMILES IDX 41 51 42 52 43 53 44 54
REMARK H PARENT 6 16 16 27 10 29 26 37 33 46 33 47 34 48 34 49 44 55
ROOT
ATOM      1  N   UNL     1       2.771   1.679   0.703  1.00  0.00    -0.326 N 
ATOM      2  C   UNL     1       4.109   3.607   0.887  1.00  0.00     0.014 C 
ATOM      3  C   UNL     1       3.755   2.297   1.596  1.00  0.00     0.091 C 
ATOM      4  C   UNL     1       2.791   4.006   0.242  1.00  0.00     0.041 C 
ATOM      5  C   UNL     1       2.349   2.650  -0.337  1.00  0.00     0.175 C 
ATOM      6  C   UNL     1       5.049   1.538   1.884  1.00  0.00     0.059 C 
ATOM      7  C   UNL     1       4.794   4.570   1.837  1.00  0.00     0.008 C 
ATOM      8  C   UNL     1       6.262   2.456   2.148  1.00  0.00     0.143 C 
ATOM      9  C   UNL     1       5.838   3.831   2.701  1.00  0.00     0.034 C 
ENDROOT
BRANCH   1  10
ATOM     10  C   UNL     1       2.079   0.487   0.832  1.00  0.00     0.246 C 
ATOM     11  O   UNL     1       1.867  -0.197  -0.175  1.00  0.00    -0.272 OA
BRANCH  10  12
ATOM     12  C   UNL     1       1.624   0.013   2.243  1.00  0.00     0.174 C 
BRANCH  12  13
ATOM     13  N   UNL     1       2.091  -1.351   2.486  1.00  0.00    -0.342 N 
ATOM     14  C   UNL     1       3.208  -1.685   3.218  1.00  0.00     0.249 C 
ATOM     15  O   UNL     1       3.928  -0.867   3.776  1.00  0.00    -0.272 OA
ATOM     16  H   UNL     1       1.688  -2.122   1.960  1.00  0.00     0.164 HD
BRANCH  14  17
ATOM     17  C   UNL     1       3.447  -3.209   3.278  1.00  0.00     0.207 C 
BRANCH  17  18
ATOM     18  C   UNL     1       4.217  -3.581   4.549  1.00  0.00     0.077 C 
BRANCH  18  19
ATOM     19  C   UNL     1       3.295  -4.087   5.636  1.00  0.00    -0.043 A 
ATOM     20  C   UNL     1       2.119  -5.915   6.713  1.00  0.00     0.083 A 
ATOM     21  C   UNL     1       3.008  -5.457   5.740  1.00  0.00     0.028 A 
ATOM     22  C   UNL     1       1.511  -5.011   7.585  1.00  0.00     0.134 A 
ATOM     23  C   UNL     1       1.787  -3.652   7.493  1.00  0.00     0.048 A 
ATOM     24  C   UNL     1       2.675  -3.190   6.519  1.00  0.00     0.008 A 
ATOM     25  Cl  UNL     1       1.778  -7.602   6.824  1.00  0.00    -0.080 Cl
BRANCH  22  26
ATOM     26  O   UNL     1       0.625  -5.411   8.548  1.00  0.00    -0.506 OA
ATOM     27  H   UNL     1       0.785  -6.361   8.698  1.00  0.00     0.293 HD
ENDBRANCH  22  26
ENDBRANCH  18  19
ENDBRANCH  17  18
BRANCH  17  28
ATOM     28  O   UNL     1       4.178  -3.664   2.128  1.00  0.00    -0.383 OA
ATOM     29  H   UNL     1       4.702  -2.892   1.816  1.00  0.00     0.211 HD
ENDBRANCH  17  28
ENDBRANCH  14  17
ENDBRANCH  12  13
BRANCH  12  30
ATOM     30  C   UNL     1       0.095   0.164   2.462  1.00  0.00     0.018 C 
ATOM     31  C   UNL     1      -0.284   1.638   2.676  1.00  0.00     0.010 C 
BRANCH  30  32
ATOM     32  C   UNL     1      -0.456  -0.701   3.622  1.00  0.00     0.002 C 
ATOM     33  C   UNL     1      -1.561  -1.676   3.240  1.00  0.00     0.004 C 
ENDBRANCH  30  32
ENDBRANCH  12  30
ENDBRANCH  10  12
ENDBRANCH   1  10
BRANCH   5  34
ATOM     34  C   UNL     1       3.053   2.349  -1.688  1.00  0.00     0.242 C 
ATOM     35  O   UNL     1       2.881   3.045  -2.688  1.00  0.00    -0.273 OA
ATOM     36  N   UNL     1       3.838   1.218  -1.700  1.00  0.00    -0.354 N 
ATOM     37  H   UNL     1       3.845   0.616  -0.876  1.00  0.00     0.163 HD
BRANCH  36  38
ATOM     38  C   UNL     1       4.729   0.908  -2.799  1.00  0.00     0.116 C 
BRANCH  38  39
ATOM     39  C   UNL     1       5.650  -0.246  -2.409  1.00  0.00     0.023 C 
BRANCH  39  40
ATOM     40  C   UNL     1       5.107  -1.054  -1.234  1.00  0.00     0.026 C 
BRANCH  40  41
ATOM     41  C   UNL     1       6.137  -2.078  -0.758  1.00  0.00     0.146 C 
BRANCH  41  42
ATOM     42  N   UNL     1       6.080  -2.196   0.693  1.00  0.00    -0.254 NA
ATOM     43  C   UNL     1       6.860  -1.486   1.417  1.00  0.00     0.185 C 
ATOM     44  N   UNL     1       7.791  -0.583   1.057  1.00  0.00    -0.370 N 
ATOM     45  N   UNL     1       6.795  -1.613   2.752  1.00  0.00    -0.370 N 
ATOM     46  H   UNL     1       8.494  -0.283   1.711  1.00  0.00     0.159 HD
ATOM     47  H   UNL     1       7.963  -0.353   0.083  1.00  0.00     0.159 HD
ATOM     48  H   UNL     1       6.112  -2.268   3.108  1.00  0.00     0.159 HD
ATOM     49  H   UNL     1       7.191  -0.938   3.383  1.00  0.00     0.159 HD
ENDBRANCH  41  42
ENDBRANCH  40  41
ENDBRANCH  39  40
ENDBRANCH  38  39
ENDBRANCH  36  38
ENDBRANCH   5  34
BRANCH   8  50
ATOM     50  O   UNL     1       6.995   2.659   0.940  1.00  0.00    -0.245 OA
BRANCH  50  51
ATOM     51  S   UNL     1       8.618   2.752   0.991  1.00  0.00     0.397 S 
ATOM     52  O   UNL     1       8.982   4.147   1.100  1.00  0.00    -0.169 OA
ATOM     53  O   UNL     1       9.186   1.896  -0.029  1.00  0.00    -0.169 OA
BRANCH  51  54
ATOM     54  O   UNL     1       8.946   2.100   2.424  1.00  0.00    -0.264 OA
ATOM     55  H   UNL     1       8.777   1.138   2.360  1.00  0.00     0.236 HD
ENDBRANCH  51  54
ENDBRANCH  50  51
ENDBRANCH   8  50
TORSDOF 19
ENDMDL
MODEL 41
REMARK VINA RESULT:    -6.038     11.692     15.191
REMARK INTER + INTRA:         -16.787
REMARK INTER:                 -12.505
REMARK INTRA:                  -4.282
REMARK UNBOUND:                -4.573
REMARK SMILES CC[C@@H](C)[C@@H](NC(=O)[C@@H](O)Cc1ccc(O)c(Cl)c1)C(=O)N1[C@H](C(=O)NCCCCN=C(N)N)C[C@H]2CC[C@H](OS(=O)(=O)O)C[C@@H]21
REMARK SMILES IDX 22 1 36 2 46 3 35 4 23 5 45 6 37 7 39 8 38 9 20 10 21 11
REMARK SMILES IDX 5 12 6 13 7 14 8 15 9 17 11 18 12 19 17 20 19 21 15 22 14 23
REMARK SMILES IDX 13 24 18 25 16 26 10 28 3 30 4 31 2 32 1 33 24 34 25 35
REMARK SMILES IDX 26 36 27 38 28 39 29 40 30 41 31 42 32 43 33 44 34 45 40 50
REMARK SMILES IDX 41 51 42 52 43 53 44 54
REMARK H PARENT 6 16 16 27 10 29 26 37 33 46 33 47 34 48 34 49 44 55
ROOT
ATOM      1  N   UNL     1      -1.368  -5.499   2.564  1.00  0.00    -0.326 N 
ATOM      2  C   UNL     1      -1.043  -3.568   3.872  1.00  0.00     0.014 C 
ATOM      3  C   UNL     1      -1.845  -4.871   3.800  1.00  0.00     0.091 C 
ATOM      4  C   UNL     1      -0.909  -3.176   2.408  1.00  0.00     0.041 C 
ATOM      5  C   UNL     1      -0.539  -4.539   1.794  1.00  0.00     0.175 C 
ATOM      6  C   UNL     1      -1.658  -5.626   5.114  1.00  0.00     0.059 C 
ATOM      7  C   UNL     1      -1.676  -2.595   4.847  1.00  0.00     0.008 C 
ATOM      8  C   UNL     1      -1.461  -4.705   6.338  1.00  0.00     0.143 C 
ATOM      9  C   UNL     1      -2.116  -3.324   6.134  1.00  0.00     0.034 C 
ENDROOT
BRANCH   1  10
ATOM     10  C   UNL     1      -1.749  -6.690   1.970  1.00  0.00     0.246 C 
ATOM     11  O   UNL     1      -2.578  -6.667   1.054  1.00  0.00    -0.272 OA
BRANCH  10  12
ATOM     12  C   UNL     1      -1.094  -8.022   2.435  1.00  0.00     0.174 C 
BRANCH  12  13
ATOM     13  N   UNL     1      -0.158  -8.500   1.418  1.00  0.00    -0.342 N 
ATOM     14  C   UNL     1       1.144  -8.878   1.658  1.00  0.00     0.249 C 
ATOM     15  O   UNL     1       1.660  -8.882   2.769  1.00  0.00    -0.272 OA
ATOM     16  H   UNL     1      -0.392  -8.404   0.433  1.00  0.00     0.164 HD
BRANCH  14  17
ATOM     17  C   UNL     1       1.882  -9.319   0.376  1.00  0.00     0.207 C 
BRANCH  17  18
ATOM     18  C   UNL     1       1.103 -10.430  -0.336  1.00  0.00     0.077 C 
BRANCH  18  19
ATOM     19  C   UNL     1       1.330 -10.407  -1.831  1.00  0.00    -0.043 A 
ATOM     20  C   UNL     1       1.271 -11.523  -3.983  1.00  0.00     0.083 A 
ATOM     21  C   UNL     1       1.014 -11.529  -2.612  1.00  0.00     0.028 A 
ATOM     22  C   UNL     1       1.846 -10.401  -4.581  1.00  0.00     0.134 A 
ATOM     23  C   UNL     1       2.164  -9.283  -3.819  1.00  0.00     0.048 A 
ATOM     24  C   UNL     1       1.909  -9.286  -2.446  1.00  0.00     0.008 A 
ATOM     25  Cl  UNL     1       0.876 -12.912  -4.927  1.00  0.00    -0.080 Cl
BRANCH  22  26
ATOM     26  O   UNL     1       2.126 -10.352  -5.920  1.00  0.00    -0.506 OA
ATOM     27  H   UNL     1       2.774 -11.060  -6.096  1.00  0.00     0.293 HD
ENDBRANCH  22  26
ENDBRANCH  18  19
ENDBRANCH  17  18
BRANCH  17  28
ATOM     28  O   UNL     1       3.208  -9.784   0.675  1.00  0.00    -0.383 OA
ATOM     29  H   UNL     1       3.334 -10.605   0.147  1.00  0.00     0.211 HD
ENDBRANCH  17  28
ENDBRANCH  14  17
ENDBRANCH  12  13
BRANCH  12  30
ATOM     30  C   UNL     1      -2.140  -9.099   2.830  1.00  0.00     0.018 C 
ATOM     31  C   UNL     1      -1.677  -9.883   4.069  1.00  0.00     0.010 C 
BRANCH  30  32
ATOM     32  C   UNL     1      -2.489 -10.077   1.682  1.00  0.00     0.002 C 
ATOM     33  C   UNL     1      -3.947 -10.069   1.241  1.00  0.00     0.004 C 
ENDBRANCH  30  32
ENDBRANCH  12  30
ENDBRANCH  10  12
ENDBRANCH   1  10
BRANCH   5  34
ATOM     34  C   UNL     1       0.971  -4.854   1.969  1.00  0.00     0.242 C 
ATOM     35  O   UNL     1       1.396  -5.547   2.893  1.00  0.00    -0.273 OA
ATOM     36  N   UNL     1       1.804  -4.258   1.048  1.00  0.00    -0.354 N 
ATOM     37  H   UNL     1       1.405  -3.598   0.379  1.00  0.00     0.163 HD
BRANCH  36  38
ATOM     38  C   UNL     1       3.203  -4.610   0.929  1.00  0.00     0.116 C 
BRANCH  38  39
ATOM     39  C   UNL     1       4.065  -3.548   1.609  1.00  0.00     0.023 C 
BRANCH  39  40
ATOM     40  C   UNL     1       4.895  -4.116   2.754  1.00  0.00     0.026 C 
BRANCH  40  41
ATOM     41  C   UNL     1       4.605  -3.369   4.056  1.00  0.00     0.146 C 
BRANCH  41  42
ATOM     42  N   UNL     1       4.756  -4.275   5.188  1.00  0.00    -0.254 NA
ATOM     43  C   UNL     1       3.719  -4.823   5.702  1.00  0.00     0.185 C 
ATOM     44  N   UNL     1       2.422  -4.708   5.365  1.00  0.00    -0.370 N 
ATOM     45  N   UNL     1       3.879  -5.651   6.748  1.00  0.00    -0.370 N 
ATOM     46  H   UNL     1       1.699  -4.997   6.001  1.00  0.00     0.159 HD
ATOM     47  H   UNL     1       2.123  -4.130   4.585  1.00  0.00     0.159 HD
ATOM     48  H   UNL     1       4.829  -5.800   7.061  1.00  0.00     0.159 HD
ATOM     49  H   UNL     1       3.165  -6.291   7.048  1.00  0.00     0.159 HD
ENDBRANCH  41  42
ENDBRANCH  40  41
ENDBRANCH  39  40
ENDBRANCH  38  39
ENDBRANCH  36  38
ENDBRANCH   5  34
BRANCH   8  50
ATOM     50  O   UNL     1      -0.068  -4.515   6.589  1.00  0.00    -0.245 OA
BRANCH  50  51
ATOM     51  S   UNL     1       0.503  -4.667   8.104  1.00  0.00     0.397 S 
ATOM     52  O   UNL     1      -0.623  -4.640   9.011  1.00  0.00    -0.169 OA
ATOM     53  O   UNL     1       1.644  -3.794   8.284  1.00  0.00    -0.169 OA
BRANCH  51  54
ATOM     54  O   UNL     1       1.034  -6.185   8.112  1.00  0.00    -0.264 OA
ATOM     55  H   UNL     1       0.864  -6.556   9.001  1.00  0.00     0.236 HD
ENDBRANCH  51  54
ENDBRANCH  50  51
ENDBRANCH   8  50
TORSDOF 19
ENDMDL
MODEL 42
REMARK VINA RESULT:    -6.015      4.545      8.484
REMARK INTER + INTRA:         -16.741
REMARK INTER:                 -13.574
REMARK INTRA:                  -3.167
REMARK UNBOUND:                -4.573
REMARK SMILES CC[C@@H](C)[C@@H](NC(=O)[C@@H](O)Cc1ccc(O)c(Cl)c1)C(=O)N1[C@H](C(=O)NCCCCN=C(N)N)C[C@H]2CC[C@H](OS(=O)(=O)O)C[C@@H]21
REMARK SMILES IDX 22 1 36 2 46 3 35 4 23 5 45 6 37 7 39 8 38 9 20 10 21 11
REMARK SMILES IDX 5 12 6 13 7 14 8 15 9 17 11 18 12 19 17 20 19 21 15 22 14 23
REMARK SMILES IDX 13 24 18 25 16 26 10 28 3 30 4 31 2 32 1 33 24 34 25 35
REMARK SMILES IDX 26 36 27 38 28 39 29 40 30 41 31 42 32 43 33 44 34 45 40 50
REMARK SMILES IDX 41 51 42 52 43 53 44 54
REMARK H PARENT 6 16 16 27 10 29 26 37 33 46 33 47 34 48 34 49 44 55
ROOT
ATOM      1  N   UNL     1       8.261   2.034  -0.775  1.00  0.00    -0.326 N 
ATOM      2  C   UNL     1       7.197   4.118  -1.031  1.00  0.00     0.014 C 
ATOM      3  C   UNL     1       7.500   2.807  -1.761  1.00  0.00     0.091 C 
ATOM      4  C   UNL     1       8.441   4.323  -0.180  1.00  0.00     0.041 C 
ATOM      5  C   UNL     1       8.631   2.899   0.373  1.00  0.00     0.175 C 
ATOM      6  C   UNL     1       6.185   2.226  -2.278  1.00  0.00     0.059 C 
ATOM      7  C   UNL     1       6.779   5.199  -2.009  1.00  0.00     0.008 C 
ATOM      8  C   UNL     1       5.140   3.298  -2.657  1.00  0.00     0.143 C 
ATOM      9  C   UNL     1       5.798   4.633  -3.058  1.00  0.00     0.034 C 
ENDROOT
BRANCH   1  10
ATOM     10  C   UNL     1       8.821   0.772  -0.876  1.00  0.00     0.246 C 
ATOM     11  O   UNL     1       8.478  -0.105  -0.076  1.00  0.00    -0.272 OA
BRANCH  10  12
ATOM     12  C   UNL     1       9.835   0.473  -2.018  1.00  0.00     0.174 C 
BRANCH  12  13
ATOM     13  N   UNL     1       9.739  -0.931  -2.416  1.00  0.00    -0.342 N 
ATOM     14  C   UNL     1       8.690  -1.484  -3.115  1.00  0.00     0.249 C 
ATOM     15  O   UNL     1       7.722  -0.846  -3.510  1.00  0.00    -0.272 OA
ATOM     16  H   UNL     1      10.387  -1.611  -2.026  1.00  0.00     0.164 HD
BRANCH  14  17
ATOM     17  C   UNL     1       8.873  -2.996  -3.368  1.00  0.00     0.207 C 
BRANCH  17  18
ATOM     18  C   UNL     1      10.360  -3.365  -3.354  1.00  0.00     0.077 C 
BRANCH  18  19
ATOM     19  C   UNL     1      10.665  -4.431  -2.327  1.00  0.00    -0.043 A 
ATOM     20  C   UNL     1      11.254  -6.721  -1.784  1.00  0.00     0.083 A 
ATOM     21  C   UNL     1      11.021  -5.726  -2.735  1.00  0.00     0.028 A 
ATOM     22  C   UNL     1      11.131  -6.431  -0.425  1.00  0.00     0.134 A 
ATOM     23  C   UNL     1      10.778  -5.153  -0.007  1.00  0.00     0.048 A 
ATOM     24  C   UNL     1      10.543  -4.155  -0.956  1.00  0.00     0.008 A 
ATOM     25  Cl  UNL     1      11.691  -8.306  -2.305  1.00  0.00    -0.080 Cl
BRANCH  22  26
ATOM     26  O   UNL     1      11.338  -7.376   0.543  1.00  0.00    -0.506 OA
ATOM     27  H   UNL     1      10.461  -7.609   0.900  1.00  0.00     0.293 HD
ENDBRANCH  22  26
ENDBRANCH  18  19
ENDBRANCH  17  18
BRANCH  17  28
ATOM     28  O   UNL     1       8.298  -3.384  -4.626  1.00  0.00    -0.383 OA
ATOM     29  H   UNL     1       7.484  -3.892  -4.408  1.00  0.00     0.211 HD
ENDBRANCH  17  28
ENDBRANCH  14  17
ENDBRANCH  12  13
BRANCH  12  30
ATOM     30  C   UNL     1      11.287   0.887  -1.655  1.00  0.00     0.018 C 
ATOM     31  C   UNL     1      11.795   1.985  -2.603  1.00  0.00     0.010 C 
BRANCH  30  32
ATOM     32  C   UNL     1      12.283  -0.297  -1.630  1.00  0.00     0.002 C 
ATOM     33  C   UNL     1      13.253  -0.358  -2.804  1.00  0.00     0.004 C 
ENDBRANCH  30  32
ENDBRANCH  12  30
ENDBRANCH  10  12
ENDBRANCH   1  10
BRANCH   5  34
ATOM     34  C   UNL     1       7.703   2.629   1.587  1.00  0.00     0.242 C 
ATOM     35  O   UNL     1       7.890   3.149   2.687  1.00  0.00    -0.273 OA
ATOM     36  N   UNL     1       6.690   1.724   1.360  1.00  0.00    -0.354 N 
ATOM     37  H   UNL     1       6.659   1.235   0.465  1.00  0.00     0.163 HD
BRANCH  36  38
ATOM     38  C   UNL     1       5.612   1.517   2.305  1.00  0.00     0.116 C 
BRANCH  38  39
ATOM     39  C   UNL     1       4.642   0.469   1.764  1.00  0.00     0.023 C 
BRANCH  39  40
ATOM     40  C   UNL     1       5.315  -0.507   0.805  1.00  0.00     0.026 C 
BRANCH  40  41
ATOM     41  C   UNL     1       4.316  -1.026  -0.229  1.00  0.00     0.146 C 
BRANCH  41  42
ATOM     42  N   UNL     1       3.507  -2.087   0.357  1.00  0.00    -0.254 NA
ATOM     43  C   UNL     1       2.235  -1.960   0.405  1.00  0.00     0.185 C 
ATOM     44  N   UNL     1       1.449  -0.953  -0.018  1.00  0.00    -0.370 N 
ATOM     45  N   UNL     1       1.508  -2.948   0.953  1.00  0.00    -0.370 N 
ATOM     46  H   UNL     1       0.498  -0.875   0.301  1.00  0.00     0.159 HD
ATOM     47  H   UNL     1       1.834  -0.130  -0.470  1.00  0.00     0.159 HD
ATOM     48  H   UNL     1       2.023  -3.750   1.290  1.00  0.00     0.159 HD
ATOM     49  H   UNL     1       0.516  -3.033   0.817  1.00  0.00     0.159 HD
ENDBRANCH  41  42
ENDBRANCH  40  41
ENDBRANCH  39  40
ENDBRANCH  38  39
ENDBRANCH  36  38
ENDBRANCH   5  34
BRANCH   8  50
ATOM     50  O   UNL     1       4.262   3.537  -1.556  1.00  0.00    -0.245 OA
BRANCH  50  51
ATOM     51  S   UNL     1       2.728   3.002  -1.621  1.00  0.00     0.397 S 
ATOM     52  O   UNL     1       1.852   4.152  -1.594  1.00  0.00    -0.169 OA
ATOM     53  O   UNL     1       2.559   1.897  -0.701  1.00  0.00    -0.169 OA
BRANCH  51  54
ATOM     54  O   UNL     1       2.639   2.420  -3.117  1.00  0.00    -0.264 OA
ATOM     55  H   UNL     1       1.692   2.286  -3.330  1.00  0.00     0.236 HD
ENDBRANCH  51  54
ENDBRANCH  50  51
ENDBRANCH   8  50
TORSDOF 19
ENDMDL
MODEL 43
REMARK VINA RESULT:    -6.010      3.789      8.091
REMARK INTER + INTRA:         -16.732
REMARK INTER:                 -13.208
REMARK INTRA:                  -3.524
REMARK UNBOUND:                -4.573
REMARK SMILES CC[C@@H](C)[C@@H](NC(=O)[C@@H](O)Cc1ccc(O)c(Cl)c1)C(=O)N1[C@H](C(=O)NCCCCN=C(N)N)C[C@H]2CC[C@H](OS(=O)(=O)O)C[C@@H]21
REMARK SMILES IDX 22 1 36 2 46 3 35 4 23 5 45 6 37 7 39 8 38 9 20 10 21 11
REMARK SMILES IDX 5 12 6 13 7 14 8 15 9 17 11 18 12 19 17 20 19 21 15 22 14 23
REMARK SMILES IDX 13 24 18 25 16 26 10 28 3 30 4 31 2 32 1 33 24 34 25 35
REMARK SMILES IDX 26 36 27 38 28 39 29 40 30 41 31 42 32 43 33 44 34 45 40 50
REMARK SMILES IDX 41 51 42 52 43 53 44 54
REMARK H PARENT 6 16 16 27 10 29 26 37 33 46 33 47 34 48 34 49 44 55
ROOT
ATOM      1  N   UNL     1       7.096   0.543  -0.307  1.00  0.00    -0.326 N 
ATOM      2  C   UNL     1       6.821   0.967  -2.606  1.00  0.00     0.014 C 
ATOM      3  C   UNL     1       6.069   0.512  -1.352  1.00  0.00     0.091 C 
ATOM      4  C   UNL     1       8.209   0.380  -2.396  1.00  0.00     0.041 C 
ATOM      5  C   UNL     1       8.435   0.740  -0.916  1.00  0.00     0.175 C 
ATOM      6  C   UNL     1       4.835   1.396  -1.182  1.00  0.00     0.059 C 
ATOM      7  C   UNL     1       6.047   0.614  -3.861  1.00  0.00     0.008 C 
ATOM      8  C   UNL     1       4.235   1.889  -2.516  1.00  0.00     0.143 C 
ATOM      9  C   UNL     1       4.547   0.929  -3.682  1.00  0.00     0.034 C 
ENDROOT
BRANCH   1  10
ATOM     10  C   UNL     1       7.007   0.214   1.035  1.00  0.00     0.246 C 
ATOM     11  O   UNL     1       7.115   1.107   1.882  1.00  0.00    -0.272 OA
BRANCH  10  12
ATOM     12  C   UNL     1       6.731  -1.262   1.446  1.00  0.00     0.174 C 
BRANCH  12  13
ATOM     13  N   UNL     1       7.737  -2.141   0.852  1.00  0.00    -0.342 N 
ATOM     14  C   UNL     1       8.213  -3.298   1.427  1.00  0.00     0.249 C 
ATOM     15  O   UNL     1       7.821  -3.738   2.501  1.00  0.00    -0.272 OA
ATOM     16  H   UNL     1       8.266  -1.827   0.042  1.00  0.00     0.164 HD
BRANCH  14  17
ATOM     17  C   UNL     1       9.284  -3.997   0.562  1.00  0.00     0.207 C 
BRANCH  17  18
ATOM     18  C   UNL     1       8.857  -4.011  -0.910  1.00  0.00     0.077 C 
BRANCH  18  19
ATOM     19  C   UNL     1       9.855  -3.295  -1.791  1.00  0.00    -0.043 A 
ATOM     20  C   UNL     1      11.494  -1.535  -2.113  1.00  0.00     0.083 A 
ATOM     21  C   UNL     1      10.610  -2.226  -1.283  1.00  0.00     0.028 A 
ATOM     22  C   UNL     1      11.628  -1.905  -3.452  1.00  0.00     0.134 A 
ATOM     23  C   UNL     1      10.887  -2.962  -3.968  1.00  0.00     0.048 A 
ATOM     24  C   UNL     1      10.000  -3.654  -3.140  1.00  0.00     0.008 A 
ATOM     25  Cl  UNL     1      12.412  -0.224  -1.471  1.00  0.00    -0.080 Cl
BRANCH  22  26
ATOM     26  O   UNL     1      12.474  -1.251  -4.306  1.00  0.00    -0.506 OA
ATOM     27  H   UNL     1      12.003  -0.454  -4.611  1.00  0.00     0.293 HD
ENDBRANCH  22  26
ENDBRANCH  18  19
ENDBRANCH  17  18
BRANCH  17  28
ATOM     28  O   UNL     1       9.509  -5.344   1.005  1.00  0.00    -0.383 OA
ATOM     29  H   UNL     1       8.828  -5.896   0.558  1.00  0.00     0.211 HD
ENDBRANCH  17  28
ENDBRANCH  14  17
ENDBRANCH  12  13
BRANCH  12  30
ATOM     30  C   UNL     1       5.282  -1.714   1.120  1.00  0.00     0.018 C 
ATOM     31  C   UNL     1       4.574  -2.231   2.382  1.00  0.00     0.010 C 
BRANCH  30  32
ATOM     32  C   UNL     1       5.200  -2.773  -0.007  1.00  0.00     0.002 C 
ATOM     33  C   UNL     1       4.241  -3.927   0.253  1.00  0.00     0.004 C 
ENDBRANCH  30  32
ENDBRANCH  12  30
ENDBRANCH  10  12
ENDBRANCH   1  10
BRANCH   5  34
ATOM     34  C   UNL     1       8.904   2.210  -0.749  1.00  0.00     0.242 C 
ATOM     35  O   UNL     1      10.035   2.579  -1.064  1.00  0.00    -0.273 OA
ATOM     36  N   UNL     1       7.983   3.057  -0.175  1.00  0.00    -0.354 N 
ATOM     37  H   UNL     1       7.107   2.667   0.175  1.00  0.00     0.163 HD
BRANCH  36  38
ATOM     38  C   UNL     1       8.169   4.493  -0.142  1.00  0.00     0.116 C 
BRANCH  38  39
ATOM     39  C   UNL     1       7.514   5.129  -1.366  1.00  0.00     0.023 C 
BRANCH  39  40
ATOM     40  C   UNL     1       8.531   5.514  -2.436  1.00  0.00     0.026 C 
BRANCH  40  41
ATOM     41  C   UNL     1       9.722   6.243  -1.814  1.00  0.00     0.146 C 
BRANCH  41  42
ATOM     42  N   UNL     1      10.441   6.980  -2.844  1.00  0.00    -0.254 NA
ATOM     43  C   UNL     1      11.463   6.451  -3.405  1.00  0.00     0.185 C 
ATOM     44  N   UNL     1      12.037   5.251  -3.202  1.00  0.00    -0.370 N 
ATOM     45  N   UNL     1      12.115   7.149  -4.349  1.00  0.00    -0.370 N 
ATOM     46  H   UNL     1      12.969   5.066  -3.531  1.00  0.00     0.159 HD
ATOM     47  H   UNL     1      11.663   4.588  -2.530  1.00  0.00     0.159 HD
ATOM     48  H   UNL     1      11.742   8.063  -4.569  1.00  0.00     0.159 HD
ATOM     49  H   UNL     1      12.762   6.725  -4.990  1.00  0.00     0.159 HD
ENDBRANCH  41  42
ENDBRANCH  40  41
ENDBRANCH  39  40
ENDBRANCH  38  39
ENDBRANCH  36  38
ENDBRANCH   5  34
BRANCH   8  50
ATOM     50  O   UNL     1       4.753   3.179  -2.840  1.00  0.00    -0.245 OA
BRANCH  50  51
ATOM     51  S   UNL     1       3.792   4.486  -2.715  1.00  0.00     0.397 S 
ATOM     52  O   UNL     1       4.009   5.076  -1.413  1.00  0.00    -0.169 OA
ATOM     53  O   UNL     1       2.463   4.158  -3.188  1.00  0.00    -0.169 OA
BRANCH  51  54
ATOM     54  O   UNL     1       4.460   5.496  -3.772  1.00  0.00    -0.264 OA
ATOM     55  H   UNL     1       4.501   5.040  -4.637  1.00  0.00     0.236 HD
ENDBRANCH  51  54
ENDBRANCH  50  51
ENDBRANCH   8  50
TORSDOF 19
ENDMDL
MODEL 44
REMARK VINA RESULT:    -6.004     12.150     15.827
REMARK INTER + INTRA:         -16.719
REMARK INTER:                 -11.677
REMARK INTRA:                  -5.042
REMARK UNBOUND:                -4.573
REMARK SMILES CC[C@@H](C)[C@@H](NC(=O)[C@@H](O)Cc1ccc(O)c(Cl)c1)C(=O)N1[C@H](C(=O)NCCCCN=C(N)N)C[C@H]2CC[C@H](OS(=O)(=O)O)C[C@@H]21
REMARK SMILES IDX 22 1 36 2 46 3 35 4 23 5 45 6 37 7 39 8 38 9 20 10 21 11
REMARK SMILES IDX 5 12 6 13 7 14 8 15 9 17 11 18 12 19 17 20 19 21 15 22 14 23
REMARK SMILES IDX 13 24 18 25 16 26 10 28 3 30 4 31 2 32 1 33 24 34 25 35
REMARK SMILES IDX 26 36 27 38 28 39 29 40 30 41 31 42 32 43 33 44 34 45 40 50
REMARK SMILES IDX 41 51 42 52 43 53 44 54
REMARK H PARENT 6 16 16 27 10 29 26 37 33 46 33 47 34 48 34 49 44 55
ROOT
ATOM      1  N   UNL     1       0.048  -6.268   1.983  1.00  0.00    -0.326 N 
ATOM      2  C   UNL     1      -0.819  -6.199   4.171  1.00  0.00     0.014 C 
ATOM      3  C   UNL     1       0.181  -6.940   3.279  1.00  0.00     0.091 C 
ATOM      4  C   UNL     1      -1.945  -5.864   3.205  1.00  0.00     0.041 C 
ATOM      5  C   UNL     1      -1.130  -5.365   1.998  1.00  0.00     0.175 C 
ATOM      6  C   UNL     1       1.545  -6.924   3.966  1.00  0.00     0.059 C 
ATOM      7  C   UNL     1      -1.125  -6.998   5.423  1.00  0.00     0.008 C 
ATOM      8  C   UNL     1       1.465  -6.938   5.508  1.00  0.00     0.143 C 
ATOM      9  C   UNL     1       0.167  -7.599   6.015  1.00  0.00     0.034 C 
ENDROOT
BRANCH   1  10
ATOM     10  C   UNL     1       0.690  -6.520   0.783  1.00  0.00     0.246 C 
ATOM     11  O   UNL     1       1.688  -5.856   0.485  1.00  0.00    -0.272 OA
BRANCH  10  12
ATOM     12  C   UNL     1       0.169  -7.658  -0.142  1.00  0.00     0.174 C 
BRANCH  12  13
ATOM     13  N   UNL     1      -1.004  -8.291   0.459  1.00  0.00    -0.342 N 
ATOM     14  C   UNL     1      -2.285  -8.215  -0.040  1.00  0.00     0.249 C 
ATOM     15  O   UNL     1      -2.582  -7.624  -1.071  1.00  0.00    -0.272 OA
ATOM     16  H   UNL     1      -0.942  -8.682   1.396  1.00  0.00     0.164 HD
BRANCH  14  17
ATOM     17  C   UNL     1      -3.309  -8.975   0.830  1.00  0.00     0.207 C 
BRANCH  17  18
ATOM     18  C   UNL     1      -2.590  -9.837   1.873  1.00  0.00     0.077 C 
BRANCH  18  19
ATOM     19  C   UNL     1      -3.142  -9.614   3.263  1.00  0.00    -0.043 A 
ATOM     20  C   UNL     1      -3.230 -10.214   5.611  1.00  0.00     0.083 A 
ATOM     21  C   UNL     1      -2.684 -10.389   4.340  1.00  0.00     0.028 A 
ATOM     22  C   UNL     1      -4.236  -9.269   5.815  1.00  0.00     0.134 A 
ATOM     23  C   UNL     1      -4.699  -8.494   4.758  1.00  0.00     0.048 A 
ATOM     24  C   UNL     1      -4.155  -8.668   3.483  1.00  0.00     0.008 A 
ATOM     25  Cl  UNL     1      -2.654 -11.176   6.922  1.00  0.00    -0.080 Cl
BRANCH  22  26
ATOM     26  O   UNL     1      -4.809  -9.069   7.042  1.00  0.00    -0.506 OA
ATOM     27  H   UNL     1      -4.288  -9.587   7.683  1.00  0.00     0.293 HD
ENDBRANCH  22  26
ENDBRANCH  18  19
ENDBRANCH  17  18
BRANCH  17  28
ATOM     28  O   UNL     1      -4.155  -9.810   0.023  1.00  0.00    -0.383 OA
ATOM     29  H   UNL     1      -4.705 -10.329   0.652  1.00  0.00     0.211 HD
ENDBRANCH  17  28
ENDBRANCH  14  17
ENDBRANCH  12  13
BRANCH  12  30
ATOM     30  C   UNL     1       1.274  -8.685  -0.509  1.00  0.00     0.018 C 
ATOM     31  C   UNL     1       0.747  -9.716  -1.520  1.00  0.00     0.010 C 
BRANCH  30  32
ATOM     32  C   UNL     1       1.885  -9.406   0.717  1.00  0.00     0.002 C 
ATOM     33  C   UNL     1       3.370  -9.157   0.946  1.00  0.00     0.004 C 
ENDBRANCH  30  32
ENDBRANCH  12  30
ENDBRANCH  10  12
ENDBRANCH   1  10
BRANCH   5  34
ATOM     34  C   UNL     1      -0.688  -3.888   2.177  1.00  0.00     0.242 C 
ATOM     35  O   UNL     1      -1.490  -2.955   2.165  1.00  0.00    -0.273 OA
ATOM     36  N   UNL     1       0.670  -3.694   2.296  1.00  0.00    -0.354 N 
ATOM     37  H   UNL     1       1.294  -4.493   2.178  1.00  0.00     0.163 HD
BRANCH  36  38
ATOM     38  C   UNL     1       1.238  -2.418   2.682  1.00  0.00     0.116 C 
BRANCH  38  39
ATOM     39  C   UNL     1       1.152  -2.250   4.198  1.00  0.00     0.023 C 
BRANCH  39  40
ATOM     40  C   UNL     1       0.230  -1.107   4.606  1.00  0.00     0.026 C 
BRANCH  40  41
ATOM     41  C   UNL     1      -0.887  -1.610   5.520  1.00  0.00     0.146 C 
BRANCH  41  42
ATOM     42  N   UNL     1      -0.458  -1.532   6.911  1.00  0.00    -0.254 NA
ATOM     43  C   UNL     1      -0.362  -2.603   7.605  1.00  0.00     0.185 C 
ATOM     44  N   UNL     1      -0.602  -3.881   7.261  1.00  0.00    -0.370 N 
ATOM     45  N   UNL     1       0.031  -2.509   8.886  1.00  0.00    -0.370 N 
ATOM     46  H   UNL     1      -0.722  -4.588   7.966  1.00  0.00     0.159 HD
ATOM     47  H   UNL     1      -0.895  -4.135   6.323  1.00  0.00     0.159 HD
ATOM     48  H   UNL     1       0.240  -1.579   9.223  1.00  0.00     0.159 HD
ATOM     49  H   UNL     1       0.355  -3.299   9.415  1.00  0.00     0.159 HD
ENDBRANCH  41  42
ENDBRANCH  40  41
ENDBRANCH  39  40
ENDBRANCH  38  39
ENDBRANCH  36  38
ENDBRANCH   5  34
BRANCH   8  50
ATOM     50  O   UNL     1       1.522  -5.604   6.014  1.00  0.00    -0.245 OA
BRANCH  50  51
ATOM     51  S   UNL     1       2.895  -5.062   6.696  1.00  0.00     0.397 S 
ATOM     52  O   UNL     1       3.674  -6.209   7.104  1.00  0.00    -0.169 OA
ATOM     53  O   UNL     1       2.589  -3.985   7.615  1.00  0.00    -0.169 OA
BRANCH  51  54
ATOM     54  O   UNL     1       3.670  -4.432   5.435  1.00  0.00    -0.264 OA
ATOM     55  H   UNL     1       4.191  -3.668   5.757  1.00  0.00     0.236 HD
ENDBRANCH  51  54
ENDBRANCH  50  51
ENDBRANCH   8  50
TORSDOF 19
ENDMDL
MODEL 45
REMARK VINA RESULT:    -5.966     11.166     16.003
REMARK INTER + INTRA:         -16.643
REMARK INTER:                 -13.181
REMARK INTRA:                  -3.462
REMARK UNBOUND:                -4.573
REMARK SMILES CC[C@@H](C)[C@@H](NC(=O)[C@@H](O)Cc1ccc(O)c(Cl)c1)C(=O)N1[C@H](C(=O)NCCCCN=C(N)N)C[C@H]2CC[C@H](OS(=O)(=O)O)C[C@@H]21
REMARK SMILES IDX 22 1 36 2 46 3 35 4 23 5 45 6 37 7 39 8 38 9 20 10 21 11
REMARK SMILES IDX 5 12 6 13 7 14 8 15 9 17 11 18 12 19 17 20 19 21 15 22 14 23
REMARK SMILES IDX 13 24 18 25 16 26 10 28 3 30 4 31 2 32 1 33 24 34 25 35
REMARK SMILES IDX 26 36 27 38 28 39 29 40 30 41 31 42 32 43 33 44 34 45 40 50
REMARK SMILES IDX 41 51 42 52 43 53 44 54
REMARK H PARENT 6 16 16 27 10 29 26 37 33 46 33 47 34 48 34 49 44 55
ROOT
ATOM      1  N   UNL     1      -0.765  -6.469   3.206  1.00  0.00    -0.326 N 
ATOM      2  C   UNL     1      -2.173  -8.215   3.920  1.00  0.00     0.014 C 
ATOM      3  C   UNL     1      -2.157  -6.916   3.109  1.00  0.00     0.091 C 
ATOM      4  C   UNL     1      -1.174  -7.929   5.030  1.00  0.00     0.041 C 
ATOM      5  C   UNL     1      -0.040  -7.280   4.216  1.00  0.00     0.175 C 
ATOM      6  C   UNL     1      -2.731  -7.204   1.723  1.00  0.00     0.059 C 
ATOM      7  C   UNL     1      -3.591  -8.612   4.280  1.00  0.00     0.008 C 
ATOM      8  C   UNL     1      -3.810  -8.309   1.715  1.00  0.00     0.143 C 
ATOM      9  C   UNL     1      -4.533  -8.423   3.072  1.00  0.00     0.034 C 
ENDROOT
BRANCH   1  10
ATOM     10  C   UNL     1      -0.157  -5.340   2.685  1.00  0.00     0.246 C 
ATOM     11  O   UNL     1       0.387  -5.407   1.577  1.00  0.00    -0.272 OA
BRANCH  10  12
ATOM     12  C   UNL     1      -0.208  -4.004   3.482  1.00  0.00     0.174 C 
BRANCH  12  13
ATOM     13  N   UNL     1       0.861  -3.978   4.480  1.00  0.00    -0.342 N 
ATOM     14  C   UNL     1       1.634  -2.879   4.781  1.00  0.00     0.249 C 
ATOM     15  O   UNL     1       1.490  -1.780   4.259  1.00  0.00    -0.272 OA
ATOM     16  H   UNL     1       1.198  -4.850   4.880  1.00  0.00     0.164 HD
BRANCH  14  17
ATOM     17  C   UNL     1       2.690  -3.173   5.867  1.00  0.00     0.207 C 
BRANCH  17  18
ATOM     18  C   UNL     1       3.662  -4.257   5.389  1.00  0.00     0.077 C 
BRANCH  18  19
ATOM     19  C   UNL     1       4.450  -3.811   4.178  1.00  0.00    -0.043 A 
ATOM     20  C   UNL     1       4.860  -3.892   1.789  1.00  0.00     0.083 A 
ATOM     21  C   UNL     1       4.100  -4.267   2.898  1.00  0.00     0.028 A 
ATOM     22  C   UNL     1       5.971  -3.065   1.951  1.00  0.00     0.134 A 
ATOM     23  C   UNL     1       6.329  -2.607   3.213  1.00  0.00     0.048 A 
ATOM     24  C   UNL     1       5.572  -2.981   4.326  1.00  0.00     0.008 A 
ATOM     25  Cl  UNL     1       4.414  -4.462   0.223  1.00  0.00    -0.080 Cl
BRANCH  22  26
ATOM     26  O   UNL     1       6.753  -2.680   0.895  1.00  0.00    -0.506 OA
ATOM     27  H   UNL     1       6.737  -1.705   0.876  1.00  0.00     0.293 HD
ENDBRANCH  22  26
ENDBRANCH  18  19
ENDBRANCH  17  18
BRANCH  17  28
ATOM     28  O   UNL     1       2.070  -3.596   7.092  1.00  0.00    -0.383 OA
ATOM     29  H   UNL     1       2.805  -3.845   7.697  1.00  0.00     0.211 HD
ENDBRANCH  17  28
ENDBRANCH  14  17
ENDBRANCH  12  13
BRANCH  12  30
ATOM     30  C   UNL     1      -1.604  -3.728   4.102  1.00  0.00     0.018 C 
ATOM     31  C   UNL     1      -2.030  -2.271   3.863  1.00  0.00     0.010 C 
BRANCH  30  32
ATOM     32  C   UNL     1      -1.693  -4.069   5.609  1.00  0.00     0.002 C 
ATOM     33  C   UNL     1      -1.928  -2.881   6.532  1.00  0.00     0.004 C 
ENDBRANCH  30  32
ENDBRANCH  12  30
ENDBRANCH  10  12
ENDBRANCH   1  10
BRANCH   5  34
ATOM     34  C   UNL     1       0.853  -8.346   3.527  1.00  0.00     0.242 C 
ATOM     35  O   UNL     1       1.033  -9.464   4.009  1.00  0.00    -0.273 OA
ATOM     36  N   UNL     1       1.471  -7.933   2.368  1.00  0.00    -0.354 N 
ATOM     37  H   UNL     1       1.379  -6.957   2.084  1.00  0.00     0.163 HD
BRANCH  36  38
ATOM     38  C   UNL     1       2.160  -8.854   1.488  1.00  0.00     0.116 C 
BRANCH  38  39
ATOM     39  C   UNL     1       2.787  -8.089   0.325  1.00  0.00     0.023 C 
BRANCH  39  40
ATOM     40  C   UNL     1       2.425  -8.689  -1.029  1.00  0.00     0.026 C 
BRANCH  40  41
ATOM     41  C   UNL     1       1.209  -9.607  -0.908  1.00  0.00     0.146 C 
BRANCH  41  42
ATOM     42  N   UNL     1       0.981 -10.292  -2.173  1.00  0.00    -0.254 NA
ATOM     43  C   UNL     1      -0.142 -10.158  -2.773  1.00  0.00     0.185 C 
ATOM     44  N   UNL     1      -1.230  -9.447  -2.424  1.00  0.00    -0.370 N 
ATOM     45  N   UNL     1      -0.333 -10.802  -3.936  1.00  0.00    -0.370 N 
ATOM     46  H   UNL     1      -2.119  -9.626  -2.858  1.00  0.00     0.159 HD
ATOM     47  H   UNL     1      -1.252  -8.888  -1.577  1.00  0.00     0.159 HD
ATOM     48  H   UNL     1       0.442 -11.355  -4.275  1.00  0.00     0.159 HD
ATOM     49  H   UNL     1      -1.073 -10.566  -4.573  1.00  0.00     0.159 HD
ENDBRANCH  41  42
ENDBRANCH  40  41
ENDBRANCH  39  40
ENDBRANCH  38  39
ENDBRANCH  36  38
ENDBRANCH   5  34
BRANCH   8  50
ATOM     50  O   UNL     1      -3.216  -9.571   1.410  1.00  0.00    -0.245 OA
BRANCH  50  51
ATOM     51  S   UNL     1      -3.719 -10.401   0.104  1.00  0.00     0.397 S 
ATOM     52  O   UNL     1      -3.877  -9.464  -0.986  1.00  0.00    -0.169 OA
ATOM     53  O   UNL     1      -4.781 -11.309   0.485  1.00  0.00    -0.169 OA
BRANCH  51  54
ATOM     54  O   UNL     1      -2.421 -11.279  -0.256  1.00  0.00    -0.264 OA
ATOM     55  H   UNL     1      -2.488 -11.537  -1.198  1.00  0.00     0.236 HD
ENDBRANCH  51  54
ENDBRANCH  50  51
ENDBRANCH   8  50
TORSDOF 19
ENDMDL
MODEL 46
REMARK VINA RESULT:    -5.938     12.340     17.216
REMARK INTER + INTRA:         -16.586
REMARK INTER:                 -13.722
REMARK INTRA:                  -2.864
REMARK UNBOUND:                -4.573
REMARK SMILES CC[C@@H](C)[C@@H](NC(=O)[C@@H](O)Cc1ccc(O)c(Cl)c1)C(=O)N1[C@H](C(=O)NCCCCN=C(N)N)C[C@H]2CC[C@H](OS(=O)(=O)O)C[C@@H]21
REMARK SMILES IDX 22 1 36 2 46 3 35 4 23 5 45 6 37 7 39 8 38 9 20 10 21 11
REMARK SMILES IDX 5 12 6 13 7 14 8 15 9 17 11 18 12 19 17 20 19 21 15 22 14 23
REMARK SMILES IDX 13 24 18 25 16 26 10 28 3 30 4 31 2 32 1 33 24 34 25 35
REMARK SMILES IDX 26 36 27 38 28 39 29 40 30 41 31 42 32 43 33 44 34 45 40 50
REMARK SMILES IDX 41 51 42 52 43 53 44 54
REMARK H PARENT 6 16 16 27 10 29 26 37 33 46 33 47 34 48 34 49 44 55
ROOT
ATOM      1  N   UNL     1      -1.231  -3.562   7.611  1.00  0.00    -0.326 N 
ATOM      2  C   UNL     1      -1.619  -1.508   8.693  1.00  0.00     0.014 C 
ATOM      3  C   UNL     1      -1.611  -2.178   7.316  1.00  0.00     0.091 C 
ATOM      4  C   UNL     1      -0.485  -2.217   9.417  1.00  0.00     0.041 C 
ATOM      5  C   UNL     1      -0.778  -3.676   9.019  1.00  0.00     0.175 C 
ATOM      6  C   UNL     1      -2.961  -1.924   6.648  1.00  0.00     0.059 C 
ATOM      7  C   UNL     1      -1.588   0.002   8.562  1.00  0.00     0.008 C 
ATOM      8  C   UNL     1      -3.604  -0.575   7.038  1.00  0.00     0.143 C 
ATOM      9  C   UNL     1      -2.549   0.472   7.450  1.00  0.00     0.034 C 
ENDROOT
BRANCH   1  10
ATOM     10  C   UNL     1      -1.043  -4.633   6.753  1.00  0.00     0.246 C 
ATOM     11  O   UNL     1      -1.905  -5.516   6.696  1.00  0.00    -0.272 OA
BRANCH  10  12
ATOM     12  C   UNL     1       0.224  -4.679   5.851  1.00  0.00     0.174 C 
BRANCH  12  13
ATOM     13  N   UNL     1      -0.132  -4.341   4.473  1.00  0.00    -0.342 N 
ATOM     14  C   UNL     1      -0.040  -3.085   3.918  1.00  0.00     0.249 C 
ATOM     15  O   UNL     1       0.383  -2.104   4.518  1.00  0.00    -0.272 OA
ATOM     16  H   UNL     1      -0.642  -5.014   3.905  1.00  0.00     0.164 HD
BRANCH  14  17
ATOM     17  C   UNL     1      -0.507  -3.047   2.448  1.00  0.00     0.207 C 
BRANCH  17  18
ATOM     18  C   UNL     1       0.533  -2.339   1.573  1.00  0.00     0.077 C 
BRANCH  18  19
ATOM     19  C   UNL     1       1.705  -3.240   1.254  1.00  0.00    -0.043 A 
ATOM     20  C   UNL     1       3.990  -3.527   0.494  1.00  0.00     0.083 A 
ATOM     21  C   UNL     1       2.927  -2.691   0.836  1.00  0.00     0.028 A 
ATOM     22  C   UNL     1       3.841  -4.913   0.566  1.00  0.00     0.134 A 
ATOM     23  C   UNL     1       2.636  -5.470   0.979  1.00  0.00     0.048 A 
ATOM     24  C   UNL     1       1.569  -4.635   1.319  1.00  0.00     0.008 A 
ATOM     25  Cl  UNL     1       5.484  -2.834  -0.018  1.00  0.00    -0.080 Cl
BRANCH  22  26
ATOM     26  O   UNL     1       4.851  -5.772   0.232  1.00  0.00    -0.506 OA
ATOM     27  H   UNL     1       5.586  -5.594   0.847  1.00  0.00     0.293 HD
ENDBRANCH  22  26
ENDBRANCH  18  19
ENDBRANCH  17  18
BRANCH  17  28
ATOM     28  O   UNL     1      -1.771  -2.374   2.324  1.00  0.00    -0.383 OA
ATOM     29  H   UNL     1      -1.897  -2.207   1.362  1.00  0.00     0.211 HD
ENDBRANCH  17  28
ENDBRANCH  14  17
ENDBRANCH  12  13
BRANCH  12  30
ATOM     30  C   UNL     1       0.983  -6.030   5.952  1.00  0.00     0.018 C 
ATOM     31  C   UNL     1       1.424  -6.302   7.399  1.00  0.00     0.010 C 
BRANCH  30  32
ATOM     32  C   UNL     1       2.198  -6.133   4.998  1.00  0.00     0.002 C 
ATOM     33  C   UNL     1       3.258  -5.053   5.174  1.00  0.00     0.004 C 
ENDBRANCH  30  32
ENDBRANCH  12  30
ENDBRANCH  10  12
ENDBRANCH   1  10
BRANCH   5  34
ATOM     34  C   UNL     1      -1.889  -4.299   9.906  1.00  0.00     0.242 C 
ATOM     35  O   UNL     1      -1.729  -4.511  11.108  1.00  0.00    -0.273 OA
ATOM     36  N   UNL     1      -3.043  -4.645   9.241  1.00  0.00    -0.354 N 
ATOM     37  H   UNL     1      -3.071  -4.556   8.224  1.00  0.00     0.163 HD
BRANCH  36  38
ATOM     38  C   UNL     1      -4.251  -5.035   9.939  1.00  0.00     0.116 C 
BRANCH  38  39
ATOM     39  C   UNL     1      -4.982  -6.116   9.148  1.00  0.00     0.023 C 
BRANCH  39  40
ATOM     40  C   UNL     1      -6.496  -5.939   9.179  1.00  0.00     0.026 C 
BRANCH  40  41
ATOM     41  C   UNL     1      -7.071  -5.935   7.762  1.00  0.00     0.146 C 
BRANCH  41  42
ATOM     42  N   UNL     1      -8.419  -5.383   7.779  1.00  0.00    -0.254 NA
ATOM     43  C   UNL     1      -9.420  -6.161   7.958  1.00  0.00     0.185 C 
ATOM     44  N   UNL     1      -9.458  -7.492   8.149  1.00  0.00    -0.370 N 
ATOM     45  N   UNL     1     -10.655  -5.633   7.966  1.00  0.00    -0.370 N 
ATOM     46  H   UNL     1     -10.316  -8.003   8.031  1.00  0.00     0.159 HD
ATOM     47  H   UNL     1      -8.610  -8.050   8.184  1.00  0.00     0.159 HD
ATOM     48  H   UNL     1     -10.715  -4.632   7.838  1.00  0.00     0.159 HD
ATOM     49  H   UNL     1     -11.453  -6.122   8.330  1.00  0.00     0.159 HD
ENDBRANCH  41  42
ENDBRANCH  40  41
ENDBRANCH  39  40
ENDBRANCH  38  39
ENDBRANCH  36  38
ENDBRANCH   5  34
BRANCH   8  50
ATOM     50  O   UNL     1      -4.508  -0.760   8.128  1.00  0.00    -0.245 OA
BRANCH  50  51
ATOM     51  S   UNL     1      -6.019  -1.290   7.837  1.00  0.00     0.397 S 
ATOM     52  O   UNL     1      -6.235  -2.479   8.629  1.00  0.00    -0.169 OA
ATOM     53  O   UNL     1      -6.274  -1.270   6.411  1.00  0.00    -0.169 OA
BRANCH  51  54
ATOM     54  O   UNL     1      -6.914  -0.141   8.517  1.00  0.00    -0.264 OA
ATOM     55  H   UNL     1      -6.333   0.379   9.110  1.00  0.00     0.236 HD
ENDBRANCH  51  54
ENDBRANCH  50  51
ENDBRANCH   8  50
TORSDOF 19
ENDMDL
MODEL 47
REMARK VINA RESULT:    -5.935     11.639     15.653
REMARK INTER + INTRA:         -16.580
REMARK INTER:                 -12.989
REMARK INTRA:                  -3.591
REMARK UNBOUND:                -4.573
REMARK SMILES CC[C@@H](C)[C@@H](NC(=O)[C@@H](O)Cc1ccc(O)c(Cl)c1)C(=O)N1[C@H](C(=O)NCCCCN=C(N)N)C[C@H]2CC[C@H](OS(=O)(=O)O)C[C@@H]21
REMARK SMILES IDX 22 1 36 2 46 3 35 4 23 5 45 6 37 7 39 8 38 9 20 10 21 11
REMARK SMILES IDX 5 12 6 13 7 14 8 15 9 17 11 18 12 19 17 20 19 21 15 22 14 23
REMARK SMILES IDX 13 24 18 25 16 26 10 28 3 30 4 31 2 32 1 33 24 34 25 35
REMARK SMILES IDX 26 36 27 38 28 39 29 40 30 41 31 42 32 43 33 44 34 45 40 50
REMARK SMILES IDX 41 51 42 52 43 53 44 54
REMARK H PARENT 6 16 16 27 10 29 26 37 33 46 33 47 34 48 34 49 44 55
ROOT
ATOM      1  N   UNL     1       0.370  -9.277   0.829  1.00  0.00    -0.326 N 
ATOM      2  C   UNL     1       2.336  -9.190  -0.463  1.00  0.00     0.014 C 
ATOM      3  C   UNL     1       0.958  -9.854  -0.383  1.00  0.00     0.091 C 
ATOM      4  C   UNL     1       2.725  -9.049   1.001  1.00  0.00     0.041 C 
ATOM      5  C   UNL     1       1.401  -8.524   1.585  1.00  0.00     0.175 C 
ATOM      6  C   UNL     1       0.239  -9.634  -1.713  1.00  0.00     0.059 C 
ATOM      7  C   UNL     1       3.250  -9.949  -1.405  1.00  0.00     0.008 C 
ATOM      8  C   UNL     1       1.187  -9.570  -2.929  1.00  0.00     0.143 C 
ATOM      9  C   UNL     1       2.493 -10.354  -2.688  1.00  0.00     0.034 C 
ENDROOT
BRANCH   1  10
ATOM     10  C   UNL     1      -0.859  -9.516   1.419  1.00  0.00     0.246 C 
ATOM     11  O   UNL     1      -1.122 -10.654   1.823  1.00  0.00    -0.272 OA
BRANCH  10  12
ATOM     12  C   UNL     1      -1.864  -8.342   1.601  1.00  0.00     0.174 C 
BRANCH  12  13
ATOM     13  N   UNL     1      -1.913  -7.939   3.006  1.00  0.00    -0.342 N 
ATOM     14  C   UNL     1      -1.883  -6.639   3.457  1.00  0.00     0.249 C 
ATOM     15  O   UNL     1      -1.840  -5.662   2.719  1.00  0.00    -0.272 OA
ATOM     16  H   UNL     1      -1.792  -8.639   3.734  1.00  0.00     0.164 HD
BRANCH  14  17
ATOM     17  C   UNL     1      -1.931  -6.541   4.997  1.00  0.00     0.207 C 
BRANCH  17  18
ATOM     18  C   UNL     1      -0.536  -6.760   5.591  1.00  0.00     0.077 C 
BRANCH  18  19
ATOM     19  C   UNL     1      -0.004  -5.509   6.252  1.00  0.00    -0.043 A 
ATOM     20  C   UNL     1      -0.183  -3.133   6.707  1.00  0.00     0.083 A 
ATOM     21  C   UNL     1      -0.702  -4.296   6.138  1.00  0.00     0.028 A 
ATOM     22  C   UNL     1       1.033  -3.172   7.391  1.00  0.00     0.134 A 
ATOM     23  C   UNL     1       1.734  -4.366   7.512  1.00  0.00     0.048 A 
ATOM     24  C   UNL     1       1.218  -5.532   6.941  1.00  0.00     0.008 A 
ATOM     25  Cl  UNL     1      -1.054  -1.652   6.555  1.00  0.00    -0.080 Cl
BRANCH  22  26
ATOM     26  O   UNL     1       1.587  -2.055   7.956  1.00  0.00    -0.506 OA
ATOM     27  H   UNL     1       0.915  -1.351   7.901  1.00  0.00     0.293 HD
ENDBRANCH  22  26
ENDBRANCH  18  19
ENDBRANCH  17  18
BRANCH  17  28
ATOM     28  O   UNL     1      -2.841  -7.507   5.548  1.00  0.00    -0.383 OA
ATOM     29  H   UNL     1      -2.895  -8.236   4.890  1.00  0.00     0.211 HD
ENDBRANCH  17  28
ENDBRANCH  14  17
ENDBRANCH  12  13
BRANCH  12  30
ATOM     30  C   UNL     1      -3.271  -8.662   1.027  1.00  0.00     0.018 C 
ATOM     31  C   UNL     1      -4.190  -9.229   2.120  1.00  0.00     0.010 C 
BRANCH  30  32
ATOM     32  C   UNL     1      -3.243  -9.616  -0.192  1.00  0.00     0.002 C 
ATOM     33  C   UNL     1      -4.124 -10.852  -0.072  1.00  0.00     0.004 C 
ENDBRANCH  30  32
ENDBRANCH  12  30
ENDBRANCH  10  12
ENDBRANCH   1  10
BRANCH   5  34
ATOM     34  C   UNL     1       1.242  -6.997   1.360  1.00  0.00     0.242 C 
ATOM     35  O   UNL     1       0.718  -6.532   0.349  1.00  0.00    -0.273 OA
ATOM     36  N   UNL     1       1.778  -6.201   2.347  1.00  0.00    -0.354 N 
ATOM     37  H   UNL     1       2.306  -6.641   3.102  1.00  0.00     0.163 HD
BRANCH  36  38
ATOM     38  C   UNL     1       1.534  -4.774   2.408  1.00  0.00     0.116 C 
BRANCH  38  39
ATOM     39  C   UNL     1       2.257  -4.175   3.612  1.00  0.00     0.023 C 
BRANCH  39  40
ATOM     40  C   UNL     1       1.986  -2.683   3.772  1.00  0.00     0.026 C 
BRANCH  40  41
ATOM     41  C   UNL     1       3.202  -1.972   4.366  1.00  0.00     0.146 C 
BRANCH  41  42
ATOM     42  N   UNL     1       2.765  -0.992   5.352  1.00  0.00    -0.254 NA
ATOM     43  C   UNL     1       3.637  -0.334   6.020  1.00  0.00     0.185 C 
ATOM     44  N   UNL     1       4.981  -0.384   5.974  1.00  0.00    -0.370 N 
ATOM     45  N   UNL     1       3.214   0.561   6.928  1.00  0.00    -0.370 N 
ATOM     46  H   UNL     1       5.535   0.004   6.718  1.00  0.00     0.159 HD
ATOM     47  H   UNL     1       5.470  -1.000   5.331  1.00  0.00     0.159 HD
ATOM     48  H   UNL     1       2.213   0.668   7.020  1.00  0.00     0.159 HD
ATOM     49  H   UNL     1       3.813   1.271   7.311  1.00  0.00     0.159 HD
ENDBRANCH  41  42
ENDBRANCH  40  41
ENDBRANCH  39  40
ENDBRANCH  38  39
ENDBRANCH  36  38
ENDBRANCH   5  34
BRANCH   8  50
ATOM     50  O   UNL     1       1.520  -8.213  -3.221  1.00  0.00    -0.245 OA
BRANCH  50  51
ATOM     51  S   UNL     1       2.150  -7.834  -4.672  1.00  0.00     0.397 S 
ATOM     52  O   UNL     1       1.622  -8.766  -5.644  1.00  0.00    -0.169 OA
ATOM     53  O   UNL     1       3.573  -7.600  -4.539  1.00  0.00    -0.169 OA
BRANCH  51  54
ATOM     54  O   UNL     1       1.443  -6.425  -4.987  1.00  0.00    -0.264 OA
ATOM     55  H   UNL     1       1.685  -6.167  -5.900  1.00  0.00     0.236 HD
ENDBRANCH  51  54
ENDBRANCH  50  51
ENDBRANCH   8  50
TORSDOF 19
ENDMDL
MODEL 48
REMARK VINA RESULT:    -5.920      4.036      8.592
REMARK INTER + INTRA:         -16.549
REMARK INTER:                 -12.751
REMARK INTRA:                  -3.798
REMARK UNBOUND:                -4.573
REMARK SMILES CC[C@@H](C)[C@@H](NC(=O)[C@@H](O)Cc1ccc(O)c(Cl)c1)C(=O)N1[C@H](C(=O)NCCCCN=C(N)N)C[C@H]2CC[C@H](OS(=O)(=O)O)C[C@@H]21
REMARK SMILES IDX 22 1 36 2 46 3 35 4 23 5 45 6 37 7 39 8 38 9 20 10 21 11
REMARK SMILES IDX 5 12 6 13 7 14 8 15 9 17 11 18 12 19 17 20 19 21 15 22 14 23
REMARK SMILES IDX 13 24 18 25 16 26 10 28 3 30 4 31 2 32 1 33 24 34 25 35
REMARK SMILES IDX 26 36 27 38 28 39 29 40 30 41 31 42 32 43 33 44 34 45 40 50
REMARK SMILES IDX 41 51 42 52 43 53 44 54
REMARK H PARENT 6 16 16 27 10 29 26 37 33 46 33 47 34 48 34 49 44 55
ROOT
ATOM      1  N   UNL     1       8.279   0.503  -0.838  1.00  0.00    -0.326 N 
ATOM      2  C   UNL     1       6.590  -1.118  -1.078  1.00  0.00     0.014 C 
ATOM      3  C   UNL     1       7.853  -0.784  -0.281  1.00  0.00     0.091 C 
ATOM      4  C   UNL     1       6.904  -0.554  -2.455  1.00  0.00     0.041 C 
ATOM      5  C   UNL     1       7.499   0.810  -2.062  1.00  0.00     0.175 C 
ATOM      6  C   UNL     1       7.517  -0.853   1.208  1.00  0.00     0.059 C 
ATOM      7  C   UNL     1       6.233  -2.585  -0.939  1.00  0.00     0.008 C 
ATOM      8  C   UNL     1       6.432  -1.896   1.552  1.00  0.00     0.143 C 
ATOM      9  C   UNL     1       6.388  -3.046   0.526  1.00  0.00     0.034 C 
ENDROOT
BRANCH   1  10
ATOM     10  C   UNL     1       9.375   1.288  -0.522  1.00  0.00     0.246 C 
ATOM     11  O   UNL     1       9.321   2.025   0.468  1.00  0.00    -0.272 OA
BRANCH  10  12
ATOM     12  C   UNL     1      10.662   1.194  -1.392  1.00  0.00     0.174 C 
BRANCH  12  13
ATOM     13  N   UNL     1      10.491   1.968  -2.621  1.00  0.00    -0.342 N 
ATOM     14  C   UNL     1      11.368   2.924  -3.082  1.00  0.00     0.249 C 
ATOM     15  O   UNL     1      12.417   3.215  -2.519  1.00  0.00    -0.272 OA
ATOM     16  H   UNL     1       9.598   1.949  -3.108  1.00  0.00     0.164 HD
BRANCH  14  17
ATOM     17  C   UNL     1      10.899   3.578  -4.399  1.00  0.00     0.207 C 
BRANCH  17  18
ATOM     18  C   UNL     1       9.557   4.289  -4.196  1.00  0.00     0.077 C 
BRANCH  18  19
ATOM     19  C   UNL     1       9.674   5.443  -3.225  1.00  0.00    -0.043 A 
ATOM     20  C   UNL     1      10.546   7.635  -2.660  1.00  0.00     0.083 A 
ATOM     21  C   UNL     1      10.399   6.593  -3.576  1.00  0.00     0.028 A 
ATOM     22  C   UNL     1       9.974   7.535  -1.391  1.00  0.00     0.134 A 
ATOM     23  C   UNL     1       9.255   6.402  -1.031  1.00  0.00     0.048 A 
ATOM     24  C   UNL     1       9.107   5.357  -1.945  1.00  0.00     0.008 A 
ATOM     25  Cl  UNL     1      11.440   9.040  -3.110  1.00  0.00    -0.080 Cl
BRANCH  22  26
ATOM     26  O   UNL     1      10.101   8.526  -0.456  1.00  0.00    -0.506 OA
ATOM     27  H   UNL     1      10.853   8.280   0.113  1.00  0.00     0.293 HD
ENDBRANCH  22  26
ENDBRANCH  18  19
ENDBRANCH  17  18
BRANCH  17  28
ATOM     28  O   UNL     1      10.767   2.600  -5.443  1.00  0.00    -0.383 OA
ATOM     29  H   UNL     1      10.090   2.954  -6.063  1.00  0.00     0.211 HD
ENDBRANCH  17  28
ENDBRANCH  14  17
ENDBRANCH  12  13
BRANCH  12  30
ATOM     30  C   UNL     1      11.093  -0.271  -1.670  1.00  0.00     0.018 C 
ATOM     31  C   UNL     1      12.619  -0.421  -1.567  1.00  0.00     0.010 C 
BRANCH  30  32
ATOM     32  C   UNL     1      10.595  -0.818  -3.030  1.00  0.00     0.002 C 
ATOM     33  C   UNL     1      10.079  -2.250  -3.007  1.00  0.00     0.004 C 
ENDBRANCH  30  32
ENDBRANCH  12  30
ENDBRANCH  10  12
ENDBRANCH   1  10
BRANCH   5  34
ATOM     34  C   UNL     1       6.389   1.853  -1.760  1.00  0.00     0.242 C 
ATOM     35  O   UNL     1       6.382   2.526  -0.730  1.00  0.00    -0.273 OA
ATOM     36  N   UNL     1       5.387   1.930  -2.701  1.00  0.00    -0.354 N 
ATOM     37  H   UNL     1       5.385   1.262  -3.473  1.00  0.00     0.163 HD
BRANCH  36  38
ATOM     38  C   UNL     1       4.397   2.987  -2.691  1.00  0.00     0.116 C 
BRANCH  38  39
ATOM     39  C   UNL     1       3.024   2.407  -2.361  1.00  0.00     0.023 C 
BRANCH  39  40
ATOM     40  C   UNL     1       2.804   2.249  -0.861  1.00  0.00     0.026 C 
BRANCH  40  41
ATOM     41  C   UNL     1       3.068   0.808  -0.423  1.00  0.00     0.146 C 
BRANCH  41  42
ATOM     42  N   UNL     1       1.826   0.197   0.033  1.00  0.00    -0.254 NA
ATOM     43  C   UNL     1       1.775  -1.068   0.220  1.00  0.00     0.185 C 
ATOM     44  N   UNL     1       2.728  -2.006   0.062  1.00  0.00    -0.370 N 
ATOM     45  N   UNL     1       0.620  -1.613   0.637  1.00  0.00    -0.370 N 
ATOM     46  H   UNL     1       2.485  -2.980   0.008  1.00  0.00     0.159 HD
ATOM     47  H   UNL     1       3.668  -1.765  -0.235  1.00  0.00     0.159 HD
ATOM     48  H   UNL     1      -0.148  -0.974   0.789  1.00  0.00     0.159 HD
ATOM     49  H   UNL     1       0.565  -2.537   1.027  1.00  0.00     0.159 HD
ENDBRANCH  41  42
ENDBRANCH  40  41
ENDBRANCH  39  40
ENDBRANCH  38  39
ENDBRANCH  36  38
ENDBRANCH   5  34
BRANCH   8  50
ATOM     50  O   UNL     1       5.148  -1.273   1.591  1.00  0.00    -0.245 OA
BRANCH  50  51
ATOM     51  S   UNL     1       4.506  -0.847   3.023  1.00  0.00     0.397 S 
ATOM     52  O   UNL     1       3.313  -1.637   3.231  1.00  0.00    -0.169 OA
ATOM     53  O   UNL     1       4.489   0.597   3.138  1.00  0.00    -0.169 OA
BRANCH  51  54
ATOM     54  O   UNL     1       5.594  -1.414   4.062  1.00  0.00    -0.264 OA
ATOM     55  H   UNL     1       5.118  -1.946   4.732  1.00  0.00     0.236 HD
ENDBRANCH  51  54
ENDBRANCH  50  51
ENDBRANCH   8  50
TORSDOF 19
ENDMDL
MODEL 49
REMARK VINA RESULT:    -5.892      8.405     12.080
REMARK INTER + INTRA:         -16.493
REMARK INTER:                 -11.709
REMARK INTRA:                  -4.784
REMARK UNBOUND:                -4.573
REMARK SMILES CC[C@@H](C)[C@@H](NC(=O)[C@@H](O)Cc1ccc(O)c(Cl)c1)C(=O)N1[C@H](C(=O)NCCCCN=C(N)N)C[C@H]2CC[C@H](OS(=O)(=O)O)C[C@@H]21
REMARK SMILES IDX 22 1 36 2 46 3 35 4 23 5 45 6 37 7 39 8 38 9 20 10 21 11
REMARK SMILES IDX 5 12 6 13 7 14 8 15 9 17 11 18 12 19 17 20 19 21 15 22 14 23
REMARK SMILES IDX 13 24 18 25 16 26 10 28 3 30 4 31 2 32 1 33 24 34 25 35
REMARK SMILES IDX 26 36 27 38 28 39 29 40 30 41 31 42 32 43 33 44 34 45 40 50
REMARK SMILES IDX 41 51 42 52 43 53 44 54
REMARK H PARENT 6 16 16 27 10 29 26 37 33 46 33 47 34 48 34 49 44 55
ROOT
ATOM      1  N   UNL     1      -0.431  -0.082   4.369  1.00  0.00    -0.326 N 
ATOM      2  C   UNL     1       0.148   2.076   3.627  1.00  0.00     0.014 C 
ATOM      3  C   UNL     1      -0.236   1.279   4.877  1.00  0.00     0.091 C 
ATOM      4  C   UNL     1      -0.673   1.405   2.537  1.00  0.00     0.041 C 
ATOM      5  C   UNL     1      -0.431  -0.075   2.885  1.00  0.00     0.175 C 
ATOM      6  C   UNL     1       0.833   1.509   5.944  1.00  0.00     0.059 C 
ATOM      7  C   UNL     1      -0.008   3.566   3.865  1.00  0.00     0.008 C 
ATOM      8  C   UNL     1       1.485   2.907   5.879  1.00  0.00     0.143 C 
ATOM      9  C   UNL     1       0.545   3.956   5.252  1.00  0.00     0.034 C 
ENDROOT
BRANCH   1  10
ATOM     10  C   UNL     1      -0.806  -1.234   5.038  1.00  0.00     0.246 C 
ATOM     11  O   UNL     1      -1.754  -1.899   4.606  1.00  0.00    -0.272 OA
BRANCH  10  12
ATOM     12  C   UNL     1      -0.004  -1.689   6.292  1.00  0.00     0.174 C 
BRANCH  12  13
ATOM     13  N   UNL     1       0.917  -2.766   5.930  1.00  0.00    -0.342 N 
ATOM     14  C   UNL     1       2.289  -2.657   5.904  1.00  0.00     0.249 C 
ATOM     15  O   UNL     1       2.899  -1.641   6.211  1.00  0.00    -0.272 OA
ATOM     16  H   UNL     1       0.555  -3.616   5.504  1.00  0.00     0.164 HD
BRANCH  14  17
ATOM     17  C   UNL     1       2.982  -3.965   5.464  1.00  0.00     0.207 C 
BRANCH  17  18
ATOM     18  C   UNL     1       2.967  -4.988   6.604  1.00  0.00     0.077 C 
BRANCH  18  19
ATOM     19  C   UNL     1       2.302  -6.282   6.190  1.00  0.00    -0.043 A 
ATOM     20  C   UNL     1       1.489  -7.765   4.452  1.00  0.00     0.083 A 
ATOM     21  C   UNL     1       2.147  -6.594   4.831  1.00  0.00     0.028 A 
ATOM     22  C   UNL     1       0.982  -8.627   5.425  1.00  0.00     0.134 A 
ATOM     23  C   UNL     1       1.129  -8.330   6.774  1.00  0.00     0.048 A 
ATOM     24  C   UNL     1       1.786  -7.158   7.157  1.00  0.00     0.008 A 
ATOM     25  Cl  UNL     1       1.307  -8.132   2.776  1.00  0.00    -0.080 Cl
BRANCH  22  26
ATOM     26  O   UNL     1       0.320  -9.781   5.101  1.00  0.00    -0.506 OA
ATOM     27  H   UNL     1       0.067  -9.705   4.163  1.00  0.00     0.293 HD
ENDBRANCH  22  26
ENDBRANCH  18  19
ENDBRANCH  17  18
BRANCH  17  28
ATOM     28  O   UNL     1       4.339  -3.721   5.060  1.00  0.00    -0.383 OA
ATOM     29  H   UNL     1       4.406  -2.751   4.904  1.00  0.00     0.211 HD
ENDBRANCH  17  28
ENDBRANCH  14  17
ENDBRANCH  12  13
BRANCH  12  30
ATOM     30  C   UNL     1      -0.921  -2.069   7.486  1.00  0.00     0.018 C 
ATOM     31  C   UNL     1      -1.679  -0.838   8.005  1.00  0.00     0.010 C 
BRANCH  30  32
ATOM     32  C   UNL     1      -0.170  -2.762   8.649  1.00  0.00     0.002 C 
ATOM     33  C   UNL     1      -0.403  -4.262   8.772  1.00  0.00     0.004 C 
ENDBRANCH  30  32
ENDBRANCH  12  30
ENDBRANCH  10  12
ENDBRANCH   1  10
BRANCH   5  34
ATOM     34  C   UNL     1       0.929  -0.577   2.332  1.00  0.00     0.242 C 
ATOM     35  O   UNL     1       1.866  -0.885   3.069  1.00  0.00    -0.273 OA
ATOM     36  N   UNL     1       1.030  -0.602   0.959  1.00  0.00    -0.354 N 
ATOM     37  H   UNL     1       0.264  -0.221   0.403  1.00  0.00     0.163 HD
BRANCH  36  38
ATOM     38  C   UNL     1       2.137  -1.239   0.276  1.00  0.00     0.116 C 
BRANCH  38  39
ATOM     39  C   UNL     1       3.066  -0.178  -0.308  1.00  0.00     0.023 C 
BRANCH  39  40
ATOM     40  C   UNL     1       4.453  -0.728  -0.623  1.00  0.00     0.026 C 
BRANCH  40  41
ATOM     41  C   UNL     1       5.468  -0.268   0.424  1.00  0.00     0.146 C 
BRANCH  41  42
ATOM     42  N   UNL     1       5.191  -0.919   1.698  1.00  0.00    -0.254 NA
ATOM     43  C   UNL     1       5.171  -0.223   2.773  1.00  0.00     0.185 C 
ATOM     44  N   UNL     1       5.374   1.094   2.955  1.00  0.00    -0.370 N 
ATOM     45  N   UNL     1       4.918  -0.843   3.937  1.00  0.00    -0.370 N 
ATOM     46  H   UNL     1       5.570   1.461   3.870  1.00  0.00     0.159 HD
ATOM     47  H   UNL     1       5.565   1.717   2.176  1.00  0.00     0.159 HD
ATOM     48  H   UNL     1       4.745  -1.837   3.888  1.00  0.00     0.159 HD
ATOM     49  H   UNL     1       4.653  -0.347   4.770  1.00  0.00     0.159 HD
ENDBRANCH  41  42
ENDBRANCH  40  41
ENDBRANCH  39  40
ENDBRANCH  38  39
ENDBRANCH  36  38
ENDBRANCH   5  34
BRANCH   8  50
ATOM     50  O   UNL     1       2.685   2.853   5.106  1.00  0.00    -0.245 OA
BRANCH  50  51
ATOM     51  S   UNL     1       4.125   2.834   5.861  1.00  0.00     0.397 S 
ATOM     52  O   UNL     1       4.566   1.460   5.948  1.00  0.00    -0.169 OA
ATOM     53  O   UNL     1       4.075   3.691   7.027  1.00  0.00    -0.169 OA
BRANCH  51  54
ATOM     54  O   UNL     1       5.082   3.533   4.774  1.00  0.00    -0.264 OA
ATOM     55  H   UNL     1       4.522   4.094   4.200  1.00  0.00     0.236 HD
ENDBRANCH  51  54
ENDBRANCH  50  51
ENDBRANCH   8  50
TORSDOF 19
ENDMDL
MODEL 50
REMARK VINA RESULT:    -5.864     11.154     15.104
REMARK INTER + INTRA:         -16.435
REMARK INTER:                 -12.752
REMARK INTRA:                  -3.683
REMARK UNBOUND:                -4.573
REMARK SMILES CC[C@@H](C)[C@@H](NC(=O)[C@@H](O)Cc1ccc(O)c(Cl)c1)C(=O)N1[C@H](C(=O)NCCCCN=C(N)N)C[C@H]2CC[C@H](OS(=O)(=O)O)C[C@@H]21
REMARK SMILES IDX 22 1 36 2 46 3 35 4 23 5 45 6 37 7 39 8 38 9 20 10 21 11
REMARK SMILES IDX 5 12 6 13 7 14 8 15 9 17 11 18 12 19 17 20 19 21 15 22 14 23
REMARK SMILES IDX 13 24 18 25 16 26 10 28 3 30 4 31 2 32 1 33 24 34 25 35
REMARK SMILES IDX 26 36 27 38 28 39 29 40 30 41 31 42 32 43 33 44 34 45 40 50
REMARK SMILES IDX 41 51 42 52 43 53 44 54
REMARK H PARENT 6 16 16 27 10 29 26 37 33 46 33 47 34 48 34 49 44 55
ROOT
ATOM      1  N   UNL     1       0.430  -6.985   2.744  1.00  0.00    -0.326 N 
ATOM      2  C   UNL     1      -0.961  -5.295   3.610  1.00  0.00     0.014 C 
ATOM      3  C   UNL     1      -0.485  -6.728   3.860  1.00  0.00     0.091 C 
ATOM      4  C   UNL     1      -1.014  -5.219   2.092  1.00  0.00     0.041 C 
ATOM      5  C   UNL     1       0.321  -5.899   1.739  1.00  0.00     0.175 C 
ATOM      6  C   UNL     1       0.066  -6.813   5.282  1.00  0.00     0.059 C 
ATOM      7  C   UNL     1      -2.210  -4.991   4.414  1.00  0.00     0.008 C 
ATOM      8  C   UNL     1      -0.635  -5.864   6.278  1.00  0.00     0.143 C 
ATOM      9  C   UNL     1      -2.081  -5.541   5.850  1.00  0.00     0.034 C 
ENDROOT
BRANCH   1  10
ATOM     10  C   UNL     1       1.150  -8.125   2.431  1.00  0.00     0.246 C 
ATOM     11  O   UNL     1       1.664  -8.781   3.343  1.00  0.00    -0.272 OA
BRANCH  10  12
ATOM     12  C   UNL     1       1.262  -8.578   0.946  1.00  0.00     0.174 C 
BRANCH  12  13
ATOM     13  N   UNL     1       0.140  -9.452   0.606  1.00  0.00    -0.342 N 
ATOM     14  C   UNL     1      -0.904  -9.112  -0.225  1.00  0.00     0.249 C 
ATOM     15  O   UNL     1      -0.994  -8.034  -0.800  1.00  0.00    -0.272 OA
ATOM     16  H   UNL     1      -0.003 -10.314   1.127  1.00  0.00     0.164 HD
BRANCH  14  17
ATOM     17  C   UNL     1      -1.942 -10.245  -0.372  1.00  0.00     0.207 C 
BRANCH  17  18
ATOM     18  C   UNL     1      -3.364  -9.685  -0.267  1.00  0.00     0.077 C 
BRANCH  18  19
ATOM     19  C   UNL     1      -3.762  -9.426   1.168  1.00  0.00    -0.043 A 
ATOM     20  C   UNL     1      -4.896 -10.126   3.195  1.00  0.00     0.083 A 
ATOM     21  C   UNL     1      -4.488 -10.389   1.887  1.00  0.00     0.028 A 
ATOM     22  C   UNL     1      -4.583  -8.904   3.792  1.00  0.00     0.134 A 
ATOM     23  C   UNL     1      -3.865  -7.942   3.092  1.00  0.00     0.048 A 
ATOM     24  C   UNL     1      -3.457  -8.201   1.782  1.00  0.00     0.008 A 
ATOM     25  Cl  UNL     1      -5.787 -11.321   4.062  1.00  0.00    -0.080 Cl
BRANCH  22  26
ATOM     26  O   UNL     1      -4.971  -8.597   5.068  1.00  0.00    -0.506 OA
ATOM     27  H   UNL     1      -4.266  -8.920   5.660  1.00  0.00     0.293 HD
ENDBRANCH  22  26
ENDBRANCH  18  19
ENDBRANCH  17  18
BRANCH  17  28
ATOM     28  O   UNL     1      -1.752 -11.254   0.632  1.00  0.00    -0.383 OA
ATOM     29  H   UNL     1      -0.779 -11.383   0.707  1.00  0.00     0.211 HD
ENDBRANCH  17  28
ENDBRANCH  14  17
ENDBRANCH  12  13
BRANCH  12  30
ATOM     30  C   UNL     1       2.636  -9.221   0.617  1.00  0.00     0.018 C 
ATOM     31  C   UNL     1       3.668  -8.145   0.244  1.00  0.00     0.010 C 
BRANCH  30  32
ATOM     32  C   UNL     1       2.567 -10.299  -0.493  1.00  0.00     0.002 C 
ATOM     33  C   UNL     1       2.881  -9.807  -1.899  1.00  0.00     0.004 C 
ENDBRANCH  30  32
ENDBRANCH  12  30
ENDBRANCH  10  12
ENDBRANCH   1  10
BRANCH   5  34
ATOM     34  C   UNL     1       1.514  -4.914   1.862  1.00  0.00     0.242 C 
ATOM     35  O   UNL     1       2.396  -5.050   2.710  1.00  0.00    -0.273 OA
ATOM     36  N   UNL     1       1.486  -3.848   0.991  1.00  0.00    -0.354 N 
ATOM     37  H   UNL     1       0.668  -3.723   0.393  1.00  0.00     0.163 HD
BRANCH  36  38
ATOM     38  C   UNL     1       2.616  -2.958   0.820  1.00  0.00     0.116 C 
BRANCH  38  39
ATOM     39  C   UNL     1       2.262  -1.565   1.335  1.00  0.00     0.023 C 
BRANCH  39  40
ATOM     40  C   UNL     1       3.457  -0.854   1.960  1.00  0.00     0.026 C 
BRANCH  40  41
ATOM     41  C   UNL     1       3.899  -1.560   3.241  1.00  0.00     0.146 C 
BRANCH  41  42
ATOM     42  N   UNL     1       5.165  -2.246   3.013  1.00  0.00    -0.254 NA
ATOM     43  C   UNL     1       5.396  -3.360   3.601  1.00  0.00     0.185 C 
ATOM     44  N   UNL     1       4.628  -4.065   4.452  1.00  0.00    -0.370 N 
ATOM     45  N   UNL     1       6.570  -3.974   3.381  1.00  0.00    -0.370 N 
ATOM     46  H   UNL     1       5.028  -4.790   5.023  1.00  0.00     0.159 HD
ATOM     47  H   UNL     1       3.700  -3.751   4.718  1.00  0.00     0.159 HD
ATOM     48  H   UNL     1       7.205  -3.513   2.744  1.00  0.00     0.159 HD
ATOM     49  H   UNL     1       6.729  -4.940   3.606  1.00  0.00     0.159 HD
ENDBRANCH  41  42
ENDBRANCH  40  41
ENDBRANCH  39  40
ENDBRANCH  38  39
ENDBRANCH  36  38
ENDBRANCH   5  34
BRANCH   8  50
ATOM     50  O   UNL     1       0.091  -4.639   6.383  1.00  0.00    -0.245 OA
BRANCH  50  51
ATOM     51  S   UNL     1       1.466  -4.593   7.252  1.00  0.00     0.397 S 
ATOM     52  O   UNL     1       2.533  -4.164   6.376  1.00  0.00    -0.169 OA
ATOM     53  O   UNL     1       1.577  -5.796   8.051  1.00  0.00    -0.169 OA
BRANCH  51  54
ATOM     54  O   UNL     1       1.193  -3.360   8.247  1.00  0.00    -0.264 OA
ATOM     55  H   UNL     1       1.994  -2.798   8.253  1.00  0.00     0.236 HD
ENDBRANCH  51  54
ENDBRANCH  50  51
ENDBRANCH   8  50
TORSDOF 19
ENDMDL
