MODEL 1
REMARK VINA RESULT:    -7.225      0.000      0.000
REMARK INTER + INTRA:         -29.197
REMARK INTER:                 -21.586
REMARK INTRA:                  -7.611
REMARK UNBOUND:                -7.611
REMARK SMILES C=C1C(=O)N[C@H](C)C(=O)N[C@@H](CC(C)C)C(=O)N[C@@H](C(=O)O)[C@H](C)C(=O)N[C@@H](CCCN=C(N)N)C(=O)N[C@@H](/C=C/C(C)=C/[C@H](C)[C@H](Cc2ccccc2)OC)[C@H](C)C(=O)N[C@@H](C(=O)O)CCC(=O)N1C
REMARK SMILES IDX 39 1 38 2 37 3 36 4 28 6 27 7 25 8 26 9 23 11 24 12 19 13
REMARK SMILES IDX 18 14 16 15 17 16 11 18 10 19 8 20 9 21 12 24 13 25 14 26
REMARK SMILES IDX 15 27 20 28 21 29 22 30 29 32 30 33 31 34 32 35 33 36 34 37
REMARK SMILES IDX 35 38 57 43 58 44 59 45 60 46 61 47 62 49 66 50 67 51 68 52
REMARK SMILES IDX 69 53 70 54 71 55 2 56 1 57 3 58 4 59 5 60 6 62 7 63 63 65
REMARK SMILES IDX 64 66 65 67 40 69 41 70 42 71 44 72 43 73 45 74 46 75 47 76
REMARK SMILES IDX 55 77 56 78 48 79 49 80 50 81 54 82 51 83 53 84 52 85
REMARK H PARENT 38 5 27 10 18 17 10 22 22 31 34 39 34 40 35 41 35 42 61 48
REMARK H PARENT 5 61 65 68
REMARK Flexibility Score:  369.900
ROOT
ATOM      1  C   UNL     1      -4.319  -1.264  -9.333  1.00  0.00     0.117 C 
ENDROOT
BRANCH   1   2
ATOM      2  N   UNL     1      -3.416  -0.175  -8.959  1.00  0.00    -0.347 N 
ATOM      3  O   UNL     1      -3.398  -0.548  -6.694  1.00  0.00    -0.273 OA
ATOM      4  C   UNL     1      -2.954   0.040  -7.674  1.00  0.00     0.243 C 
ATOM      5  H   UNL     1      -3.058   0.438  -9.675  1.00  0.00     0.164 HD
BRANCH   4   6
ATOM      6  C   UNL     1      -1.941   1.208  -7.564  1.00  0.00     0.171 C 
BRANCH   6   7
ATOM      7  N   UNL     1      -0.756   0.941  -8.394  1.00  0.00    -0.344 N 
ATOM      8  C   UNL     1       0.134  -0.052  -8.050  1.00  0.00     0.226 C 
ATOM      9  O   UNL     1       0.002  -0.738  -7.043  1.00  0.00    -0.275 OA
ATOM     10  H   UNL     1      -0.577   1.531  -9.197  1.00  0.00     0.164 HD
BRANCH   8  11
ATOM     11  C   UNL     1       1.274  -0.240  -9.036  1.00  0.00     0.109 C 
ATOM     12  C   UNL     1       1.888  -1.630  -8.872  1.00  0.00     0.021 C 
BRANCH  11  13
ATOM     13  C   UNL     1       0.790   0.091 -10.462  1.00  0.00     0.204 C 
BRANCH  13  14
ATOM     14  N   UNL     1       1.504   1.235 -11.036  1.00  0.00    -0.340 N 
ATOM     15  C   UNL     1       0.965   2.502 -11.093  1.00  0.00     0.243 C 
ATOM     16  O   UNL     1      -0.133   2.774 -10.610  1.00  0.00    -0.273 OA
ATOM     17  H   UNL     1       2.348   1.049 -11.585  1.00  0.00     0.164 HD
BRANCH  15  18
ATOM     18  C   UNL     1       1.810   3.498 -11.924  1.00  0.00     0.171 C 
BRANCH  18  19
ATOM     19  N   UNL     1       2.830   2.708 -12.613  1.00  0.00    -0.343 N 
ATOM     20  C   UNL     1       4.163   3.068 -12.597  1.00  0.00     0.242 CG0
ATOM     21  O   UNL     1       4.536   4.137 -12.119  1.00  0.00    -0.273 OA
ATOM     22  H   UNL     1       2.554   1.876 -13.122  1.00  0.00     0.164 HD
ATOM     23  G   UNL     1       5.100   2.071 -13.311  1.00  0.00     0.000 G0
ENDBRANCH  18  19
BRANCH  18  24
ATOM     24  C   UNL     1       0.926   4.262 -12.917  1.00  0.00     0.038 C 
BRANCH  24  25
ATOM     25  C   UNL     1       0.976   5.798 -12.775  1.00  0.00    -0.015 C 
ATOM     26  C   UNL     1       1.815   6.459 -13.868  1.00  0.00     0.007 C 
ATOM     27  C   UNL     1       1.535   6.169 -11.400  1.00  0.00     0.007 C 
ENDBRANCH  24  25
ENDBRANCH  18  24
ENDBRANCH  15  18
ENDBRANCH  13  14
BRANCH  13  28
ATOM     28  C   UNL     1       0.947  -1.079 -11.439  1.00  0.00     0.327 C 
ATOM     29  O   UNL     1       1.932  -1.326 -12.118  1.00  0.00    -0.250 OA
BRANCH  28  30
ATOM     30  O   UNL     1      -0.185  -1.796 -11.592  1.00  0.00    -0.480 OA
ATOM     31  H   UNL     1      -0.719  -1.575 -10.801  1.00  0.00     0.296 HD
ENDBRANCH  28  30
ENDBRANCH  13  28
ENDBRANCH  11  13
ENDBRANCH   8  11
ENDBRANCH   6   7
BRANCH   6  32
ATOM     32  C   UNL     1      -2.627   2.511  -7.990  1.00  0.00     0.037 C 
BRANCH  32  33
ATOM     33  C   UNL     1      -3.815   2.863  -7.084  1.00  0.00     0.026 C 
BRANCH  33  34
ATOM     34  C   UNL     1      -3.373   3.384  -5.716  1.00  0.00     0.146 C 
BRANCH  34  35
ATOM     35  N   UNL     1      -4.342   2.957  -4.716  1.00  0.00    -0.254 NA
ATOM     36  C   UNL     1      -4.089   1.911  -4.021  1.00  0.00     0.185 C 
ATOM     37  N   UNL     1      -4.973   1.512  -3.094  1.00  0.00    -0.370 N 
ATOM     38  N   UNL     1      -3.017   1.101  -4.075  1.00  0.00    -0.370 N 
ATOM     39  H   UNL     1      -5.804   2.079  -2.985  1.00  0.00     0.159 HD
ATOM     40  H   UNL     1      -4.772   0.815  -2.398  1.00  0.00     0.159 HD
ATOM     41  H   UNL     1      -2.998   0.228  -3.573  1.00  0.00     0.159 HD
ATOM     42  H   UNL     1      -2.278   1.271  -4.739  1.00  0.00     0.159 HD
ENDBRANCH  34  35
ENDBRANCH  33  34
ENDBRANCH  32  33
ENDBRANCH   6  32
ENDBRANCH   4   6
ENDBRANCH   1   2
BRANCH   1  43
ATOM     43  C   UNL     1      -3.466  -2.525  -9.656  1.00  0.00     0.102 C 
ATOM     44  C   UNL     1      -3.520  -2.936 -11.138  1.00  0.00     0.020 C 
BRANCH  43  45
ATOM     45  C   UNL     1      -3.779  -3.666  -8.683  1.00  0.00     0.225 C 
ATOM     46  O   UNL     1      -3.254  -4.773  -8.756  1.00  0.00    -0.275 OA
ATOM     47  N   UNL     1      -4.769  -3.404  -7.763  1.00  0.00    -0.342 N 
ATOM     48  H   UNL     1      -5.079  -2.454  -7.618  1.00  0.00     0.164 HD
BRANCH  47  49
ATOM     49  C   UNL     1      -5.149  -4.390  -6.746  1.00  0.00     0.192 C 
BRANCH  49  50
ATOM     50  C   UNL     1      -6.671  -4.559  -6.738  1.00  0.00     0.047 C 
BRANCH  50  51
ATOM     51  C   UNL     1      -7.399  -3.306  -7.244  1.00  0.00     0.103 C 
BRANCH  51  52
ATOM     52  C   UNL     1      -7.976  -2.477  -6.099  1.00  0.00     0.226 C 
ATOM     53  O   UNL     1      -8.117  -2.988  -4.986  1.00  0.00    -0.275 OA
BRANCH  52  54
ATOM     54  N   UNL     1      -8.247  -1.125  -6.378  1.00  0.00    -0.311 N 
ATOM     55  C   UNL     1      -7.538  -0.419  -7.454  1.00  0.00     0.153 C 
BRANCH  54  56
ATOM     56  C   UNL     1      -9.204  -0.403  -5.647  1.00  0.00     0.102 C 
ATOM     57  C   UNL     1      -8.922   0.544  -4.737  1.00  0.00     0.043 C 
BRANCH  56  58
ATOM     58  C   UNL     1     -10.681  -0.622  -5.876  1.00  0.00     0.268 C 
ATOM     59  O   UNL     1     -11.130  -1.177  -6.870  1.00  0.00    -0.268 OA
ATOM     60  N   UNL     1     -11.460  -0.195  -4.827  1.00  0.00    -0.339 N 
ATOM     61  H   UNL     1     -11.012   0.265  -4.043  1.00  0.00     0.164 HD
BRANCH  60  62
ATOM     62  C   UNL     1     -12.912  -0.367  -4.813  1.00  0.00     0.168 CG0
ATOM     63  C   UNL     1     -13.613   0.855  -5.393  1.00  0.00     0.041 C 
ATOM     64  G   UNL     1     -13.387  -0.637  -3.370  1.00  0.00     0.000 G0
ENDBRANCH  60  62
ENDBRANCH  56  58
ENDBRANCH  54  56
ENDBRANCH  52  54
ENDBRANCH  51  52
ENDBRANCH  50  51
ENDBRANCH  49  50
BRANCH  49  65
ATOM     65  C   UNL     1      -4.676  -3.970  -5.346  1.00  0.00     0.326 C 
ATOM     66  O   UNL     1      -4.837  -4.614  -4.319  1.00  0.00    -0.250 OA
BRANCH  65  67
ATOM     67  O   UNL     1      -4.089  -2.754  -5.289  1.00  0.00    -0.480 OA
ATOM     68  H   UNL     1      -4.402  -2.386  -4.435  1.00  0.00     0.296 HD
ENDBRANCH  65  67
ENDBRANCH  49  65
ENDBRANCH  47  49
ENDBRANCH  43  45
ENDBRANCH   1  43
BRANCH   1  69
ATOM     69  C   UNL     1      -5.237  -0.705 -10.404  1.00  0.00    -0.001 C 
ATOM     70  C   UNL     1      -5.322   0.570 -10.823  1.00  0.00     0.001 C 
BRANCH  70  71
ATOM     71  C   UNL     1      -6.197   1.094 -11.874  1.00  0.00    -0.055 C 
ATOM     72  C   UNL     1      -6.367   2.432 -11.939  1.00  0.00    -0.018 C 
ATOM     73  C   UNL     1      -6.839   0.105 -12.811  1.00  0.00     0.044 C 
BRANCH  72  74
ATOM     74  C   UNL     1      -7.204   3.249 -12.913  1.00  0.00     0.038 C 
ATOM     75  C   UNL     1      -6.403   4.514 -13.247  1.00  0.00     0.015 C 
BRANCH  74  76
ATOM     76  C   UNL     1      -8.601   3.510 -12.276  1.00  0.00     0.128 C 
BRANCH  76  77
ATOM     77  O   UNL     1      -9.517   2.471 -12.660  1.00  0.00    -0.381 OA
ATOM     78  C   UNL     1      -9.986   1.691 -11.568  1.00  0.00     0.195 C 
ENDBRANCH  76  77
BRANCH  76  79
ATOM     79  C   UNL     1      -8.562   3.739 -10.744  1.00  0.00     0.068 C 
BRANCH  79  80
ATOM     80  C   UNL     1      -8.735   5.150 -10.236  1.00  0.00    -0.045 A 
ATOM     81  C   UNL     1      -9.158   6.178 -11.089  1.00  0.00     0.004 A 
ATOM     82  C   UNL     1      -8.446   5.460  -8.898  1.00  0.00     0.004 A 
ATOM     83  C   UNL     1      -9.302   7.483 -10.614  1.00  0.00     0.000 A 
ATOM     84  C   UNL     1      -8.590   6.766  -8.424  1.00  0.00     0.000 A 
ATOM     85  C   UNL     1      -9.020   7.777  -9.281  1.00  0.00     0.000 A 
ENDBRANCH  79  80
ENDBRANCH  76  79
ENDBRANCH  74  76
ENDBRANCH  72  74
ENDBRANCH  70  71
ENDBRANCH   1  69
TORSDOF 17
ENDMDL
MODEL 2
REMARK VINA RESULT:    -6.777      4.702     12.768
REMARK INTER + INTRA:         -27.858
REMARK INTER:                 -20.654
REMARK INTRA:                  -7.204
REMARK UNBOUND:                -7.611
REMARK SMILES C=C1C(=O)N[C@H](C)C(=O)N[C@@H](CC(C)C)C(=O)N[C@@H](C(=O)O)[C@H](C)C(=O)N[C@@H](CCCN=C(N)N)C(=O)N[C@@H](/C=C/C(C)=C/[C@H](C)[C@H](Cc2ccccc2)OC)[C@H](C)C(=O)N[C@@H](C(=O)O)CCC(=O)N1C
REMARK SMILES IDX 39 1 38 2 37 3 36 4 28 6 27 7 25 8 26 9 23 11 24 12 19 13
REMARK SMILES IDX 18 14 16 15 17 16 11 18 10 19 8 20 9 21 12 24 13 25 14 26
REMARK SMILES IDX 15 27 20 28 21 29 22 30 29 32 30 33 31 34 32 35 33 36 34 37
REMARK SMILES IDX 35 38 57 43 58 44 59 45 60 46 61 47 62 49 66 50 67 51 68 52
REMARK SMILES IDX 69 53 70 54 71 55 2 56 1 57 3 58 4 59 5 60 6 62 7 63 63 65
REMARK SMILES IDX 64 66 65 67 40 69 41 70 42 71 44 72 43 73 45 74 46 75 47 76
REMARK SMILES IDX 55 77 56 78 48 79 49 80 50 81 54 82 51 83 53 84 52 85
REMARK H PARENT 38 5 27 10 18 17 10 22 22 31 34 39 34 40 35 41 35 42 61 48
REMARK H PARENT 5 61 65 68
REMARK Flexibility Score:  369.900
ROOT
ATOM      1  C   UNL     1      -4.570  -3.465  -6.472  1.00  0.00     0.117 C 
ENDROOT
BRANCH   1   2
ATOM      2  N   UNL     1      -4.984  -2.237  -5.792  1.00  0.00    -0.347 N 
ATOM      3  O   UNL     1      -3.258  -0.895  -6.491  1.00  0.00    -0.273 OA
ATOM      4  C   UNL     1      -4.342  -1.022  -5.931  1.00  0.00     0.243 C 
ATOM      5  H   UNL     1      -5.816  -2.245  -5.221  1.00  0.00     0.164 HD
BRANCH   4   6
ATOM      6  C   UNL     1      -5.034   0.139  -5.172  1.00  0.00     0.171 C 
BRANCH   6   7
ATOM      7  N   UNL     1      -5.942  -0.389  -4.141  1.00  0.00    -0.344 N 
ATOM      8  C   UNL     1      -7.248  -0.701  -4.449  1.00  0.00     0.226 C 
ATOM      9  O   UNL     1      -7.721  -0.537  -5.568  1.00  0.00    -0.275 OA
ATOM     10  H   UNL     1      -5.607  -0.475  -3.190  1.00  0.00     0.164 HD
BRANCH   8  11
ATOM     11  C   UNL     1      -8.041  -1.286  -3.293  1.00  0.00     0.109 C 
ATOM     12  C   UNL     1      -7.096  -1.942  -2.286  1.00  0.00     0.021 C 
BRANCH  11  13
ATOM     13  C   UNL     1      -8.972  -0.209  -2.701  1.00  0.00     0.204 C 
BRANCH  13  14
ATOM     14  N   UNL     1      -8.996  -0.245  -1.236  1.00  0.00    -0.340 N 
ATOM     15  C   UNL     1     -10.148  -0.462  -0.511  1.00  0.00     0.243 C 
ATOM     16  O   UNL     1     -11.230  -0.701  -1.046  1.00  0.00    -0.273 OA
ATOM     17  H   UNL     1      -8.171   0.094  -0.734  1.00  0.00     0.164 HD
BRANCH  15  18
ATOM     18  C   UNL     1      -9.970  -0.249   1.012  1.00  0.00     0.171 C 
BRANCH  18  19
ATOM     19  N   UNL     1     -10.499   1.080   1.314  1.00  0.00    -0.343 N 
ATOM     20  C   UNL     1      -9.694   2.091   1.801  1.00  0.00     0.242 CG0
ATOM     21  O   UNL     1      -8.527   1.884   2.127  1.00  0.00    -0.273 OA
ATOM     22  H   UNL     1     -11.485   1.267   1.170  1.00  0.00     0.164 HD
ATOM     23  G   UNL     1     -10.412   3.444   1.984  1.00  0.00     0.000 G0
ENDBRANCH  18  19
BRANCH  18  24
ATOM     24  C   UNL     1     -10.706  -1.339   1.801  1.00  0.00     0.038 C 
BRANCH  24  25
ATOM     25  C   UNL     1      -9.786  -2.384   2.468  1.00  0.00    -0.015 C 
ATOM     26  C   UNL     1      -8.561  -1.749   3.127  1.00  0.00     0.007 C 
ATOM     27  C   UNL     1      -9.336  -3.413   1.428  1.00  0.00     0.007 C 
ENDBRANCH  24  25
ENDBRANCH  18  24
ENDBRANCH  15  18
ENDBRANCH  13  14
BRANCH  13  28
ATOM     28  C   UNL     1      -8.588   1.215  -3.114  1.00  0.00     0.327 C 
ATOM     29  O   UNL     1      -9.153   1.902  -3.951  1.00  0.00    -0.250 OA
BRANCH  28  30
ATOM     30  O   UNL     1      -7.446   1.642  -2.538  1.00  0.00    -0.480 OA
ATOM     31  H   UNL     1      -7.621   2.583  -2.326  1.00  0.00     0.296 HD
ENDBRANCH  28  30
ENDBRANCH  13  28
ENDBRANCH  11  13
ENDBRANCH   8  11
ENDBRANCH   6   7
BRANCH   6  32
ATOM     32  C   UNL     1      -3.963   1.041  -4.548  1.00  0.00     0.037 C 
BRANCH  32  33
ATOM     33  C   UNL     1      -4.058   2.487  -5.053  1.00  0.00     0.026 C 
BRANCH  33  34
ATOM     34  C   UNL     1      -4.986   2.626  -6.261  1.00  0.00     0.146 C 
BRANCH  34  35
ATOM     35  N   UNL     1      -6.018   3.605  -5.951  1.00  0.00    -0.254 NA
ATOM     36  C   UNL     1      -7.241   3.302  -6.182  1.00  0.00     0.185 C 
ATOM     37  N   UNL     1      -8.201   4.195  -5.895  1.00  0.00    -0.370 N 
ATOM     38  N   UNL     1      -7.748   2.167  -6.695  1.00  0.00    -0.370 N 
ATOM     39  H   UNL     1      -7.899   5.073  -5.494  1.00  0.00     0.159 HD
ATOM     40  H   UNL     1      -9.182   3.972  -5.883  1.00  0.00     0.159 HD
ATOM     41  H   UNL     1      -8.718   2.102  -6.960  1.00  0.00     0.159 HD
ATOM     42  H   UNL     1      -7.139   1.413  -6.973  1.00  0.00     0.159 HD
ENDBRANCH  34  35
ENDBRANCH  33  34
ENDBRANCH  32  33
ENDBRANCH   6  32
ENDBRANCH   4   6
ENDBRANCH   1   2
BRANCH   1  43
ATOM     43  C   UNL     1      -5.264  -3.519  -7.864  1.00  0.00     0.102 C 
ATOM     44  C   UNL     1      -6.455  -4.490  -7.916  1.00  0.00     0.020 C 
BRANCH  43  45
ATOM     45  C   UNL     1      -4.239  -3.732  -8.982  1.00  0.00     0.225 C 
ATOM     46  O   UNL     1      -3.278  -4.488  -8.875  1.00  0.00    -0.275 OA
ATOM     47  N   UNL     1      -4.406  -2.944 -10.097  1.00  0.00    -0.342 N 
ATOM     48  H   UNL     1      -5.275  -2.445 -10.232  1.00  0.00     0.164 HD
BRANCH  47  49
ATOM     49  C   UNL     1      -3.522  -3.064 -11.260  1.00  0.00     0.192 C 
BRANCH  49  50
ATOM     50  C   UNL     1      -3.160  -1.670 -11.778  1.00  0.00     0.047 C 
BRANCH  50  51
ATOM     51  C   UNL     1      -1.657  -1.381 -11.669  1.00  0.00     0.103 C 
BRANCH  51  52
ATOM     52  C   UNL     1      -1.270  -0.869 -10.283  1.00  0.00     0.226 C 
ATOM     53  O   UNL     1      -1.684  -1.453  -9.280  1.00  0.00    -0.275 OA
BRANCH  52  54
ATOM     54  N   UNL     1      -0.380   0.220 -10.243  1.00  0.00    -0.311 N 
ATOM     55  C   UNL     1      -0.841   1.584 -10.532  1.00  0.00     0.153 C 
BRANCH  54  56
ATOM     56  C   UNL     1       0.977   0.046  -9.922  1.00  0.00     0.102 C 
ATOM     57  C   UNL     1       1.535   0.373  -8.745  1.00  0.00     0.043 C 
BRANCH  56  58
ATOM     58  C   UNL     1       1.931  -0.588 -10.905  1.00  0.00     0.268 C 
ATOM     59  O   UNL     1       2.529   0.047 -11.764  1.00  0.00    -0.268 OA
ATOM     60  N   UNL     1       2.108  -1.935 -10.694  1.00  0.00    -0.339 N 
ATOM     61  H   UNL     1       1.568  -2.389  -9.968  1.00  0.00     0.164 HD
BRANCH  60  62
ATOM     62  C   UNL     1       3.037  -2.733 -11.493  1.00  0.00     0.168 CG0
ATOM     63  C   UNL     1       3.785  -3.736 -10.623  1.00  0.00     0.041 C 
ATOM     64  G   UNL     1       4.026  -1.800 -12.222  1.00  0.00     0.000 G0
ENDBRANCH  60  62
ENDBRANCH  56  58
ENDBRANCH  54  56
ENDBRANCH  52  54
ENDBRANCH  51  52
ENDBRANCH  50  51
ENDBRANCH  49  50
BRANCH  49  65
ATOM     65  C   UNL     1      -4.180  -3.872 -12.391  1.00  0.00     0.326 C 
ATOM     66  O   UNL     1      -5.374  -4.113 -12.489  1.00  0.00    -0.250 OA
BRANCH  65  67
ATOM     67  O   UNL     1      -3.316  -4.382 -13.296  1.00  0.00    -0.480 OA
ATOM     68  H   UNL     1      -3.896  -4.670 -14.033  1.00  0.00     0.296 HD
ENDBRANCH  65  67
ENDBRANCH  49  65
ENDBRANCH  47  49
ENDBRANCH  43  45
ENDBRANCH   1  43
BRANCH   1  69
ATOM     69  C   UNL     1      -4.810  -4.596  -5.489  1.00  0.00    -0.001 C 
ATOM     70  C   UNL     1      -5.295  -4.502  -4.238  1.00  0.00     0.001 C 
BRANCH  70  71
ATOM     71  C   UNL     1      -5.542  -5.603  -3.305  1.00  0.00    -0.055 C 
ATOM     72  C   UNL     1      -5.964  -5.290  -2.062  1.00  0.00    -0.018 C 
ATOM     73  C   UNL     1      -5.316  -7.008  -3.802  1.00  0.00     0.044 C 
BRANCH  72  74
ATOM     74  C   UNL     1      -6.300  -6.212  -0.898  1.00  0.00     0.038 C 
ATOM     75  C   UNL     1      -7.803  -6.073  -0.630  1.00  0.00     0.015 C 
BRANCH  74  76
ATOM     76  C   UNL     1      -5.384  -5.849   0.308  1.00  0.00     0.128 C 
BRANCH  76  77
ATOM     77  O   UNL     1      -4.003  -5.996  -0.062  1.00  0.00    -0.381 OA
ATOM     78  C   UNL     1      -3.577  -7.349  -0.152  1.00  0.00     0.195 C 
ENDBRANCH  76  77
BRANCH  76  79
ATOM     79  C   UNL     1      -5.692  -4.467   0.938  1.00  0.00     0.068 C 
BRANCH  79  80
ATOM     80  C   UNL     1      -5.927  -4.406   2.428  1.00  0.00    -0.045 A 
ATOM     81  C   UNL     1      -6.817  -5.288   3.056  1.00  0.00     0.004 A 
ATOM     82  C   UNL     1      -5.272  -3.441   3.208  1.00  0.00     0.004 A 
ATOM     83  C   UNL     1      -7.039  -5.215   4.433  1.00  0.00     0.000 A 
ATOM     84  C   UNL     1      -5.496  -3.369   4.585  1.00  0.00     0.000 A 
ATOM     85  C   UNL     1      -6.377  -4.257   5.197  1.00  0.00     0.000 A 
ENDBRANCH  79  80
ENDBRANCH  76  79
ENDBRANCH  74  76
ENDBRANCH  72  74
ENDBRANCH  70  71
ENDBRANCH   1  69
TORSDOF 17
ENDMDL
MODEL 3
REMARK VINA RESULT:    -6.647      2.592     11.158
REMARK INTER + INTRA:         -27.469
REMARK INTER:                 -18.330
REMARK INTRA:                  -9.139
REMARK UNBOUND:                -7.611
REMARK SMILES C=C1C(=O)N[C@H](C)C(=O)N[C@@H](CC(C)C)C(=O)N[C@@H](C(=O)O)[C@H](C)C(=O)N[C@@H](CCCN=C(N)N)C(=O)N[C@@H](/C=C/C(C)=C/[C@H](C)[C@H](Cc2ccccc2)OC)[C@H](C)C(=O)N[C@@H](C(=O)O)CCC(=O)N1C
REMARK SMILES IDX 39 1 38 2 37 3 36 4 28 6 27 7 25 8 26 9 23 11 24 12 19 13
REMARK SMILES IDX 18 14 16 15 17 16 11 18 10 19 8 20 9 21 12 24 13 25 14 26
REMARK SMILES IDX 15 27 20 28 21 29 22 30 29 32 30 33 31 34 32 35 33 36 34 37
REMARK SMILES IDX 35 38 57 43 58 44 59 45 60 46 61 47 62 49 66 50 67 51 68 52
REMARK SMILES IDX 69 53 70 54 71 55 2 56 1 57 3 58 4 59 5 60 6 62 7 63 63 65
REMARK SMILES IDX 64 66 65 67 40 69 41 70 42 71 44 72 43 73 45 74 46 75 47 76
REMARK SMILES IDX 55 77 56 78 48 79 49 80 50 81 54 82 51 83 53 84 52 85
REMARK H PARENT 38 5 27 10 18 17 10 22 22 31 34 39 34 40 35 41 35 42 61 48
REMARK H PARENT 5 61 65 68
REMARK Flexibility Score:  369.900
ROOT
ATOM      1  C   UNL     1      -5.976   3.394  -7.050  1.00  0.00     0.117 C 
ENDROOT
BRANCH   1   2
ATOM      2  N   UNL     1      -7.095   2.536  -6.661  1.00  0.00    -0.347 N 
ATOM      3  O   UNL     1      -5.950   0.548  -6.578  1.00  0.00    -0.273 OA
ATOM      4  C   UNL     1      -6.973   1.192  -6.366  1.00  0.00     0.243 C 
ATOM      5  H   UNL     1      -8.012   2.940  -6.548  1.00  0.00     0.164 HD
BRANCH   4   6
ATOM      6  C   UNL     1      -8.295   0.533  -5.898  1.00  0.00     0.171 C 
BRANCH   6   7
ATOM      7  N   UNL     1      -9.292   0.555  -6.980  1.00  0.00    -0.344 N 
ATOM      8  C   UNL     1     -10.092   1.659  -7.177  1.00  0.00     0.226 C 
ATOM      9  O   UNL     1     -10.034   2.653  -6.463  1.00  0.00    -0.275 OA
ATOM     10  H   UNL     1      -9.416  -0.273  -7.549  1.00  0.00     0.164 HD
BRANCH   8  11
ATOM     11  C   UNL     1     -11.030   1.548  -8.367  1.00  0.00     0.109 C 
ATOM     12  C   UNL     1     -10.228   1.509  -9.667  1.00  0.00     0.021 C 
BRANCH  11  13
ATOM     13  C   UNL     1     -11.993   0.361  -8.162  1.00  0.00     0.204 C 
BRANCH  13  14
ATOM     14  N   UNL     1     -12.959   0.613  -7.088  1.00  0.00    -0.340 N 
ATOM     15  C   UNL     1     -12.877   0.010  -5.852  1.00  0.00     0.243 C 
ATOM     16  O   UNL     1     -11.951  -0.737  -5.542  1.00  0.00    -0.273 OA
ATOM     17  H   UNL     1     -13.827   1.099  -7.327  1.00  0.00     0.164 HD
BRANCH  15  18
ATOM     18  C   UNL     1     -14.114   0.264  -4.957  1.00  0.00     0.171 C 
BRANCH  18  19
ATOM     19  N   UNL     1     -14.124  -0.792  -3.946  1.00  0.00    -0.343 N 
ATOM     20  C   UNL     1     -15.113  -1.756  -3.908  1.00  0.00     0.242 CG0
ATOM     21  O   UNL     1     -16.101  -1.693  -4.636  1.00  0.00    -0.273 OA
ATOM     22  H   UNL     1     -13.389  -0.819  -3.248  1.00  0.00     0.164 HD
ATOM     23  G   UNL     1     -14.912  -2.832  -2.821  1.00  0.00     0.000 G0
ENDBRANCH  18  19
BRANCH  18  24
ATOM     24  C   UNL     1     -14.043   1.655  -4.315  1.00  0.00     0.038 C 
BRANCH  24  25
ATOM     25  C   UNL     1     -15.102   2.655  -4.825  1.00  0.00    -0.015 C 
ATOM     26  C   UNL     1     -15.218   3.890  -3.932  1.00  0.00     0.007 C 
ATOM     27  C   UNL     1     -16.462   1.959  -4.921  1.00  0.00     0.007 C 
ENDBRANCH  24  25
ENDBRANCH  18  24
ENDBRANCH  15  18
ENDBRANCH  13  14
BRANCH  13  28
ATOM     28  C   UNL     1     -12.794   0.011  -9.420  1.00  0.00     0.327 C 
ATOM     29  O   UNL     1     -13.234   0.801 -10.240  1.00  0.00    -0.250 OA
BRANCH  28  30
ATOM     30  O   UNL     1     -13.094  -1.301  -9.507  1.00  0.00    -0.480 OA
ATOM     31  H   UNL     1     -12.634  -1.600 -10.319  1.00  0.00     0.296 HD
ENDBRANCH  28  30
ENDBRANCH  13  28
ENDBRANCH  11  13
ENDBRANCH   8  11
ENDBRANCH   6   7
BRANCH   6  32
ATOM     32  C   UNL     1      -8.010  -0.903  -5.445  1.00  0.00     0.037 C 
BRANCH  32  33
ATOM     33  C   UNL     1      -8.521  -1.941  -6.454  1.00  0.00     0.026 C 
BRANCH  33  34
ATOM     34  C   UNL     1      -7.500  -3.046  -6.724  1.00  0.00     0.146 C 
BRANCH  34  35
ATOM     35  N   UNL     1      -6.506  -2.548  -7.665  1.00  0.00    -0.254 NA
ATOM     36  C   UNL     1      -5.322  -2.310  -7.240  1.00  0.00     0.185 C 
ATOM     37  N   UNL     1      -4.397  -1.855  -8.099  1.00  0.00    -0.370 N 
ATOM     38  N   UNL     1      -4.826  -2.451  -5.997  1.00  0.00    -0.370 N 
ATOM     39  H   UNL     1      -4.692  -1.732  -9.060  1.00  0.00     0.159 HD
ATOM     40  H   UNL     1      -3.415  -1.811  -7.888  1.00  0.00     0.159 HD
ATOM     41  H   UNL     1      -3.915  -2.098  -5.757  1.00  0.00     0.159 HD
ATOM     42  H   UNL     1      -5.415  -2.770  -5.244  1.00  0.00     0.159 HD
ENDBRANCH  34  35
ENDBRANCH  33  34
ENDBRANCH  32  33
ENDBRANCH   6  32
ENDBRANCH   4   6
ENDBRANCH   1   2
BRANCH   1  43
ATOM     43  C   UNL     1      -5.409   4.078  -5.772  1.00  0.00     0.102 C 
ATOM     44  C   UNL     1      -5.126   5.579  -5.955  1.00  0.00     0.020 C 
BRANCH  43  45
ATOM     45  C   UNL     1      -4.226   3.287  -5.205  1.00  0.00     0.225 C 
ATOM     46  O   UNL     1      -3.916   3.304  -4.017  1.00  0.00    -0.275 OA
ATOM     47  N   UNL     1      -3.459   2.620  -6.133  1.00  0.00    -0.342 N 
ATOM     48  H   UNL     1      -3.810   2.492  -7.072  1.00  0.00     0.164 HD
BRANCH  47  49
ATOM     49  C   UNL     1      -2.317   1.794  -5.732  1.00  0.00     0.192 C 
BRANCH  49  50
ATOM     50  C   UNL     1      -1.216   1.889  -6.791  1.00  0.00     0.047 C 
BRANCH  50  51
ATOM     51  C   UNL     1      -1.707   2.557  -8.083  1.00  0.00     0.103 C 
BRANCH  51  52
ATOM     52  C   UNL     1      -1.931   1.543  -9.204  1.00  0.00     0.226 C 
ATOM     53  O   UNL     1      -2.881   0.761  -9.138  1.00  0.00    -0.275 OA
BRANCH  52  54
ATOM     54  N   UNL     1      -1.056   1.622 -10.303  1.00  0.00    -0.311 N 
ATOM     55  C   UNL     1      -1.560   1.519 -11.679  1.00  0.00     0.153 C 
BRANCH  54  56
ATOM     56  C   UNL     1       0.326   1.806 -10.128  1.00  0.00     0.102 C 
ATOM     57  C   UNL     1       1.160   0.899  -9.593  1.00  0.00     0.043 C 
BRANCH  56  58
ATOM     58  C   UNL     1       1.004   3.073 -10.592  1.00  0.00     0.268 C 
ATOM     59  O   UNL     1       0.648   4.190 -10.239  1.00  0.00    -0.268 OA
ATOM     60  N   UNL     1       2.096   2.840 -11.393  1.00  0.00    -0.339 N 
ATOM     61  H   UNL     1       2.318   1.885 -11.647  1.00  0.00     0.164 HD
BRANCH  60  62
ATOM     62  C   UNL     1       2.935   3.925 -11.901  1.00  0.00     0.168 CG0
ATOM     63  C   UNL     1       4.155   4.134 -11.014  1.00  0.00     0.041 C 
ATOM     64  G   UNL     1       2.102   5.220 -11.999  1.00  0.00     0.000 G0
ENDBRANCH  60  62
ENDBRANCH  56  58
ENDBRANCH  54  56
ENDBRANCH  52  54
ENDBRANCH  51  52
ENDBRANCH  50  51
ENDBRANCH  49  50
BRANCH  49  65
ATOM     65  C   UNL     1      -2.719   0.322  -5.546  1.00  0.00     0.326 C 
ATOM     66  O   UNL     1      -2.282  -0.620  -6.191  1.00  0.00    -0.250 OA
BRANCH  65  67
ATOM     67  O   UNL     1      -3.678   0.113  -4.618  1.00  0.00    -0.480 OA
ATOM     68  H   UNL     1      -4.217   0.932  -4.653  1.00  0.00     0.296 HD
ENDBRANCH  65  67
ENDBRANCH  49  65
ENDBRANCH  47  49
ENDBRANCH  43  45
ENDBRANCH   1  43
BRANCH   1  69
ATOM     69  C   UNL     1      -6.484   4.266  -8.184  1.00  0.00    -0.001 C 
ATOM     70  C   UNL     1      -7.308   3.907  -9.184  1.00  0.00     0.001 C 
BRANCH  70  71
ATOM     71  C   UNL     1      -7.809   4.764 -10.261  1.00  0.00    -0.055 C 
ATOM     72  C   UNL     1      -8.719   5.707  -9.941  1.00  0.00    -0.018 C 
ATOM     73  C   UNL     1      -7.267   4.537 -11.649  1.00  0.00     0.044 C 
BRANCH  72  74
ATOM     74  C   UNL     1      -9.404   6.728 -10.838  1.00  0.00     0.038 C 
ATOM     75  C   UNL     1      -9.037   8.118 -10.305  1.00  0.00     0.015 C 
BRANCH  74  76
ATOM     76  C   UNL     1     -10.931   6.423 -10.869  1.00  0.00     0.128 C 
BRANCH  76  77
ATOM     77  O   UNL     1     -11.147   5.002 -10.888  1.00  0.00    -0.381 OA
ATOM     78  C   UNL     1     -11.270   4.461 -12.197  1.00  0.00     0.195 C 
ENDBRANCH  76  77
BRANCH  76  79
ATOM     79  C   UNL     1     -11.738   7.137  -9.755  1.00  0.00     0.068 C 
BRANCH  79  80
ATOM     80  C   UNL     1     -11.922   6.416  -8.442  1.00  0.00    -0.045 A 
ATOM     81  C   UNL     1     -12.980   5.517  -8.254  1.00  0.00     0.004 A 
ATOM     82  C   UNL     1     -11.046   6.659  -7.373  1.00  0.00     0.004 A 
ATOM     83  C   UNL     1     -13.151   4.864  -7.031  1.00  0.00     0.000 A 
ATOM     84  C   UNL     1     -11.218   6.006  -6.151  1.00  0.00     0.000 A 
ATOM     85  C   UNL     1     -12.270   5.108  -5.981  1.00  0.00     0.000 A 
ENDBRANCH  79  80
ENDBRANCH  76  79
ENDBRANCH  74  76
ENDBRANCH  72  74
ENDBRANCH  70  71
ENDBRANCH   1  69
TORSDOF 17
ENDMDL
MODEL 4
REMARK VINA RESULT:    -6.565      4.136     13.188
REMARK INTER + INTRA:         -27.224
REMARK INTER:                 -20.918
REMARK INTRA:                  -6.306
REMARK UNBOUND:                -7.611
REMARK SMILES C=C1C(=O)N[C@H](C)C(=O)N[C@@H](CC(C)C)C(=O)N[C@@H](C(=O)O)[C@H](C)C(=O)N[C@@H](CCCN=C(N)N)C(=O)N[C@@H](/C=C/C(C)=C/[C@H](C)[C@H](Cc2ccccc2)OC)[C@H](C)C(=O)N[C@@H](C(=O)O)CCC(=O)N1C
REMARK SMILES IDX 39 1 38 2 37 3 36 4 28 6 27 7 25 8 26 9 23 11 24 12 19 13
REMARK SMILES IDX 18 14 16 15 17 16 11 18 10 19 8 20 9 21 12 24 13 25 14 26
REMARK SMILES IDX 15 27 20 28 21 29 22 30 29 32 30 33 31 34 32 35 33 36 34 37
REMARK SMILES IDX 35 38 57 43 58 44 59 45 60 46 61 47 62 49 66 50 67 51 68 52
REMARK SMILES IDX 69 53 70 54 71 55 2 56 1 57 3 58 4 59 5 60 6 62 7 63 63 65
REMARK SMILES IDX 64 66 65 67 40 69 41 70 42 71 44 72 43 73 45 74 46 75 47 76
REMARK SMILES IDX 55 77 56 78 48 79 49 80 50 81 54 82 51 83 53 84 52 85
REMARK H PARENT 38 5 27 10 18 17 10 22 22 31 34 39 34 40 35 41 35 42 61 48
REMARK H PARENT 5 61 65 68
REMARK Flexibility Score:  369.900
ROOT
ATOM      1  C   UNL     1      -5.003  -3.196  -6.084  1.00  0.00     0.117 C 
ENDROOT
BRANCH   1   2
ATOM      2  N   UNL     1      -5.897  -2.194  -5.503  1.00  0.00    -0.347 N 
ATOM      3  O   UNL     1      -4.373  -0.488  -5.309  1.00  0.00    -0.273 OA
ATOM      4  C   UNL     1      -5.531  -0.887  -5.246  1.00  0.00     0.243 C 
ATOM      5  H   UNL     1      -6.858  -2.437  -5.316  1.00  0.00     0.164 HD
BRANCH   4   6
ATOM      6  C   UNL     1      -6.691  -0.008  -4.711  1.00  0.00     0.171 C 
BRANCH   6   7
ATOM      7  N   UNL     1      -6.722  -0.038  -3.240  1.00  0.00    -0.344 N 
ATOM      8  C   UNL     1      -7.314  -1.087  -2.570  1.00  0.00     0.226 C 
ATOM      9  O   UNL     1      -7.854  -2.021  -3.152  1.00  0.00    -0.275 OA
ATOM     10  H   UNL     1      -6.345   0.748  -2.725  1.00  0.00     0.164 HD
BRANCH   8  11
ATOM     11  C   UNL     1      -7.216  -0.999  -1.058  1.00  0.00     0.109 C 
ATOM     12  C   UNL     1      -6.724   0.387  -0.642  1.00  0.00     0.021 C 
BRANCH  11  13
ATOM     13  C   UNL     1      -8.554  -1.429  -0.423  1.00  0.00     0.204 C 
BRANCH  13  14
ATOM     14  N   UNL     1      -9.680  -1.268  -1.347  1.00  0.00    -0.340 N 
ATOM     15  C   UNL     1     -10.971  -1.040  -0.922  1.00  0.00     0.243 C 
ATOM     16  O   UNL     1     -11.259  -0.895   0.264  1.00  0.00    -0.273 OA
ATOM     17  H   UNL     1      -9.538  -1.527  -2.327  1.00  0.00     0.164 HD
BRANCH  15  18
ATOM     18  C   UNL     1     -12.019  -1.113  -2.060  1.00  0.00     0.171 C 
BRANCH  18  19
ATOM     19  N   UNL     1     -13.226  -0.458  -1.559  1.00  0.00    -0.343 N 
ATOM     20  C   UNL     1     -14.439  -1.117  -1.492  1.00  0.00     0.242 CG0
ATOM     21  O   UNL     1     -14.589  -2.238  -1.973  1.00  0.00    -0.273 OA
ATOM     22  H   UNL     1     -13.179   0.509  -1.257  1.00  0.00     0.164 HD
ATOM     23  G   UNL     1     -15.579  -0.289  -0.864  1.00  0.00     0.000 G0
ENDBRANCH  18  19
BRANCH  18  24
ATOM     24  C   UNL     1     -11.492  -0.428  -3.326  1.00  0.00     0.038 C 
BRANCH  24  25
ATOM     25  C   UNL     1     -11.423  -1.339  -4.570  1.00  0.00    -0.015 C 
ATOM     26  C   UNL     1     -11.215  -2.810  -4.208  1.00  0.00     0.007 C 
ATOM     27  C   UNL     1     -10.293  -0.870  -5.490  1.00  0.00     0.007 C 
ENDBRANCH  24  25
ENDBRANCH  18  24
ENDBRANCH  15  18
ENDBRANCH  13  14
BRANCH  13  28
ATOM     28  C   UNL     1      -8.558  -2.886   0.048  1.00  0.00     0.327 C 
ATOM     29  O   UNL     1      -8.159  -3.298   1.127  1.00  0.00    -0.250 OA
BRANCH  28  30
ATOM     30  O   UNL     1      -8.951  -3.751  -0.909  1.00  0.00    -0.480 OA
ATOM     31  H   UNL     1      -8.999  -3.205  -1.722  1.00  0.00     0.296 HD
ENDBRANCH  28  30
ENDBRANCH  13  28
ENDBRANCH  11  13
ENDBRANCH   8  11
ENDBRANCH   6   7
BRANCH   6  32
ATOM     32  C   UNL     1      -6.516   1.425  -5.225  1.00  0.00     0.037 C 
BRANCH  32  33
ATOM     33  C   UNL     1      -7.073   2.465  -4.244  1.00  0.00     0.026 C 
BRANCH  33  34
ATOM     34  C   UNL     1      -7.471   3.769  -4.937  1.00  0.00     0.146 C 
BRANCH  34  35
ATOM     35  N   UNL     1      -8.355   4.519  -4.055  1.00  0.00    -0.254 NA
ATOM     36  C   UNL     1      -9.602   4.578  -4.341  1.00  0.00     0.185 C 
ATOM     37  N   UNL     1     -10.426   5.262  -3.533  1.00  0.00    -0.370 N 
ATOM     38  N   UNL     1     -10.257   4.032  -5.381  1.00  0.00    -0.370 N 
ATOM     39  H   UNL     1     -10.009   5.695  -2.719  1.00  0.00     0.159 HD
ATOM     40  H   UNL     1     -11.429   5.211  -3.590  1.00  0.00     0.159 HD
ATOM     41  H   UNL     1     -11.217   4.266  -5.573  1.00  0.00     0.159 HD
ATOM     42  H   UNL     1      -9.759   3.502  -6.080  1.00  0.00     0.159 HD
ENDBRANCH  34  35
ENDBRANCH  33  34
ENDBRANCH  32  33
ENDBRANCH   6  32
ENDBRANCH   4   6
ENDBRANCH   1   2
BRANCH   1  43
ATOM     43  C   UNL     1      -5.475  -3.499  -7.535  1.00  0.00     0.102 C 
ATOM     44  C   UNL     1      -6.468  -4.670  -7.623  1.00  0.00     0.020 C 
BRANCH  43  45
ATOM     45  C   UNL     1      -4.282  -3.622  -8.487  1.00  0.00     0.225 C 
ATOM     46  O   UNL     1      -3.536  -4.597  -8.505  1.00  0.00    -0.275 OA
ATOM     47  N   UNL     1      -4.034  -2.519  -9.272  1.00  0.00    -0.342 N 
ATOM     48  H   UNL     1      -4.735  -1.797  -9.356  1.00  0.00     0.164 HD
BRANCH  47  49
ATOM     49  C   UNL     1      -2.947  -2.507 -10.255  1.00  0.00     0.192 C 
BRANCH  49  50
ATOM     50  C   UNL     1      -2.359  -1.097 -10.356  1.00  0.00     0.047 C 
BRANCH  50  51
ATOM     51  C   UNL     1      -0.834  -1.113 -10.529  1.00  0.00     0.103 C 
BRANCH  51  52
ATOM     52  C   UNL     1      -0.232   0.288 -10.438  1.00  0.00     0.226 C 
ATOM     53  O   UNL     1      -0.512   1.129 -11.293  1.00  0.00    -0.275 OA
BRANCH  52  54
ATOM     54  N   UNL     1       0.567   0.554  -9.310  1.00  0.00    -0.311 N 
ATOM     55  C   UNL     1       1.445  -0.478  -8.744  1.00  0.00     0.153 C 
BRANCH  54  56
ATOM     56  C   UNL     1       0.558   1.814  -8.688  1.00  0.00     0.102 C 
ATOM     57  C   UNL     1      -0.329   2.206  -7.759  1.00  0.00     0.043 C 
BRANCH  56  58
ATOM     58  C   UNL     1       1.620   2.841  -9.004  1.00  0.00     0.268 C 
ATOM     59  O   UNL     1       2.661   2.945  -8.369  1.00  0.00    -0.268 OA
ATOM     60  N   UNL     1       1.327   3.598 -10.112  1.00  0.00    -0.339 N 
ATOM     61  H   UNL     1       0.438   3.458 -10.577  1.00  0.00     0.164 HD
BRANCH  60  62
ATOM     62  C   UNL     1       2.247   4.609 -10.631  1.00  0.00     0.168 CG0
ATOM     63  C   UNL     1       1.493   5.708 -11.370  1.00  0.00     0.041 C 
ATOM     64  G   UNL     1       3.282   3.939 -11.558  1.00  0.00     0.000 G0
ENDBRANCH  60  62
ENDBRANCH  56  58
ENDBRANCH  54  56
ENDBRANCH  52  54
ENDBRANCH  51  52
ENDBRANCH  50  51
ENDBRANCH  49  50
BRANCH  49  65
ATOM     65  C   UNL     1      -3.432  -2.956 -11.642  1.00  0.00     0.326 C 
ATOM     66  O   UNL     1      -3.714  -4.102 -11.960  1.00  0.00    -0.250 OA
BRANCH  65  67
ATOM     67  O   UNL     1      -3.483  -1.972 -12.567  1.00  0.00    -0.480 OA
ATOM     68  H   UNL     1      -2.682  -2.127 -13.114  1.00  0.00     0.296 HD
ENDBRANCH  65  67
ENDBRANCH  49  65
ENDBRANCH  47  49
ENDBRANCH  43  45
ENDBRANCH   1  43
BRANCH   1  69
ATOM     69  C   UNL     1      -4.934  -4.334  -5.082  1.00  0.00    -0.001 C 
ATOM     70  C   UNL     1      -5.649  -4.472  -3.952  1.00  0.00     0.001 C 
BRANCH  70  71
ATOM     71  C   UNL     1      -5.589  -5.587  -3.004  1.00  0.00    -0.055 C 
ATOM     72  C   UNL     1      -5.881  -5.328  -1.712  1.00  0.00    -0.018 C 
ATOM     73  C   UNL     1      -5.214  -6.944  -3.538  1.00  0.00     0.044 C 
BRANCH  72  74
ATOM     74  C   UNL     1      -5.903  -6.275  -0.521  1.00  0.00     0.038 C 
ATOM     75  C   UNL     1      -7.374  -6.502  -0.151  1.00  0.00     0.015 C 
BRANCH  74  76
ATOM     76  C   UNL     1      -5.029  -5.670   0.617  1.00  0.00     0.128 C 
BRANCH  76  77
ATOM     77  O   UNL     1      -5.581  -6.019   1.898  1.00  0.00    -0.381 OA
ATOM     78  C   UNL     1      -4.948  -5.364   2.989  1.00  0.00     0.195 C 
ENDBRANCH  76  77
BRANCH  76  79
ATOM     79  C   UNL     1      -3.522  -6.010   0.501  1.00  0.00     0.068 C 
BRANCH  79  80
ATOM     80  C   UNL     1      -3.132  -7.464   0.386  1.00  0.00    -0.045 A 
ATOM     81  C   UNL     1      -2.986  -8.075  -0.867  1.00  0.00     0.004 A 
ATOM     82  C   UNL     1      -2.936  -8.238   1.540  1.00  0.00     0.004 A 
ATOM     83  C   UNL     1      -2.639  -9.424  -0.965  1.00  0.00     0.000 A 
ATOM     84  C   UNL     1      -2.589  -9.587   1.440  1.00  0.00     0.000 A 
ATOM     85  C   UNL     1      -2.439 -10.179   0.188  1.00  0.00     0.000 A 
ENDBRANCH  79  80
ENDBRANCH  76  79
ENDBRANCH  74  76
ENDBRANCH  72  74
ENDBRANCH  70  71
ENDBRANCH   1  69
TORSDOF 17
ENDMDL
MODEL 5
REMARK VINA RESULT:    -6.536      4.709      7.967
REMARK INTER + INTRA:         -27.138
REMARK INTER:                 -21.554
REMARK INTRA:                  -5.584
REMARK UNBOUND:                -7.611
REMARK SMILES C=C1C(=O)N[C@H](C)C(=O)N[C@@H](CC(C)C)C(=O)N[C@@H](C(=O)O)[C@H](C)C(=O)N[C@@H](CCCN=C(N)N)C(=O)N[C@@H](/C=C/C(C)=C/[C@H](C)[C@H](Cc2ccccc2)OC)[C@H](C)C(=O)N[C@@H](C(=O)O)CCC(=O)N1C
REMARK SMILES IDX 39 1 38 2 37 3 36 4 28 6 27 7 25 8 26 9 23 11 24 12 19 13
REMARK SMILES IDX 18 14 16 15 17 16 11 18 10 19 8 20 9 21 12 24 13 25 14 26
REMARK SMILES IDX 15 27 20 28 21 29 22 30 29 32 30 33 31 34 32 35 33 36 34 37
REMARK SMILES IDX 35 38 57 43 58 44 59 45 60 46 61 47 62 49 66 50 67 51 68 52
REMARK SMILES IDX 69 53 70 54 71 55 2 56 1 57 3 58 4 59 5 60 6 62 7 63 63 65
REMARK SMILES IDX 64 66 65 67 40 69 41 70 42 71 44 72 43 73 45 74 46 75 47 76
REMARK SMILES IDX 55 77 56 78 48 79 49 80 50 81 54 82 51 83 53 84 52 85
REMARK H PARENT 38 5 27 10 18 17 10 22 22 31 34 39 34 40 35 41 35 42 61 48
REMARK H PARENT 5 61 65 68
REMARK Flexibility Score:  369.900
ROOT
ATOM      1  C   UNL     1      -4.976  -3.208  -4.995  1.00  0.00     0.117 C 
ENDROOT
BRANCH   1   2
ATOM      2  N   UNL     1      -4.760  -2.302  -6.123  1.00  0.00    -0.347 N 
ATOM      3  O   UNL     1      -3.012  -1.107  -5.236  1.00  0.00    -0.273 OA
ATOM      4  C   UNL     1      -3.733  -1.381  -6.190  1.00  0.00     0.243 C 
ATOM      5  H   UNL     1      -5.357  -2.370  -6.933  1.00  0.00     0.164 HD
BRANCH   4   6
ATOM      6  C   UNL     1      -3.677  -0.605  -7.531  1.00  0.00     0.171 C 
BRANCH   6   7
ATOM      7  N   UNL     1      -2.294  -0.539  -8.030  1.00  0.00    -0.344 N 
ATOM      8  C   UNL     1      -1.690   0.676  -8.268  1.00  0.00     0.226 C 
ATOM      9  O   UNL     1      -2.268   1.744  -8.103  1.00  0.00    -0.275 OA
ATOM     10  H   UNL     1      -1.808  -1.401  -8.243  1.00  0.00     0.164 HD
BRANCH   8  11
ATOM     11  C   UNL     1      -0.246   0.578  -8.728  1.00  0.00     0.109 C 
ATOM     12  C   UNL     1       0.414  -0.663  -8.126  1.00  0.00     0.021 C 
BRANCH  11  13
ATOM     13  C   UNL     1      -0.181   0.666 -10.265  1.00  0.00     0.204 C 
BRANCH  13  14
ATOM     14  N   UNL     1       0.681   1.762 -10.719  1.00  0.00    -0.340 N 
ATOM     15  C   UNL     1       0.442   2.473 -11.875  1.00  0.00     0.243 C 
ATOM     16  O   UNL     1      -0.548   2.278 -12.578  1.00  0.00    -0.273 OA
ATOM     17  H   UNL     1       1.593   1.874 -10.268  1.00  0.00     0.164 HD
BRANCH  15  18
ATOM     18  C   UNL     1       1.593   3.436 -12.258  1.00  0.00     0.171 C 
BRANCH  18  19
ATOM     19  N   UNL     1       2.718   2.600 -12.670  1.00  0.00    -0.343 N 
ATOM     20  C   UNL     1       4.028   3.005 -12.499  1.00  0.00     0.242 CG0
ATOM     21  O   UNL     1       4.306   4.139 -12.116  1.00  0.00    -0.273 OA
ATOM     22  H   UNL     1       2.538   1.699 -13.100  1.00  0.00     0.164 HD
ATOM     23  G   UNL     1       5.079   1.957 -12.921  1.00  0.00     0.000 G0
ENDBRANCH  18  19
BRANCH  18  24
ATOM     24  C   UNL     1       1.154   4.383 -13.383  1.00  0.00     0.038 C 
BRANCH  24  25
ATOM     25  C   UNL     1       1.512   5.866 -13.152  1.00  0.00    -0.015 C 
ATOM     26  C   UNL     1       1.161   6.341 -11.742  1.00  0.00     0.007 C 
ATOM     27  C   UNL     1       0.790   6.736 -14.183  1.00  0.00     0.007 C 
ENDBRANCH  24  25
ENDBRANCH  18  24
ENDBRANCH  15  18
ENDBRANCH  13  14
BRANCH  13  28
ATOM     28  C   UNL     1       0.334  -0.618 -10.922  1.00  0.00     0.327 C 
ATOM     29  O   UNL     1       1.487  -0.847 -11.257  1.00  0.00    -0.250 OA
BRANCH  28  30
ATOM     30  O   UNL     1      -0.650  -1.488 -11.227  1.00  0.00    -0.480 OA
ATOM     31  H   UNL     1      -1.127  -1.062 -11.970  1.00  0.00     0.296 HD
ENDBRANCH  28  30
ENDBRANCH  13  28
ENDBRANCH  11  13
ENDBRANCH   8  11
ENDBRANCH   6   7
BRANCH   6  32
ATOM     32  C   UNL     1      -4.594  -1.293  -8.549  1.00  0.00     0.037 C 
BRANCH  32  33
ATOM     33  C   UNL     1      -3.814  -1.849  -9.748  1.00  0.00     0.026 C 
BRANCH  33  34
ATOM     34  C   UNL     1      -4.667  -1.930 -11.014  1.00  0.00     0.146 C 
BRANCH  34  35
ATOM     35  N   UNL     1      -4.442  -3.221 -11.651  1.00  0.00    -0.254 NA
ATOM     36  C   UNL     1      -3.557  -3.305 -12.573  1.00  0.00     0.185 C 
ATOM     37  N   UNL     1      -3.338  -4.490 -13.163  1.00  0.00    -0.370 N 
ATOM     38  N   UNL     1      -2.765  -2.340 -13.075  1.00  0.00    -0.370 N 
ATOM     39  H   UNL     1      -3.890  -5.271 -12.832  1.00  0.00     0.159 HD
ATOM     40  H   UNL     1      -2.553  -4.676 -13.763  1.00  0.00     0.159 HD
ATOM     41  H   UNL     1      -2.206  -2.500 -13.897  1.00  0.00     0.159 HD
ATOM     42  H   UNL     1      -2.833  -1.393 -12.736  1.00  0.00     0.159 HD
ENDBRANCH  34  35
ENDBRANCH  33  34
ENDBRANCH  32  33
ENDBRANCH   6  32
ENDBRANCH   4   6
ENDBRANCH   1   2
BRANCH   1  43
ATOM     43  C   UNL     1      -4.416  -4.610  -5.372  1.00  0.00     0.102 C 
ATOM     44  C   UNL     1      -4.539  -4.935  -6.870  1.00  0.00     0.020 C 
BRANCH  43  45
ATOM     45  C   UNL     1      -4.984  -5.695  -4.452  1.00  0.00     0.225 C 
ATOM     46  O   UNL     1      -5.601  -6.671  -4.867  1.00  0.00    -0.275 OA
ATOM     47  N   UNL     1      -4.841  -5.462  -3.103  1.00  0.00    -0.342 N 
ATOM     48  H   UNL     1      -4.206  -4.744  -2.784  1.00  0.00     0.164 HD
BRANCH  47  49
ATOM     49  C   UNL     1      -5.304  -6.431  -2.105  1.00  0.00     0.192 C 
BRANCH  49  50
ATOM     50  C   UNL     1      -6.541  -5.880  -1.390  1.00  0.00     0.047 C 
BRANCH  50  51
ATOM     51  C   UNL     1      -6.175  -5.023  -0.170  1.00  0.00     0.103 C 
BRANCH  51  52
ATOM     52  C   UNL     1      -6.957  -5.434   1.075  1.00  0.00     0.226 C 
ATOM     53  O   UNL     1      -7.648  -6.455   1.053  1.00  0.00    -0.275 OA
BRANCH  52  54
ATOM     54  N   UNL     1      -6.772  -4.639   2.222  1.00  0.00    -0.311 N 
ATOM     55  C   UNL     1      -7.783  -3.654   2.630  1.00  0.00     0.153 C 
BRANCH  54  56
ATOM     56  C   UNL     1      -5.623  -4.761   3.020  1.00  0.00     0.102 C 
ATOM     57  C   UNL     1      -4.840  -3.738   3.400  1.00  0.00     0.043 C 
BRANCH  56  58
ATOM     58  C   UNL     1      -5.197  -6.104   3.566  1.00  0.00     0.268 C 
ATOM     59  O   UNL     1      -5.986  -6.928   4.007  1.00  0.00    -0.268 OA
ATOM     60  N   UNL     1      -3.845  -6.328   3.455  1.00  0.00    -0.339 N 
ATOM     61  H   UNL     1      -3.257  -5.589   3.087  1.00  0.00     0.164 HD
BRANCH  60  62
ATOM     62  C   UNL     1      -3.228  -7.588   3.864  1.00  0.00     0.168 CG0
ATOM     63  C   UNL     1      -1.840  -7.742   3.254  1.00  0.00     0.041 C 
ATOM     64  G   UNL     1      -4.138  -8.766   3.456  1.00  0.00     0.000 G0
ENDBRANCH  60  62
ENDBRANCH  56  58
ENDBRANCH  54  56
ENDBRANCH  52  54
ENDBRANCH  51  52
ENDBRANCH  50  51
ENDBRANCH  49  50
BRANCH  49  65
ATOM     65  C   UNL     1      -4.214  -6.742  -1.069  1.00  0.00     0.326 C 
ATOM     66  O   UNL     1      -4.305  -7.561  -0.165  1.00  0.00    -0.250 OA
BRANCH  65  67
ATOM     67  O   UNL     1      -3.101  -5.982  -1.174  1.00  0.00    -0.480 OA
ATOM     68  H   UNL     1      -2.377  -6.641  -1.246  1.00  0.00     0.296 HD
ENDBRANCH  65  67
ENDBRANCH  49  65
ENDBRANCH  47  49
ENDBRANCH  43  45
ENDBRANCH   1  43
BRANCH   1  69
ATOM     69  C   UNL     1      -6.441  -3.080  -4.622  1.00  0.00    -0.001 C 
ATOM     70  C   UNL     1      -6.953  -2.601  -3.474  1.00  0.00     0.001 C 
BRANCH  70  71
ATOM     71  C   UNL     1      -8.371  -2.462  -3.134  1.00  0.00    -0.055 C 
ATOM     72  C   UNL     1      -9.089  -1.536  -3.804  1.00  0.00    -0.018 C 
ATOM     73  C   UNL     1      -8.929  -3.366  -2.066  1.00  0.00     0.044 C 
BRANCH  72  74
ATOM     74  C   UNL     1     -10.562  -1.176  -3.668  1.00  0.00     0.038 C 
ATOM     75  C   UNL     1     -11.092  -0.898  -5.079  1.00  0.00     0.015 C 
BRANCH  74  76
ATOM     76  C   UNL     1     -10.696   0.015  -2.673  1.00  0.00     0.128 C 
BRANCH  76  77
ATOM     77  O   UNL     1     -11.727   0.912  -3.119  1.00  0.00    -0.381 OA
ATOM     78  C   UNL     1     -12.922   0.835  -2.353  1.00  0.00     0.195 C 
ENDBRANCH  76  77
BRANCH  76  79
ATOM     79  C   UNL     1     -10.874  -0.416  -1.196  1.00  0.00     0.068 C 
BRANCH  79  80
ATOM     80  C   UNL     1      -9.816   0.006  -0.204  1.00  0.00    -0.045 A 
ATOM     81  C   UNL     1      -9.954  -0.275   1.162  1.00  0.00     0.004 A 
ATOM     82  C   UNL     1      -8.685   0.715  -0.635  1.00  0.00     0.004 A 
ATOM     83  C   UNL     1      -8.978   0.131   2.074  1.00  0.00     0.000 A 
ATOM     84  C   UNL     1      -7.710   1.121   0.278  1.00  0.00     0.000 A 
ATOM     85  C   UNL     1      -7.856   0.828   1.632  1.00  0.00     0.000 A 
ENDBRANCH  79  80
ENDBRANCH  76  79
ENDBRANCH  74  76
ENDBRANCH  72  74
ENDBRANCH  70  71
ENDBRANCH   1  69
TORSDOF 17
ENDMDL
MODEL 6
REMARK VINA RESULT:    -6.509      5.152      8.360
REMARK INTER + INTRA:         -27.058
REMARK INTER:                 -19.718
REMARK INTRA:                  -7.340
REMARK UNBOUND:                -7.611
REMARK SMILES C=C1C(=O)N[C@H](C)C(=O)N[C@@H](CC(C)C)C(=O)N[C@@H](C(=O)O)[C@H](C)C(=O)N[C@@H](CCCN=C(N)N)C(=O)N[C@@H](/C=C/C(C)=C/[C@H](C)[C@H](Cc2ccccc2)OC)[C@H](C)C(=O)N[C@@H](C(=O)O)CCC(=O)N1C
REMARK SMILES IDX 39 1 38 2 37 3 36 4 28 6 27 7 25 8 26 9 23 11 24 12 19 13
REMARK SMILES IDX 18 14 16 15 17 16 11 18 10 19 8 20 9 21 12 24 13 25 14 26
REMARK SMILES IDX 15 27 20 28 21 29 22 30 29 32 30 33 31 34 32 35 33 36 34 37
REMARK SMILES IDX 35 38 57 43 58 44 59 45 60 46 61 47 62 49 66 50 67 51 68 52
REMARK SMILES IDX 69 53 70 54 71 55 2 56 1 57 3 58 4 59 5 60 6 62 7 63 63 65
REMARK SMILES IDX 64 66 65 67 40 69 41 70 42 71 44 72 43 73 45 74 46 75 47 76
REMARK SMILES IDX 55 77 56 78 48 79 49 80 50 81 54 82 51 83 53 84 52 85
REMARK H PARENT 38 5 27 10 18 17 10 22 22 31 34 39 34 40 35 41 35 42 61 48
REMARK H PARENT 5 61 65 68
REMARK Flexibility Score:  369.900
ROOT
ATOM      1  C   UNL     1      -5.337  -3.148  -4.581  1.00  0.00     0.117 C 
ENDROOT
BRANCH   1   2
ATOM      2  N   UNL     1      -5.197  -1.983  -5.455  1.00  0.00    -0.347 N 
ATOM      3  O   UNL     1      -3.013  -1.479  -4.959  1.00  0.00    -0.273 OA
ATOM      4  C   UNL     1      -4.014  -1.295  -5.643  1.00  0.00     0.243 C 
ATOM      5  H   UNL     1      -5.988  -1.676  -6.001  1.00  0.00     0.164 HD
BRANCH   4   6
ATOM      6  C   UNL     1      -4.116  -0.153  -6.687  1.00  0.00     0.171 C 
BRANCH   6   7
ATOM      7  N   UNL     1      -4.606  -0.674  -7.973  1.00  0.00    -0.344 N 
ATOM      8  C   UNL     1      -4.239  -0.077  -9.159  1.00  0.00     0.226 C 
ATOM      9  O   UNL     1      -3.518   0.913  -9.205  1.00  0.00    -0.275 OA
ATOM     10  H   UNL     1      -5.257  -1.450  -7.972  1.00  0.00     0.164 HD
BRANCH   8  11
ATOM     11  C   UNL     1      -4.781  -0.764 -10.400  1.00  0.00     0.109 C 
ATOM     12  C   UNL     1      -5.158   0.276 -11.455  1.00  0.00     0.021 C 
BRANCH  11  13
ATOM     13  C   UNL     1      -3.786  -1.841 -10.877  1.00  0.00     0.204 C 
BRANCH  13  14
ATOM     14  N   UNL     1      -2.411  -1.542 -10.465  1.00  0.00    -0.340 N 
ATOM     15  C   UNL     1      -1.460  -1.050 -11.333  1.00  0.00     0.243 C 
ATOM     16  O   UNL     1      -1.716  -0.767 -12.502  1.00  0.00    -0.273 OA
ATOM     17  H   UNL     1      -2.095  -1.894  -9.557  1.00  0.00     0.164 HD
BRANCH  15  18
ATOM     18  C   UNL     1      -0.035  -1.010 -10.730  1.00  0.00     0.171 C 
BRANCH  18  19
ATOM     19  N   UNL     1       0.873  -1.487 -11.771  1.00  0.00    -0.343 N 
ATOM     20  C   UNL     1       2.170  -1.872 -11.488  1.00  0.00     0.242 CG0
ATOM     21  O   UNL     1       2.661  -1.705 -10.374  1.00  0.00    -0.273 OA
ATOM     22  H   UNL     1       0.549  -1.534 -12.731  1.00  0.00     0.164 HD
ATOM     23  G   UNL     1       2.950  -2.421 -12.700  1.00  0.00     0.000 G0
ENDBRANCH  18  19
BRANCH  18  24
ATOM     24  C   UNL     1       0.324   0.411 -10.280  1.00  0.00     0.038 C 
BRANCH  24  25
ATOM     25  C   UNL     1       0.669   0.545  -8.782  1.00  0.00    -0.015 C 
ATOM     26  C   UNL     1      -0.351  -0.153  -7.882  1.00  0.00     0.007 C 
ATOM     27  C   UNL     1       0.760   2.026  -8.405  1.00  0.00     0.007 C 
ENDBRANCH  24  25
ENDBRANCH  18  24
ENDBRANCH  15  18
ENDBRANCH  13  14
BRANCH  13  28
ATOM     28  C   UNL     1      -4.121  -3.243 -10.360  1.00  0.00     0.327 C 
ATOM     29  O   UNL     1      -3.318  -4.096 -10.013  1.00  0.00    -0.250 OA
BRANCH  28  30
ATOM     30  O   UNL     1      -5.437  -3.530 -10.424  1.00  0.00    -0.480 OA
ATOM     31  H   UNL     1      -5.830  -3.025  -9.682  1.00  0.00     0.296 HD
ENDBRANCH  28  30
ENDBRANCH  13  28
ENDBRANCH  11  13
ENDBRANCH   8  11
ENDBRANCH   6   7
BRANCH   6  32
ATOM     32  C   UNL     1      -5.046   0.939  -6.149  1.00  0.00     0.037 C 
BRANCH  32  33
ATOM     33  C   UNL     1      -6.518   0.666  -6.489  1.00  0.00     0.026 C 
BRANCH  33  34
ATOM     34  C   UNL     1      -7.436   0.808  -5.275  1.00  0.00     0.146 C 
BRANCH  34  35
ATOM     35  N   UNL     1      -6.674   0.503  -4.072  1.00  0.00    -0.254 NA
ATOM     36  C   UNL     1      -7.031   1.040  -2.965  1.00  0.00     0.185 C 
ATOM     37  N   UNL     1      -6.339   0.762  -1.850  1.00  0.00    -0.370 N 
ATOM     38  N   UNL     1      -8.048   1.887  -2.727  1.00  0.00    -0.370 N 
ATOM     39  H   UNL     1      -5.562   0.121  -1.945  1.00  0.00     0.159 HD
ATOM     40  H   UNL     1      -6.655   1.000  -0.925  1.00  0.00     0.159 HD
ATOM     41  H   UNL     1      -8.142   2.351  -1.838  1.00  0.00     0.159 HD
ATOM     42  H   UNL     1      -8.644   2.197  -3.478  1.00  0.00     0.159 HD
ENDBRANCH  34  35
ENDBRANCH  33  34
ENDBRANCH  32  33
ENDBRANCH   6  32
ENDBRANCH   4   6
ENDBRANCH   1   2
BRANCH   1  43
ATOM     43  C   UNL     1      -4.882  -4.413  -5.366  1.00  0.00     0.102 C 
ATOM     44  C   UNL     1      -5.450  -4.485  -6.793  1.00  0.00     0.020 C 
BRANCH  43  45
ATOM     45  C   UNL     1      -5.110  -5.683  -4.541  1.00  0.00     0.225 C 
ATOM     46  O   UNL     1      -5.586  -6.712  -5.012  1.00  0.00    -0.275 OA
ATOM     47  N   UNL     1      -4.833  -5.575  -3.197  1.00  0.00    -0.342 N 
ATOM     48  H   UNL     1      -4.305  -4.783  -2.858  1.00  0.00     0.164 HD
BRANCH  47  49
ATOM     49  C   UNL     1      -4.970  -6.719  -2.292  1.00  0.00     0.192 C 
BRANCH  49  50
ATOM     50  C   UNL     1      -6.291  -6.613  -1.525  1.00  0.00     0.047 C 
BRANCH  50  51
ATOM     51  C   UNL     1      -6.268  -5.491  -0.479  1.00  0.00     0.103 C 
BRANCH  51  52
ATOM     52  C   UNL     1      -6.862  -5.938   0.855  1.00  0.00     0.226 C 
ATOM     53  O   UNL     1      -7.829  -6.703   0.867  1.00  0.00    -0.275 OA
BRANCH  52  54
ATOM     54  N   UNL     1      -6.201  -5.495   2.016  1.00  0.00    -0.311 N 
ATOM     55  C   UNL     1      -4.753  -5.246   2.014  1.00  0.00     0.153 C 
BRANCH  54  56
ATOM     56  C   UNL     1      -6.898  -5.268   3.214  1.00  0.00     0.102 C 
ATOM     57  C   UNL     1      -7.475  -4.106   3.560  1.00  0.00     0.043 C 
BRANCH  56  58
ATOM     58  C   UNL     1      -7.094  -6.379   4.219  1.00  0.00     0.268 C 
ATOM     59  O   UNL     1      -6.589  -7.488   4.099  1.00  0.00    -0.268 OA
ATOM     60  N   UNL     1      -7.840  -5.997   5.309  1.00  0.00    -0.339 N 
ATOM     61  H   UNL     1      -8.232  -5.063   5.328  1.00  0.00     0.164 HD
BRANCH  60  62
ATOM     62  C   UNL     1      -8.098  -6.899   6.431  1.00  0.00     0.168 CG0
ATOM     63  C   UNL     1      -7.093  -6.676   7.554  1.00  0.00     0.041 C 
ATOM     64  G   UNL     1      -8.053  -8.361   5.940  1.00  0.00     0.000 G0
ENDBRANCH  60  62
ENDBRANCH  56  58
ENDBRANCH  54  56
ENDBRANCH  52  54
ENDBRANCH  51  52
ENDBRANCH  50  51
ENDBRANCH  49  50
BRANCH  49  65
ATOM     65  C   UNL     1      -3.806  -6.794  -1.292  1.00  0.00     0.326 C 
ATOM     66  O   UNL     1      -3.586  -7.721  -0.525  1.00  0.00    -0.250 OA
BRANCH  65  67
ATOM     67  O   UNL     1      -3.020  -5.695  -1.258  1.00  0.00    -0.480 OA
ATOM     68  H   UNL     1      -3.662  -4.952  -1.257  1.00  0.00     0.296 HD
ENDBRANCH  65  67
ENDBRANCH  49  65
ENDBRANCH  47  49
ENDBRANCH  43  45
ENDBRANCH   1  43
BRANCH   1  69
ATOM     69  C   UNL     1      -6.750  -3.096  -4.029  1.00  0.00    -0.001 C 
ATOM     70  C   UNL     1      -7.133  -2.698  -2.803  1.00  0.00     0.001 C 
BRANCH  70  71
ATOM     71  C   UNL     1      -8.502  -2.633  -2.288  1.00  0.00    -0.055 C 
ATOM     72  C   UNL     1      -9.406  -1.922  -2.996  1.00  0.00    -0.018 C 
ATOM     73  C   UNL     1      -8.808  -3.369  -1.010  1.00  0.00     0.044 C 
BRANCH  72  74
ATOM     74  C   UNL     1     -10.881  -1.683  -2.710  1.00  0.00     0.038 C 
ATOM     75  C   UNL     1     -11.633  -1.854  -4.035  1.00  0.00     0.015 C 
BRANCH  74  76
ATOM     76  C   UNL     1     -11.043  -0.285  -2.043  1.00  0.00     0.128 C 
BRANCH  76  77
ATOM     77  O   UNL     1     -11.877   0.555  -2.859  1.00  0.00    -0.381 OA
ATOM     78  C   UNL     1     -12.962   1.140  -2.152  1.00  0.00     0.195 C 
ENDBRANCH  76  77
BRANCH  76  79
ATOM     79  C   UNL     1     -11.511  -0.342  -0.567  1.00  0.00     0.068 C 
BRANCH  79  80
ATOM     80  C   UNL     1     -10.454  -0.439   0.507  1.00  0.00    -0.045 A 
ATOM     81  C   UNL     1      -9.170   0.085   0.306  1.00  0.00     0.004 A 
ATOM     82  C   UNL     1     -10.735  -1.086   1.720  1.00  0.00     0.004 A 
ATOM     83  C   UNL     1      -8.194  -0.022   1.298  1.00  0.00     0.000 A 
ATOM     84  C   UNL     1      -9.758  -1.192   2.712  1.00  0.00     0.000 A 
ATOM     85  C   UNL     1      -8.488  -0.659   2.502  1.00  0.00     0.000 A 
ENDBRANCH  79  80
ENDBRANCH  76  79
ENDBRANCH  74  76
ENDBRANCH  72  74
ENDBRANCH  70  71
ENDBRANCH   1  69
TORSDOF 17
ENDMDL
MODEL 7
REMARK VINA RESULT:    -6.471      4.382     13.268
REMARK INTER + INTRA:         -26.945
REMARK INTER:                 -20.193
REMARK INTRA:                  -6.752
REMARK UNBOUND:                -7.611
REMARK SMILES C=C1C(=O)N[C@H](C)C(=O)N[C@@H](CC(C)C)C(=O)N[C@@H](C(=O)O)[C@H](C)C(=O)N[C@@H](CCCN=C(N)N)C(=O)N[C@@H](/C=C/C(C)=C/[C@H](C)[C@H](Cc2ccccc2)OC)[C@H](C)C(=O)N[C@@H](C(=O)O)CCC(=O)N1C
REMARK SMILES IDX 39 1 38 2 37 3 36 4 28 6 27 7 25 8 26 9 23 11 24 12 19 13
REMARK SMILES IDX 18 14 16 15 17 16 11 18 10 19 8 20 9 21 12 24 13 25 14 26
REMARK SMILES IDX 15 27 20 28 21 29 22 30 29 32 30 33 31 34 32 35 33 36 34 37
REMARK SMILES IDX 35 38 57 43 58 44 59 45 60 46 61 47 62 49 66 50 67 51 68 52
REMARK SMILES IDX 69 53 70 54 71 55 2 56 1 57 3 58 4 59 5 60 6 62 7 63 63 65
REMARK SMILES IDX 64 66 65 67 40 69 41 70 42 71 44 72 43 73 45 74 46 75 47 76
REMARK SMILES IDX 55 77 56 78 48 79 49 80 50 81 54 82 51 83 53 84 52 85
REMARK H PARENT 38 5 27 10 18 17 10 22 22 31 34 39 34 40 35 41 35 42 61 48
REMARK H PARENT 5 61 65 68
REMARK Flexibility Score:  369.900
ROOT
ATOM      1  C   UNL     1      -4.494  -3.510  -6.223  1.00  0.00     0.117 C 
ENDROOT
BRANCH   1   2
ATOM      2  N   UNL     1      -4.939  -2.249  -5.629  1.00  0.00    -0.347 N 
ATOM      3  O   UNL     1      -3.284  -0.903  -6.477  1.00  0.00    -0.273 OA
ATOM      4  C   UNL     1      -4.348  -1.025  -5.879  1.00  0.00     0.243 C 
ATOM      5  H   UNL     1      -5.755  -2.242  -5.036  1.00  0.00     0.164 HD
BRANCH   4   6
ATOM      6  C   UNL     1      -5.065   0.165  -5.193  1.00  0.00     0.171 C 
BRANCH   6   7
ATOM      7  N   UNL     1      -5.962  -0.318  -4.130  1.00  0.00    -0.344 N 
ATOM      8  C   UNL     1      -7.264   0.127  -4.054  1.00  0.00     0.226 C 
ATOM      9  O   UNL     1      -7.728   0.948  -4.836  1.00  0.00    -0.275 OA
ATOM     10  H   UNL     1      -5.595  -0.946  -3.426  1.00  0.00     0.164 HD
BRANCH   8  11
ATOM     11  C   UNL     1      -8.076  -0.505  -2.937  1.00  0.00     0.109 C 
ATOM     12  C   UNL     1      -7.511  -1.882  -2.590  1.00  0.00     0.021 C 
BRANCH  11  13
ATOM     13  C   UNL     1      -8.177   0.472  -1.749  1.00  0.00     0.204 C 
BRANCH  13  14
ATOM     14  N   UNL     1      -9.430   0.308  -1.005  1.00  0.00    -0.340 N 
ATOM     15  C   UNL     1     -10.122   1.369  -0.462  1.00  0.00     0.243 C 
ATOM     16  O   UNL     1      -9.768   2.537  -0.615  1.00  0.00    -0.273 OA
ATOM     17  H   UNL     1      -9.696  -0.636  -0.714  1.00  0.00     0.164 HD
BRANCH  15  18
ATOM     18  C   UNL     1     -11.296   0.939   0.452  1.00  0.00     0.171 C 
BRANCH  18  19
ATOM     19  N   UNL     1     -11.163  -0.502   0.655  1.00  0.00    -0.343 N 
ATOM     20  C   UNL     1     -12.249  -1.352   0.584  1.00  0.00     0.242 CG0
ATOM     21  O   UNL     1     -13.396  -0.923   0.480  1.00  0.00    -0.273 OA
ATOM     22  H   UNL     1     -10.250  -0.893   0.859  1.00  0.00     0.164 HD
ATOM     23  G   UNL     1     -11.901  -2.846   0.747  1.00  0.00     0.000 G0
ENDBRANCH  18  19
BRANCH  18  24
ATOM     24  C   UNL     1     -11.254   1.700   1.782  1.00  0.00     0.038 C 
BRANCH  24  25
ATOM     25  C   UNL     1     -12.585   2.370   2.184  1.00  0.00    -0.015 C 
ATOM     26  C   UNL     1     -13.446   1.474   3.074  1.00  0.00     0.007 C 
ATOM     27  C   UNL     1     -13.369   2.752   0.926  1.00  0.00     0.007 C 
ENDBRANCH  24  25
ENDBRANCH  18  24
ENDBRANCH  15  18
ENDBRANCH  13  14
BRANCH  13  28
ATOM     28  C   UNL     1      -7.031   0.322  -0.744  1.00  0.00     0.327 C 
ATOM     29  O   UNL     1      -7.096  -0.209   0.354  1.00  0.00    -0.250 OA
BRANCH  28  30
ATOM     30  O   UNL     1      -5.903   0.952  -1.132  1.00  0.00    -0.480 OA
ATOM     31  H   UNL     1      -6.125   1.328  -2.009  1.00  0.00     0.296 HD
ENDBRANCH  28  30
ENDBRANCH  13  28
ENDBRANCH  11  13
ENDBRANCH   8  11
ENDBRANCH   6   7
BRANCH   6  32
ATOM     32  C   UNL     1      -4.015   1.127  -4.627  1.00  0.00     0.037 C 
BRANCH  32  33
ATOM     33  C   UNL     1      -4.287   2.584  -5.028  1.00  0.00     0.026 C 
BRANCH  33  34
ATOM     34  C   UNL     1      -4.617   2.729  -6.514  1.00  0.00     0.146 C 
BRANCH  34  35
ATOM     35  N   UNL     1      -3.381   2.953  -7.250  1.00  0.00    -0.254 NA
ATOM     36  C   UNL     1      -3.103   2.182  -8.235  1.00  0.00     0.185 C 
ATOM     37  N   UNL     1      -1.969   2.382  -8.923  1.00  0.00    -0.370 N 
ATOM     38  N   UNL     1      -3.808   1.144  -8.719  1.00  0.00    -0.370 N 
ATOM     39  H   UNL     1      -1.387   3.155  -8.625  1.00  0.00     0.159 HD
ATOM     40  H   UNL     1      -1.767   1.940  -9.803  1.00  0.00     0.159 HD
ATOM     41  H   UNL     1      -3.416   0.526  -9.412  1.00  0.00     0.159 HD
ATOM     42  H   UNL     1      -4.676   0.868  -8.288  1.00  0.00     0.159 HD
ENDBRANCH  34  35
ENDBRANCH  33  34
ENDBRANCH  32  33
ENDBRANCH   6  32
ENDBRANCH   4   6
ENDBRANCH   1   2
BRANCH   1  43
ATOM     43  C   UNL     1      -5.189  -3.678  -7.605  1.00  0.00     0.102 C 
ATOM     44  C   UNL     1      -6.264  -4.779  -7.620  1.00  0.00     0.020 C 
BRANCH  43  45
ATOM     45  C   UNL     1      -4.156  -3.803  -8.729  1.00  0.00     0.225 C 
ATOM     46  O   UNL     1      -3.269  -4.652  -8.734  1.00  0.00    -0.275 OA
ATOM     47  N   UNL     1      -4.222  -2.835  -9.705  1.00  0.00    -0.342 N 
ATOM     48  H   UNL     1      -5.039  -2.244  -9.769  1.00  0.00     0.164 HD
BRANCH  47  49
ATOM     49  C   UNL     1      -3.320  -2.849 -10.860  1.00  0.00     0.192 C 
BRANCH  49  50
ATOM     50  C   UNL     1      -2.755  -1.445 -11.089  1.00  0.00     0.047 C 
BRANCH  50  51
ATOM     51  C   UNL     1      -1.294  -1.324 -10.636  1.00  0.00     0.103 C 
BRANCH  51  52
ATOM     52  C   UNL     1      -0.638  -0.044 -11.151  1.00  0.00     0.226 C 
ATOM     53  O   UNL     1      -1.337   0.847 -11.636  1.00  0.00    -0.275 OA
BRANCH  52  54
ATOM     54  N   UNL     1       0.752   0.067 -10.962  1.00  0.00    -0.311 N 
ATOM     55  C   UNL     1       1.658  -1.020 -11.356  1.00  0.00     0.153 C 
BRANCH  54  56
ATOM     56  C   UNL     1       1.325   1.220 -10.398  1.00  0.00     0.102 C 
ATOM     57  C   UNL     1       1.498   1.426  -9.083  1.00  0.00     0.043 C 
BRANCH  56  58
ATOM     58  C   UNL     1       1.848   2.333 -11.274  1.00  0.00     0.268 C 
ATOM     59  O   UNL     1       1.904   2.255 -12.494  1.00  0.00    -0.268 OA
ATOM     60  N   UNL     1       2.189   3.462 -10.567  1.00  0.00    -0.339 N 
ATOM     61  H   UNL     1       2.123   3.442  -9.557  1.00  0.00     0.164 HD
BRANCH  60  62
ATOM     62  C   UNL     1       2.660   4.680 -11.225  1.00  0.00     0.168 CG0
ATOM     63  C   UNL     1       1.515   5.662 -11.441  1.00  0.00     0.041 C 
ATOM     64  G   UNL     1       3.329   4.318 -12.567  1.00  0.00     0.000 G0
ENDBRANCH  60  62
ENDBRANCH  56  58
ENDBRANCH  54  56
ENDBRANCH  52  54
ENDBRANCH  51  52
ENDBRANCH  50  51
ENDBRANCH  49  50
BRANCH  49  65
ATOM     65  C   UNL     1      -4.038  -3.323 -12.134  1.00  0.00     0.326 C 
ATOM     66  O   UNL     1      -4.140  -4.484 -12.501  1.00  0.00    -0.250 OA
BRANCH  65  67
ATOM     67  O   UNL     1      -4.531  -2.329 -12.905  1.00  0.00    -0.480 OA
ATOM     68  H   UNL     1      -3.773  -2.081 -13.476  1.00  0.00     0.296 HD
ENDBRANCH  65  67
ENDBRANCH  49  65
ENDBRANCH  47  49
ENDBRANCH  43  45
ENDBRANCH   1  43
BRANCH   1  69
ATOM     69  C   UNL     1      -4.703  -4.575  -5.163  1.00  0.00    -0.001 C 
ATOM     70  C   UNL     1      -5.439  -4.479  -4.041  1.00  0.00     0.001 C 
BRANCH  70  71
ATOM     71  C   UNL     1      -5.650  -5.522  -3.036  1.00  0.00    -0.055 C 
ATOM     72  C   UNL     1      -5.925  -5.130  -1.774  1.00  0.00    -0.018 C 
ATOM     73  C   UNL     1      -5.554  -6.957  -3.482  1.00  0.00     0.044 C 
BRANCH  72  74
ATOM     74  C   UNL     1      -6.191  -5.978  -0.538  1.00  0.00     0.038 C 
ATOM     75  C   UNL     1      -7.698  -5.919  -0.263  1.00  0.00     0.015 C 
BRANCH  74  76
ATOM     76  C   UNL     1      -5.294  -5.462   0.626  1.00  0.00     0.128 C 
BRANCH  76  77
ATOM     77  O   UNL     1      -5.817  -5.914   1.886  1.00  0.00    -0.381 OA
ATOM     78  C   UNL     1      -5.911  -4.888   2.866  1.00  0.00     0.195 C 
ENDBRANCH  76  77
BRANCH  76  79
ATOM     79  C   UNL     1      -3.788  -5.786   0.451  1.00  0.00     0.068 C 
BRANCH  79  80
ATOM     80  C   UNL     1      -3.378  -7.238   0.402  1.00  0.00    -0.045 A 
ATOM     81  C   UNL     1      -2.967  -7.911   1.560  1.00  0.00     0.004 A 
ATOM     82  C   UNL     1      -3.376  -7.931  -0.818  1.00  0.00     0.004 A 
ATOM     83  C   UNL     1      -2.576  -9.251   1.504  1.00  0.00     0.000 A 
ATOM     84  C   UNL     1      -2.984  -9.271  -0.873  1.00  0.00     0.000 A 
ATOM     85  C   UNL     1      -2.586  -9.930   0.287  1.00  0.00     0.000 A 
ENDBRANCH  79  80
ENDBRANCH  76  79
ENDBRANCH  74  76
ENDBRANCH  72  74
ENDBRANCH  70  71
ENDBRANCH   1  69
TORSDOF 17
ENDMDL
MODEL 8
REMARK VINA RESULT:    -6.463      3.496     10.908
REMARK INTER + INTRA:         -26.920
REMARK INTER:                 -18.672
REMARK INTRA:                  -8.249
REMARK UNBOUND:                -7.611
REMARK SMILES C=C1C(=O)N[C@H](C)C(=O)N[C@@H](CC(C)C)C(=O)N[C@@H](C(=O)O)[C@H](C)C(=O)N[C@@H](CCCN=C(N)N)C(=O)N[C@@H](/C=C/C(C)=C/[C@H](C)[C@H](Cc2ccccc2)OC)[C@H](C)C(=O)N[C@@H](C(=O)O)CCC(=O)N1C
REMARK SMILES IDX 39 1 38 2 37 3 36 4 28 6 27 7 25 8 26 9 23 11 24 12 19 13
REMARK SMILES IDX 18 14 16 15 17 16 11 18 10 19 8 20 9 21 12 24 13 25 14 26
REMARK SMILES IDX 15 27 20 28 21 29 22 30 29 32 30 33 31 34 32 35 33 36 34 37
REMARK SMILES IDX 35 38 57 43 58 44 59 45 60 46 61 47 62 49 66 50 67 51 68 52
REMARK SMILES IDX 69 53 70 54 71 55 2 56 1 57 3 58 4 59 5 60 6 62 7 63 63 65
REMARK SMILES IDX 64 66 65 67 40 69 41 70 42 71 44 72 43 73 45 74 46 75 47 76
REMARK SMILES IDX 55 77 56 78 48 79 49 80 50 81 54 82 51 83 53 84 52 85
REMARK H PARENT 38 5 27 10 18 17 10 22 22 31 34 39 34 40 35 41 35 42 61 48
REMARK H PARENT 5 61 65 68
REMARK Flexibility Score:  369.900
ROOT
ATOM      1  C   UNL     1      -7.103   1.342  -8.178  1.00  0.00     0.117 C 
ENDROOT
BRANCH   1   2
ATOM      2  N   UNL     1      -6.836   0.207  -7.294  1.00  0.00    -0.347 N 
ATOM      3  O   UNL     1      -8.820  -0.905  -7.604  1.00  0.00    -0.273 OA
ATOM      4  C   UNL     1      -7.682  -0.876  -7.149  1.00  0.00     0.243 C 
ATOM      5  H   UNL     1      -5.964   0.169  -6.788  1.00  0.00     0.164 HD
BRANCH   4   6
ATOM      6  C   UNL     1      -7.123  -1.982  -6.218  1.00  0.00     0.171 C 
BRANCH   6   7
ATOM      7  N   UNL     1      -7.677  -1.842  -4.862  1.00  0.00    -0.344 N 
ATOM      8  C   UNL     1      -7.135  -0.940  -3.972  1.00  0.00     0.226 C 
ATOM      9  O   UNL     1      -6.170  -0.238  -4.248  1.00  0.00    -0.275 OA
ATOM     10  H   UNL     1      -8.432  -2.452  -4.574  1.00  0.00     0.164 HD
BRANCH   8  11
ATOM     11  C   UNL     1      -7.852  -0.874  -2.634  1.00  0.00     0.109 C 
ATOM     12  C   UNL     1      -7.289  -1.931  -1.684  1.00  0.00     0.021 C 
BRANCH  11  13
ATOM     13  C   UNL     1      -7.815   0.569  -2.093  1.00  0.00     0.204 C 
BRANCH  13  14
ATOM     14  N   UNL     1      -9.124   1.006  -1.598  1.00  0.00    -0.340 N 
ATOM     15  C   UNL     1      -9.677   2.226  -1.920  1.00  0.00     0.243 C 
ATOM     16  O   UNL     1      -9.137   3.012  -2.697  1.00  0.00    -0.273 OA
ATOM     17  H   UNL     1      -9.552   0.473  -0.836  1.00  0.00     0.164 HD
BRANCH  15  18
ATOM     18  C   UNL     1     -10.961   2.555  -1.119  1.00  0.00     0.171 C 
BRANCH  18  19
ATOM     19  N   UNL     1     -10.642   2.335   0.291  1.00  0.00    -0.343 N 
ATOM     20  C   UNL     1     -11.497   1.651   1.133  1.00  0.00     0.242 CG0
ATOM     21  O   UNL     1     -12.622   1.312   0.772  1.00  0.00    -0.273 OA
ATOM     22  H   UNL     1      -9.774   2.698   0.667  1.00  0.00     0.164 HD
ATOM     23  G   UNL     1     -10.956   1.450   2.564  1.00  0.00     0.000 G0
ENDBRANCH  18  19
BRANCH  18  24
ATOM     24  C   UNL     1     -11.405   4.000  -1.376  1.00  0.00     0.038 C 
BRANCH  24  25
ATOM     25  C   UNL     1     -12.363   4.176  -2.574  1.00  0.00    -0.015 C 
ATOM     26  C   UNL     1     -11.894   5.260  -3.544  1.00  0.00     0.007 C 
ATOM     27  C   UNL     1     -13.767   4.512  -2.065  1.00  0.00     0.007 C 
ENDBRANCH  24  25
ENDBRANCH  18  24
ENDBRANCH  15  18
ENDBRANCH  13  14
BRANCH  13  28
ATOM     28  C   UNL     1      -6.811   0.762  -0.953  1.00  0.00     0.327 C 
ATOM     29  O   UNL     1      -7.055   0.700   0.243  1.00  0.00    -0.250 OA
BRANCH  28  30
ATOM     30  O   UNL     1      -5.589   1.137  -1.382  1.00  0.00    -0.480 OA
ATOM     31  H   UNL     1      -5.771   1.810  -2.070  1.00  0.00     0.296 HD
ENDBRANCH  28  30
ENDBRANCH  13  28
ENDBRANCH  11  13
ENDBRANCH   8  11
ENDBRANCH   6   7
BRANCH   6  32
ATOM     32  C   UNL     1      -7.463  -3.355  -6.808  1.00  0.00     0.037 C 
BRANCH  32  33
ATOM     33  C   UNL     1      -6.453  -3.791  -7.879  1.00  0.00     0.026 C 
BRANCH  33  34
ATOM     34  C   UNL     1      -5.038  -3.946  -7.321  1.00  0.00     0.146 C 
BRANCH  34  35
ATOM     35  N   UNL     1      -4.099  -4.014  -8.432  1.00  0.00    -0.254 NA
ATOM     36  C   UNL     1      -3.561  -2.929  -8.849  1.00  0.00     0.185 C 
ATOM     37  N   UNL     1      -2.691  -2.980  -9.869  1.00  0.00    -0.370 N 
ATOM     38  N   UNL     1      -3.738  -1.673  -8.402  1.00  0.00    -0.370 N 
ATOM     39  H   UNL     1      -2.497  -3.895 -10.254  1.00  0.00     0.159 HD
ATOM     40  H   UNL     1      -2.102  -2.210 -10.136  1.00  0.00     0.159 HD
ATOM     41  H   UNL     1      -3.364  -0.884  -8.904  1.00  0.00     0.159 HD
ATOM     42  H   UNL     1      -4.378  -1.482  -7.647  1.00  0.00     0.159 HD
ENDBRANCH  34  35
ENDBRANCH  33  34
ENDBRANCH  32  33
ENDBRANCH   6  32
ENDBRANCH   4   6
ENDBRANCH   1   2
BRANCH   1  43
ATOM     43  C   UNL     1      -5.759   2.068  -8.472  1.00  0.00     0.102 C 
ATOM     44  C   UNL     1      -5.048   1.551  -9.735  1.00  0.00     0.020 C 
BRANCH  43  45
ATOM     45  C   UNL     1      -4.868   2.101  -7.227  1.00  0.00     0.225 C 
ATOM     46  O   UNL     1      -5.255   2.508  -6.135  1.00  0.00    -0.275 OA
ATOM     47  N   UNL     1      -3.558   1.729  -7.426  1.00  0.00    -0.342 N 
ATOM     48  H   UNL     1      -3.296   1.258  -8.281  1.00  0.00     0.164 HD
BRANCH  47  49
ATOM     49  C   UNL     1      -2.599   1.679  -6.318  1.00  0.00     0.192 C 
BRANCH  49  50
ATOM     50  C   UNL     1      -1.174   1.605  -6.874  1.00  0.00     0.047 C 
BRANCH  50  51
ATOM     51  C   UNL     1      -1.153   1.434  -8.399  1.00  0.00     0.103 C 
BRANCH  51  52
ATOM     52  C   UNL     1      -0.404   0.173  -8.824  1.00  0.00     0.226 C 
ATOM     53  O   UNL     1      -0.757  -0.923  -8.385  1.00  0.00    -0.275 OA
BRANCH  52  54
ATOM     54  N   UNL     1       0.621   0.342  -9.774  1.00  0.00    -0.311 N 
ATOM     55  C   UNL     1       1.276   1.644  -9.955  1.00  0.00     0.153 C 
BRANCH  54  56
ATOM     56  C   UNL     1       1.059  -0.724 -10.577  1.00  0.00     0.102 C 
ATOM     57  C   UNL     1       0.484  -1.104 -11.730  1.00  0.00     0.043 C 
BRANCH  56  58
ATOM     58  C   UNL     1       2.286  -1.522 -10.204  1.00  0.00     0.268 C 
ATOM     59  O   UNL     1       2.849  -1.418  -9.123  1.00  0.00    -0.268 OA
ATOM     60  N   UNL     1       2.662  -2.420 -11.175  1.00  0.00    -0.339 N 
ATOM     61  H   UNL     1       2.149  -2.437 -12.048  1.00  0.00     0.164 HD
BRANCH  60  62
ATOM     62  C   UNL     1       3.786  -3.337 -10.994  1.00  0.00     0.168 CG0
ATOM     63  C   UNL     1       3.411  -4.487 -10.068  1.00  0.00     0.041 C 
ATOM     64  G   UNL     1       5.000  -2.563 -10.439  1.00  0.00     0.000 G0
ENDBRANCH  60  62
ENDBRANCH  56  58
ENDBRANCH  54  56
ENDBRANCH  52  54
ENDBRANCH  51  52
ENDBRANCH  50  51
ENDBRANCH  49  50
BRANCH  49  65
ATOM     65  C   UNL     1      -2.852   0.469  -5.405  1.00  0.00     0.326 C 
ATOM     66  O   UNL     1      -2.590  -0.694  -5.677  1.00  0.00    -0.250 OA
BRANCH  65  67
ATOM     67  O   UNL     1      -3.467   0.762  -4.238  1.00  0.00    -0.480 OA
ATOM     68  H   UNL     1      -3.487   1.744  -4.227  1.00  0.00     0.296 HD
ENDBRANCH  65  67
ENDBRANCH  49  65
ENDBRANCH  47  49
ENDBRANCH  43  45
ENDBRANCH   1  43
BRANCH   1  69
ATOM     69  C   UNL     1      -8.233   2.124  -7.533  1.00  0.00    -0.001 C 
ATOM     70  C   UNL     1      -8.660   3.358  -7.854  1.00  0.00     0.001 C 
BRANCH  70  71
ATOM     71  C   UNL     1      -9.766   4.095  -7.239  1.00  0.00    -0.055 C 
ATOM     72  C   UNL     1     -11.023   3.730  -7.569  1.00  0.00    -0.018 C 
ATOM     73  C   UNL     1      -9.423   5.201  -6.276  1.00  0.00     0.044 C 
BRANCH  72  74
ATOM     74  C   UNL     1     -12.349   4.304  -7.091  1.00  0.00     0.038 C 
ATOM     75  C   UNL     1     -13.085   3.184  -6.346  1.00  0.00     0.015 C 
BRANCH  74  76
ATOM     76  C   UNL     1     -13.113   4.886  -8.317  1.00  0.00     0.128 C 
BRANCH  76  77
ATOM     77  O   UNL     1     -14.521   4.627  -8.186  1.00  0.00    -0.381 OA
ATOM     78  C   UNL     1     -15.344   5.652  -8.726  1.00  0.00     0.195 C 
ENDBRANCH  76  77
BRANCH  76  79
ATOM     79  C   UNL     1     -12.803   6.377  -8.602  1.00  0.00     0.068 C 
BRANCH  79  80
ATOM     80  C   UNL     1     -11.467   6.715  -9.220  1.00  0.00    -0.045 A 
ATOM     81  C   UNL     1     -11.074   6.154 -10.442  1.00  0.00     0.004 A 
ATOM     82  C   UNL     1     -10.582   7.581  -8.560  1.00  0.00     0.004 A 
ATOM     83  C   UNL     1      -9.832   6.461 -11.000  1.00  0.00     0.000 A 
ATOM     84  C   UNL     1      -9.339   7.887  -9.119  1.00  0.00     0.000 A 
ATOM     85  C   UNL     1      -8.965   7.329 -10.339  1.00  0.00     0.000 A 
ENDBRANCH  79  80
ENDBRANCH  76  79
ENDBRANCH  74  76
ENDBRANCH  72  74
ENDBRANCH  70  71
ENDBRANCH   1  69
TORSDOF 17
ENDMDL
MODEL 9
REMARK VINA RESULT:    -6.436      2.265      2.699
REMARK INTER + INTRA:         -26.841
REMARK INTER:                 -19.389
REMARK INTRA:                  -7.452
REMARK UNBOUND:                -7.611
REMARK SMILES C=C1C(=O)N[C@H](C)C(=O)N[C@@H](CC(C)C)C(=O)N[C@@H](C(=O)O)[C@H](C)C(=O)N[C@@H](CCCN=C(N)N)C(=O)N[C@@H](/C=C/C(C)=C/[C@H](C)[C@H](Cc2ccccc2)OC)[C@H](C)C(=O)N[C@@H](C(=O)O)CCC(=O)N1C
REMARK SMILES IDX 39 1 38 2 37 3 36 4 28 6 27 7 25 8 26 9 23 11 24 12 19 13
REMARK SMILES IDX 18 14 16 15 17 16 11 18 10 19 8 20 9 21 12 24 13 25 14 26
REMARK SMILES IDX 15 27 20 28 21 29 22 30 29 32 30 33 31 34 32 35 33 36 34 37
REMARK SMILES IDX 35 38 57 43 58 44 59 45 60 46 61 47 62 49 66 50 67 51 68 52
REMARK SMILES IDX 69 53 70 54 71 55 2 56 1 57 3 58 4 59 5 60 6 62 7 63 63 65
REMARK SMILES IDX 64 66 65 67 40 69 41 70 42 71 44 72 43 73 45 74 46 75 47 76
REMARK SMILES IDX 55 77 56 78 48 79 49 80 50 81 54 82 51 83 53 84 52 85
REMARK H PARENT 38 5 27 10 18 17 10 22 22 31 34 39 34 40 35 41 35 42 61 48
REMARK H PARENT 5 61 65 68
REMARK Flexibility Score:  369.900
ROOT
ATOM      1  C   UNL     1      -5.280  -0.492  -8.747  1.00  0.00     0.117 C 
ENDROOT
BRANCH   1   2
ATOM      2  N   UNL     1      -4.241   0.464  -8.361  1.00  0.00    -0.347 N 
ATOM      3  O   UNL     1      -4.389   0.186  -6.087  1.00  0.00    -0.273 OA
ATOM      4  C   UNL     1      -3.814   0.659  -7.062  1.00  0.00     0.243 C 
ATOM      5  H   UNL     1      -3.759   0.986  -9.077  1.00  0.00     0.164 HD
BRANCH   4   6
ATOM      6  C   UNL     1      -2.641   1.665  -6.935  1.00  0.00     0.171 C 
BRANCH   6   7
ATOM      7  N   UNL     1      -1.533   1.277  -7.823  1.00  0.00    -0.344 N 
ATOM      8  C   UNL     1      -0.626   0.315  -7.435  1.00  0.00     0.226 C 
ATOM      9  O   UNL     1      -0.678  -0.240  -6.344  1.00  0.00    -0.275 OA
ATOM     10  H   UNL     1      -1.418   1.761  -8.704  1.00  0.00     0.164 HD
BRANCH   8  11
ATOM     11  C   UNL     1       0.425  -0.012  -8.481  1.00  0.00     0.109 C 
ATOM     12  C   UNL     1       0.836  -1.481  -8.372  1.00  0.00     0.021 C 
BRANCH  11  13
ATOM     13  C   UNL     1      -0.075   0.419  -9.875  1.00  0.00     0.204 C 
BRANCH  13  14
ATOM     14  N   UNL     1       0.839   1.366 -10.520  1.00  0.00    -0.340 N 
ATOM     15  C   UNL     1       0.713   2.732 -10.393  1.00  0.00     0.243 C 
ATOM     16  O   UNL     1      -0.141   3.253  -9.679  1.00  0.00    -0.273 OA
ATOM     17  H   UNL     1       1.470   1.008 -11.242  1.00  0.00     0.164 HD
BRANCH  15  18
ATOM     18  C   UNL     1       1.657   3.530 -11.326  1.00  0.00     0.171 C 
BRANCH  18  19
ATOM     19  N   UNL     1       2.488   2.548 -12.020  1.00  0.00    -0.343 N 
ATOM     20  C   UNL     1       3.741   2.866 -12.506  1.00  0.00     0.242 CG0
ATOM     21  O   UNL     1       4.161   4.021 -12.495  1.00  0.00    -0.273 OA
ATOM     22  H   UNL     1       2.136   1.607 -12.157  1.00  0.00     0.164 HD
ATOM     23  G   UNL     1       4.499   1.680 -13.138  1.00  0.00     0.000 G0
ENDBRANCH  18  19
BRANCH  18  24
ATOM     24  C   UNL     1       0.850   4.382 -12.314  1.00  0.00     0.038 C 
BRANCH  24  25
ATOM     25  C   UNL     1       0.985   5.906 -12.110  1.00  0.00    -0.015 C 
ATOM     26  C   UNL     1       1.513   6.618 -13.355  1.00  0.00     0.007 C 
ATOM     27  C   UNL     1       1.911   6.186 -10.923  1.00  0.00     0.007 C 
ENDBRANCH  24  25
ENDBRANCH  18  24
ENDBRANCH  15  18
ENDBRANCH  13  14
BRANCH  13  28
ATOM     28  C   UNL     1      -0.266  -0.757 -10.838  1.00  0.00     0.327 C 
ATOM     29  O   UNL     1      -1.241  -1.489 -10.901  1.00  0.00    -0.250 OA
BRANCH  28  30
ATOM     30  O   UNL     1       0.829  -1.013 -11.582  1.00  0.00    -0.480 OA
ATOM     31  H   UNL     1       0.486  -1.508 -12.354  1.00  0.00     0.296 HD
ENDBRANCH  28  30
ENDBRANCH  13  28
ENDBRANCH  11  13
ENDBRANCH   8  11
ENDBRANCH   6   7
BRANCH   6  32
ATOM     32  C   UNL     1      -3.146   3.072  -7.273  1.00  0.00     0.037 C 
BRANCH  32  33
ATOM     33  C   UNL     1      -3.748   3.780  -6.052  1.00  0.00     0.026 C 
BRANCH  33  34
ATOM     34  C   UNL     1      -5.233   4.099  -6.233  1.00  0.00     0.146 C 
BRANCH  34  35
ATOM     35  N   UNL     1      -5.933   3.798  -4.991  1.00  0.00    -0.254 NA
ATOM     36  C   UNL     1      -6.690   2.765  -4.947  1.00  0.00     0.185 C 
ATOM     37  N   UNL     1      -7.335   2.476  -3.807  1.00  0.00    -0.370 N 
ATOM     38  N   UNL     1      -6.957   1.872  -5.916  1.00  0.00    -0.370 N 
ATOM     39  H   UNL     1      -7.177   3.099  -3.025  1.00  0.00     0.159 HD
ATOM     40  H   UNL     1      -7.802   1.602  -3.639  1.00  0.00     0.159 HD
ATOM     41  H   UNL     1      -7.679   1.180  -5.802  1.00  0.00     0.159 HD
ATOM     42  H   UNL     1      -6.552   1.974  -6.834  1.00  0.00     0.159 HD
ENDBRANCH  34  35
ENDBRANCH  33  34
ENDBRANCH  32  33
ENDBRANCH   6  32
ENDBRANCH   4   6
ENDBRANCH   1   2
BRANCH   1  43
ATOM     43  C   UNL     1      -4.627  -1.894  -8.912  1.00  0.00     0.102 C 
ATOM     44  C   UNL     1      -4.513  -2.348 -10.377  1.00  0.00     0.020 C 
BRANCH  43  45
ATOM     45  C   UNL     1      -5.293  -2.923  -7.993  1.00  0.00     0.225 C 
ATOM     46  O   UNL     1      -5.840  -3.940  -8.409  1.00  0.00    -0.275 OA
ATOM     47  N   UNL     1      -5.326  -2.590  -6.658  1.00  0.00    -0.342 N 
ATOM     48  H   UNL     1      -4.747  -1.837  -6.315  1.00  0.00     0.164 HD
BRANCH  47  49
ATOM     49  C   UNL     1      -5.900  -3.495  -5.657  1.00  0.00     0.192 C 
BRANCH  49  50
ATOM     50  C   UNL     1      -6.582  -2.679  -4.556  1.00  0.00     0.047 C 
BRANCH  50  51
ATOM     51  C   UNL     1      -8.081  -2.483  -4.820  1.00  0.00     0.103 C 
BRANCH  51  52
ATOM     52  C   UNL     1      -8.597  -1.163  -4.250  1.00  0.00     0.226 C 
ATOM     53  O   UNL     1      -8.652  -0.167  -4.973  1.00  0.00    -0.275 OA
BRANCH  52  54
ATOM     54  N   UNL     1      -9.057  -1.192  -2.921  1.00  0.00    -0.311 N 
ATOM     55  C   UNL     1     -10.249  -1.966  -2.550  1.00  0.00     0.153 C 
BRANCH  54  56
ATOM     56  C   UNL     1      -8.394  -0.489  -1.901  1.00  0.00     0.102 C 
ATOM     57  C   UNL     1      -7.133  -0.722  -1.501  1.00  0.00     0.043 C 
BRANCH  56  58
ATOM     58  C   UNL     1      -9.070   0.656  -1.183  1.00  0.00     0.268 C 
ATOM     59  O   UNL     1      -9.458   1.667  -1.753  1.00  0.00    -0.268 OA
ATOM     60  N   UNL     1      -9.261   0.416   0.157  1.00  0.00    -0.339 N 
ATOM     61  H   UNL     1      -8.900  -0.443   0.554  1.00  0.00     0.164 HD
BRANCH  60  62
ATOM     62  C   UNL     1      -9.952   1.367   1.027  1.00  0.00     0.168 CG0
ATOM     63  C   UNL     1      -8.958   2.262   1.757  1.00  0.00     0.041 C 
ATOM     64  G   UNL     1     -10.836   0.599   2.031  1.00  0.00     0.000 G0
ENDBRANCH  60  62
ENDBRANCH  56  58
ENDBRANCH  54  56
ENDBRANCH  52  54
ENDBRANCH  51  52
ENDBRANCH  50  51
ENDBRANCH  49  50
BRANCH  49  65
ATOM     65  C   UNL     1      -4.828  -4.400  -5.030  1.00  0.00     0.326 C 
ATOM     66  O   UNL     1      -4.936  -5.603  -4.839  1.00  0.00    -0.250 OA
BRANCH  65  67
ATOM     67  O   UNL     1      -3.714  -3.754  -4.621  1.00  0.00    -0.480 OA
ATOM     68  H   UNL     1      -3.326  -3.411  -5.455  1.00  0.00     0.296 HD
ENDBRANCH  65  67
ENDBRANCH  49  65
ENDBRANCH  47  49
ENDBRANCH  43  45
ENDBRANCH   1  43
BRANCH   1  69
ATOM     69  C   UNL     1      -6.003   0.124  -9.930  1.00  0.00    -0.001 C 
ATOM     70  C   UNL     1      -6.072   1.426 -10.259  1.00  0.00     0.001 C 
BRANCH  70  71
ATOM     71  C   UNL     1      -6.756   2.007 -11.416  1.00  0.00    -0.055 C 
ATOM     72  C   UNL     1      -7.022   3.330 -11.390  1.00  0.00    -0.018 C 
ATOM     73  C   UNL     1      -7.106   1.089 -12.558  1.00  0.00     0.044 C 
BRANCH  72  74
ATOM     74  C   UNL     1      -7.708   4.195 -12.436  1.00  0.00     0.038 C 
ATOM     75  C   UNL     1      -6.636   5.107 -13.044  1.00  0.00     0.015 C 
BRANCH  74  76
ATOM     76  C   UNL     1      -8.898   4.944 -11.765  1.00  0.00     0.128 C 
BRANCH  76  77
ATOM     77  O   UNL     1      -9.665   4.028 -10.966  1.00  0.00    -0.381 OA
ATOM     78  C   UNL     1     -11.013   3.886 -11.395  1.00  0.00     0.195 C 
ENDBRANCH  76  77
BRANCH  76  79
ATOM     79  C   UNL     1      -8.482   6.217 -10.986  1.00  0.00     0.068 C 
BRANCH  79  80
ATOM     80  C   UNL     1      -9.042   6.410  -9.598  1.00  0.00    -0.045 A 
ATOM     81  C   UNL     1      -8.415   5.842  -8.481  1.00  0.00     0.004 A 
ATOM     82  C   UNL     1     -10.222   7.144  -9.407  1.00  0.00     0.004 A 
ATOM     83  C   UNL     1      -8.947   6.014  -7.201  1.00  0.00     0.000 A 
ATOM     84  C   UNL     1     -10.754   7.315  -8.127  1.00  0.00     0.000 A 
ATOM     85  C   UNL     1     -10.115   6.752  -7.025  1.00  0.00     0.000 A 
ENDBRANCH  79  80
ENDBRANCH  76  79
ENDBRANCH  74  76
ENDBRANCH  72  74
ENDBRANCH  70  71
ENDBRANCH   1  69
TORSDOF 17
ENDMDL
MODEL 10
REMARK VINA RESULT:    -6.410      7.407     15.062
REMARK INTER + INTRA:         -26.763
REMARK INTER:                 -19.949
REMARK INTRA:                  -6.814
REMARK UNBOUND:                -7.611
REMARK SMILES C=C1C(=O)N[C@H](C)C(=O)N[C@@H](CC(C)C)C(=O)N[C@@H](C(=O)O)[C@H](C)C(=O)N[C@@H](CCCN=C(N)N)C(=O)N[C@@H](/C=C/C(C)=C/[C@H](C)[C@H](Cc2ccccc2)OC)[C@H](C)C(=O)N[C@@H](C(=O)O)CCC(=O)N1C
REMARK SMILES IDX 39 1 38 2 37 3 36 4 28 6 27 7 25 8 26 9 23 11 24 12 19 13
REMARK SMILES IDX 18 14 16 15 17 16 11 18 10 19 8 20 9 21 12 24 13 25 14 26
REMARK SMILES IDX 15 27 20 28 21 29 22 30 29 32 30 33 31 34 32 35 33 36 34 37
REMARK SMILES IDX 35 38 57 43 58 44 59 45 60 46 61 47 62 49 66 50 67 51 68 52
REMARK SMILES IDX 69 53 70 54 71 55 2 56 1 57 3 58 4 59 5 60 6 62 7 63 63 65
REMARK SMILES IDX 64 66 65 67 40 69 41 70 42 71 44 72 43 73 45 74 46 75 47 76
REMARK SMILES IDX 55 77 56 78 48 79 49 80 50 81 54 82 51 83 53 84 52 85
REMARK H PARENT 38 5 27 10 18 17 10 22 22 31 34 39 34 40 35 41 35 42 61 48
REMARK H PARENT 5 61 65 68
REMARK Flexibility Score:  369.900
ROOT
ATOM      1  C   UNL     1      -7.287  -2.166  -2.654  1.00  0.00     0.117 C 
ENDROOT
BRANCH   1   2
ATOM      2  N   UNL     1      -7.744  -1.984  -1.276  1.00  0.00    -0.347 N 
ATOM      3  O   UNL     1      -6.764   0.055  -0.886  1.00  0.00    -0.273 OA
ATOM      4  C   UNL     1      -7.521  -0.842  -0.531  1.00  0.00     0.243 C 
ATOM      5  H   UNL     1      -8.301  -2.704  -0.840  1.00  0.00     0.164 HD
BRANCH   4   6
ATOM      6  C   UNL     1      -8.186  -0.871   0.869  1.00  0.00     0.171 C 
BRANCH   6   7
ATOM      7  N   UNL     1      -7.743  -2.054   1.624  1.00  0.00    -0.344 N 
ATOM      8  C   UNL     1      -8.621  -3.079   1.903  1.00  0.00     0.226 C 
ATOM      9  O   UNL     1      -9.798  -3.050   1.565  1.00  0.00    -0.275 OA
ATOM     10  H   UNL     1      -6.795  -2.083   1.979  1.00  0.00     0.164 HD
BRANCH   8  11
ATOM     11  C   UNL     1      -7.999  -4.251   2.642  1.00  0.00     0.109 C 
ATOM     12  C   UNL     1      -7.000  -4.972   1.737  1.00  0.00     0.021 C 
BRANCH  11  13
ATOM     13  C   UNL     1      -7.425  -3.773   3.990  1.00  0.00     0.204 C 
BRANCH  13  14
ATOM     14  N   UNL     1      -7.931  -4.563   5.117  1.00  0.00    -0.340 N 
ATOM     15  C   UNL     1      -7.852  -4.138   6.425  1.00  0.00     0.243 C 
ATOM     16  O   UNL     1      -7.405  -3.035   6.735  1.00  0.00    -0.273 OA
ATOM     17  H   UNL     1      -8.173  -5.543   4.946  1.00  0.00     0.164 HD
BRANCH  15  18
ATOM     18  C   UNL     1      -8.257  -5.222   7.454  1.00  0.00     0.171 C 
BRANCH  18  19
ATOM     19  N   UNL     1      -7.070  -5.498   8.260  1.00  0.00    -0.343 N 
ATOM     20  C   UNL     1      -6.788  -6.766   8.730  1.00  0.00     0.242 CG0
ATOM     21  O   UNL     1      -7.587  -7.691   8.606  1.00  0.00    -0.273 OA
ATOM     22  H   UNL     1      -6.436  -4.741   8.488  1.00  0.00     0.164 HD
ATOM     23  G   UNL     1      -5.452  -6.880   9.494  1.00  0.00     0.000 G0
ENDBRANCH  18  19
BRANCH  18  24
ATOM     24  C   UNL     1      -9.425  -4.735   8.321  1.00  0.00     0.038 C 
BRANCH  24  25
ATOM     25  C   UNL     1     -10.677  -5.637   8.281  1.00  0.00    -0.015 C 
ATOM     26  C   UNL     1     -11.946  -4.860   7.930  1.00  0.00     0.007 C 
ATOM     27  C   UNL     1     -10.855  -6.331   9.633  1.00  0.00     0.007 C 
ENDBRANCH  24  25
ENDBRANCH  18  24
ENDBRANCH  15  18
ENDBRANCH  13  14
BRANCH  13  28
ATOM     28  C   UNL     1      -5.895  -3.828   4.048  1.00  0.00     0.327 C 
ATOM     29  O   UNL     1      -5.222  -4.718   4.546  1.00  0.00    -0.250 OA
BRANCH  28  30
ATOM     30  O   UNL     1      -5.308  -2.707   3.584  1.00  0.00    -0.480 OA
ATOM     31  H   UNL     1      -4.964  -2.961   2.703  1.00  0.00     0.296 HD
ENDBRANCH  28  30
ENDBRANCH  13  28
ENDBRANCH  11  13
ENDBRANCH   8  11
ENDBRANCH   6   7
BRANCH   6  32
ATOM     32  C   UNL     1      -7.837   0.419   1.618  1.00  0.00     0.037 C 
BRANCH  32  33
ATOM     33  C   UNL     1      -9.051   1.345   1.775  1.00  0.00     0.026 C 
BRANCH  33  34
ATOM     34  C   UNL     1      -9.184   2.337   0.618  1.00  0.00     0.146 C 
BRANCH  34  35
ATOM     35  N   UNL     1     -10.134   1.805  -0.349  1.00  0.00    -0.254 NA
ATOM     36  C   UNL     1      -9.788   1.746  -1.581  1.00  0.00     0.185 C 
ATOM     37  N   UNL     1     -10.654   1.254  -2.481  1.00  0.00    -0.370 N 
ATOM     38  N   UNL     1      -8.629   2.119  -2.152  1.00  0.00    -0.370 N 
ATOM     39  H   UNL     1     -11.549   0.941  -2.126  1.00  0.00     0.159 HD
ATOM     40  H   UNL     1     -10.400   1.014  -3.424  1.00  0.00     0.159 HD
ATOM     41  H   UNL     1      -8.529   2.152  -3.153  1.00  0.00     0.159 HD
ATOM     42  H   UNL     1      -7.891   2.522  -1.597  1.00  0.00     0.159 HD
ENDBRANCH  34  35
ENDBRANCH  33  34
ENDBRANCH  32  33
ENDBRANCH   6  32
ENDBRANCH   4   6
ENDBRANCH   1   2
BRANCH   1  43
ATOM     43  C   UNL     1      -8.385  -1.626  -3.615  1.00  0.00     0.102 C 
ATOM     44  C   UNL     1      -9.009  -2.716  -4.504  1.00  0.00     0.020 C 
BRANCH  43  45
ATOM     45  C   UNL     1      -7.885  -0.403  -4.390  1.00  0.00     0.225 C 
ATOM     46  O   UNL     1      -8.549   0.160  -5.256  1.00  0.00    -0.275 OA
ATOM     47  N   UNL     1      -6.591  -0.020  -4.121  1.00  0.00    -0.342 N 
ATOM     48  H   UNL     1      -6.118  -0.391  -3.309  1.00  0.00     0.164 HD
BRANCH  47  49
ATOM     49  C   UNL     1      -5.991   1.155  -4.761  1.00  0.00     0.192 C 
BRANCH  49  50
ATOM     50  C   UNL     1      -5.299   0.735  -6.060  1.00  0.00     0.047 C 
BRANCH  50  51
ATOM     51  C   UNL     1      -4.389  -0.486  -5.867  1.00  0.00     0.103 C 
BRANCH  51  52
ATOM     52  C   UNL     1      -3.135  -0.411  -6.735  1.00  0.00     0.226 C 
ATOM     53  O   UNL     1      -3.069  -1.075  -7.771  1.00  0.00    -0.275 OA
BRANCH  52  54
ATOM     54  N   UNL     1      -2.140   0.495  -6.321  1.00  0.00    -0.311 N 
ATOM     55  C   UNL     1      -1.460   0.332  -5.029  1.00  0.00     0.153 C 
BRANCH  54  56
ATOM     56  C   UNL     1      -1.757   1.580  -7.126  1.00  0.00     0.102 C 
ATOM     57  C   UNL     1      -2.457   2.717  -7.267  1.00  0.00     0.043 C 
BRANCH  56  58
ATOM     58  C   UNL     1      -0.451   1.558  -7.885  1.00  0.00     0.268 C 
ATOM     59  O   UNL     1       0.208   0.541  -8.055  1.00  0.00    -0.268 OA
ATOM     60  N   UNL     1      -0.116   2.780  -8.419  1.00  0.00    -0.339 N 
ATOM     61  H   UNL     1      -0.711   3.576  -8.224  1.00  0.00     0.164 HD
BRANCH  60  62
ATOM     62  C   UNL     1       1.076   2.969  -9.244  1.00  0.00     0.168 CG0
ATOM     63  C   UNL     1       2.325   3.090  -8.380  1.00  0.00     0.041 C 
ATOM     64  G   UNL     1       0.900   4.221 -10.128  1.00  0.00     0.000 G0
ENDBRANCH  60  62
ENDBRANCH  56  58
ENDBRANCH  54  56
ENDBRANCH  52  54
ENDBRANCH  51  52
ENDBRANCH  50  51
ENDBRANCH  49  50
BRANCH  49  65
ATOM     65  C   UNL     1      -4.972   1.843  -3.841  1.00  0.00     0.326 C 
ATOM     66  O   UNL     1      -4.086   2.603  -4.204  1.00  0.00    -0.250 OA
BRANCH  65  67
ATOM     67  O   UNL     1      -5.071   1.505  -2.536  1.00  0.00    -0.480 OA
ATOM     68  H   UNL     1      -5.983   1.778  -2.295  1.00  0.00     0.296 HD
ENDBRANCH  65  67
ENDBRANCH  49  65
ENDBRANCH  47  49
ENDBRANCH  43  45
ENDBRANCH   1  43
BRANCH   1  69
ATOM     69  C   UNL     1      -6.858  -3.617  -2.770  1.00  0.00    -0.001 C 
ATOM     70  C   UNL     1      -5.836  -4.112  -3.490  1.00  0.00     0.001 C 
BRANCH  70  71
ATOM     71  C   UNL     1      -5.418  -5.513  -3.578  1.00  0.00    -0.055 C 
ATOM     72  C   UNL     1      -5.247  -6.190  -2.423  1.00  0.00    -0.018 C 
ATOM     73  C   UNL     1      -5.218  -6.101  -4.950  1.00  0.00     0.044 C 
BRANCH  72  74
ATOM     74  C   UNL     1      -4.827  -7.637  -2.209  1.00  0.00     0.038 C 
ATOM     75  C   UNL     1      -6.110  -8.466  -2.073  1.00  0.00     0.015 C 
BRANCH  74  76
ATOM     76  C   UNL     1      -3.873  -7.705  -0.979  1.00  0.00     0.128 C 
BRANCH  76  77
ATOM     77  O   UNL     1      -2.552  -8.083  -1.403  1.00  0.00    -0.381 OA
ATOM     78  C   UNL     1      -2.276  -9.468  -1.244  1.00  0.00     0.195 C 
ENDBRANCH  76  77
BRANCH  76  79
ATOM     79  C   UNL     1      -3.879  -6.424  -0.107  1.00  0.00     0.068 C 
BRANCH  79  80
ATOM     80  C   UNL     1      -3.245  -6.498   1.261  1.00  0.00    -0.045 A 
ATOM     81  C   UNL     1      -2.963  -7.733   1.860  1.00  0.00     0.004 A 
ATOM     82  C   UNL     1      -2.953  -5.323   1.970  1.00  0.00     0.004 A 
ATOM     83  C   UNL     1      -2.390  -7.793   3.132  1.00  0.00     0.000 A 
ATOM     84  C   UNL     1      -2.381  -5.384   3.242  1.00  0.00     0.000 A 
ATOM     85  C   UNL     1      -2.097  -6.618   3.822  1.00  0.00     0.000 A 
ENDBRANCH  79  80
ENDBRANCH  76  79
ENDBRANCH  74  76
ENDBRANCH  72  74
ENDBRANCH  70  71
ENDBRANCH   1  69
TORSDOF 17
ENDMDL
MODEL 11
REMARK VINA RESULT:    -6.405      1.652      2.218
REMARK INTER + INTRA:         -26.746
REMARK INTER:                 -19.359
REMARK INTRA:                  -7.386
REMARK UNBOUND:                -7.611
REMARK SMILES C=C1C(=O)N[C@H](C)C(=O)N[C@@H](CC(C)C)C(=O)N[C@@H](C(=O)O)[C@H](C)C(=O)N[C@@H](CCCN=C(N)N)C(=O)N[C@@H](/C=C/C(C)=C/[C@H](C)[C@H](Cc2ccccc2)OC)[C@H](C)C(=O)N[C@@H](C(=O)O)CCC(=O)N1C
REMARK SMILES IDX 39 1 38 2 37 3 36 4 28 6 27 7 25 8 26 9 23 11 24 12 19 13
REMARK SMILES IDX 18 14 16 15 17 16 11 18 10 19 8 20 9 21 12 24 13 25 14 26
REMARK SMILES IDX 15 27 20 28 21 29 22 30 29 32 30 33 31 34 32 35 33 36 34 37
REMARK SMILES IDX 35 38 57 43 58 44 59 45 60 46 61 47 62 49 66 50 67 51 68 52
REMARK SMILES IDX 69 53 70 54 71 55 2 56 1 57 3 58 4 59 5 60 6 62 7 63 63 65
REMARK SMILES IDX 64 66 65 67 40 69 41 70 42 71 44 72 43 73 45 74 46 75 47 76
REMARK SMILES IDX 55 77 56 78 48 79 49 80 50 81 54 82 51 83 53 84 52 85
REMARK H PARENT 38 5 27 10 18 17 10 22 22 31 34 39 34 40 35 41 35 42 61 48
REMARK H PARENT 5 61 65 68
REMARK Flexibility Score:  369.900
ROOT
ATOM      1  C   UNL     1      -5.534  -0.456  -8.956  1.00  0.00     0.117 C 
ENDROOT
BRANCH   1   2
ATOM      2  N   UNL     1      -4.513   0.428  -8.391  1.00  0.00    -0.347 N 
ATOM      3  O   UNL     1      -4.520  -0.411  -6.254  1.00  0.00    -0.273 OA
ATOM      4  C   UNL     1      -4.021   0.318  -7.105  1.00  0.00     0.243 C 
ATOM      5  H   UNL     1      -4.095   1.136  -8.975  1.00  0.00     0.164 HD
BRANCH   4   6
ATOM      6  C   UNL     1      -2.884   1.322  -6.785  1.00  0.00     0.171 C 
BRANCH   6   7
ATOM      7  N   UNL     1      -1.743   1.112  -7.690  1.00  0.00    -0.344 N 
ATOM      8  C   UNL     1      -0.726   0.247  -7.350  1.00  0.00     0.226 C 
ATOM      9  O   UNL     1      -0.707  -0.364  -6.289  1.00  0.00    -0.275 OA
ATOM     10  H   UNL     1      -1.691   1.650  -8.546  1.00  0.00     0.164 HD
BRANCH   8  11
ATOM     11  C   UNL     1       0.349   0.098  -8.412  1.00  0.00     0.109 C 
ATOM     12  C   UNL     1       0.942  -1.311  -8.367  1.00  0.00     0.021 C 
BRANCH  11  13
ATOM     13  C   UNL     1      -0.210   0.522  -9.784  1.00  0.00     0.204 C 
BRANCH  13  14
ATOM     14  N   UNL     1       0.715   1.398 -10.510  1.00  0.00    -0.340 N 
ATOM     15  C   UNL     1       0.732   2.766 -10.350  1.00  0.00     0.243 C 
ATOM     16  O   UNL     1       0.011   3.345  -9.539  1.00  0.00    -0.273 OA
ATOM     17  H   UNL     1       1.229   1.002 -11.302  1.00  0.00     0.164 HD
BRANCH  15  18
ATOM     18  C   UNL     1       1.642   3.498 -11.367  1.00  0.00     0.171 C 
BRANCH  18  19
ATOM     19  N   UNL     1       2.402   2.464 -12.068  1.00  0.00    -0.343 N 
ATOM     20  C   UNL     1       3.673   2.698 -12.554  1.00  0.00     0.242 CG0
ATOM     21  O   UNL     1       4.172   3.821 -12.539  1.00  0.00    -0.273 OA
ATOM     22  H   UNL     1       1.986   1.550 -12.208  1.00  0.00     0.164 HD
ATOM     23  G   UNL     1       4.347   1.466 -13.193  1.00  0.00     0.000 G0
ENDBRANCH  18  19
BRANCH  18  24
ATOM     24  C   UNL     1       0.803   4.335 -12.341  1.00  0.00     0.038 C 
BRANCH  24  25
ATOM     25  C   UNL     1       1.061   5.855 -12.271  1.00  0.00    -0.015 C 
ATOM     26  C   UNL     1       1.754   6.389 -13.525  1.00  0.00     0.007 C 
ATOM     27  C   UNL     1       1.908   6.177 -11.037  1.00  0.00     0.007 C 
ENDBRANCH  24  25
ENDBRANCH  18  24
ENDBRANCH  15  18
ENDBRANCH  13  14
BRANCH  13  28
ATOM     28  C   UNL     1      -0.525  -0.664 -10.701  1.00  0.00     0.327 C 
ATOM     29  O   UNL     1      -1.421  -1.480 -10.544  1.00  0.00    -0.250 OA
BRANCH  28  30
ATOM     30  O   UNL     1       0.376  -0.822 -11.691  1.00  0.00    -0.480 OA
ATOM     31  H   UNL     1      -0.043  -1.466 -12.298  1.00  0.00     0.296 HD
ENDBRANCH  28  30
ENDBRANCH  13  28
ENDBRANCH  11  13
ENDBRANCH   8  11
ENDBRANCH   6   7
BRANCH   6  32
ATOM     32  C   UNL     1      -3.425   2.751  -6.908  1.00  0.00     0.037 C 
BRANCH  32  33
ATOM     33  C   UNL     1      -3.133   3.591  -5.657  1.00  0.00     0.026 C 
BRANCH  33  34
ATOM     34  C   UNL     1      -4.394   3.894  -4.847  1.00  0.00     0.146 C 
BRANCH  34  35
ATOM     35  N   UNL     1      -5.173   2.671  -4.716  1.00  0.00    -0.254 NA
ATOM     36  C   UNL     1      -4.939   1.897  -3.722  1.00  0.00     0.185 C 
ATOM     37  N   UNL     1      -5.654   0.770  -3.588  1.00  0.00    -0.370 N 
ATOM     38  N   UNL     1      -4.040   2.042  -2.732  1.00  0.00    -0.370 N 
ATOM     39  H   UNL     1      -6.362   0.594  -4.290  1.00  0.00     0.159 HD
ATOM     40  H   UNL     1      -5.654   0.206  -2.755  1.00  0.00     0.159 HD
ATOM     41  H   UNL     1      -3.855   1.294  -2.083  1.00  0.00     0.159 HD
ATOM     42  H   UNL     1      -3.421   2.837  -2.714  1.00  0.00     0.159 HD
ENDBRANCH  34  35
ENDBRANCH  33  34
ENDBRANCH  32  33
ENDBRANCH   6  32
ENDBRANCH   4   6
ENDBRANCH   1   2
BRANCH   1  43
ATOM     43  C   UNL     1      -4.847  -1.773  -9.419  1.00  0.00     0.102 C 
ATOM     44  C   UNL     1      -4.905  -1.990 -10.941  1.00  0.00     0.020 C 
BRANCH  43  45
ATOM     45  C   UNL     1      -5.342  -2.969  -8.601  1.00  0.00     0.225 C 
ATOM     46  O   UNL     1      -5.385  -4.113  -9.045  1.00  0.00    -0.275 OA
ATOM     47  N   UNL     1      -5.831  -2.670  -7.350  1.00  0.00    -0.342 N 
ATOM     48  H   UNL     1      -5.649  -1.762  -6.947  1.00  0.00     0.164 HD
BRANCH  47  49
ATOM     49  C   UNL     1      -6.305  -3.718  -6.442  1.00  0.00     0.192 C 
BRANCH  49  50
ATOM     50  C   UNL     1      -7.601  -3.265  -5.765  1.00  0.00     0.047 C 
BRANCH  50  51
ATOM     51  C   UNL     1      -8.266  -2.096  -6.505  1.00  0.00     0.103 C 
BRANCH  51  52
ATOM     52  C   UNL     1      -9.713  -1.886  -6.063  1.00  0.00     0.226 C 
ATOM     53  O   UNL     1     -10.510  -2.824  -6.117  1.00  0.00    -0.275 OA
BRANCH  52  54
ATOM     54  N   UNL     1     -10.030  -0.619  -5.538  1.00  0.00    -0.311 N 
ATOM     55  C   UNL     1      -9.055   0.133  -4.736  1.00  0.00     0.153 C 
BRANCH  54  56
ATOM     56  C   UNL     1     -11.283  -0.026  -5.763  1.00  0.00     0.102 C 
ATOM     57  C   UNL     1     -11.678   0.516  -6.927  1.00  0.00     0.043 C 
BRANCH  56  58
ATOM     58  C   UNL     1     -12.333   0.004  -4.678  1.00  0.00     0.268 C 
ATOM     59  O   UNL     1     -13.035   0.981  -4.452  1.00  0.00    -0.268 OA
ATOM     60  N   UNL     1     -12.463  -1.195  -4.019  1.00  0.00    -0.339 N 
ATOM     61  H   UNL     1     -11.836  -1.953  -4.258  1.00  0.00     0.164 HD
BRANCH  60  62
ATOM     62  C   UNL     1     -13.464  -1.404  -2.974  1.00  0.00     0.168 CG0
ATOM     63  C   UNL     1     -14.635  -2.229  -3.495  1.00  0.00     0.041 C 
ATOM     64  G   UNL     1     -13.950  -0.040  -2.442  1.00  0.00     0.000 G0
ENDBRANCH  60  62
ENDBRANCH  56  58
ENDBRANCH  54  56
ENDBRANCH  52  54
ENDBRANCH  51  52
ENDBRANCH  50  51
ENDBRANCH  49  50
BRANCH  49  65
ATOM     65  C   UNL     1      -5.259  -4.052  -5.367  1.00  0.00     0.326 C 
ATOM     66  O   UNL     1      -4.826  -5.168  -5.120  1.00  0.00    -0.250 OA
BRANCH  65  67
ATOM     67  O   UNL     1      -4.859  -2.998  -4.623  1.00  0.00    -0.480 OA
ATOM     68  H   UNL     1      -5.407  -3.066  -3.811  1.00  0.00     0.296 HD
ENDBRANCH  65  67
ENDBRANCH  49  65
ENDBRANCH  47  49
ENDBRANCH  43  45
ENDBRANCH   1  43
BRANCH   1  69
ATOM     69  C   UNL     1      -6.295   0.372  -9.974  1.00  0.00    -0.001 C 
ATOM     70  C   UNL     1      -7.333   1.197  -9.746  1.00  0.00     0.001 C 
BRANCH  70  71
ATOM     71  C   UNL     1      -8.046   2.007 -10.734  1.00  0.00    -0.055 C 
ATOM     72  C   UNL     1      -8.134   3.336 -10.511  1.00  0.00    -0.018 C 
ATOM     73  C   UNL     1      -8.625   1.304 -11.934  1.00  0.00     0.044 C 
BRANCH  72  74
ATOM     74  C   UNL     1      -8.803   4.412 -11.355  1.00  0.00     0.038 C 
ATOM     75  C   UNL     1      -7.695   5.345 -11.859  1.00  0.00     0.015 C 
BRANCH  74  76
ATOM     76  C   UNL     1      -9.903   5.107 -10.500  1.00  0.00     0.128 C 
BRANCH  76  77
ATOM     77  O   UNL     1     -10.831   5.793 -11.357  1.00  0.00    -0.381 OA
ATOM     78  C   UNL     1     -10.869   7.198 -11.149  1.00  0.00     0.195 C 
ENDBRANCH  76  77
BRANCH  76  79
ATOM     79  C   UNL     1     -10.604   4.164  -9.490  1.00  0.00     0.068 C 
BRANCH  79  80
ATOM     80  C   UNL     1     -10.386   4.417  -8.018  1.00  0.00    -0.045 A 
ATOM     81  C   UNL     1     -11.001   5.498  -7.372  1.00  0.00     0.004 A 
ATOM     82  C   UNL     1      -9.537   3.583  -7.275  1.00  0.00     0.004 A 
ATOM     83  C   UNL     1     -10.783   5.733  -6.013  1.00  0.00     0.000 A 
ATOM     84  C   UNL     1      -9.319   3.820  -5.916  1.00  0.00     0.000 A 
ATOM     85  C   UNL     1      -9.943   4.893  -5.285  1.00  0.00     0.000 A 
ENDBRANCH  79  80
ENDBRANCH  76  79
ENDBRANCH  74  76
ENDBRANCH  72  74
ENDBRANCH  70  71
ENDBRANCH   1  69
TORSDOF 17
ENDMDL
MODEL 12
REMARK VINA RESULT:    -6.293      3.894     13.128
REMARK INTER + INTRA:         -26.412
REMARK INTER:                 -18.649
REMARK INTRA:                  -7.763
REMARK UNBOUND:                -7.611
REMARK SMILES C=C1C(=O)N[C@H](C)C(=O)N[C@@H](CC(C)C)C(=O)N[C@@H](C(=O)O)[C@H](C)C(=O)N[C@@H](CCCN=C(N)N)C(=O)N[C@@H](/C=C/C(C)=C/[C@H](C)[C@H](Cc2ccccc2)OC)[C@H](C)C(=O)N[C@@H](C(=O)O)CCC(=O)N1C
REMARK SMILES IDX 39 1 38 2 37 3 36 4 28 6 27 7 25 8 26 9 23 11 24 12 19 13
REMARK SMILES IDX 18 14 16 15 17 16 11 18 10 19 8 20 9 21 12 24 13 25 14 26
REMARK SMILES IDX 15 27 20 28 21 29 22 30 29 32 30 33 31 34 32 35 33 36 34 37
REMARK SMILES IDX 35 38 57 43 58 44 59 45 60 46 61 47 62 49 66 50 67 51 68 52
REMARK SMILES IDX 69 53 70 54 71 55 2 56 1 57 3 58 4 59 5 60 6 62 7 63 63 65
REMARK SMILES IDX 64 66 65 67 40 69 41 70 42 71 44 72 43 73 45 74 46 75 47 76
REMARK SMILES IDX 55 77 56 78 48 79 49 80 50 81 54 82 51 83 53 84 52 85
REMARK H PARENT 38 5 27 10 18 17 10 22 22 31 34 39 34 40 35 41 35 42 61 48
REMARK H PARENT 5 61 65 68
REMARK Flexibility Score:  369.900
ROOT
ATOM      1  C   UNL     1      -5.883  -3.588  -5.190  1.00  0.00     0.117 C 
ENDROOT
BRANCH   1   2
ATOM      2  N   UNL     1      -7.082  -2.784  -5.427  1.00  0.00    -0.347 N 
ATOM      3  O   UNL     1      -6.047  -0.755  -5.711  1.00  0.00    -0.273 OA
ATOM      4  C   UNL     1      -7.061  -1.443  -5.760  1.00  0.00     0.243 C 
ATOM      5  H   UNL     1      -7.988  -3.227  -5.399  1.00  0.00     0.164 HD
BRANCH   4   6
ATOM      6  C   UNL     1      -8.464  -0.849  -6.043  1.00  0.00     0.171 C 
BRANCH   6   7
ATOM      7  N   UNL     1      -9.320  -0.960  -4.851  1.00  0.00    -0.344 N 
ATOM      8  C   UNL     1     -10.447  -1.752  -4.866  1.00  0.00     0.226 C 
ATOM      9  O   UNL     1     -10.803  -2.375  -5.859  1.00  0.00    -0.275 OA
ATOM     10  H   UNL     1      -9.096  -0.407  -4.033  1.00  0.00     0.164 HD
BRANCH   8  11
ATOM     11  C   UNL     1     -11.192  -1.805  -3.544  1.00  0.00     0.109 C 
ATOM     12  C   UNL     1     -10.203  -1.751  -2.380  1.00  0.00     0.021 C 
BRANCH  11  13
ATOM     13  C   UNL     1     -12.285  -0.717  -3.518  1.00  0.00     0.204 C 
BRANCH  13  14
ATOM     14  N   UNL     1     -13.560  -1.228  -3.004  1.00  0.00    -0.340 N 
ATOM     15  C   UNL     1     -14.684  -1.358  -3.790  1.00  0.00     0.243 C 
ATOM     16  O   UNL     1     -14.681  -1.111  -4.995  1.00  0.00    -0.273 OA
ATOM     17  H   UNL     1     -13.672  -1.305  -1.990  1.00  0.00     0.164 HD
BRANCH  15  18
ATOM     18  C   UNL     1     -15.960  -1.716  -2.989  1.00  0.00     0.171 C 
BRANCH  18  19
ATOM     19  N   UNL     1     -16.446  -2.987  -3.522  1.00  0.00    -0.343 N 
ATOM     20  C   UNL     1     -17.623  -3.075  -4.240  1.00  0.00     0.242 CG0
ATOM     21  O   UNL     1     -18.383  -2.115  -4.349  1.00  0.00    -0.273 OA
ATOM     22  H   UNL     1     -15.910  -3.832  -3.358  1.00  0.00     0.164 HD
ATOM     23  G   UNL     1     -17.931  -4.483  -4.788  1.00  0.00     0.000 G0
ENDBRANCH  18  19
BRANCH  18  24
ATOM     24  C   UNL     1     -15.649  -1.817  -1.491  1.00  0.00     0.038 C 
BRANCH  24  25
ATOM     25  C   UNL     1     -16.314  -0.731  -0.619  1.00  0.00    -0.015 C 
ATOM     26  C   UNL     1     -16.357  -1.113   0.860  1.00  0.00     0.007 C 
ATOM     27  C   UNL     1     -17.735  -0.465  -1.125  1.00  0.00     0.007 C 
ENDBRANCH  24  25
ENDBRANCH  18  24
ENDBRANCH  15  18
ENDBRANCH  13  14
BRANCH  13  28
ATOM     28  C   UNL     1     -11.906   0.498  -2.665  1.00  0.00     0.327 C 
ATOM     29  O   UNL     1     -12.332   0.760  -1.550  1.00  0.00    -0.250 OA
BRANCH  28  30
ATOM     30  O   UNL     1     -11.107   1.370  -3.312  1.00  0.00    -0.480 OA
ATOM     31  H   UNL     1     -10.202   1.028  -3.158  1.00  0.00     0.296 HD
ENDBRANCH  28  30
ENDBRANCH  13  28
ENDBRANCH  11  13
ENDBRANCH   8  11
ENDBRANCH   6   7
BRANCH   6  32
ATOM     32  C   UNL     1      -8.313   0.614  -6.475  1.00  0.00     0.037 C 
BRANCH  32  33
ATOM     33  C   UNL     1      -8.379   1.579  -5.283  1.00  0.00     0.026 C 
BRANCH  33  34
ATOM     34  C   UNL     1      -7.320   2.679  -5.361  1.00  0.00     0.146 C 
BRANCH  34  35
ATOM     35  N   UNL     1      -6.401   2.527  -4.242  1.00  0.00    -0.254 NA
ATOM     36  C   UNL     1      -5.198   2.157  -4.480  1.00  0.00     0.185 C 
ATOM     37  N   UNL     1      -4.342   2.018  -3.456  1.00  0.00    -0.370 N 
ATOM     38  N   UNL     1      -4.621   1.867  -5.660  1.00  0.00    -0.370 N 
ATOM     39  H   UNL     1      -4.699   2.229  -2.533  1.00  0.00     0.159 HD
ATOM     40  H   UNL     1      -3.350   1.903  -3.572  1.00  0.00     0.159 HD
ATOM     41  H   UNL     1      -3.705   1.452  -5.704  1.00  0.00     0.159 HD
ATOM     42  H   UNL     1      -5.153   1.913  -6.515  1.00  0.00     0.159 HD
ENDBRANCH  34  35
ENDBRANCH  33  34
ENDBRANCH  32  33
ENDBRANCH   6  32
ENDBRANCH   4   6
ENDBRANCH   1   2
BRANCH   1  43
ATOM     43  C   UNL     1      -5.770  -4.653  -6.319  1.00  0.00     0.102 C 
ATOM     44  C   UNL     1      -4.865  -5.841  -5.952  1.00  0.00     0.020 C 
BRANCH  43  45
ATOM     45  C   UNL     1      -5.421  -3.998  -7.660  1.00  0.00     0.225 C 
ATOM     46  O   UNL     1      -5.725  -4.487  -8.744  1.00  0.00    -0.275 OA
ATOM     47  N   UNL     1      -4.655  -2.858  -7.580  1.00  0.00    -0.342 N 
ATOM     48  H   UNL     1      -4.544  -2.390  -6.692  1.00  0.00     0.164 HD
BRANCH  47  49
ATOM     49  C   UNL     1      -4.275  -2.106  -8.780  1.00  0.00     0.192 C 
BRANCH  49  50
ATOM     50  C   UNL     1      -3.360  -0.942  -8.389  1.00  0.00     0.047 C 
BRANCH  50  51
ATOM     51  C   UNL     1      -2.112  -0.859  -9.277  1.00  0.00     0.103 C 
BRANCH  51  52
ATOM     52  C   UNL     1      -0.855  -0.537  -8.472  1.00  0.00     0.226 C 
ATOM     53  O   UNL     1       0.037  -1.381  -8.369  1.00  0.00    -0.275 OA
BRANCH  52  54
ATOM     54  N   UNL     1      -0.763   0.766  -7.948  1.00  0.00    -0.311 N 
ATOM     55  C   UNL     1      -1.090   1.042  -6.543  1.00  0.00     0.153 C 
BRANCH  54  56
ATOM     56  C   UNL     1      -0.352   1.848  -8.745  1.00  0.00     0.102 C 
ATOM     57  C   UNL     1      -1.095   2.935  -9.007  1.00  0.00     0.043 C 
BRANCH  56  58
ATOM     58  C   UNL     1       1.032   1.883  -9.350  1.00  0.00     0.268 C 
ATOM     59  O   UNL     1       2.037   1.534  -8.744  1.00  0.00    -0.268 OA
ATOM     60  N   UNL     1       1.037   2.283 -10.665  1.00  0.00    -0.339 N 
ATOM     61  H   UNL     1       0.163   2.566 -11.091  1.00  0.00     0.164 HD
BRANCH  60  62
ATOM     62  C   UNL     1       2.263   2.328 -11.461  1.00  0.00     0.168 CG0
ATOM     63  C   UNL     1       2.104   3.259 -12.657  1.00  0.00     0.041 C 
ATOM     64  G   UNL     1       2.632   0.903 -11.923  1.00  0.00     0.000 G0
ENDBRANCH  60  62
ENDBRANCH  56  58
ENDBRANCH  54  56
ENDBRANCH  52  54
ENDBRANCH  51  52
ENDBRANCH  50  51
ENDBRANCH  49  50
BRANCH  49  65
ATOM     65  C   UNL     1      -5.506  -1.559  -9.519  1.00  0.00     0.326 C 
ATOM     66  O   UNL     1      -6.210  -0.634  -9.140  1.00  0.00    -0.250 OA
BRANCH  65  67
ATOM     67  O   UNL     1      -5.828  -2.226 -10.649  1.00  0.00    -0.480 OA
ATOM     68  H   UNL     1      -6.661  -1.797 -10.942  1.00  0.00     0.296 HD
ENDBRANCH  65  67
ENDBRANCH  49  65
ENDBRANCH  47  49
ENDBRANCH  43  45
ENDBRANCH   1  43
BRANCH   1  69
ATOM     69  C   UNL     1      -5.964  -4.054  -3.748  1.00  0.00    -0.001 C 
ATOM     70  C   UNL     1      -6.991  -3.898  -2.895  1.00  0.00     0.001 C 
BRANCH  70  71
ATOM     71  C   UNL     1      -7.066  -4.371  -1.511  1.00  0.00    -0.055 C 
ATOM     72  C   UNL     1      -8.092  -3.933  -0.752  1.00  0.00    -0.018 C 
ATOM     73  C   UNL     1      -5.997  -5.320  -1.035  1.00  0.00     0.044 C 
BRANCH  72  74
ATOM     74  C   UNL     1      -8.423  -4.254   0.698  1.00  0.00     0.038 C 
ATOM     75  C   UNL     1      -9.339  -5.483   0.692  1.00  0.00     0.015 C 
BRANCH  74  76
ATOM     76  C   UNL     1      -9.035  -2.986   1.364  1.00  0.00     0.128 C 
BRANCH  76  77
ATOM     77  O   UNL     1      -9.699  -3.347   2.587  1.00  0.00    -0.381 OA
ATOM     78  C   UNL     1     -10.281  -2.243   3.268  1.00  0.00     0.195 C 
ENDBRANCH  76  77
BRANCH  76  79
ATOM     79  C   UNL     1      -8.028  -1.824   1.549  1.00  0.00     0.068 C 
BRANCH  79  80
ATOM     80  C   UNL     1      -8.047  -0.704   0.537  1.00  0.00    -0.045 A 
ATOM     81  C   UNL     1      -9.032   0.292   0.581  1.00  0.00     0.004 A 
ATOM     82  C   UNL     1      -7.088  -0.659  -0.486  1.00  0.00     0.004 A 
ATOM     83  C   UNL     1      -9.051   1.316  -0.368  1.00  0.00     0.000 A 
ATOM     84  C   UNL     1      -7.108   0.366  -1.434  1.00  0.00     0.000 A 
ATOM     85  C   UNL     1      -8.089   1.354  -1.374  1.00  0.00     0.000 A 
ENDBRANCH  79  80
ENDBRANCH  76  79
ENDBRANCH  74  76
ENDBRANCH  72  74
ENDBRANCH  70  71
ENDBRANCH   1  69
TORSDOF 17
ENDMDL
MODEL 13
REMARK VINA RESULT:    -6.271      2.921     11.660
REMARK INTER + INTRA:         -26.347
REMARK INTER:                 -18.085
REMARK INTRA:                  -8.262
REMARK UNBOUND:                -7.611
REMARK SMILES C=C1C(=O)N[C@H](C)C(=O)N[C@@H](CC(C)C)C(=O)N[C@@H](C(=O)O)[C@H](C)C(=O)N[C@@H](CCCN=C(N)N)C(=O)N[C@@H](/C=C/C(C)=C/[C@H](C)[C@H](Cc2ccccc2)OC)[C@H](C)C(=O)N[C@@H](C(=O)O)CCC(=O)N1C
REMARK SMILES IDX 39 1 38 2 37 3 36 4 28 6 27 7 25 8 26 9 23 11 24 12 19 13
REMARK SMILES IDX 18 14 16 15 17 16 11 18 10 19 8 20 9 21 12 24 13 25 14 26
REMARK SMILES IDX 15 27 20 28 21 29 22 30 29 32 30 33 31 34 32 35 33 36 34 37
REMARK SMILES IDX 35 38 57 43 58 44 59 45 60 46 61 47 62 49 66 50 67 51 68 52
REMARK SMILES IDX 69 53 70 54 71 55 2 56 1 57 3 58 4 59 5 60 6 62 7 63 63 65
REMARK SMILES IDX 64 66 65 67 40 69 41 70 42 71 44 72 43 73 45 74 46 75 47 76
REMARK SMILES IDX 55 77 56 78 48 79 49 80 50 81 54 82 51 83 53 84 52 85
REMARK H PARENT 38 5 27 10 18 17 10 22 22 31 34 39 34 40 35 41 35 42 61 48
REMARK H PARENT 5 61 65 68
REMARK Flexibility Score:  369.900
ROOT
ATOM      1  C   UNL     1      -6.236   1.372  -8.529  1.00  0.00     0.117 C 
ENDROOT
BRANCH   1   2
ATOM      2  N   UNL     1      -7.466   1.028  -7.813  1.00  0.00    -0.347 N 
ATOM      3  O   UNL     1      -7.093  -1.228  -7.618  1.00  0.00    -0.273 OA
ATOM      4  C   UNL     1      -7.753  -0.235  -7.333  1.00  0.00     0.243 C 
ATOM      5  H   UNL     1      -8.135   1.753  -7.605  1.00  0.00     0.164 HD
BRANCH   4   6
ATOM      6  C   UNL     1      -9.081  -0.311  -6.537  1.00  0.00     0.171 C 
BRANCH   6   7
ATOM      7  N   UNL     1     -10.212   0.108  -7.380  1.00  0.00    -0.344 N 
ATOM      8  C   UNL     1     -11.071   1.100  -6.960  1.00  0.00     0.226 C 
ATOM      9  O   UNL     1     -10.956   1.658  -5.875  1.00  0.00    -0.275 OA
ATOM     10  H   UNL     1     -10.379  -0.376  -8.253  1.00  0.00     0.164 HD
BRANCH   8  11
ATOM     11  C   UNL     1     -12.153   1.457  -7.964  1.00  0.00     0.109 C 
ATOM     12  C   UNL     1     -11.566   1.503  -9.375  1.00  0.00     0.021 C 
BRANCH  11  13
ATOM     13  C   UNL     1     -13.357   0.509  -7.793  1.00  0.00     0.204 C 
BRANCH  13  14
ATOM     14  N   UNL     1     -14.383   1.074  -6.911  1.00  0.00    -0.340 N 
ATOM     15  C   UNL     1     -14.798   0.453  -5.753  1.00  0.00     0.243 C 
ATOM     16  O   UNL     1     -14.293  -0.591  -5.345  1.00  0.00    -0.273 OA
ATOM     17  H   UNL     1     -14.945   1.853  -7.265  1.00  0.00     0.164 HD
BRANCH  15  18
ATOM     18  C   UNL     1     -16.030   1.126  -5.099  1.00  0.00     0.171 C 
BRANCH  18  19
ATOM     19  N   UNL     1     -16.610   0.140  -4.188  1.00  0.00    -0.343 N 
ATOM     20  C   UNL     1     -17.977  -0.021  -4.063  1.00  0.00     0.242 CG0
ATOM     21  O   UNL     1     -18.768   0.744  -4.610  1.00  0.00    -0.273 OA
ATOM     22  H   UNL     1     -15.997  -0.439  -3.626  1.00  0.00     0.164 HD
ATOM     23  G   UNL     1     -18.399  -1.161  -3.114  1.00  0.00     0.000 G0
ENDBRANCH  18  19
BRANCH  18  24
ATOM     24  C   UNL     1     -15.620   2.404  -4.357  1.00  0.00     0.038 C 
BRANCH  24  25
ATOM     25  C   UNL     1     -16.363   3.678  -4.809  1.00  0.00    -0.015 C 
ATOM     26  C   UNL     1     -17.339   4.193  -3.751  1.00  0.00     0.007 C 
ATOM     27  C   UNL     1     -17.117   3.399  -6.112  1.00  0.00     0.007 C 
ENDBRANCH  24  25
ENDBRANCH  18  24
ENDBRANCH  15  18
ENDBRANCH  13  14
BRANCH  13  28
ATOM     28  C   UNL     1     -14.041   0.156  -9.117  1.00  0.00     0.327 C 
ATOM     29  O   UNL     1     -14.789   0.878  -9.759  1.00  0.00    -0.250 OA
BRANCH  28  30
ATOM     30  O   UNL     1     -13.837  -1.123  -9.493  1.00  0.00    -0.480 OA
ATOM     31  H   UNL     1     -13.552  -1.057 -10.428  1.00  0.00     0.296 HD
ENDBRANCH  28  30
ENDBRANCH  13  28
ENDBRANCH  11  13
ENDBRANCH   8  11
ENDBRANCH   6   7
BRANCH   6  32
ATOM     32  C   UNL     1      -9.280  -1.743  -6.026  1.00  0.00     0.037 C 
BRANCH  32  33
ATOM     33  C   UNL     1      -9.246  -1.821  -4.494  1.00  0.00     0.026 C 
BRANCH  33  34
ATOM     34  C   UNL     1      -8.334  -2.938  -3.985  1.00  0.00     0.146 C 
BRANCH  34  35
ATOM     35  N   UNL     1      -6.976  -2.423  -3.878  1.00  0.00    -0.254 NA
ATOM     36  C   UNL     1      -6.092  -2.846  -4.704  1.00  0.00     0.185 C 
ATOM     37  N   UNL     1      -4.839  -2.375  -4.618  1.00  0.00    -0.370 N 
ATOM     38  N   UNL     1      -6.227  -3.738  -5.702  1.00  0.00    -0.370 N 
ATOM     39  H   UNL     1      -4.660  -1.689  -3.896  1.00  0.00     0.159 HD
ATOM     40  H   UNL     1      -4.140  -2.521  -5.327  1.00  0.00     0.159 HD
ATOM     41  H   UNL     1      -5.423  -4.093  -6.194  1.00  0.00     0.159 HD
ATOM     42  H   UNL     1      -7.113  -4.187  -5.872  1.00  0.00     0.159 HD
ENDBRANCH  34  35
ENDBRANCH  33  34
ENDBRANCH  32  33
ENDBRANCH   6  32
ENDBRANCH   4   6
ENDBRANCH   1   2
BRANCH   1  43
ATOM     43  C   UNL     1      -5.091   1.544  -7.490  1.00  0.00     0.102 C 
ATOM     44  C   UNL     1      -4.490   2.960  -7.470  1.00  0.00     0.020 C 
BRANCH  43  45
ATOM     45  C   UNL     1      -4.050   0.430  -7.629  1.00  0.00     0.225 C 
ATOM     46  O   UNL     1      -3.039   0.365  -6.935  1.00  0.00    -0.275 OA
ATOM     47  N   UNL     1      -4.268  -0.460  -8.656  1.00  0.00    -0.342 N 
ATOM     48  H   UNL     1      -5.169  -0.485  -9.113  1.00  0.00     0.164 HD
BRANCH  47  49
ATOM     49  C   UNL     1      -3.374  -1.599  -8.886  1.00  0.00     0.192 C 
BRANCH  49  50
ATOM     50  C   UNL     1      -2.850  -1.559 -10.324  1.00  0.00     0.047 C 
BRANCH  50  51
ATOM     51  C   UNL     1      -1.389  -1.097 -10.399  1.00  0.00     0.103 C 
BRANCH  51  52
ATOM     52  C   UNL     1      -1.250   0.407 -10.172  1.00  0.00     0.226 C 
ATOM     53  O   UNL     1      -2.141   1.167 -10.557  1.00  0.00    -0.275 OA
BRANCH  52  54
ATOM     54  N   UNL     1      -0.118   0.831  -9.452  1.00  0.00    -0.311 N 
ATOM     55  C   UNL     1      -0.234   1.824  -8.376  1.00  0.00     0.153 C 
BRANCH  54  56
ATOM     56  C   UNL     1       1.160   0.318  -9.728  1.00  0.00     0.102 C 
ATOM     57  C   UNL     1       1.819  -0.562  -8.956  1.00  0.00     0.043 C 
BRANCH  56  58
ATOM     58  C   UNL     1       1.893   0.703 -10.991  1.00  0.00     0.268 C 
ATOM     59  O   UNL     1       2.405  -0.114 -11.744  1.00  0.00    -0.268 OA
ATOM     60  N   UNL     1       1.868   2.055 -11.239  1.00  0.00    -0.339 N 
ATOM     61  H   UNL     1       1.432   2.667 -10.560  1.00  0.00     0.164 HD
BRANCH  60  62
ATOM     62  C   UNL     1       2.464   2.637 -12.441  1.00  0.00     0.168 CG0
ATOM     63  C   UNL     1       3.773   3.346 -12.114  1.00  0.00     0.041 C 
ATOM     64  G   UNL     1       1.463   3.613 -13.093  1.00  0.00     0.000 G0
ENDBRANCH  60  62
ENDBRANCH  56  58
ENDBRANCH  54  56
ENDBRANCH  52  54
ENDBRANCH  51  52
ENDBRANCH  50  51
ENDBRANCH  49  50
BRANCH  49  65
ATOM     65  C   UNL     1      -4.087  -2.938  -8.641  1.00  0.00     0.326 C 
ATOM     66  O   UNL     1      -4.098  -3.554  -7.585  1.00  0.00    -0.250 OA
BRANCH  65  67
ATOM     67  O   UNL     1      -4.691  -3.463  -9.730  1.00  0.00    -0.480 OA
ATOM     68  H   UNL     1      -4.032  -3.331 -10.446  1.00  0.00     0.296 HD
ENDBRANCH  65  67
ENDBRANCH  49  65
ENDBRANCH  47  49
ENDBRANCH  43  45
ENDBRANCH   1  43
BRANCH   1  69
ATOM     69  C   UNL     1      -6.585   2.538  -9.436  1.00  0.00    -0.001 C 
ATOM     70  C   UNL     1      -7.659   3.343  -9.355  1.00  0.00     0.001 C 
BRANCH  70  71
ATOM     71  C   UNL     1      -7.975   4.479 -10.223  1.00  0.00    -0.055 C 
ATOM     72  C   UNL     1      -8.910   5.353  -9.798  1.00  0.00    -0.018 C 
ATOM     73  C   UNL     1      -7.227   4.596 -11.526  1.00  0.00     0.044 C 
BRANCH  72  74
ATOM     74  C   UNL     1      -9.434   6.611 -10.478  1.00  0.00     0.038 C 
ATOM     75  C   UNL     1      -8.964   7.807  -9.641  1.00  0.00     0.015 C 
BRANCH  74  76
ATOM     76  C   UNL     1     -10.978   6.490 -10.635  1.00  0.00     0.128 C 
BRANCH  76  77
ATOM     77  O   UNL     1     -11.342   5.118 -10.864  1.00  0.00    -0.381 OA
ATOM     78  C   UNL     1     -11.612   4.819 -12.227  1.00  0.00     0.195 C 
ENDBRANCH  76  77
BRANCH  76  79
ATOM     79  C   UNL     1     -11.781   7.138  -9.479  1.00  0.00     0.068 C 
BRANCH  79  80
ATOM     80  C   UNL     1     -12.218   6.251  -8.337  1.00  0.00    -0.045 A 
ATOM     81  C   UNL     1     -11.371   6.008  -7.248  1.00  0.00     0.004 A 
ATOM     82  C   UNL     1     -13.476   5.632  -8.365  1.00  0.00     0.004 A 
ATOM     83  C   UNL     1     -11.778   5.175  -6.203  1.00  0.00     0.000 A 
ATOM     84  C   UNL     1     -13.881   4.799  -7.320  1.00  0.00     0.000 A 
ATOM     85  C   UNL     1     -13.033   4.572  -6.238  1.00  0.00     0.000 A 
ENDBRANCH  79  80
ENDBRANCH  76  79
ENDBRANCH  74  76
ENDBRANCH  72  74
ENDBRANCH  70  71
ENDBRANCH   1  69
TORSDOF 17
ENDMDL
MODEL 14
REMARK VINA RESULT:    -6.268      6.178     10.597
REMARK INTER + INTRA:         -26.336
REMARK INTER:                 -17.569
REMARK INTRA:                  -8.767
REMARK UNBOUND:                -7.611
REMARK SMILES C=C1C(=O)N[C@H](C)C(=O)N[C@@H](CC(C)C)C(=O)N[C@@H](C(=O)O)[C@H](C)C(=O)N[C@@H](CCCN=C(N)N)C(=O)N[C@@H](/C=C/C(C)=C/[C@H](C)[C@H](Cc2ccccc2)OC)[C@H](C)C(=O)N[C@@H](C(=O)O)CCC(=O)N1C
REMARK SMILES IDX 39 1 38 2 37 3 36 4 28 6 27 7 25 8 26 9 23 11 24 12 19 13
REMARK SMILES IDX 18 14 16 15 17 16 11 18 10 19 8 20 9 21 12 24 13 25 14 26
REMARK SMILES IDX 15 27 20 28 21 29 22 30 29 32 30 33 31 34 32 35 33 36 34 37
REMARK SMILES IDX 35 38 57 43 58 44 59 45 60 46 61 47 62 49 66 50 67 51 68 52
REMARK SMILES IDX 69 53 70 54 71 55 2 56 1 57 3 58 4 59 5 60 6 62 7 63 63 65
REMARK SMILES IDX 64 66 65 67 40 69 41 70 42 71 44 72 43 73 45 74 46 75 47 76
REMARK SMILES IDX 55 77 56 78 48 79 49 80 50 81 54 82 51 83 53 84 52 85
REMARK H PARENT 38 5 27 10 18 17 10 22 22 31 34 39 34 40 35 41 35 42 61 48
REMARK H PARENT 5 61 65 68
REMARK Flexibility Score:  369.900
ROOT
ATOM      1  C   UNL     1      -8.764   2.183  -4.424  1.00  0.00     0.117 C 
ENDROOT
BRANCH   1   2
ATOM      2  N   UNL     1      -8.265   3.025  -5.513  1.00  0.00    -0.347 N 
ATOM      3  O   UNL     1      -7.598   4.817  -4.242  1.00  0.00    -0.273 OA
ATOM      4  C   UNL     1      -7.636   4.241  -5.324  1.00  0.00     0.243 C 
ATOM      5  H   UNL     1      -8.330   2.694  -6.463  1.00  0.00     0.164 HD
BRANCH   4   6
ATOM      6  C   UNL     1      -7.126   4.889  -6.636  1.00  0.00     0.171 C 
BRANCH   6   7
ATOM      7  N   UNL     1      -8.022   5.979  -7.054  1.00  0.00    -0.344 N 
ATOM      8  C   UNL     1      -8.402   6.111  -8.372  1.00  0.00     0.226 C 
ATOM      9  O   UNL     1      -8.004   5.357  -9.252  1.00  0.00    -0.275 OA
ATOM     10  H   UNL     1      -8.318   6.661  -6.367  1.00  0.00     0.164 HD
BRANCH   8  11
ATOM     11  C   UNL     1      -9.372   7.250  -8.632  1.00  0.00     0.109 C 
ATOM     12  C   UNL     1      -8.964   8.009  -9.896  1.00  0.00     0.021 C 
BRANCH  11  13
ATOM     13  C   UNL     1     -10.817   6.714  -8.635  1.00  0.00     0.204 C 
BRANCH  13  14
ATOM     14  N   UNL     1     -11.053   5.769  -9.731  1.00  0.00    -0.340 N 
ATOM     15  C   UNL     1     -11.856   6.063 -10.813  1.00  0.00     0.243 C 
ATOM     16  O   UNL     1     -12.383   7.163 -10.964  1.00  0.00    -0.273 OA
ATOM     17  H   UNL     1     -10.772   4.795  -9.594  1.00  0.00     0.164 HD
BRANCH  15  18
ATOM     18  C   UNL     1     -12.123   4.846 -11.732  1.00  0.00     0.171 C 
BRANCH  18  19
ATOM     19  N   UNL     1     -10.859   4.539 -12.399  1.00  0.00    -0.343 N 
ATOM     20  C   UNL     1     -10.464   5.194 -13.549  1.00  0.00     0.242 CG0
ATOM     21  O   UNL     1     -11.214   5.969 -14.138  1.00  0.00    -0.273 OA
ATOM     22  H   UNL     1     -10.255   3.821 -12.014  1.00  0.00     0.164 HD
ATOM     23  G   UNL     1      -9.066   4.792 -14.062  1.00  0.00     0.000 G0
ENDBRANCH  18  19
BRANCH  18  24
ATOM     24  C   UNL     1     -12.633   3.652 -10.916  1.00  0.00     0.038 C 
BRANCH  24  25
ATOM     25  C   UNL     1     -13.974   3.892 -10.190  1.00  0.00    -0.015 C 
ATOM     26  C   UNL     1     -14.494   2.636  -9.491  1.00  0.00     0.007 C 
ATOM     27  C   UNL     1     -15.017   4.394 -11.191  1.00  0.00     0.007 C 
ENDBRANCH  24  25
ENDBRANCH  18  24
ENDBRANCH  15  18
ENDBRANCH  13  14
BRANCH  13  28
ATOM     28  C   UNL     1     -11.201   6.004  -7.333  1.00  0.00     0.327 C 
ATOM     29  O   UNL     1     -10.949   6.386  -6.201  1.00  0.00    -0.250 OA
BRANCH  28  30
ATOM     30  O   UNL     1     -11.772   4.800  -7.536  1.00  0.00    -0.480 OA
ATOM     31  H   UNL     1     -11.371   4.480  -8.371  1.00  0.00     0.296 HD
ENDBRANCH  28  30
ENDBRANCH  13  28
ENDBRANCH  11  13
ENDBRANCH   8  11
ENDBRANCH   6   7
BRANCH   6  32
ATOM     32  C   UNL     1      -5.699   5.405  -6.421  1.00  0.00     0.037 C 
BRANCH  32  33
ATOM     33  C   UNL     1      -4.647   4.471  -7.035  1.00  0.00     0.026 C 
BRANCH  33  34
ATOM     34  C   UNL     1      -3.650   3.952  -5.998  1.00  0.00     0.146 C 
BRANCH  34  35
ATOM     35  N   UNL     1      -3.812   2.511  -5.871  1.00  0.00    -0.254 NA
ATOM     36  C   UNL     1      -4.008   2.015  -4.706  1.00  0.00     0.185 C 
ATOM     37  N   UNL     1      -4.164   0.688  -4.578  1.00  0.00    -0.370 N 
ATOM     38  N   UNL     1      -4.089   2.646  -3.522  1.00  0.00    -0.370 N 
ATOM     39  H   UNL     1      -4.126   0.142  -5.429  1.00  0.00     0.159 HD
ATOM     40  H   UNL     1      -4.492   0.245  -3.737  1.00  0.00     0.159 HD
ATOM     41  H   UNL     1      -4.108   2.131  -2.657  1.00  0.00     0.159 HD
ATOM     42  H   UNL     1      -3.975   3.646  -3.465  1.00  0.00     0.159 HD
ENDBRANCH  34  35
ENDBRANCH  33  34
ENDBRANCH  32  33
ENDBRANCH   6  32
ENDBRANCH   4   6
ENDBRANCH   1   2
BRANCH   1  43
ATOM     43  C   UNL     1      -7.726   1.056  -4.155  1.00  0.00     0.102 C 
ATOM     44  C   UNL     1      -8.132  -0.304  -4.749  1.00  0.00     0.020 C 
BRANCH  43  45
ATOM     45  C   UNL     1      -7.350   0.998  -2.671  1.00  0.00     0.225 C 
ATOM     46  O   UNL     1      -6.212   0.763  -2.276  1.00  0.00    -0.275 OA
ATOM     47  N   UNL     1      -8.398   1.134  -1.789  1.00  0.00    -0.342 N 
ATOM     48  H   UNL     1      -9.289   1.475  -2.120  1.00  0.00     0.164 HD
BRANCH  47  49
ATOM     49  C   UNL     1      -8.183   1.135  -0.339  1.00  0.00     0.192 C 
BRANCH  49  50
ATOM     50  C   UNL     1      -8.584  -0.224   0.241  1.00  0.00     0.047 C 
BRANCH  50  51
ATOM     51  C   UNL     1      -7.369  -1.116   0.530  1.00  0.00     0.103 C 
BRANCH  51  52
ATOM     52  C   UNL     1      -7.403  -2.412  -0.277  1.00  0.00     0.226 C 
ATOM     53  O   UNL     1      -7.244  -2.374  -1.498  1.00  0.00    -0.275 OA
BRANCH  52  54
ATOM     54  N   UNL     1      -7.545  -3.604   0.457  1.00  0.00    -0.311 N 
ATOM     55  C   UNL     1      -8.852  -4.016   0.986  1.00  0.00     0.153 C 
BRANCH  54  56
ATOM     56  C   UNL     1      -6.447  -4.445   0.707  1.00  0.00     0.102 C 
ATOM     57  C   UNL     1      -5.962  -5.352  -0.157  1.00  0.00     0.043 C 
BRANCH  56  58
ATOM     58  C   UNL     1      -5.677  -4.350   2.003  1.00  0.00     0.268 C 
ATOM     59  O   UNL     1      -5.671  -3.349   2.707  1.00  0.00    -0.268 OA
ATOM     60  N   UNL     1      -5.043  -5.521   2.341  1.00  0.00    -0.339 N 
ATOM     61  H   UNL     1      -5.088  -6.303   1.699  1.00  0.00     0.164 HD
BRANCH  60  62
ATOM     62  C   UNL     1      -4.292  -5.669   3.588  1.00  0.00     0.168 CG0
ATOM     63  C   UNL     1      -2.817  -5.350   3.379  1.00  0.00     0.041 C 
ATOM     64  G   UNL     1      -4.470  -7.101   4.132  1.00  0.00     0.000 G0
ENDBRANCH  60  62
ENDBRANCH  56  58
ENDBRANCH  54  56
ENDBRANCH  52  54
ENDBRANCH  51  52
ENDBRANCH  50  51
ENDBRANCH  49  50
BRANCH  49  65
ATOM     65  C   UNL     1      -8.991   2.243   0.354  1.00  0.00     0.326 C 
ATOM     66  O   UNL     1      -9.057   2.426   1.561  1.00  0.00    -0.250 OA
BRANCH  65  67
ATOM     67  O   UNL     1      -9.716   3.018  -0.482  1.00  0.00    -0.480 OA
ATOM     68  H   UNL     1     -10.507   2.471  -0.678  1.00  0.00     0.296 HD
ENDBRANCH  65  67
ENDBRANCH  49  65
ENDBRANCH  47  49
ENDBRANCH  43  45
ENDBRANCH   1  43
BRANCH   1  69
ATOM     69  C   UNL     1     -10.183   1.799  -4.802  1.00  0.00    -0.001 C 
ATOM     70  C   UNL     1     -10.725   1.783  -6.033  1.00  0.00     0.001 C 
BRANCH  70  71
ATOM     71  C   UNL     1     -12.090   1.389  -6.387  1.00  0.00    -0.055 C 
ATOM     72  C   UNL     1     -13.102   1.910  -5.661  1.00  0.00    -0.018 C 
ATOM     73  C   UNL     1     -12.270   0.439  -7.542  1.00  0.00     0.044 C 
BRANCH  72  74
ATOM     74  C   UNL     1     -14.601   1.687  -5.800  1.00  0.00     0.038 C 
ATOM     75  C   UNL     1     -15.254   3.069  -5.927  1.00  0.00     0.015 C 
BRANCH  74  76
ATOM     76  C   UNL     1     -15.096   0.839  -4.592  1.00  0.00     0.128 C 
BRANCH  76  77
ATOM     77  O   UNL     1     -16.531   0.888  -4.513  1.00  0.00    -0.381 OA
ATOM     78  C   UNL     1     -17.033   0.781  -3.188  1.00  0.00     0.195 C 
ENDBRANCH  76  77
BRANCH  76  79
ATOM     79  C   UNL     1     -14.543  -0.608  -4.570  1.00  0.00     0.068 C 
BRANCH  79  80
ATOM     80  C   UNL     1     -13.268  -0.866  -3.805  1.00  0.00    -0.045 A 
ATOM     81  C   UNL     1     -12.943  -0.115  -2.668  1.00  0.00     0.004 A 
ATOM     82  C   UNL     1     -12.368  -1.851  -4.242  1.00  0.00     0.004 A 
ATOM     83  C   UNL     1     -11.754  -0.351  -1.974  1.00  0.00     0.000 A 
ATOM     84  C   UNL     1     -11.179  -2.085  -3.548  1.00  0.00     0.000 A 
ATOM     85  C   UNL     1     -10.873  -1.337  -2.414  1.00  0.00     0.000 A 
ENDBRANCH  79  80
ENDBRANCH  76  79
ENDBRANCH  74  76
ENDBRANCH  72  74
ENDBRANCH  70  71
ENDBRANCH   1  69
TORSDOF 17
ENDMDL
MODEL 15
REMARK VINA RESULT:    -6.241      2.857     11.361
REMARK INTER + INTRA:         -26.258
REMARK INTER:                 -17.861
REMARK INTRA:                  -8.397
REMARK UNBOUND:                -7.611
REMARK SMILES C=C1C(=O)N[C@H](C)C(=O)N[C@@H](CC(C)C)C(=O)N[C@@H](C(=O)O)[C@H](C)C(=O)N[C@@H](CCCN=C(N)N)C(=O)N[C@@H](/C=C/C(C)=C/[C@H](C)[C@H](Cc2ccccc2)OC)[C@H](C)C(=O)N[C@@H](C(=O)O)CCC(=O)N1C
REMARK SMILES IDX 39 1 38 2 37 3 36 4 28 6 27 7 25 8 26 9 23 11 24 12 19 13
REMARK SMILES IDX 18 14 16 15 17 16 11 18 10 19 8 20 9 21 12 24 13 25 14 26
REMARK SMILES IDX 15 27 20 28 21 29 22 30 29 32 30 33 31 34 32 35 33 36 34 37
REMARK SMILES IDX 35 38 57 43 58 44 59 45 60 46 61 47 62 49 66 50 67 51 68 52
REMARK SMILES IDX 69 53 70 54 71 55 2 56 1 57 3 58 4 59 5 60 6 62 7 63 63 65
REMARK SMILES IDX 64 66 65 67 40 69 41 70 42 71 44 72 43 73 45 74 46 75 47 76
REMARK SMILES IDX 55 77 56 78 48 79 49 80 50 81 54 82 51 83 53 84 52 85
REMARK H PARENT 38 5 27 10 18 17 10 22 22 31 34 39 34 40 35 41 35 42 61 48
REMARK H PARENT 5 61 65 68
REMARK Flexibility Score:  369.900
ROOT
ATOM      1  C   UNL     1      -6.156   2.951  -7.390  1.00  0.00     0.117 C 
ENDROOT
BRANCH   1   2
ATOM      2  N   UNL     1      -7.167   1.923  -7.142  1.00  0.00    -0.347 N 
ATOM      3  O   UNL     1      -5.834   0.085  -7.481  1.00  0.00    -0.273 OA
ATOM      4  C   UNL     1      -6.902   0.567  -7.118  1.00  0.00     0.243 C 
ATOM      5  H   UNL     1      -8.112   2.201  -6.925  1.00  0.00     0.164 HD
BRANCH   4   6
ATOM      6  C   UNL     1      -8.130  -0.302  -6.747  1.00  0.00     0.171 C 
BRANCH   6   7
ATOM      7  N   UNL     1      -9.272   0.024  -7.616  1.00  0.00    -0.344 N 
ATOM      8  C   UNL     1     -10.249   0.899  -7.194  1.00  0.00     0.226 C 
ATOM      9  O   UNL     1     -10.232   1.424  -6.088  1.00  0.00    -0.275 OA
ATOM     10  H   UNL     1      -9.356  -0.442  -8.511  1.00  0.00     0.164 HD
BRANCH   8  11
ATOM     11  C   UNL     1     -11.330   1.174  -8.225  1.00  0.00     0.109 C 
ATOM     12  C   UNL     1     -10.736   1.137  -9.633  1.00  0.00     0.021 C 
BRANCH  11  13
ATOM     13  C   UNL     1     -12.521   0.221  -7.999  1.00  0.00     0.204 C 
BRANCH  13  14
ATOM     14  N   UNL     1     -13.626   0.876  -7.293  1.00  0.00    -0.340 N 
ATOM     15  C   UNL     1     -14.031   0.506  -6.029  1.00  0.00     0.243 C 
ATOM     16  O   UNL     1     -13.454  -0.363  -5.379  1.00  0.00    -0.273 OA
ATOM     17  H   UNL     1     -14.239   1.495  -7.830  1.00  0.00     0.164 HD
BRANCH  15  18
ATOM     18  C   UNL     1     -15.342   1.193  -5.574  1.00  0.00     0.171 C 
BRANCH  18  19
ATOM     19  N   UNL     1     -15.623   0.706  -4.225  1.00  0.00    -0.343 N 
ATOM     20  C   UNL     1     -16.874   0.243  -3.863  1.00  0.00     0.242 CG0
ATOM     21  O   UNL     1     -17.840   0.344  -4.616  1.00  0.00    -0.273 OA
ATOM     22  H   UNL     1     -14.885   0.710  -3.530  1.00  0.00     0.164 HD
ATOM     23  G   UNL     1     -16.959  -0.304  -2.423  1.00  0.00     0.000 G0
ENDBRANCH  18  19
BRANCH  18  24
ATOM     24  C   UNL     1     -15.190   2.719  -5.599  1.00  0.00     0.038 C 
BRANCH  24  25
ATOM     25  C   UNL     1     -14.115   3.276  -4.642  1.00  0.00    -0.015 C 
ATOM     26  C   UNL     1     -14.698   4.225  -3.595  1.00  0.00     0.007 C 
ATOM     27  C   UNL     1     -13.034   4.000  -5.449  1.00  0.00     0.007 C 
ENDBRANCH  24  25
ENDBRANCH  18  24
ENDBRANCH  15  18
ENDBRANCH  13  14
BRANCH  13  28
ATOM     28  C   UNL     1     -13.090  -0.353  -9.300  1.00  0.00     0.327 C 
ATOM     29  O   UNL     1     -12.714  -1.367  -9.868  1.00  0.00    -0.250 OA
BRANCH  28  30
ATOM     30  O   UNL     1     -14.017   0.444  -9.869  1.00  0.00    -0.480 OA
ATOM     31  H   UNL     1     -14.780  -0.149 -10.030  1.00  0.00     0.296 HD
ENDBRANCH  28  30
ENDBRANCH  13  28
ENDBRANCH  11  13
ENDBRANCH   8  11
ENDBRANCH   6   7
BRANCH   6  32
ATOM     32  C   UNL     1      -7.754  -1.783  -6.868  1.00  0.00     0.037 C 
BRANCH  32  33
ATOM     33  C   UNL     1      -7.498  -2.430  -5.500  1.00  0.00     0.026 C 
BRANCH  33  34
ATOM     34  C   UNL     1      -8.320  -1.784  -4.384  1.00  0.00     0.146 C 
BRANCH  34  35
ATOM     35  N   UNL     1      -9.564  -2.526  -4.228  1.00  0.00    -0.254 NA
ATOM     36  C   UNL     1     -10.645  -1.875  -4.011  1.00  0.00     0.185 C 
ATOM     37  N   UNL     1     -11.797  -2.548  -3.870  1.00  0.00    -0.370 N 
ATOM     38  N   UNL     1     -10.822  -0.547  -3.895  1.00  0.00    -0.370 N 
ATOM     39  H   UNL     1     -11.748  -3.556  -3.954  1.00  0.00     0.159 HD
ATOM     40  H   UNL     1     -12.702  -2.109  -3.872  1.00  0.00     0.159 HD
ATOM     41  H   UNL     1     -11.700  -0.163  -3.585  1.00  0.00     0.159 HD
ATOM     42  H   UNL     1     -10.038   0.083  -3.963  1.00  0.00     0.159 HD
ENDBRANCH  34  35
ENDBRANCH  33  34
ENDBRANCH  32  33
ENDBRANCH   6  32
ENDBRANCH   4   6
ENDBRANCH   1   2
BRANCH   1  43
ATOM     43  C   UNL     1      -5.669   3.507  -6.021  1.00  0.00     0.102 C 
ATOM     44  C   UNL     1      -5.918   5.015  -5.849  1.00  0.00     0.020 C 
BRANCH  43  45
ATOM     45  C   UNL     1      -4.227   3.079  -5.735  1.00  0.00     0.225 C 
ATOM     46  O   UNL     1      -3.493   3.674  -4.951  1.00  0.00    -0.275 OA
ATOM     47  N   UNL     1      -3.761   2.026  -6.489  1.00  0.00    -0.342 N 
ATOM     48  H   UNL     1      -4.413   1.458  -7.011  1.00  0.00     0.164 HD
BRANCH  47  49
ATOM     49  C   UNL     1      -2.412   1.485  -6.299  1.00  0.00     0.192 C 
BRANCH  49  50
ATOM     50  C   UNL     1      -1.781   1.186  -7.661  1.00  0.00     0.047 C 
BRANCH  50  51
ATOM     51  C   UNL     1      -0.394   0.540  -7.531  1.00  0.00     0.103 C 
BRANCH  51  52
ATOM     52  C   UNL     1      -0.106  -0.434  -8.672  1.00  0.00     0.226 C 
ATOM     53  O   UNL     1      -0.734  -1.492  -8.744  1.00  0.00    -0.275 OA
BRANCH  52  54
ATOM     54  N   UNL     1       0.831  -0.013  -9.634  1.00  0.00    -0.311 N 
ATOM     55  C   UNL     1       1.910  -0.904 -10.080  1.00  0.00     0.153 C 
BRANCH  54  56
ATOM     56  C   UNL     1       0.767   1.269 -10.207  1.00  0.00     0.102 C 
ATOM     57  C   UNL     1      -0.144   1.661 -11.113  1.00  0.00     0.043 C 
BRANCH  56  58
ATOM     58  C   UNL     1       1.733   2.353  -9.790  1.00  0.00     0.268 C 
ATOM     59  O   UNL     1       2.362   2.322  -8.741  1.00  0.00    -0.268 OA
ATOM     60  N   UNL     1       1.879   3.339 -10.736  1.00  0.00    -0.339 N 
ATOM     61  H   UNL     1       1.312   3.297 -11.575  1.00  0.00     0.164 HD
BRANCH  60  62
ATOM     62  C   UNL     1       2.812   4.452 -10.564  1.00  0.00     0.168 CG0
ATOM     63  C   UNL     1       4.162   4.137 -11.196  1.00  0.00     0.041 C 
ATOM     64  G   UNL     1       2.972   4.764  -9.062  1.00  0.00     0.000 G0
ENDBRANCH  60  62
ENDBRANCH  56  58
ENDBRANCH  54  56
ENDBRANCH  52  54
ENDBRANCH  51  52
ENDBRANCH  50  51
ENDBRANCH  49  50
BRANCH  49  65
ATOM     65  C   UNL     1      -2.429   0.202  -5.453  1.00  0.00     0.326 C 
ATOM     66  O   UNL     1      -2.963  -0.851  -5.771  1.00  0.00    -0.250 OA
BRANCH  65  67
ATOM     67  O   UNL     1      -1.840   0.317  -4.243  1.00  0.00    -0.480 OA
ATOM     68  H   UNL     1      -2.568   0.131  -3.612  1.00  0.00     0.296 HD
ENDBRANCH  65  67
ENDBRANCH  49  65
ENDBRANCH  47  49
ENDBRANCH  43  45
ENDBRANCH   1  43
BRANCH   1  69
ATOM     69  C   UNL     1      -6.765   3.911  -8.396  1.00  0.00    -0.001 C 
ATOM     70  C   UNL     1      -6.911   3.723  -9.720  1.00  0.00     0.001 C 
BRANCH  70  71
ATOM     71  C   UNL     1      -7.520   4.647 -10.678  1.00  0.00    -0.055 C 
ATOM     72  C   UNL     1      -8.435   5.522 -10.211  1.00  0.00    -0.018 C 
ATOM     73  C   UNL     1      -7.076   4.563 -12.115  1.00  0.00     0.044 C 
BRANCH  72  74
ATOM     74  C   UNL     1      -9.220   6.588 -10.962  1.00  0.00     0.038 C 
ATOM     75  C   UNL     1      -9.339   7.802 -10.033  1.00  0.00     0.015 C 
BRANCH  74  76
ATOM     76  C   UNL     1     -10.579   5.980 -11.419  1.00  0.00     0.128 C 
BRANCH  76  77
ATOM     77  O   UNL     1     -10.543   5.703 -12.830  1.00  0.00    -0.381 OA
ATOM     78  C   UNL     1     -10.972   4.390 -13.165  1.00  0.00     0.195 C 
ENDBRANCH  76  77
BRANCH  76  79
ATOM     79  C   UNL     1     -11.037   4.761 -10.580  1.00  0.00     0.068 C 
BRANCH  79  80
ATOM     80  C   UNL     1     -12.364   4.853  -9.866  1.00  0.00    -0.045 A 
ATOM     81  C   UNL     1     -12.664   5.941  -9.036  1.00  0.00     0.004 A 
ATOM     82  C   UNL     1     -13.313   3.828 -10.002  1.00  0.00     0.004 A 
ATOM     83  C   UNL     1     -13.888   6.012  -8.368  1.00  0.00     0.000 A 
ATOM     84  C   UNL     1     -14.536   3.899  -9.333  1.00  0.00     0.000 A 
ATOM     85  C   UNL     1     -14.824   4.991  -8.518  1.00  0.00     0.000 A 
ENDBRANCH  79  80
ENDBRANCH  76  79
ENDBRANCH  74  76
ENDBRANCH  72  74
ENDBRANCH  70  71
ENDBRANCH   1  69
TORSDOF 17
ENDMDL
MODEL 16
REMARK VINA RESULT:    -6.227      3.606     11.541
REMARK INTER + INTRA:         -26.217
REMARK INTER:                 -18.362
REMARK INTRA:                  -7.855
REMARK UNBOUND:                -7.611
REMARK SMILES C=C1C(=O)N[C@H](C)C(=O)N[C@@H](CC(C)C)C(=O)N[C@@H](C(=O)O)[C@H](C)C(=O)N[C@@H](CCCN=C(N)N)C(=O)N[C@@H](/C=C/C(C)=C/[C@H](C)[C@H](Cc2ccccc2)OC)[C@H](C)C(=O)N[C@@H](C(=O)O)CCC(=O)N1C
REMARK SMILES IDX 39 1 38 2 37 3 36 4 28 6 27 7 25 8 26 9 23 11 24 12 19 13
REMARK SMILES IDX 18 14 16 15 17 16 11 18 10 19 8 20 9 21 12 24 13 25 14 26
REMARK SMILES IDX 15 27 20 28 21 29 22 30 29 32 30 33 31 34 32 35 33 36 34 37
REMARK SMILES IDX 35 38 57 43 58 44 59 45 60 46 61 47 62 49 66 50 67 51 68 52
REMARK SMILES IDX 69 53 70 54 71 55 2 56 1 57 3 58 4 59 5 60 6 62 7 63 63 65
REMARK SMILES IDX 64 66 65 67 40 69 41 70 42 71 44 72 43 73 45 74 46 75 47 76
REMARK SMILES IDX 55 77 56 78 48 79 49 80 50 81 54 82 51 83 53 84 52 85
REMARK H PARENT 38 5 27 10 18 17 10 22 22 31 34 39 34 40 35 41 35 42 61 48
REMARK H PARENT 5 61 65 68
REMARK Flexibility Score:  369.900
ROOT
ATOM      1  C   UNL     1      -7.295  -2.110  -6.762  1.00  0.00     0.117 C 
ENDROOT
BRANCH   1   2
ATOM      2  N   UNL     1      -7.966  -2.122  -5.461  1.00  0.00    -0.347 N 
ATOM      3  O   UNL     1     -10.001  -2.917  -6.167  1.00  0.00    -0.273 OA
ATOM      4  C   UNL     1      -9.241  -2.613  -5.254  1.00  0.00     0.243 C 
ATOM      5  H   UNL     1      -7.468  -1.802  -4.645  1.00  0.00     0.164 HD
BRANCH   4   6
ATOM      6  C   UNL     1      -9.684  -2.589  -3.769  1.00  0.00     0.171 C 
BRANCH   6   7
ATOM      7  N   UNL     1      -9.110  -1.422  -3.080  1.00  0.00    -0.344 N 
ATOM      8  C   UNL     1      -7.963  -1.545  -2.326  1.00  0.00     0.226 C 
ATOM      9  O   UNL     1      -7.384  -2.614  -2.174  1.00  0.00    -0.275 OA
ATOM     10  H   UNL     1      -9.598  -0.536  -3.127  1.00  0.00     0.164 HD
BRANCH   8  11
ATOM     11  C   UNL     1      -7.468  -0.242  -1.724  1.00  0.00     0.109 C 
ATOM     12  C   UNL     1      -7.392   0.840  -2.802  1.00  0.00     0.021 C 
BRANCH  11  13
ATOM     13  C   UNL     1      -8.325   0.125  -0.497  1.00  0.00     0.204 C 
BRANCH  13  14
ATOM     14  N   UNL     1      -9.679   0.542  -0.875  1.00  0.00    -0.340 N 
ATOM     15  C   UNL     1     -10.095   1.856  -0.840  1.00  0.00     0.243 C 
ATOM     16  O   UNL     1      -9.339   2.780  -0.548  1.00  0.00    -0.273 OA
ATOM     17  H   UNL     1     -10.394  -0.183  -0.980  1.00  0.00     0.164 HD
BRANCH  15  18
ATOM     18  C   UNL     1     -11.615   2.030  -1.078  1.00  0.00     0.171 C 
BRANCH  18  19
ATOM     19  N   UNL     1     -12.123   2.836   0.030  1.00  0.00    -0.343 N 
ATOM     20  C   UNL     1     -12.144   2.361   1.327  1.00  0.00     0.242 CG0
ATOM     21  O   UNL     1     -11.862   1.194   1.589  1.00  0.00    -0.273 OA
ATOM     22  H   UNL     1     -12.476   3.769  -0.154  1.00  0.00     0.164 HD
ATOM     23  G   UNL     1     -12.640   3.382   2.371  1.00  0.00     0.000 G0
ENDBRANCH  18  19
BRANCH  18  24
ATOM     24  C   UNL     1     -11.877   2.704  -2.431  1.00  0.00     0.038 C 
BRANCH  24  25
ATOM     25  C   UNL     1     -12.008   4.241  -2.370  1.00  0.00    -0.015 C 
ATOM     26  C   UNL     1     -13.333   4.739  -2.946  1.00  0.00     0.007 C 
ATOM     27  C   UNL     1     -10.843   4.887  -3.124  1.00  0.00     0.007 C 
ENDBRANCH  24  25
ENDBRANCH  18  24
ENDBRANCH  15  18
ENDBRANCH  13  14
BRANCH  13  28
ATOM     28  C   UNL     1      -8.467  -1.024   0.506  1.00  0.00     0.327 C 
ATOM     29  O   UNL     1      -9.503  -1.598   0.805  1.00  0.00    -0.250 OA
BRANCH  28  30
ATOM     30  O   UNL     1      -7.320  -1.302   1.157  1.00  0.00    -0.480 OA
ATOM     31  H   UNL     1      -7.000  -0.429   1.465  1.00  0.00     0.296 HD
ENDBRANCH  28  30
ENDBRANCH  13  28
ENDBRANCH  11  13
ENDBRANCH   8  11
ENDBRANCH   6   7
BRANCH   6  32
ATOM     32  C   UNL     1     -11.215  -2.567  -3.701  1.00  0.00     0.037 C 
BRANCH  32  33
ATOM     33  C   UNL     1     -11.763  -1.156  -3.447  1.00  0.00     0.026 C 
BRANCH  33  34
ATOM     34  C   UNL     1     -12.925  -1.150  -2.453  1.00  0.00     0.146 C 
BRANCH  34  35
ATOM     35  N   UNL     1     -12.385  -1.147  -1.100  1.00  0.00    -0.254 NA
ATOM     36  C   UNL     1     -13.152  -1.488  -0.132  1.00  0.00     0.185 C 
ATOM     37  N   UNL     1     -12.663  -1.494   1.118  1.00  0.00    -0.370 N 
ATOM     38  N   UNL     1     -14.442  -1.864  -0.168  1.00  0.00    -0.370 N 
ATOM     39  H   UNL     1     -11.692  -1.231   1.227  1.00  0.00     0.159 HD
ATOM     40  H   UNL     1     -13.140  -1.910   1.900  1.00  0.00     0.159 HD
ATOM     41  H   UNL     1     -14.977  -1.974   0.678  1.00  0.00     0.159 HD
ATOM     42  H   UNL     1     -14.944  -1.890  -1.042  1.00  0.00     0.159 HD
ENDBRANCH  34  35
ENDBRANCH  33  34
ENDBRANCH  32  33
ENDBRANCH   6  32
ENDBRANCH   4   6
ENDBRANCH   1   2
BRANCH   1  43
ATOM     43  C   UNL     1      -5.988  -2.947  -6.651  1.00  0.00     0.102 C 
ATOM     44  C   UNL     1      -4.877  -2.246  -5.852  1.00  0.00     0.020 C 
BRANCH  43  45
ATOM     45  C   UNL     1      -5.540  -3.451  -8.027  1.00  0.00     0.225 C 
ATOM     46  O   UNL     1      -5.963  -4.487  -8.532  1.00  0.00    -0.275 OA
ATOM     47  N   UNL     1      -4.550  -2.713  -8.634  1.00  0.00    -0.342 N 
ATOM     48  H   UNL     1      -4.325  -1.793  -8.283  1.00  0.00     0.164 HD
BRANCH  47  49
ATOM     49  C   UNL     1      -4.048  -3.056  -9.968  1.00  0.00     0.192 C 
BRANCH  49  50
ATOM     50  C   UNL     1      -2.723  -2.333 -10.221  1.00  0.00     0.047 C 
BRANCH  50  51
ATOM     51  C   UNL     1      -2.513  -1.152  -9.263  1.00  0.00     0.103 C 
BRANCH  51  52
ATOM     52  C   UNL     1      -1.035  -0.801  -9.102  1.00  0.00     0.226 C 
ATOM     53  O   UNL     1      -0.321  -1.488  -8.369  1.00  0.00    -0.275 OA
BRANCH  52  54
ATOM     54  N   UNL     1      -0.557   0.269  -9.881  1.00  0.00    -0.311 N 
ATOM     55  C   UNL     1      -1.476   1.101 -10.669  1.00  0.00     0.153 C 
BRANCH  54  56
ATOM     56  C   UNL     1       0.811   0.585  -9.930  1.00  0.00     0.102 C 
ATOM     57  C   UNL     1       1.438   1.420  -9.085  1.00  0.00     0.043 C 
BRANCH  56  58
ATOM     58  C   UNL     1       1.719  -0.057 -10.953  1.00  0.00     0.268 C 
ATOM     59  O   UNL     1       2.366   0.585 -11.770  1.00  0.00    -0.268 OA
ATOM     60  N   UNL     1       1.792  -1.423 -10.828  1.00  0.00    -0.339 N 
ATOM     61  H   UNL     1       1.216  -1.881 -10.132  1.00  0.00     0.164 HD
BRANCH  60  62
ATOM     62  C   UNL     1       2.661  -2.238 -11.678  1.00  0.00     0.168 CG0
ATOM     63  C   UNL     1       3.411  -3.278 -10.855  1.00  0.00     0.041 C 
ATOM     64  G   UNL     1       3.647  -1.324 -12.434  1.00  0.00     0.000 G0
ENDBRANCH  60  62
ENDBRANCH  56  58
ENDBRANCH  54  56
ENDBRANCH  52  54
ENDBRANCH  51  52
ENDBRANCH  50  51
ENDBRANCH  49  50
BRANCH  49  65
ATOM     65  C   UNL     1      -5.053  -2.677 -11.067  1.00  0.00     0.326 C 
ATOM     66  O   UNL     1      -5.250  -1.547 -11.491  1.00  0.00    -0.250 OA
BRANCH  65  67
ATOM     67  O   UNL     1      -5.796  -3.706 -11.532  1.00  0.00    -0.480 OA
ATOM     68  H   UNL     1      -5.193  -4.477 -11.461  1.00  0.00     0.296 HD
ENDBRANCH  65  67
ENDBRANCH  49  65
ENDBRANCH  47  49
ENDBRANCH  43  45
ENDBRANCH   1  43
BRANCH   1  69
ATOM     69  C   UNL     1      -7.200  -0.653  -7.176  1.00  0.00    -0.001 C 
ATOM     70  C   UNL     1      -7.788   0.404  -6.588  1.00  0.00     0.001 C 
BRANCH  70  71
ATOM     71  C   UNL     1      -7.672   1.808  -6.985  1.00  0.00    -0.055 C 
ATOM     72  C   UNL     1      -6.562   2.181  -7.657  1.00  0.00    -0.018 C 
ATOM     73  C   UNL     1      -8.802   2.736  -6.623  1.00  0.00     0.044 C 
BRANCH  72  74
ATOM     74  C   UNL     1      -6.174   3.552  -8.192  1.00  0.00     0.038 C 
ATOM     75  C   UNL     1      -5.941   3.401  -9.700  1.00  0.00     0.015 C 
BRANCH  74  76
ATOM     76  C   UNL     1      -4.946   4.073  -7.390  1.00  0.00     0.128 C 
BRANCH  76  77
ATOM     77  O   UNL     1      -5.025   5.502  -7.244  1.00  0.00    -0.381 OA
ATOM     78  C   UNL     1      -4.837   5.951  -5.909  1.00  0.00     0.195 C 
ENDBRANCH  76  77
BRANCH  76  79
ATOM     79  C   UNL     1      -4.719   3.345  -6.041  1.00  0.00     0.068 C 
BRANCH  79  80
ATOM     80  C   UNL     1      -3.555   2.389  -5.941  1.00  0.00    -0.045 A 
ATOM     81  C   UNL     1      -3.619   1.257  -5.118  1.00  0.00     0.004 A 
ATOM     82  C   UNL     1      -2.372   2.638  -6.654  1.00  0.00     0.004 A 
ATOM     83  C   UNL     1      -2.532   0.386  -5.019  1.00  0.00     0.000 A 
ATOM     84  C   UNL     1      -1.286   1.766  -6.554  1.00  0.00     0.000 A 
ATOM     85  C   UNL     1      -1.366   0.640  -5.739  1.00  0.00     0.000 A 
ENDBRANCH  79  80
ENDBRANCH  76  79
ENDBRANCH  74  76
ENDBRANCH  72  74
ENDBRANCH  70  71
ENDBRANCH   1  69
TORSDOF 17
ENDMDL
MODEL 17
REMARK VINA RESULT:    -6.202      6.952     11.686
REMARK INTER + INTRA:         -26.139
REMARK INTER:                 -17.408
REMARK INTRA:                  -8.731
REMARK UNBOUND:                -7.611
REMARK SMILES C=C1C(=O)N[C@H](C)C(=O)N[C@@H](CC(C)C)C(=O)N[C@@H](C(=O)O)[C@H](C)C(=O)N[C@@H](CCCN=C(N)N)C(=O)N[C@@H](/C=C/C(C)=C/[C@H](C)[C@H](Cc2ccccc2)OC)[C@H](C)C(=O)N[C@@H](C(=O)O)CCC(=O)N1C
REMARK SMILES IDX 39 1 38 2 37 3 36 4 28 6 27 7 25 8 26 9 23 11 24 12 19 13
REMARK SMILES IDX 18 14 16 15 17 16 11 18 10 19 8 20 9 21 12 24 13 25 14 26
REMARK SMILES IDX 15 27 20 28 21 29 22 30 29 32 30 33 31 34 32 35 33 36 34 37
REMARK SMILES IDX 35 38 57 43 58 44 59 45 60 46 61 47 62 49 66 50 67 51 68 52
REMARK SMILES IDX 69 53 70 54 71 55 2 56 1 57 3 58 4 59 5 60 6 62 7 63 63 65
REMARK SMILES IDX 64 66 65 67 40 69 41 70 42 71 44 72 43 73 45 74 46 75 47 76
REMARK SMILES IDX 55 77 56 78 48 79 49 80 50 81 54 82 51 83 53 84 52 85
REMARK H PARENT 38 5 27 10 18 17 10 22 22 31 34 39 34 40 35 41 35 42 61 48
REMARK H PARENT 5 61 65 68
REMARK Flexibility Score:  369.900
ROOT
ATOM      1  C   UNL     1      -7.066  -1.347  -2.952  1.00  0.00     0.117 C 
ENDROOT
BRANCH   1   2
ATOM      2  N   UNL     1      -7.548  -0.353  -3.911  1.00  0.00    -0.347 N 
ATOM      3  O   UNL     1      -5.504   0.428  -4.607  1.00  0.00    -0.273 OA
ATOM      4  C   UNL     1      -6.724   0.394  -4.732  1.00  0.00     0.243 C 
ATOM      5  H   UNL     1      -8.541  -0.223  -4.033  1.00  0.00     0.164 HD
BRANCH   4   6
ATOM      6  C   UNL     1      -7.491   1.312  -5.717  1.00  0.00     0.171 C 
BRANCH   6   7
ATOM      7  N   UNL     1      -8.941   1.091  -5.602  1.00  0.00    -0.344 N 
ATOM      8  C   UNL     1      -9.642   0.478  -6.618  1.00  0.00     0.226 C 
ATOM      9  O   UNL     1      -9.109   0.112  -7.660  1.00  0.00    -0.275 OA
ATOM     10  H   UNL     1      -9.428   1.440  -4.786  1.00  0.00     0.164 HD
BRANCH   8  11
ATOM     11  C   UNL     1     -11.118   0.274  -6.326  1.00  0.00     0.109 C 
ATOM     12  C   UNL     1     -11.415   0.604  -4.864  1.00  0.00     0.021 C 
BRANCH  11  13
ATOM     13  C   UNL     1     -11.965   1.053  -7.352  1.00  0.00     0.204 C 
BRANCH  13  14
ATOM     14  N   UNL     1     -11.155   1.987  -8.141  1.00  0.00    -0.340 N 
ATOM     15  C   UNL     1     -11.554   3.278  -8.413  1.00  0.00     0.243 C 
ATOM     16  O   UNL     1     -12.592   3.757  -7.961  1.00  0.00    -0.273 OA
ATOM     17  H   UNL     1     -10.363   1.609  -8.668  1.00  0.00     0.164 HD
BRANCH  15  18
ATOM     18  C   UNL     1     -10.642   4.005  -9.431  1.00  0.00     0.171 C 
BRANCH  18  19
ATOM     19  N   UNL     1     -11.519   4.544 -10.468  1.00  0.00    -0.343 N 
ATOM     20  C   UNL     1     -12.171   3.725 -11.370  1.00  0.00     0.242 CG0
ATOM     21  O   UNL     1     -11.940   2.519 -11.427  1.00  0.00    -0.273 OA
ATOM     22  H   UNL     1     -11.652   5.547 -10.536  1.00  0.00     0.164 HD
ATOM     23  G   UNL     1     -13.114   4.467 -12.339  1.00  0.00     0.000 G0
ENDBRANCH  18  19
BRANCH  18  24
ATOM     24  C   UNL     1      -9.838   5.115  -8.742  1.00  0.00     0.038 C 
BRANCH  24  25
ATOM     25  C   UNL     1     -10.383   6.541  -8.970  1.00  0.00    -0.015 C 
ATOM     26  C   UNL     1      -9.351   7.466  -9.616  1.00  0.00     0.007 C 
ATOM     27  C   UNL     1     -10.844   7.135  -7.636  1.00  0.00     0.007 C 
ENDBRANCH  24  25
ENDBRANCH  18  24
ENDBRANCH  15  18
ENDBRANCH  13  14
BRANCH  13  28
ATOM     28  C   UNL     1     -12.702   0.144  -8.341  1.00  0.00     0.327 C 
ATOM     29  O   UNL     1     -12.274  -0.254  -9.414  1.00  0.00    -0.250 OA
BRANCH  28  30
ATOM     30  O   UNL     1     -13.975  -0.111  -7.977  1.00  0.00    -0.480 OA
ATOM     31  H   UNL     1     -13.992   0.074  -7.015  1.00  0.00     0.296 HD
ENDBRANCH  28  30
ENDBRANCH  13  28
ENDBRANCH  11  13
ENDBRANCH   8  11
ENDBRANCH   6   7
BRANCH   6  32
ATOM     32  C   UNL     1      -7.135   2.773  -5.424  1.00  0.00     0.037 C 
BRANCH  32  33
ATOM     33  C   UNL     1      -8.107   3.418  -4.426  1.00  0.00     0.026 C 
BRANCH  33  34
ATOM     34  C   UNL     1      -8.965   4.509  -5.066  1.00  0.00     0.146 C 
BRANCH  34  35
ATOM     35  N   UNL     1     -10.289   3.967  -5.339  1.00  0.00    -0.254 NA
ATOM     36  C   UNL     1     -11.304   4.516  -4.784  1.00  0.00     0.185 C 
ATOM     37  N   UNL     1     -12.529   4.027  -5.032  1.00  0.00    -0.370 N 
ATOM     38  N   UNL     1     -11.343   5.565  -3.944  1.00  0.00    -0.370 N 
ATOM     39  H   UNL     1     -12.584   3.240  -5.666  1.00  0.00     0.159 HD
ATOM     40  H   UNL     1     -13.379   4.501  -4.780  1.00  0.00     0.159 HD
ATOM     41  H   UNL     1     -12.192   5.816  -3.463  1.00  0.00     0.159 HD
ATOM     42  H   UNL     1     -10.493   6.023  -3.656  1.00  0.00     0.159 HD
ENDBRANCH  34  35
ENDBRANCH  33  34
ENDBRANCH  32  33
ENDBRANCH   6  32
ENDBRANCH   4   6
ENDBRANCH   1   2
BRANCH   1  43
ATOM     43  C   UNL     1      -7.299  -2.765  -3.549  1.00  0.00     0.102 C 
ATOM     44  C   UNL     1      -8.325  -2.785  -4.694  1.00  0.00     0.020 C 
BRANCH  43  45
ATOM     45  C   UNL     1      -7.581  -3.787  -2.444  1.00  0.00     0.225 C 
ATOM     46  O   UNL     1      -8.693  -3.954  -1.952  1.00  0.00    -0.275 OA
ATOM     47  N   UNL     1      -6.479  -4.454  -1.959  1.00  0.00    -0.342 N 
ATOM     48  H   UNL     1      -5.608  -4.419  -2.470  1.00  0.00     0.164 HD
BRANCH  47  49
ATOM     49  C   UNL     1      -6.602  -5.487  -0.926  1.00  0.00     0.192 C 
BRANCH  49  50
ATOM     50  C   UNL     1      -5.671  -5.157   0.244  1.00  0.00     0.047 C 
BRANCH  50  51
ATOM     51  C   UNL     1      -6.343  -4.251   1.284  1.00  0.00     0.103 C 
BRANCH  51  52
ATOM     52  C   UNL     1      -6.971  -5.052   2.423  1.00  0.00     0.226 C 
ATOM     53  O   UNL     1      -8.029  -5.654   2.234  1.00  0.00    -0.275 OA
BRANCH  52  54
ATOM     54  N   UNL     1      -6.240  -5.112   3.624  1.00  0.00    -0.311 N 
ATOM     55  C   UNL     1      -5.110  -4.205   3.868  1.00  0.00     0.153 C 
BRANCH  54  56
ATOM     56  C   UNL     1      -6.564  -6.034   4.634  1.00  0.00     0.102 C 
ATOM     57  C   UNL     1      -6.013  -7.251   4.769  1.00  0.00     0.043 C 
BRANCH  56  58
ATOM     58  C   UNL     1      -7.566  -5.685   5.709  1.00  0.00     0.268 C 
ATOM     59  O   UNL     1      -8.581  -5.036   5.493  1.00  0.00    -0.268 OA
ATOM     60  N   UNL     1      -7.256  -6.227   6.933  1.00  0.00    -0.339 N 
ATOM     61  H   UNL     1      -6.390  -6.744   7.031  1.00  0.00     0.164 HD
BRANCH  60  62
ATOM     62  C   UNL     1      -8.124  -6.066   8.099  1.00  0.00     0.168 CG0
ATOM     63  C   UNL     1      -7.687  -4.876   8.945  1.00  0.00     0.041 C 
ATOM     64  G   UNL     1      -8.114  -7.363   8.934  1.00  0.00     0.000 G0
ENDBRANCH  60  62
ENDBRANCH  56  58
ENDBRANCH  54  56
ENDBRANCH  52  54
ENDBRANCH  51  52
ENDBRANCH  50  51
ENDBRANCH  49  50
BRANCH  49  65
ATOM     65  C   UNL     1      -6.257  -6.881  -1.473  1.00  0.00     0.326 C 
ATOM     66  O   UNL     1      -5.356  -7.132  -2.261  1.00  0.00    -0.250 OA
BRANCH  65  67
ATOM     67  O   UNL     1      -7.083  -7.868  -1.063  1.00  0.00    -0.480 OA
ATOM     68  H   UNL     1      -7.048  -8.520  -1.796  1.00  0.00     0.296 HD
ENDBRANCH  65  67
ENDBRANCH  49  65
ENDBRANCH  47  49
ENDBRANCH  43  45
ENDBRANCH   1  43
BRANCH   1  69
ATOM     69  C   UNL     1      -7.706  -0.997  -1.621  1.00  0.00    -0.001 C 
ATOM     70  C   UNL     1      -7.088  -0.582  -0.501  1.00  0.00     0.001 C 
BRANCH  70  71
ATOM     71  C   UNL     1      -7.719  -0.226   0.771  1.00  0.00    -0.055 C 
ATOM     72  C   UNL     1      -8.199  -1.230   1.536  1.00  0.00    -0.018 C 
ATOM     73  C   UNL     1      -7.780   1.233   1.142  1.00  0.00     0.044 C 
BRANCH  72  74
ATOM     74  C   UNL     1      -8.892  -1.162   2.889  1.00  0.00     0.038 C 
ATOM     75  C   UNL     1      -7.981  -1.870   3.900  1.00  0.00     0.015 C 
BRANCH  74  76
ATOM     76  C   UNL     1     -10.317  -1.775   2.753  1.00  0.00     0.128 C 
BRANCH  76  77
ATOM     77  O   UNL     1     -10.599  -2.617   3.883  1.00  0.00    -0.381 OA
ATOM     78  C   UNL     1     -11.767  -2.239   4.600  1.00  0.00     0.195 C 
ENDBRANCH  76  77
BRANCH  76  79
ATOM     79  C   UNL     1     -11.430  -0.729   2.492  1.00  0.00     0.068 C 
BRANCH  79  80
ATOM     80  C   UNL     1     -11.370   0.061   1.207  1.00  0.00    -0.045 A 
ATOM     81  C   UNL     1     -11.325  -0.584  -0.036  1.00  0.00     0.004 A 
ATOM     82  C   UNL     1     -11.330   1.463   1.240  1.00  0.00     0.004 A 
ATOM     83  C   UNL     1     -11.255   0.154  -1.219  1.00  0.00     0.000 A 
ATOM     84  C   UNL     1     -11.260   2.200   0.056  1.00  0.00     0.000 A 
ATOM     85  C   UNL     1     -11.224   1.546  -1.173  1.00  0.00     0.000 A 
ENDBRANCH  79  80
ENDBRANCH  76  79
ENDBRANCH  74  76
ENDBRANCH  72  74
ENDBRANCH  70  71
ENDBRANCH   1  69
TORSDOF 17
ENDMDL
MODEL 18
REMARK VINA RESULT:    -6.191      9.033     17.419
REMARK INTER + INTRA:         -26.109
REMARK INTER:                 -16.900
REMARK INTRA:                  -9.209
REMARK UNBOUND:                -7.611
REMARK SMILES C=C1C(=O)N[C@H](C)C(=O)N[C@@H](CC(C)C)C(=O)N[C@@H](C(=O)O)[C@H](C)C(=O)N[C@@H](CCCN=C(N)N)C(=O)N[C@@H](/C=C/C(C)=C/[C@H](C)[C@H](Cc2ccccc2)OC)[C@H](C)C(=O)N[C@@H](C(=O)O)CCC(=O)N1C
REMARK SMILES IDX 39 1 38 2 37 3 36 4 28 6 27 7 25 8 26 9 23 11 24 12 19 13
REMARK SMILES IDX 18 14 16 15 17 16 11 18 10 19 8 20 9 21 12 24 13 25 14 26
REMARK SMILES IDX 15 27 20 28 21 29 22 30 29 32 30 33 31 34 32 35 33 36 34 37
REMARK SMILES IDX 35 38 57 43 58 44 59 45 60 46 61 47 62 49 66 50 67 51 68 52
REMARK SMILES IDX 69 53 70 54 71 55 2 56 1 57 3 58 4 59 5 60 6 62 7 63 63 65
REMARK SMILES IDX 64 66 65 67 40 69 41 70 42 71 44 72 43 73 45 74 46 75 47 76
REMARK SMILES IDX 55 77 56 78 48 79 49 80 50 81 54 82 51 83 53 84 52 85
REMARK H PARENT 38 5 27 10 18 17 10 22 22 31 34 39 34 40 35 41 35 42 61 48
REMARK H PARENT 5 61 65 68
REMARK Flexibility Score:  369.900
ROOT
ATOM      1  C   UNL     1     -15.557   3.216  -1.673  1.00  0.00     0.117 C 
ENDROOT
BRANCH   1   2
ATOM      2  N   UNL     1     -16.266   1.941  -1.565  1.00  0.00    -0.347 N 
ATOM      3  O   UNL     1     -18.377   2.716  -2.023  1.00  0.00    -0.273 OA
ATOM      4  C   UNL     1     -17.610   1.777  -1.840  1.00  0.00     0.243 C 
ATOM      5  H   UNL     1     -15.750   1.108  -1.325  1.00  0.00     0.164 HD
BRANCH   4   6
ATOM      6  C   UNL     1     -18.094   0.309  -1.733  1.00  0.00     0.171 C 
BRANCH   6   7
ATOM      7  N   UNL     1     -18.681   0.056  -0.408  1.00  0.00    -0.344 N 
ATOM      8  C   UNL     1     -17.987  -0.661   0.543  1.00  0.00     0.226 C 
ATOM      9  O   UNL     1     -16.877  -1.136   0.332  1.00  0.00    -0.275 OA
ATOM     10  H   UNL     1     -19.623   0.374  -0.219  1.00  0.00     0.164 HD
BRANCH   8  11
ATOM     11  C   UNL     1     -18.703  -0.790   1.876  1.00  0.00     0.109 C 
ATOM     12  C   UNL     1     -20.216  -0.715   1.669  1.00  0.00     0.021 C 
BRANCH  11  13
ATOM     13  C   UNL     1     -18.211  -2.051   2.613  1.00  0.00     0.204 C 
BRANCH  13  14
ATOM     14  N   UNL     1     -17.193  -1.739   3.621  1.00  0.00    -0.340 N 
ATOM     15  C   UNL     1     -16.217  -2.635   4.001  1.00  0.00     0.243 C 
ATOM     16  O   UNL     1     -16.095  -3.741   3.477  1.00  0.00    -0.273 OA
ATOM     17  H   UNL     1     -17.329  -0.905   4.199  1.00  0.00     0.164 HD
BRANCH  15  18
ATOM     18  C   UNL     1     -15.389  -2.166   5.222  1.00  0.00     0.171 C 
BRANCH  18  19
ATOM     19  N   UNL     1     -15.914  -2.880   6.384  1.00  0.00    -0.343 N 
ATOM     20  C   UNL     1     -17.092  -2.504   7.000  1.00  0.00     0.242 CG0
ATOM     21  O   UNL     1     -17.682  -1.474   6.684  1.00  0.00    -0.273 OA
ATOM     22  H   UNL     1     -15.399  -3.671   6.756  1.00  0.00     0.164 HD
ATOM     23  G   UNL     1     -17.526  -3.424   8.160  1.00  0.00     0.000 G0
ENDBRANCH  18  19
BRANCH  18  24
ATOM     24  C   UNL     1     -13.898  -2.458   5.009  1.00  0.00     0.038 C 
BRANCH  24  25
ATOM     25  C   UNL     1     -13.015  -1.204   4.829  1.00  0.00    -0.015 C 
ATOM     26  C   UNL     1     -13.839   0.070   4.641  1.00  0.00     0.007 C 
ATOM     27  C   UNL     1     -12.086  -1.398   3.628  1.00  0.00     0.007 C 
ENDBRANCH  24  25
ENDBRANCH  18  24
ENDBRANCH  15  18
ENDBRANCH  13  14
BRANCH  13  28
ATOM     28  C   UNL     1     -19.335  -2.812   3.323  1.00  0.00     0.327 C 
ATOM     29  O   UNL     1     -19.983  -3.739   2.862  1.00  0.00    -0.250 OA
BRANCH  28  30
ATOM     30  O   UNL     1     -19.654  -2.285   4.522  1.00  0.00    -0.480 OA
ATOM     31  H   UNL     1     -18.793  -2.185   4.979  1.00  0.00     0.296 HD
ENDBRANCH  28  30
ENDBRANCH  13  28
ENDBRANCH  11  13
ENDBRANCH   8  11
ENDBRANCH   6   7
BRANCH   6  32
ATOM     32  C   UNL     1     -19.112   0.033  -2.845  1.00  0.00     0.037 C 
BRANCH  32  33
ATOM     33  C   UNL     1     -18.529   0.289  -4.241  1.00  0.00     0.026 C 
BRANCH  33  34
ATOM     34  C   UNL     1     -17.326  -0.603  -4.546  1.00  0.00     0.146 C 
BRANCH  34  35
ATOM     35  N   UNL     1     -17.806  -1.913  -4.966  1.00  0.00    -0.254 NA
ATOM     36  C   UNL     1     -17.522  -2.932  -4.245  1.00  0.00     0.185 C 
ATOM     37  N   UNL     1     -17.964  -4.142  -4.619  1.00  0.00    -0.370 N 
ATOM     38  N   UNL     1     -16.811  -2.988  -3.104  1.00  0.00    -0.370 N 
ATOM     39  H   UNL     1     -18.518  -4.182  -5.466  1.00  0.00     0.159 HD
ATOM     40  H   UNL     1     -17.934  -4.954  -4.026  1.00  0.00     0.159 HD
ATOM     41  H   UNL     1     -16.538  -3.870  -2.704  1.00  0.00     0.159 HD
ATOM     42  H   UNL     1     -16.403  -2.153  -2.713  1.00  0.00     0.159 HD
ENDBRANCH  34  35
ENDBRANCH  33  34
ENDBRANCH  32  33
ENDBRANCH   6  32
ENDBRANCH   4   6
ENDBRANCH   1   2
BRANCH   1  43
ATOM     43  C   UNL     1     -14.256   2.992  -2.496  1.00  0.00     0.102 C 
ATOM     44  C   UNL     1     -14.447   3.188  -4.009  1.00  0.00     0.020 C 
BRANCH  43  45
ATOM     45  C   UNL     1     -13.589   1.665  -2.120  1.00  0.00     0.225 C 
ATOM     46  O   UNL     1     -13.276   1.374  -0.969  1.00  0.00    -0.275 OA
ATOM     47  N   UNL     1     -13.271   0.843  -3.176  1.00  0.00    -0.342 N 
ATOM     48  H   UNL     1     -13.666   1.023  -4.088  1.00  0.00     0.164 HD
BRANCH  47  49
ATOM     49  C   UNL     1     -12.662  -0.474  -2.965  1.00  0.00     0.192 C 
BRANCH  49  50
ATOM     50  C   UNL     1     -11.726  -0.801  -4.131  1.00  0.00     0.047 C 
BRANCH  50  51
ATOM     51  C   UNL     1     -11.494   0.408  -5.048  1.00  0.00     0.103 C 
BRANCH  51  52
ATOM     52  C   UNL     1     -11.958   0.141  -6.478  1.00  0.00     0.226 C 
ATOM     53  O   UNL     1     -11.407  -0.738  -7.144  1.00  0.00    -0.275 OA
BRANCH  52  54
ATOM     54  N   UNL     1     -13.064   0.886  -6.928  1.00  0.00    -0.311 N 
ATOM     55  C   UNL     1     -14.435   0.477  -6.599  1.00  0.00     0.153 C 
BRANCH  54  56
ATOM     56  C   UNL     1     -12.899   2.048  -7.700  1.00  0.00     0.102 C 
ATOM     57  C   UNL     1     -12.683   3.277  -7.203  1.00  0.00     0.043 C 
BRANCH  56  58
ATOM     58  C   UNL     1     -12.908   1.984  -9.209  1.00  0.00     0.268 C 
ATOM     59  O   UNL     1     -13.934   1.887  -9.869  1.00  0.00    -0.268 OA
ATOM     60  N   UNL     1     -11.656   2.111  -9.763  1.00  0.00    -0.339 N 
ATOM     61  H   UNL     1     -10.855   2.176  -9.147  1.00  0.00     0.164 HD
BRANCH  60  62
ATOM     62  C   UNL     1     -11.444   2.138 -11.210  1.00  0.00     0.168 CG0
ATOM     63  C   UNL     1     -10.936   0.793 -11.713  1.00  0.00     0.041 C 
ATOM     64  G   UNL     1     -10.451   3.264 -11.565  1.00  0.00     0.000 G0
ENDBRANCH  60  62
ENDBRANCH  56  58
ENDBRANCH  54  56
ENDBRANCH  52  54
ENDBRANCH  51  52
ENDBRANCH  50  51
ENDBRANCH  49  50
BRANCH  49  65
ATOM     65  C   UNL     1     -13.725  -1.577  -2.841  1.00  0.00     0.326 C 
ATOM     66  O   UNL     1     -14.284  -1.912  -1.807  1.00  0.00    -0.250 OA
BRANCH  65  67
ATOM     67  O   UNL     1     -13.988  -2.238  -3.990  1.00  0.00    -0.480 OA
ATOM     68  H   UNL     1     -14.936  -2.047  -4.155  1.00  0.00     0.296 HD
ENDBRANCH  65  67
ENDBRANCH  49  65
ENDBRANCH  47  49
ENDBRANCH  43  45
ENDBRANCH   1  43
BRANCH   1  69
ATOM     69  C   UNL     1     -15.447   3.760  -0.260  1.00  0.00    -0.001 C 
ATOM     70  C   UNL     1     -14.454   4.510   0.252  1.00  0.00     0.001 C 
BRANCH  70  71
ATOM     71  C   UNL     1     -14.369   5.047   1.611  1.00  0.00    -0.055 C 
ATOM     72  C   UNL     1     -14.428   4.172   2.637  1.00  0.00    -0.018 C 
ATOM     73  C   UNL     1     -14.214   6.538   1.769  1.00  0.00     0.044 C 
BRANCH  72  74
ATOM     74  C   UNL     1     -14.362   4.437   4.134  1.00  0.00     0.038 C 
ATOM     75  C   UNL     1     -13.089   3.762   4.658  1.00  0.00     0.015 C 
BRANCH  74  76
ATOM     76  C   UNL     1     -15.684   3.938   4.790  1.00  0.00     0.128 C 
BRANCH  76  77
ATOM     77  O   UNL     1     -15.458   3.629   6.175  1.00  0.00    -0.381 OA
ATOM     78  C   UNL     1     -16.107   2.441   6.609  1.00  0.00     0.195 C 
ENDBRANCH  76  77
BRANCH  76  79
ATOM     79  C   UNL     1     -16.890   4.886   4.575  1.00  0.00     0.068 C 
BRANCH  79  80
ATOM     80  C   UNL     1     -17.614   4.821   3.252  1.00  0.00    -0.045 A 
ATOM     81  C   UNL     1     -18.057   3.598   2.730  1.00  0.00     0.004 A 
ATOM     82  C   UNL     1     -17.830   5.989   2.506  1.00  0.00     0.004 A 
ATOM     83  C   UNL     1     -18.713   3.544   1.499  1.00  0.00     0.000 A 
ATOM     84  C   UNL     1     -18.486   5.935   1.274  1.00  0.00     0.000 A 
ATOM     85  C   UNL     1     -18.928   4.713   0.772  1.00  0.00     0.000 A 
ENDBRANCH  79  80
ENDBRANCH  76  79
ENDBRANCH  74  76
ENDBRANCH  72  74
ENDBRANCH  70  71
ENDBRANCH   1  69
TORSDOF 17
ENDMDL
MODEL 19
REMARK VINA RESULT:    -6.173      4.021     13.206
REMARK INTER + INTRA:         -26.055
REMARK INTER:                 -18.951
REMARK INTRA:                  -7.104
REMARK UNBOUND:                -7.611
REMARK SMILES C=C1C(=O)N[C@H](C)C(=O)N[C@@H](CC(C)C)C(=O)N[C@@H](C(=O)O)[C@H](C)C(=O)N[C@@H](CCCN=C(N)N)C(=O)N[C@@H](/C=C/C(C)=C/[C@H](C)[C@H](Cc2ccccc2)OC)[C@H](C)C(=O)N[C@@H](C(=O)O)CCC(=O)N1C
REMARK SMILES IDX 39 1 38 2 37 3 36 4 28 6 27 7 25 8 26 9 23 11 24 12 19 13
REMARK SMILES IDX 18 14 16 15 17 16 11 18 10 19 8 20 9 21 12 24 13 25 14 26
REMARK SMILES IDX 15 27 20 28 21 29 22 30 29 32 30 33 31 34 32 35 33 36 34 37
REMARK SMILES IDX 35 38 57 43 58 44 59 45 60 46 61 47 62 49 66 50 67 51 68 52
REMARK SMILES IDX 69 53 70 54 71 55 2 56 1 57 3 58 4 59 5 60 6 62 7 63 63 65
REMARK SMILES IDX 64 66 65 67 40 69 41 70 42 71 44 72 43 73 45 74 46 75 47 76
REMARK SMILES IDX 55 77 56 78 48 79 49 80 50 81 54 82 51 83 53 84 52 85
REMARK H PARENT 38 5 27 10 18 17 10 22 22 31 34 39 34 40 35 41 35 42 61 48
REMARK H PARENT 5 61 65 68
REMARK Flexibility Score:  369.900
ROOT
ATOM      1  C   UNL     1      -5.714  -3.362  -5.118  1.00  0.00     0.117 C 
ENDROOT
BRANCH   1   2
ATOM      2  N   UNL     1      -6.700  -2.291  -4.970  1.00  0.00    -0.347 N 
ATOM      3  O   UNL     1      -5.244  -0.516  -5.016  1.00  0.00    -0.273 OA
ATOM      4  C   UNL     1      -6.393  -0.944  -5.023  1.00  0.00     0.243 C 
ATOM      5  H   UNL     1      -7.676  -2.527  -4.872  1.00  0.00     0.164 HD
BRANCH   4   6
ATOM      6  C   UNL     1      -7.632  -0.019  -4.925  1.00  0.00     0.171 C 
BRANCH   6   7
ATOM      7  N   UNL     1      -8.672  -0.638  -4.088  1.00  0.00    -0.344 N 
ATOM      8  C   UNL     1      -9.881  -1.014  -4.633  1.00  0.00     0.226 C 
ATOM      9  O   UNL     1     -10.157  -0.836  -5.814  1.00  0.00    -0.275 OA
ATOM     10  H   UNL     1      -8.507  -0.740  -3.095  1.00  0.00     0.164 HD
BRANCH   8  11
ATOM     11  C   UNL     1     -10.826  -1.688  -3.654  1.00  0.00     0.109 C 
ATOM     12  C   UNL     1     -10.046  -2.619  -2.726  1.00  0.00     0.021 C 
BRANCH  11  13
ATOM     13  C   UNL     1     -11.680  -0.623  -2.936  1.00  0.00     0.204 C 
BRANCH  13  14
ATOM     14  N   UNL     1     -13.067  -1.060  -2.753  1.00  0.00    -0.340 N 
ATOM     15  C   UNL     1     -13.995  -1.051  -3.772  1.00  0.00     0.243 C 
ATOM     16  O   UNL     1     -13.707  -0.733  -4.925  1.00  0.00    -0.273 OA
ATOM     17  H   UNL     1     -13.408  -1.190  -1.797  1.00  0.00     0.164 HD
BRANCH  15  18
ATOM     18  C   UNL     1     -15.438  -1.354  -3.298  1.00  0.00     0.171 C 
BRANCH  18  19
ATOM     19  N   UNL     1     -15.956  -0.117  -2.718  1.00  0.00    -0.343 N 
ATOM     20  C   UNL     1     -16.459  -0.069  -1.432  1.00  0.00     0.242 CG0
ATOM     21  O   UNL     1     -16.617  -1.089  -0.765  1.00  0.00    -0.273 OA
ATOM     22  H   UNL     1     -15.954   0.732  -3.273  1.00  0.00     0.164 HD
ATOM     23  G   UNL     1     -16.886   1.339  -0.968  1.00  0.00     0.000 G0
ENDBRANCH  18  19
BRANCH  18  24
ATOM     24  C   UNL     1     -16.304  -1.832  -4.470  1.00  0.00     0.038 C 
BRANCH  24  25
ATOM     25  C   UNL     1     -17.737  -2.254  -4.082  1.00  0.00    -0.015 C 
ATOM     26  C   UNL     1     -17.967  -3.757  -4.240  1.00  0.00     0.007 C 
ATOM     27  C   UNL     1     -18.749  -1.485  -4.935  1.00  0.00     0.007 C 
ENDBRANCH  24  25
ENDBRANCH  18  24
ENDBRANCH  15  18
ENDBRANCH  13  14
BRANCH  13  28
ATOM     28  C   UNL     1     -11.137  -0.246  -1.555  1.00  0.00     0.327 C 
ATOM     29  O   UNL     1     -11.560  -0.641  -0.479  1.00  0.00    -0.250 OA
BRANCH  28  30
ATOM     30  O   UNL     1     -10.174   0.697  -1.605  1.00  0.00    -0.480 OA
ATOM     31  H   UNL     1     -10.270   1.185  -0.761  1.00  0.00     0.296 HD
ENDBRANCH  28  30
ENDBRANCH  13  28
ENDBRANCH  11  13
ENDBRANCH   8  11
ENDBRANCH   6   7
BRANCH   6  32
ATOM     32  C   UNL     1      -7.204   1.337  -4.352  1.00  0.00     0.037 C 
BRANCH  32  33
ATOM     33  C   UNL     1      -7.194   2.440  -5.419  1.00  0.00     0.026 C 
BRANCH  33  34
ATOM     34  C   UNL     1      -6.050   3.435  -5.221  1.00  0.00     0.146 C 
BRANCH  34  35
ATOM     35  N   UNL     1      -4.817   2.838  -5.716  1.00  0.00    -0.254 NA
ATOM     36  C   UNL     1      -3.817   2.746  -4.921  1.00  0.00     0.185 C 
ATOM     37  N   UNL     1      -2.677   2.193  -5.364  1.00  0.00    -0.370 N 
ATOM     38  N   UNL     1      -3.719   3.137  -3.638  1.00  0.00    -0.370 N 
ATOM     39  H   UNL     1      -2.675   1.864  -6.321  1.00  0.00     0.159 HD
ATOM     40  H   UNL     1      -1.917   1.929  -4.763  1.00  0.00     0.159 HD
ATOM     41  H   UNL     1      -2.833   3.137  -3.159  1.00  0.00     0.159 HD
ATOM     42  H   UNL     1      -4.497   3.584  -3.177  1.00  0.00     0.159 HD
ENDBRANCH  34  35
ENDBRANCH  33  34
ENDBRANCH  32  33
ENDBRANCH   6  32
ENDBRANCH   4   6
ENDBRANCH   1   2
BRANCH   1  43
ATOM     43  C   UNL     1      -6.021  -4.140  -6.430  1.00  0.00     0.102 C 
ATOM     44  C   UNL     1      -5.555  -5.605  -6.396  1.00  0.00     0.020 C 
BRANCH  43  45
ATOM     45  C   UNL     1      -5.536  -3.362  -7.657  1.00  0.00     0.225 C 
ATOM     46  O   UNL     1      -5.781  -3.706  -8.810  1.00  0.00    -0.275 OA
ATOM     47  N   UNL     1      -4.718  -2.287  -7.392  1.00  0.00    -0.342 N 
ATOM     48  H   UNL     1      -4.652  -1.930  -6.450  1.00  0.00     0.164 HD
BRANCH  47  49
ATOM     49  C   UNL     1      -4.208  -1.430  -8.466  1.00  0.00     0.192 C 
BRANCH  49  50
ATOM     50  C   UNL     1      -2.878  -0.805  -8.038  1.00  0.00     0.047 C 
BRANCH  50  51
ATOM     51  C   UNL     1      -1.799  -0.930  -9.122  1.00  0.00     0.103 C 
BRANCH  51  52
ATOM     52  C   UNL     1      -0.475  -0.304  -8.689  1.00  0.00     0.226 C 
ATOM     53  O   UNL     1       0.106  -0.735  -7.691  1.00  0.00    -0.275 OA
BRANCH  52  54
ATOM     54  N   UNL     1       0.046   0.701  -9.524  1.00  0.00    -0.311 N 
ATOM     55  C   UNL     1       0.449   0.403 -10.905  1.00  0.00     0.153 C 
BRANCH  54  56
ATOM     56  C   UNL     1       0.195   2.023  -9.073  1.00  0.00     0.102 C 
ATOM     57  C   UNL     1      -0.770   2.748  -8.486  1.00  0.00     0.043 C 
BRANCH  56  58
ATOM     58  C   UNL     1       1.524   2.735  -9.184  1.00  0.00     0.268 C 
ATOM     59  O   UNL     1       2.559   2.298  -8.700  1.00  0.00    -0.268 OA
ATOM     60  N   UNL     1       1.460   3.883  -9.935  1.00  0.00    -0.339 N 
ATOM     61  H   UNL     1       0.561   4.183 -10.292  1.00  0.00     0.164 HD
BRANCH  60  62
ATOM     62  C   UNL     1       2.644   4.693 -10.221  1.00  0.00     0.168 CG0
ATOM     63  C   UNL     1       3.238   4.333 -11.577  1.00  0.00     0.041 C 
ATOM     64  G   UNL     1       3.685   4.500  -9.100  1.00  0.00     0.000 G0
ENDBRANCH  60  62
ENDBRANCH  56  58
ENDBRANCH  54  56
ENDBRANCH  52  54
ENDBRANCH  51  52
ENDBRANCH  50  51
ENDBRANCH  49  50
BRANCH  49  65
ATOM     65  C   UNL     1      -5.203  -0.315  -8.822  1.00  0.00     0.326 C 
ATOM     66  O   UNL     1      -5.869  -0.256  -9.846  1.00  0.00    -0.250 OA
BRANCH  65  67
ATOM     67  O   UNL     1      -5.272   0.689  -7.920  1.00  0.00    -0.480 OA
ATOM     68  H   UNL     1      -4.815   0.324  -7.132  1.00  0.00     0.296 HD
ENDBRANCH  65  67
ENDBRANCH  49  65
ENDBRANCH  47  49
ENDBRANCH  43  45
ENDBRANCH   1  43
BRANCH   1  69
ATOM     69  C   UNL     1      -5.708  -4.117  -3.802  1.00  0.00    -0.001 C 
ATOM     70  C   UNL     1      -6.656  -4.106  -2.849  1.00  0.00     0.001 C 
BRANCH  70  71
ATOM     71  C   UNL     1      -6.649  -4.856  -1.591  1.00  0.00    -0.055 C 
ATOM     72  C   UNL     1      -7.551  -4.510  -0.649  1.00  0.00    -0.018 C 
ATOM     73  C   UNL     1      -5.641  -5.966  -1.442  1.00  0.00     0.044 C 
BRANCH  72  74
ATOM     74  C   UNL     1      -7.777  -5.106   0.733  1.00  0.00     0.038 C 
ATOM     75  C   UNL     1      -8.973  -6.060   0.625  1.00  0.00     0.015 C 
BRANCH  74  76
ATOM     76  C   UNL     1      -7.957  -3.946   1.756  1.00  0.00     0.128 C 
BRANCH  76  77
ATOM     77  O   UNL     1      -6.673  -3.421   2.134  1.00  0.00    -0.381 OA
ATOM     78  C   UNL     1      -5.962  -4.250   3.043  1.00  0.00     0.195 C 
ENDBRANCH  76  77
BRANCH  76  79
ATOM     79  C   UNL     1      -8.942  -2.844   1.290  1.00  0.00     0.068 C 
BRANCH  79  80
ATOM     80  C   UNL     1      -8.397  -1.453   1.076  1.00  0.00    -0.045 A 
ATOM     81  C   UNL     1      -8.708  -0.411   1.960  1.00  0.00     0.004 A 
ATOM     82  C   UNL     1      -7.587  -1.174  -0.036  1.00  0.00     0.004 A 
ATOM     83  C   UNL     1      -8.211   0.876   1.746  1.00  0.00     0.000 A 
ATOM     84  C   UNL     1      -7.091   0.114  -0.249  1.00  0.00     0.000 A 
ATOM     85  C   UNL     1      -7.402   1.138   0.643  1.00  0.00     0.000 A 
ENDBRANCH  79  80
ENDBRANCH  76  79
ENDBRANCH  74  76
ENDBRANCH  72  74
ENDBRANCH  70  71
ENDBRANCH   1  69
TORSDOF 17
ENDMDL
MODEL 20
REMARK VINA RESULT:    -6.163      5.382     10.068
REMARK INTER + INTRA:         -26.024
REMARK INTER:                 -17.044
REMARK INTRA:                  -8.980
REMARK UNBOUND:                -7.611
REMARK SMILES C=C1C(=O)N[C@H](C)C(=O)N[C@@H](CC(C)C)C(=O)N[C@@H](C(=O)O)[C@H](C)C(=O)N[C@@H](CCCN=C(N)N)C(=O)N[C@@H](/C=C/C(C)=C/[C@H](C)[C@H](Cc2ccccc2)OC)[C@H](C)C(=O)N[C@@H](C(=O)O)CCC(=O)N1C
REMARK SMILES IDX 39 1 38 2 37 3 36 4 28 6 27 7 25 8 26 9 23 11 24 12 19 13
REMARK SMILES IDX 18 14 16 15 17 16 11 18 10 19 8 20 9 21 12 24 13 25 14 26
REMARK SMILES IDX 15 27 20 28 21 29 22 30 29 32 30 33 31 34 32 35 33 36 34 37
REMARK SMILES IDX 35 38 57 43 58 44 59 45 60 46 61 47 62 49 66 50 67 51 68 52
REMARK SMILES IDX 69 53 70 54 71 55 2 56 1 57 3 58 4 59 5 60 6 62 7 63 63 65
REMARK SMILES IDX 64 66 65 67 40 69 41 70 42 71 44 72 43 73 45 74 46 75 47 76
REMARK SMILES IDX 55 77 56 78 48 79 49 80 50 81 54 82 51 83 53 84 52 85
REMARK H PARENT 38 5 27 10 18 17 10 22 22 31 34 39 34 40 35 41 35 42 61 48
REMARK H PARENT 5 61 65 68
REMARK Flexibility Score:  369.900
ROOT
ATOM      1  C   UNL     1      -5.864  -3.066  -4.976  1.00  0.00     0.117 C 
ENDROOT
BRANCH   1   2
ATOM      2  N   UNL     1      -6.152  -2.183  -3.845  1.00  0.00    -0.347 N 
ATOM      3  O   UNL     1      -8.183  -1.397  -4.570  1.00  0.00    -0.273 OA
ATOM      4  C   UNL     1      -7.335  -1.487  -3.689  1.00  0.00     0.243 C 
ATOM      5  H   UNL     1      -5.479  -2.102  -3.098  1.00  0.00     0.164 HD
BRANCH   4   6
ATOM      6  C   UNL     1      -7.420  -0.692  -2.361  1.00  0.00     0.171 C 
BRANCH   6   7
ATOM      7  N   UNL     1      -8.758  -0.102  -2.199  1.00  0.00    -0.344 N 
ATOM      8  C   UNL     1      -8.952   1.253  -2.356  1.00  0.00     0.226 C 
ATOM      9  O   UNL     1      -8.036   2.026  -2.610  1.00  0.00    -0.275 OA
ATOM     10  H   UNL     1      -9.527  -0.699  -1.922  1.00  0.00     0.164 HD
BRANCH   8  11
ATOM     11  C   UNL     1     -10.397   1.699  -2.211  1.00  0.00     0.109 C 
ATOM     12  C   UNL     1     -10.481   2.923  -1.299  1.00  0.00     0.021 C 
BRANCH  11  13
ATOM     13  C   UNL     1     -11.027   1.886  -3.606  1.00  0.00     0.204 C 
BRANCH  13  14
ATOM     14  N   UNL     1     -10.218   2.757  -4.465  1.00  0.00    -0.340 N 
ATOM     15  C   UNL     1     -10.567   4.058  -4.752  1.00  0.00     0.243 C 
ATOM     16  O   UNL     1     -11.554   4.602  -4.258  1.00  0.00    -0.273 OA
ATOM     17  H   UNL     1      -9.476   2.326  -5.023  1.00  0.00     0.164 HD
BRANCH  15  18
ATOM     18  C   UNL     1      -9.679   4.711  -5.840  1.00  0.00     0.171 C 
BRANCH  18  19
ATOM     19  N   UNL     1     -10.012   6.135  -5.852  1.00  0.00    -0.343 N 
ATOM     20  C   UNL     1     -10.492   6.761  -6.987  1.00  0.00     0.242 CG0
ATOM     21  O   UNL     1     -10.537   6.183  -8.070  1.00  0.00    -0.273 OA
ATOM     22  H   UNL     1      -9.883   6.683  -5.010  1.00  0.00     0.164 HD
ATOM     23  G   UNL     1     -10.862   8.245  -6.787  1.00  0.00     0.000 G0
ENDBRANCH  18  19
BRANCH  18  24
ATOM     24  C   UNL     1      -8.194   4.484  -5.534  1.00  0.00     0.038 C 
BRANCH  24  25
ATOM     25  C   UNL     1      -7.222   5.175  -6.514  1.00  0.00    -0.015 C 
ATOM     26  C   UNL     1      -7.156   4.469  -7.869  1.00  0.00     0.007 C 
ATOM     27  C   UNL     1      -5.822   5.233  -5.896  1.00  0.00     0.007 C 
ENDBRANCH  24  25
ENDBRANCH  18  24
ENDBRANCH  15  18
ENDBRANCH  13  14
BRANCH  13  28
ATOM     28  C   UNL     1     -11.229   0.567  -4.359  1.00  0.00     0.327 C 
ATOM     29  O   UNL     1     -11.491  -0.517  -3.860  1.00  0.00    -0.250 OA
BRANCH  28  30
ATOM     30  O   UNL     1     -10.974   0.668  -5.679  1.00  0.00    -0.480 OA
ATOM     31  H   UNL     1     -10.158   0.140  -5.807  1.00  0.00     0.296 HD
ENDBRANCH  28  30
ENDBRANCH  13  28
ENDBRANCH  11  13
ENDBRANCH   8  11
ENDBRANCH   6   7
BRANCH   6  32
ATOM     32  C   UNL     1      -7.089  -1.628  -1.193  1.00  0.00     0.037 C 
BRANCH  32  33
ATOM     33  C   UNL     1      -8.351  -2.120  -0.470  1.00  0.00     0.026 C 
BRANCH  33  34
ATOM     34  C   UNL     1      -8.386  -1.698   1.000  1.00  0.00     0.146 C 
BRANCH  34  35
ATOM     35  N   UNL     1      -7.868  -0.341   1.111  1.00  0.00    -0.254 NA
ATOM     36  C   UNL     1      -8.691   0.613   1.339  1.00  0.00     0.185 C 
ATOM     37  N   UNL     1      -8.224   1.867   1.449  1.00  0.00    -0.370 N 
ATOM     38  N   UNL     1     -10.026   0.559   1.496  1.00  0.00    -0.370 N 
ATOM     39  H   UNL     1      -7.224   1.989   1.353  1.00  0.00     0.159 HD
ATOM     40  H   UNL     1      -8.772   2.636   1.795  1.00  0.00     0.159 HD
ATOM     41  H   UNL     1     -10.580   1.398   1.531  1.00  0.00     0.159 HD
ATOM     42  H   UNL     1     -10.515  -0.319   1.422  1.00  0.00     0.159 HD
ENDBRANCH  34  35
ENDBRANCH  33  34
ENDBRANCH  32  33
ENDBRANCH   6  32
ENDBRANCH   4   6
ENDBRANCH   1   2
BRANCH   1  43
ATOM     43  C   UNL     1      -4.987  -4.248  -4.471  1.00  0.00     0.102 C 
ATOM     44  C   UNL     1      -4.557  -5.212  -5.589  1.00  0.00     0.020 C 
BRANCH  43  45
ATOM     45  C   UNL     1      -5.637  -4.941  -3.269  1.00  0.00     0.225 C 
ATOM     46  O   UNL     1      -6.713  -4.590  -2.793  1.00  0.00    -0.275 OA
ATOM     47  N   UNL     1      -4.890  -5.937  -2.684  1.00  0.00    -0.342 N 
ATOM     48  H   UNL     1      -4.088  -6.313  -3.172  1.00  0.00     0.164 HD
BRANCH  47  49
ATOM     49  C   UNL     1      -5.399  -6.711  -1.548  1.00  0.00     0.192 C 
BRANCH  49  50
ATOM     50  C   UNL     1      -4.314  -6.826  -0.475  1.00  0.00     0.047 C 
BRANCH  50  51
ATOM     51  C   UNL     1      -4.281  -5.603   0.452  1.00  0.00     0.103 C 
BRANCH  51  52
ATOM     52  C   UNL     1      -4.626  -5.969   1.895  1.00  0.00     0.226 C 
ATOM     53  O   UNL     1      -4.103  -6.956   2.416  1.00  0.00    -0.275 OA
BRANCH  52  54
ATOM     54  N   UNL     1      -5.484  -5.086   2.577  1.00  0.00    -0.311 N 
ATOM     55  C   UNL     1      -4.988  -3.812   3.113  1.00  0.00     0.153 C 
BRANCH  54  56
ATOM     56  C   UNL     1      -6.843  -5.386   2.766  1.00  0.00     0.102 C 
ATOM     57  C   UNL     1      -7.796  -5.258   1.828  1.00  0.00     0.043 C 
BRANCH  56  58
ATOM     58  C   UNL     1      -7.339  -5.940   4.081  1.00  0.00     0.268 C 
ATOM     59  O   UNL     1      -8.209  -5.399   4.750  1.00  0.00    -0.268 OA
ATOM     60  N   UNL     1      -6.763  -7.144   4.412  1.00  0.00    -0.339 N 
ATOM     61  H   UNL     1      -6.042  -7.521   3.808  1.00  0.00     0.164 HD
BRANCH  60  62
ATOM     62  C   UNL     1      -7.145  -7.886   5.612  1.00  0.00     0.168 CG0
ATOM     63  C   UNL     1      -5.927  -8.197   6.473  1.00  0.00     0.041 C 
ATOM     64  G   UNL     1      -7.873  -9.184   5.208  1.00  0.00     0.000 G0
ENDBRANCH  60  62
ENDBRANCH  56  58
ENDBRANCH  54  56
ENDBRANCH  52  54
ENDBRANCH  51  52
ENDBRANCH  50  51
ENDBRANCH  49  50
BRANCH  49  65
ATOM     65  C   UNL     1      -5.843  -8.119  -1.976  1.00  0.00     0.326 C 
ATOM     66  O   UNL     1      -6.344  -8.959  -1.242  1.00  0.00    -0.250 OA
BRANCH  65  67
ATOM     67  O   UNL     1      -5.586  -8.424  -3.267  1.00  0.00    -0.480 OA
ATOM     68  H   UNL     1      -6.478  -8.552  -3.656  1.00  0.00     0.296 HD
ENDBRANCH  65  67
ENDBRANCH  49  65
ENDBRANCH  47  49
ENDBRANCH  43  45
ENDBRANCH   1  43
BRANCH   1  69
ATOM     69  C   UNL     1      -5.329  -2.176  -6.083  1.00  0.00    -0.001 C 
ATOM     70  C   UNL     1      -5.488  -2.337  -7.409  1.00  0.00     0.001 C 
BRANCH  70  71
ATOM     71  C   UNL     1      -4.985  -1.459  -8.467  1.00  0.00    -0.055 C 
ATOM     72  C   UNL     1      -3.671  -1.150  -8.454  1.00  0.00    -0.018 C 
ATOM     73  C   UNL     1      -5.966  -0.971  -9.500  1.00  0.00     0.044 C 
BRANCH  72  74
ATOM     74  C   UNL     1      -2.878  -0.276  -9.415  1.00  0.00     0.038 C 
ATOM     75  C   UNL     1      -1.688  -1.109  -9.908  1.00  0.00     0.015 C 
BRANCH  74  76
ATOM     76  C   UNL     1      -2.493   1.046  -8.688  1.00  0.00     0.128 C 
BRANCH  76  77
ATOM     77  O   UNL     1      -1.484   1.743  -9.439  1.00  0.00    -0.381 OA
ATOM     78  C   UNL     1      -0.477   2.336  -8.629  1.00  0.00     0.195 C 
ENDBRANCH  76  77
BRANCH  76  79
ATOM     79  C   UNL     1      -3.704   1.945  -8.334  1.00  0.00     0.068 C 
BRANCH  79  80
ATOM     80  C   UNL     1      -4.163   1.978  -6.896  1.00  0.00    -0.045 A 
ATOM     81  C   UNL     1      -3.318   2.441  -5.879  1.00  0.00     0.004 A 
ATOM     82  C   UNL     1      -5.442   1.516  -6.552  1.00  0.00     0.004 A 
ATOM     83  C   UNL     1      -3.745   2.455  -4.549  1.00  0.00     0.000 A 
ATOM     84  C   UNL     1      -5.868   1.530  -5.222  1.00  0.00     0.000 A 
ATOM     85  C   UNL     1      -5.021   2.000  -4.221  1.00  0.00     0.000 A 
ENDBRANCH  79  80
ENDBRANCH  76  79
ENDBRANCH  74  76
ENDBRANCH  72  74
ENDBRANCH  70  71
ENDBRANCH   1  69
TORSDOF 17
ENDMDL
MODEL 21
REMARK VINA RESULT:    -6.159      6.704     11.461
REMARK INTER + INTRA:         -26.012
REMARK INTER:                 -16.874
REMARK INTRA:                  -9.138
REMARK UNBOUND:                -7.611
REMARK SMILES C=C1C(=O)N[C@H](C)C(=O)N[C@@H](CC(C)C)C(=O)N[C@@H](C(=O)O)[C@H](C)C(=O)N[C@@H](CCCN=C(N)N)C(=O)N[C@@H](/C=C/C(C)=C/[C@H](C)[C@H](Cc2ccccc2)OC)[C@H](C)C(=O)N[C@@H](C(=O)O)CCC(=O)N1C
REMARK SMILES IDX 39 1 38 2 37 3 36 4 28 6 27 7 25 8 26 9 23 11 24 12 19 13
REMARK SMILES IDX 18 14 16 15 17 16 11 18 10 19 8 20 9 21 12 24 13 25 14 26
REMARK SMILES IDX 15 27 20 28 21 29 22 30 29 32 30 33 31 34 32 35 33 36 34 37
REMARK SMILES IDX 35 38 57 43 58 44 59 45 60 46 61 47 62 49 66 50 67 51 68 52
REMARK SMILES IDX 69 53 70 54 71 55 2 56 1 57 3 58 4 59 5 60 6 62 7 63 63 65
REMARK SMILES IDX 64 66 65 67 40 69 41 70 42 71 44 72 43 73 45 74 46 75 47 76
REMARK SMILES IDX 55 77 56 78 48 79 49 80 50 81 54 82 51 83 53 84 52 85
REMARK H PARENT 38 5 27 10 18 17 10 22 22 31 34 39 34 40 35 41 35 42 61 48
REMARK H PARENT 5 61 65 68
REMARK Flexibility Score:  369.900
ROOT
ATOM      1  C   UNL     1     -11.020   0.726  -3.623  1.00  0.00     0.117 C 
ENDROOT
BRANCH   1   2
ATOM      2  N   UNL     1     -10.159   1.126  -4.737  1.00  0.00    -0.347 N 
ATOM      3  O   UNL     1     -10.147  -0.876  -5.860  1.00  0.00    -0.273 OA
ATOM      4  C   UNL     1      -9.865   0.317  -5.817  1.00  0.00     0.243 C 
ATOM      5  H   UNL     1      -9.786   2.064  -4.761  1.00  0.00     0.164 HD
BRANCH   4   6
ATOM      6  C   UNL     1      -9.001   1.012  -6.900  1.00  0.00     0.171 C 
BRANCH   6   7
ATOM      7  N   UNL     1      -8.643   2.375  -6.476  1.00  0.00    -0.344 N 
ATOM      8  C   UNL     1      -8.784   3.440  -7.339  1.00  0.00     0.226 C 
ATOM      9  O   UNL     1      -9.185   3.309  -8.489  1.00  0.00    -0.275 OA
ATOM     10  H   UNL     1      -8.245   2.514  -5.556  1.00  0.00     0.164 HD
BRANCH   8  11
ATOM     11  C   UNL     1      -8.425   4.787  -6.736  1.00  0.00     0.109 C 
ATOM     12  C   UNL     1      -7.752   5.671  -7.785  1.00  0.00     0.021 C 
BRANCH  11  13
ATOM     13  C   UNL     1      -9.668   5.406  -6.067  1.00  0.00     0.204 C 
BRANCH  13  14
ATOM     14  N   UNL     1     -10.900   5.103  -6.802  1.00  0.00    -0.340 N 
ATOM     15  C   UNL     1     -11.604   6.056  -7.506  1.00  0.00     0.243 C 
ATOM     16  O   UNL     1     -11.216   7.217  -7.617  1.00  0.00    -0.273 OA
ATOM     17  H   UNL     1     -11.354   4.203  -6.628  1.00  0.00     0.164 HD
BRANCH  15  18
ATOM     18  C   UNL     1     -12.974   5.554  -8.025  1.00  0.00     0.171 C 
BRANCH  18  19
ATOM     19  N   UNL     1     -12.867   5.475  -9.481  1.00  0.00    -0.343 N 
ATOM     20  C   UNL     1     -13.537   6.355 -10.309  1.00  0.00     0.242 CG0
ATOM     21  O   UNL     1     -14.356   7.158  -9.867  1.00  0.00    -0.273 OA
ATOM     22  H   UNL     1     -12.292   4.753  -9.899  1.00  0.00     0.164 HD
ATOM     23  G   UNL     1     -13.240   6.167 -11.811  1.00  0.00     0.000 G0
ENDBRANCH  18  19
BRANCH  18  24
ATOM     24  C   UNL     1     -13.319   4.190  -7.413  1.00  0.00     0.038 C 
BRANCH  24  25
ATOM     25  C   UNL     1     -13.349   3.021  -8.419  1.00  0.00    -0.015 C 
ATOM     26  C   UNL     1     -14.753   2.446  -8.607  1.00  0.00     0.007 C 
ATOM     27  C   UNL     1     -12.397   1.916  -7.953  1.00  0.00     0.007 C 
ENDBRANCH  24  25
ENDBRANCH  18  24
ENDBRANCH  15  18
ENDBRANCH  13  14
BRANCH  13  28
ATOM     28  C   UNL     1      -9.875   4.936  -4.623  1.00  0.00     0.327 C 
ATOM     29  O   UNL     1      -9.206   5.262  -3.654  1.00  0.00    -0.250 OA
BRANCH  28  30
ATOM     30  O   UNL     1     -10.832   3.995  -4.506  1.00  0.00    -0.480 OA
ATOM     31  H   UNL     1     -10.865   3.803  -3.546  1.00  0.00     0.296 HD
ENDBRANCH  28  30
ENDBRANCH  13  28
ENDBRANCH  11  13
ENDBRANCH   8  11
ENDBRANCH   6   7
BRANCH   6  32
ATOM     32  C   UNL     1      -7.746   0.172  -7.159  1.00  0.00     0.037 C 
BRANCH  32  33
ATOM     33  C   UNL     1      -6.479   0.837  -6.603  1.00  0.00     0.026 C 
BRANCH  33  34
ATOM     34  C   UNL     1      -5.684  -0.094  -5.686  1.00  0.00     0.146 C 
BRANCH  34  35
ATOM     35  N   UNL     1      -6.505  -1.255  -5.369  1.00  0.00    -0.254 NA
ATOM     36  C   UNL     1      -5.937  -2.297  -4.888  1.00  0.00     0.185 C 
ATOM     37  N   UNL     1      -6.684  -3.370  -4.587  1.00  0.00    -0.370 N 
ATOM     38  N   UNL     1      -4.635  -2.501  -4.620  1.00  0.00    -0.370 N 
ATOM     39  H   UNL     1      -7.680  -3.290  -4.752  1.00  0.00     0.159 HD
ATOM     40  H   UNL     1      -6.346  -4.151  -4.052  1.00  0.00     0.159 HD
ATOM     41  H   UNL     1      -4.290  -3.414  -4.374  1.00  0.00     0.159 HD
ATOM     42  H   UNL     1      -3.953  -1.783  -4.812  1.00  0.00     0.159 HD
ENDBRANCH  34  35
ENDBRANCH  33  34
ENDBRANCH  32  33
ENDBRANCH   6  32
ENDBRANCH   4   6
ENDBRANCH   1   2
BRANCH   1  43
ATOM     43  C   UNL     1     -10.339  -0.454  -2.871  1.00  0.00     0.102 C 
ATOM     44  C   UNL     1     -11.286  -1.196  -1.912  1.00  0.00     0.020 C 
BRANCH  43  45
ATOM     45  C   UNL     1      -9.024  -0.009  -2.225  1.00  0.00     0.225 C 
ATOM     46  O   UNL     1      -8.065   0.405  -2.871  1.00  0.00    -0.275 OA
ATOM     47  N   UNL     1      -8.942  -0.190  -0.863  1.00  0.00    -0.342 N 
ATOM     48  H   UNL     1      -9.780  -0.384  -0.333  1.00  0.00     0.164 HD
BRANCH  47  49
ATOM     49  C   UNL     1      -7.757   0.223  -0.105  1.00  0.00     0.192 C 
BRANCH  49  50
ATOM     50  C   UNL     1      -7.137  -0.995   0.584  1.00  0.00     0.047 C 
BRANCH  50  51
ATOM     51  C   UNL     1      -8.031  -2.238   0.484  1.00  0.00     0.103 C 
BRANCH  51  52
ATOM     52  C   UNL     1      -7.512  -3.237  -0.547  1.00  0.00     0.226 C 
ATOM     53  O   UNL     1      -7.087  -2.831  -1.631  1.00  0.00    -0.275 OA
BRANCH  52  54
ATOM     54  N   UNL     1      -7.482  -4.588  -0.152  1.00  0.00    -0.311 N 
ATOM     55  C   UNL     1      -8.693  -5.417  -0.205  1.00  0.00     0.153 C 
BRANCH  54  56
ATOM     56  C   UNL     1      -6.298  -5.193   0.299  1.00  0.00     0.102 C 
ATOM     57  C   UNL     1      -5.372  -5.756  -0.494  1.00  0.00     0.043 C 
BRANCH  56  58
ATOM     58  C   UNL     1      -5.949  -5.211   1.769  1.00  0.00     0.268 C 
ATOM     59  O   UNL     1      -6.217  -6.148   2.509  1.00  0.00    -0.268 OA
ATOM     60  N   UNL     1      -5.244  -4.102   2.171  1.00  0.00    -0.339 N 
ATOM     61  H   UNL     1      -5.071  -3.364   1.498  1.00  0.00     0.164 HD
BRANCH  60  62
ATOM     62  C   UNL     1      -4.752  -3.945   3.539  1.00  0.00     0.168 CG0
ATOM     63  C   UNL     1      -3.339  -4.498   3.679  1.00  0.00     0.041 C 
ATOM     64  G   UNL     1      -5.713  -4.650   4.518  1.00  0.00     0.000 G0
ENDBRANCH  60  62
ENDBRANCH  56  58
ENDBRANCH  54  56
ENDBRANCH  52  54
ENDBRANCH  51  52
ENDBRANCH  50  51
ENDBRANCH  49  50
BRANCH  49  65
ATOM     65  C   UNL     1      -8.102   1.285   0.951  1.00  0.00     0.326 C 
ATOM     66  O   UNL     1      -8.846   2.240   0.782  1.00  0.00    -0.250 OA
BRANCH  65  67
ATOM     67  O   UNL     1      -7.460   1.136   2.131  1.00  0.00    -0.480 OA
ATOM     68  H   UNL     1      -6.957   1.972   2.228  1.00  0.00     0.296 HD
ENDBRANCH  65  67
ENDBRANCH  49  65
ENDBRANCH  47  49
ENDBRANCH  43  45
ENDBRANCH   1  43
BRANCH   1  69
ATOM     69  C   UNL     1     -12.404   0.520  -4.211  1.00  0.00    -0.001 C 
ATOM     70  C   UNL     1     -13.344   1.456  -4.433  1.00  0.00     0.001 C 
BRANCH  70  71
ATOM     71  C   UNL     1     -14.669   1.249  -5.020  1.00  0.00    -0.055 C 
ATOM     72  C   UNL     1     -15.596   2.212  -4.834  1.00  0.00    -0.018 C 
ATOM     73  C   UNL     1     -14.902  -0.020  -5.798  1.00  0.00     0.044 C 
BRANCH  72  74
ATOM     74  C   UNL     1     -17.036   2.271  -5.322  1.00  0.00     0.038 C 
ATOM     75  C   UNL     1     -17.197   3.582  -6.101  1.00  0.00     0.015 C 
BRANCH  74  76
ATOM     76  C   UNL     1     -17.987   2.117  -4.099  1.00  0.00     0.128 C 
BRANCH  76  77
ATOM     77  O   UNL     1     -18.766   3.314  -3.929  1.00  0.00    -0.381 OA
ATOM     78  C   UNL     1     -19.647   3.269  -2.815  1.00  0.00     0.195 C 
ENDBRANCH  76  77
BRANCH  76  79
ATOM     79  C   UNL     1     -18.858   0.836  -4.135  1.00  0.00     0.068 C 
BRANCH  79  80
ATOM     80  C   UNL     1     -18.158  -0.498  -4.031  1.00  0.00    -0.045 A 
ATOM     81  C   UNL     1     -17.262  -0.763  -2.987  1.00  0.00     0.004 A 
ATOM     82  C   UNL     1     -18.375  -1.488  -5.001  1.00  0.00     0.004 A 
ATOM     83  C   UNL     1     -16.608  -1.994  -2.905  1.00  0.00     0.000 A 
ATOM     84  C   UNL     1     -17.720  -2.719  -4.918  1.00  0.00     0.000 A 
ATOM     85  C   UNL     1     -16.838  -2.972  -3.870  1.00  0.00     0.000 A 
ENDBRANCH  79  80
ENDBRANCH  76  79
ENDBRANCH  74  76
ENDBRANCH  72  74
ENDBRANCH  70  71
ENDBRANCH   1  69
TORSDOF 17
ENDMDL
MODEL 22
REMARK VINA RESULT:    -6.154     18.630     23.979
REMARK INTER + INTRA:         -25.998
REMARK INTER:                 -19.695
REMARK INTRA:                  -6.303
REMARK UNBOUND:                -7.611
REMARK SMILES C=C1C(=O)N[C@H](C)C(=O)N[C@@H](CC(C)C)C(=O)N[C@@H](C(=O)O)[C@H](C)C(=O)N[C@@H](CCCN=C(N)N)C(=O)N[C@@H](/C=C/C(C)=C/[C@H](C)[C@H](Cc2ccccc2)OC)[C@H](C)C(=O)N[C@@H](C(=O)O)CCC(=O)N1C
REMARK SMILES IDX 39 1 38 2 37 3 36 4 28 6 27 7 25 8 26 9 23 11 24 12 19 13
REMARK SMILES IDX 18 14 16 15 17 16 11 18 10 19 8 20 9 21 12 24 13 25 14 26
REMARK SMILES IDX 15 27 20 28 21 29 22 30 29 32 30 33 31 34 32 35 33 36 34 37
REMARK SMILES IDX 35 38 57 43 58 44 59 45 60 46 61 47 62 49 66 50 67 51 68 52
REMARK SMILES IDX 69 53 70 54 71 55 2 56 1 57 3 58 4 59 5 60 6 62 7 63 63 65
REMARK SMILES IDX 64 66 65 67 40 69 41 70 42 71 44 72 43 73 45 74 46 75 47 76
REMARK SMILES IDX 55 77 56 78 48 79 49 80 50 81 54 82 51 83 53 84 52 85
REMARK H PARENT 38 5 27 10 18 17 10 22 22 31 34 39 34 40 35 41 35 42 61 48
REMARK H PARENT 5 61 65 68
REMARK Flexibility Score:  369.900
ROOT
ATOM      1  C   UNL     1      -1.228   2.045  11.081  1.00  0.00     0.117 C 
ENDROOT
BRANCH   1   2
ATOM      2  N   UNL     1      -2.520   2.175  11.756  1.00  0.00    -0.347 N 
ATOM      3  O   UNL     1      -2.104   4.151  12.848  1.00  0.00    -0.273 OA
ATOM      4  C   UNL     1      -2.889   3.269  12.516  1.00  0.00     0.243 C 
ATOM      5  H   UNL     1      -3.217   1.457  11.632  1.00  0.00     0.164 HD
BRANCH   4   6
ATOM      6  C   UNL     1      -4.342   3.196  13.049  1.00  0.00     0.171 C 
BRANCH   6   7
ATOM      7  N   UNL     1      -4.936   1.884  12.746  1.00  0.00    -0.344 N 
ATOM      8  C   UNL     1      -6.194   1.793  12.190  1.00  0.00     0.226 C 
ATOM      9  O   UNL     1      -6.880   2.778  11.945  1.00  0.00    -0.275 OA
ATOM     10  H   UNL     1      -4.427   1.045  12.997  1.00  0.00     0.164 HD
BRANCH   8  11
ATOM     11  C   UNL     1      -6.643   0.374  11.887  1.00  0.00     0.109 C 
ATOM     12  C   UNL     1      -5.435  -0.562  11.843  1.00  0.00     0.021 C 
BRANCH  11  13
ATOM     13  C   UNL     1      -7.752  -0.044  12.873  1.00  0.00     0.204 C 
BRANCH  13  14
ATOM     14  N   UNL     1      -8.452  -1.255  12.434  1.00  0.00    -0.340 N 
ATOM     15  C   UNL     1      -9.757  -1.247  11.994  1.00  0.00     0.243 C 
ATOM     16  O   UNL     1     -10.409  -0.211  11.880  1.00  0.00    -0.273 OA
ATOM     17  H   UNL     1      -8.023  -2.161  12.645  1.00  0.00     0.164 HD
BRANCH  15  18
ATOM     18  C   UNL     1     -10.348  -2.663  11.784  1.00  0.00     0.171 C 
BRANCH  18  19
ATOM     19  N   UNL     1      -9.890  -3.117  10.472  1.00  0.00    -0.343 N 
ATOM     20  C   UNL     1     -10.642  -2.922   9.330  1.00  0.00     0.242 CG0
ATOM     21  O   UNL     1     -11.786  -2.478   9.381  1.00  0.00    -0.273 OA
ATOM     22  H   UNL     1      -9.000  -3.595  10.395  1.00  0.00     0.164 HD
ATOM     23  G   UNL     1      -9.960  -3.398   8.030  1.00  0.00     0.000 G0
ENDBRANCH  18  19
BRANCH  18  24
ATOM     24  C   UNL     1      -9.891  -3.611  12.899  1.00  0.00     0.038 C 
BRANCH  24  25
ATOM     25  C   UNL     1     -10.987  -3.979  13.922  1.00  0.00    -0.015 C 
ATOM     26  C   UNL     1     -12.395  -3.872  13.335  1.00  0.00     0.007 C 
ATOM     27  C   UNL     1     -10.870  -3.072  15.149  1.00  0.00     0.007 C 
ENDBRANCH  24  25
ENDBRANCH  18  24
ENDBRANCH  15  18
ENDBRANCH  13  14
BRANCH  13  28
ATOM     28  C   UNL     1      -7.232  -0.308  14.289  1.00  0.00     0.327 C 
ATOM     29  O   UNL     1      -6.652   0.493  15.007  1.00  0.00    -0.250 OA
BRANCH  28  30
ATOM     30  O   UNL     1      -7.367  -1.594  14.671  1.00  0.00    -0.480 OA
ATOM     31  H   UNL     1      -8.158  -1.908  14.186  1.00  0.00     0.296 HD
ENDBRANCH  28  30
ENDBRANCH  13  28
ENDBRANCH  11  13
ENDBRANCH   8  11
ENDBRANCH   6   7
BRANCH   6  32
ATOM     32  C   UNL     1      -4.339   3.460  14.559  1.00  0.00     0.037 C 
BRANCH  32  33
ATOM     33  C   UNL     1      -5.590   4.221  15.016  1.00  0.00     0.026 C 
BRANCH  33  34
ATOM     34  C   UNL     1      -5.835   5.491  14.199  1.00  0.00     0.146 C 
BRANCH  34  35
ATOM     35  N   UNL     1      -7.264   5.623  13.952  1.00  0.00    -0.254 NA
ATOM     36  C   UNL     1      -7.651   6.193  12.873  1.00  0.00     0.185 C 
ATOM     37  N   UNL     1      -8.965   6.316  12.633  1.00  0.00    -0.370 N 
ATOM     38  N   UNL     1      -6.908   6.720  11.883  1.00  0.00    -0.370 N 
ATOM     39  H   UNL     1      -9.592   5.933  13.330  1.00  0.00     0.159 HD
ATOM     40  H   UNL     1      -9.345   6.589  11.743  1.00  0.00     0.159 HD
ATOM     41  H   UNL     1      -7.330   7.266  11.150  1.00  0.00     0.159 HD
ATOM     42  H   UNL     1      -5.902   6.712  11.937  1.00  0.00     0.159 HD
ENDBRANCH  34  35
ENDBRANCH  33  34
ENDBRANCH  32  33
ENDBRANCH   6  32
ENDBRANCH   4   6
ENDBRANCH   1   2
BRANCH   1  43
ATOM     43  C   UNL     1      -1.302   2.798   9.721  1.00  0.00     0.102 C 
ATOM     44  C   UNL     1      -1.079   1.885   8.503  1.00  0.00     0.020 C 
BRANCH  43  45
ATOM     45  C   UNL     1      -0.414   4.045   9.734  1.00  0.00     0.225 C 
ATOM     46  O   UNL     1      -0.405   4.872   8.826  1.00  0.00    -0.275 OA
ATOM     47  N   UNL     1       0.458   4.141  10.794  1.00  0.00    -0.342 N 
ATOM     48  H   UNL     1       0.334   3.543  11.599  1.00  0.00     0.164 HD
BRANCH  47  49
ATOM     49  C   UNL     1       1.343   5.298  10.956  1.00  0.00     0.192 C 
BRANCH  49  50
ATOM     50  C   UNL     1       2.735   4.825  11.385  1.00  0.00     0.047 C 
BRANCH  50  51
ATOM     51  C   UNL     1       3.826   5.255  10.396  1.00  0.00     0.103 C 
BRANCH  51  52
ATOM     52  C   UNL     1       5.210   4.764  10.820  1.00  0.00     0.226 C 
ATOM     53  O   UNL     1       5.308   3.852  11.643  1.00  0.00    -0.275 OA
BRANCH  52  54
ATOM     54  N   UNL     1       6.310   5.352  10.168  1.00  0.00    -0.311 N 
ATOM     55  C   UNL     1       7.674   5.185  10.688  1.00  0.00     0.153 C 
BRANCH  54  56
ATOM     56  C   UNL     1       6.147   6.112   8.998  1.00  0.00     0.102 C 
ATOM     57  C   UNL     1       6.039   5.603   7.760  1.00  0.00     0.043 C 
BRANCH  56  58
ATOM     58  C   UNL     1       6.034   7.617   9.062  1.00  0.00     0.268 C 
ATOM     59  O   UNL     1       5.763   8.226  10.088  1.00  0.00    -0.268 OA
ATOM     60  N   UNL     1       6.331   8.232   7.869  1.00  0.00    -0.339 N 
ATOM     61  H   UNL     1       6.536   7.655   7.061  1.00  0.00     0.164 HD
BRANCH  60  62
ATOM     62  C   UNL     1       6.344   9.687   7.724  1.00  0.00     0.168 CG0
ATOM     63  C   UNL     1       6.410  10.090   6.256  1.00  0.00     0.041 C 
ATOM     64  G   UNL     1       7.537  10.274   8.506  1.00  0.00     0.000 G0
ENDBRANCH  60  62
ENDBRANCH  56  58
ENDBRANCH  54  56
ENDBRANCH  52  54
ENDBRANCH  51  52
ENDBRANCH  50  51
ENDBRANCH  49  50
BRANCH  49  65
ATOM     65  C   UNL     1       0.799   6.287  11.998  1.00  0.00     0.326 C 
ATOM     66  O   UNL     1       0.774   7.504  11.879  1.00  0.00    -0.250 OA
BRANCH  65  67
ATOM     67  O   UNL     1       0.373   5.718  13.148  1.00  0.00    -0.480 OA
ATOM     68  H   UNL     1       1.187   5.320  13.524  1.00  0.00     0.296 HD
ENDBRANCH  65  67
ENDBRANCH  49  65
ENDBRANCH  47  49
ENDBRANCH  43  45
ENDBRANCH   1  43
BRANCH   1  69
ATOM     69  C   UNL     1      -0.897   0.564  11.082  1.00  0.00    -0.001 C 
ATOM     70  C   UNL     1      -1.748  -0.463  11.250  1.00  0.00     0.001 C 
BRANCH  70  71
ATOM     71  C   UNL     1      -1.419  -1.890  11.228  1.00  0.00    -0.055 C 
ATOM     72  C   UNL     1      -0.121  -2.237  11.359  1.00  0.00    -0.018 C 
ATOM     73  C   UNL     1      -2.552  -2.870  11.068  1.00  0.00     0.044 C 
BRANCH  72  74
ATOM     74  C   UNL     1       0.508  -3.623  11.376  1.00  0.00     0.038 C 
ATOM     75  C   UNL     1       0.567  -4.076  12.840  1.00  0.00     0.015 C 
BRANCH  74  76
ATOM     76  C   UNL     1       1.887  -3.555  10.657  1.00  0.00     0.128 C 
BRANCH  76  77
ATOM     77  O   UNL     1       1.931  -4.515   9.587  1.00  0.00    -0.381 OA
ATOM     78  C   UNL     1       1.399  -4.029   8.362  1.00  0.00     0.195 C 
ENDBRANCH  76  77
BRANCH  76  79
ATOM     79  C   UNL     1       2.290  -2.130  10.201  1.00  0.00     0.068 C 
BRANCH  79  80
ATOM     80  C   UNL     1       3.476  -1.482  10.872  1.00  0.00    -0.045 A 
ATOM     81  C   UNL     1       4.786  -1.805  10.494  1.00  0.00     0.004 A 
ATOM     82  C   UNL     1       3.283  -0.560  11.912  1.00  0.00     0.004 A 
ATOM     83  C   UNL     1       5.878  -1.212  11.130  1.00  0.00     0.000 A 
ATOM     84  C   UNL     1       4.377   0.033  12.548  1.00  0.00     0.000 A 
ATOM     85  C   UNL     1       5.673  -0.292  12.156  1.00  0.00     0.000 A 
ENDBRANCH  79  80
ENDBRANCH  76  79
ENDBRANCH  74  76
ENDBRANCH  72  74
ENDBRANCH  70  71
ENDBRANCH   1  69
TORSDOF 17
ENDMDL
MODEL 23
REMARK VINA RESULT:    -6.139     11.023     17.993
REMARK INTER + INTRA:         -25.953
REMARK INTER:                 -18.340
REMARK INTRA:                  -7.613
REMARK UNBOUND:                -7.611
REMARK SMILES C=C1C(=O)N[C@H](C)C(=O)N[C@@H](CC(C)C)C(=O)N[C@@H](C(=O)O)[C@H](C)C(=O)N[C@@H](CCCN=C(N)N)C(=O)N[C@@H](/C=C/C(C)=C/[C@H](C)[C@H](Cc2ccccc2)OC)[C@H](C)C(=O)N[C@@H](C(=O)O)CCC(=O)N1C
REMARK SMILES IDX 39 1 38 2 37 3 36 4 28 6 27 7 25 8 26 9 23 11 24 12 19 13
REMARK SMILES IDX 18 14 16 15 17 16 11 18 10 19 8 20 9 21 12 24 13 25 14 26
REMARK SMILES IDX 15 27 20 28 21 29 22 30 29 32 30 33 31 34 32 35 33 36 34 37
REMARK SMILES IDX 35 38 57 43 58 44 59 45 60 46 61 47 62 49 66 50 67 51 68 52
REMARK SMILES IDX 69 53 70 54 71 55 2 56 1 57 3 58 4 59 5 60 6 62 7 63 63 65
REMARK SMILES IDX 64 66 65 67 40 69 41 70 42 71 44 72 43 73 45 74 46 75 47 76
REMARK SMILES IDX 55 77 56 78 48 79 49 80 50 81 54 82 51 83 53 84 52 85
REMARK H PARENT 38 5 27 10 18 17 10 22 22 31 34 39 34 40 35 41 35 42 61 48
REMARK H PARENT 5 61 65 68
REMARK Flexibility Score:  369.900
ROOT
ATOM      1  C   UNL     1      -9.862  -2.503   2.418  1.00  0.00     0.117 C 
ENDROOT
BRANCH   1   2
ATOM      2  N   UNL     1     -11.061  -2.174   3.190  1.00  0.00    -0.347 N 
ATOM      3  O   UNL     1     -10.548  -3.362   5.087  1.00  0.00    -0.273 OA
ATOM      4  C   UNL     1     -11.265  -2.558   4.502  1.00  0.00     0.243 C 
ATOM      5  H   UNL     1     -11.772  -1.592   2.775  1.00  0.00     0.164 HD
BRANCH   4   6
ATOM      6  C   UNL     1     -12.577  -2.006   5.115  1.00  0.00     0.171 C 
BRANCH   6   7
ATOM      7  N   UNL     1     -12.392  -1.708   6.544  1.00  0.00    -0.344 N 
ATOM      8  C   UNL     1     -12.716  -2.642   7.504  1.00  0.00     0.226 C 
ATOM      9  O   UNL     1     -13.188  -3.738   7.227  1.00  0.00    -0.275 OA
ATOM     10  H   UNL     1     -12.068  -0.788   6.816  1.00  0.00     0.164 HD
BRANCH   8  11
ATOM     11  C   UNL     1     -12.416  -2.205   8.928  1.00  0.00     0.109 C 
ATOM     12  C   UNL     1     -12.292  -0.683   8.996  1.00  0.00     0.021 C 
BRANCH  11  13
ATOM     13  C   UNL     1     -13.455  -2.815   9.890  1.00  0.00     0.204 C 
BRANCH  13  14
ATOM     14  N   UNL     1     -13.006  -2.773  11.285  1.00  0.00    -0.340 N 
ATOM     15  C   UNL     1     -12.760  -3.908  12.026  1.00  0.00     0.243 C 
ATOM     16  O   UNL     1     -12.841  -5.039  11.550  1.00  0.00    -0.273 OA
ATOM     17  H   UNL     1     -13.065  -1.880  11.782  1.00  0.00     0.164 HD
BRANCH  15  18
ATOM     18  C   UNL     1     -12.500  -3.624  13.526  1.00  0.00     0.171 C 
BRANCH  18  19
ATOM     19  N   UNL     1     -13.743  -3.930  14.232  1.00  0.00    -0.343 N 
ATOM     20  C   UNL     1     -14.779  -3.019  14.313  1.00  0.00     0.242 CG0
ATOM     21  O   UNL     1     -14.653  -1.865  13.912  1.00  0.00    -0.273 OA
ATOM     22  H   UNL     1     -13.850  -4.833  14.681  1.00  0.00     0.164 HD
ATOM     23  G   UNL     1     -16.038  -3.550  15.028  1.00  0.00     0.000 G0
ENDBRANCH  18  19
BRANCH  18  24
ATOM     24  C   UNL     1     -11.335  -4.475  14.045  1.00  0.00     0.038 C 
BRANCH  24  25
ATOM     25  C   UNL     1     -10.417  -3.760  15.060  1.00  0.00    -0.015 C 
ATOM     26  C   UNL     1     -10.579  -2.240  15.026  1.00  0.00     0.007 C 
ATOM     27  C   UNL     1      -8.957  -4.129  14.781  1.00  0.00     0.007 C 
ENDBRANCH  24  25
ENDBRANCH  18  24
ENDBRANCH  15  18
ENDBRANCH  13  14
BRANCH  13  28
ATOM     28  C   UNL     1     -14.817  -2.116   9.830  1.00  0.00     0.327 C 
ATOM     29  O   UNL     1     -15.533  -2.012   8.847  1.00  0.00    -0.250 OA
BRANCH  28  30
ATOM     30  O   UNL     1     -15.139  -1.487  10.979  1.00  0.00    -0.480 OA
ATOM     31  H   UNL     1     -15.233  -2.212  11.632  1.00  0.00     0.296 HD
ENDBRANCH  28  30
ENDBRANCH  13  28
ENDBRANCH  11  13
ENDBRANCH   8  11
ENDBRANCH   6   7
BRANCH   6  32
ATOM     32  C   UNL     1     -13.004  -0.751   4.345  1.00  0.00     0.037 C 
BRANCH  32  33
ATOM     33  C   UNL     1     -14.522  -0.694   4.127  1.00  0.00     0.026 C 
BRANCH  33  34
ATOM     34  C   UNL     1     -15.303  -0.680   5.442  1.00  0.00     0.146 C 
BRANCH  34  35
ATOM     35  N   UNL     1     -16.627  -1.239   5.208  1.00  0.00    -0.254 NA
ATOM     36  C   UNL     1     -16.840  -2.464   5.515  1.00  0.00     0.185 C 
ATOM     37  N   UNL     1     -18.058  -2.988   5.309  1.00  0.00    -0.370 N 
ATOM     38  N   UNL     1     -15.990  -3.362   6.043  1.00  0.00    -0.370 N 
ATOM     39  H   UNL     1     -18.759  -2.369   4.922  1.00  0.00     0.159 HD
ATOM     40  H   UNL     1     -18.351  -3.876   5.679  1.00  0.00     0.159 HD
ATOM     41  H   UNL     1     -16.236  -4.336   6.110  1.00  0.00     0.159 HD
ATOM     42  H   UNL     1     -15.033  -3.111   6.236  1.00  0.00     0.159 HD
ENDBRANCH  34  35
ENDBRANCH  33  34
ENDBRANCH  32  33
ENDBRANCH   6  32
ENDBRANCH   4   6
ENDBRANCH   1   2
BRANCH   1  43
ATOM     43  C   UNL     1      -8.632  -1.846   3.110  1.00  0.00     0.102 C 
ATOM     44  C   UNL     1      -7.975  -0.740   2.267  1.00  0.00     0.020 C 
BRANCH  43  45
ATOM     45  C   UNL     1      -7.651  -2.910   3.613  1.00  0.00     0.225 C 
ATOM     46  O   UNL     1      -6.705  -2.653   4.353  1.00  0.00    -0.275 OA
ATOM     47  N   UNL     1      -7.838  -4.175   3.107  1.00  0.00    -0.342 N 
ATOM     48  H   UNL     1      -8.699  -4.401   2.628  1.00  0.00     0.164 HD
BRANCH  47  49
ATOM     49  C   UNL     1      -6.998  -5.301   3.527  1.00  0.00     0.192 C 
BRANCH  49  50
ATOM     50  C   UNL     1      -6.088  -5.723   2.371  1.00  0.00     0.047 C 
BRANCH  50  51
ATOM     51  C   UNL     1      -5.953  -4.626   1.306  1.00  0.00     0.103 C 
BRANCH  51  52
ATOM     52  C   UNL     1      -6.151  -5.171  -0.107  1.00  0.00     0.226 C 
ATOM     53  O   UNL     1      -5.413  -6.065  -0.525  1.00  0.00    -0.275 OA
BRANCH  52  54
ATOM     54  N   UNL     1      -7.241  -4.653  -0.831  1.00  0.00    -0.311 N 
ATOM     55  C   UNL     1      -8.586  -5.224  -0.685  1.00  0.00     0.153 C 
BRANCH  54  56
ATOM     56  C   UNL     1      -7.086  -3.571  -1.713  1.00  0.00     0.102 C 
ATOM     57  C   UNL     1      -7.205  -2.277  -1.372  1.00  0.00     0.043 C 
BRANCH  56  58
ATOM     58  C   UNL     1      -6.713  -3.797  -3.160  1.00  0.00     0.268 C 
ATOM     59  O   UNL     1      -7.320  -3.291  -4.094  1.00  0.00    -0.268 OA
ATOM     60  N   UNL     1      -5.589  -4.572  -3.313  1.00  0.00    -0.339 N 
ATOM     61  H   UNL     1      -5.150  -4.963  -2.488  1.00  0.00     0.164 HD
BRANCH  60  62
ATOM     62  C   UNL     1      -5.018  -4.864  -4.627  1.00  0.00     0.168 CG0
ATOM     63  C   UNL     1      -5.214  -6.330  -4.996  1.00  0.00     0.041 C 
ATOM     64  G   UNL     1      -3.520  -4.496  -4.633  1.00  0.00     0.000 G0
ENDBRANCH  60  62
ENDBRANCH  56  58
ENDBRANCH  54  56
ENDBRANCH  52  54
ENDBRANCH  51  52
ENDBRANCH  50  51
ENDBRANCH  49  50
BRANCH  49  65
ATOM     65  C   UNL     1      -7.843  -6.503   3.975  1.00  0.00     0.326 C 
ATOM     66  O   UNL     1      -8.214  -7.419   3.255  1.00  0.00    -0.250 OA
BRANCH  65  67
ATOM     67  O   UNL     1      -8.229  -6.471   5.270  1.00  0.00    -0.480 OA
ATOM     68  H   UNL     1      -7.752  -5.694   5.634  1.00  0.00     0.296 HD
ENDBRANCH  65  67
ENDBRANCH  49  65
ENDBRANCH  47  49
ENDBRANCH  43  45
ENDBRANCH   1  43
BRANCH   1  69
ATOM     69  C   UNL     1     -10.173  -2.142   0.978  1.00  0.00    -0.001 C 
ATOM     70  C   UNL     1     -11.240  -1.466   0.517  1.00  0.00     0.001 C 
BRANCH  70  71
ATOM     71  C   UNL     1     -11.519  -1.104  -0.874  1.00  0.00    -0.055 C 
ATOM     72  C   UNL     1     -10.652  -1.526  -1.818  1.00  0.00    -0.018 C 
ATOM     73  C   UNL     1     -12.758  -0.294  -1.154  1.00  0.00     0.044 C 
BRANCH  72  74
ATOM     74  C   UNL     1     -10.686  -1.308  -3.324  1.00  0.00     0.038 C 
ATOM     75  C   UNL     1     -10.799  -2.690  -3.980  1.00  0.00     0.015 C 
BRANCH  74  76
ATOM     76  C   UNL     1      -9.429  -0.489  -3.740  1.00  0.00     0.128 C 
BRANCH  76  77
ATOM     77  O   UNL     1      -9.019  -0.859  -5.067  1.00  0.00    -0.381 OA
ATOM     78  C   UNL     1      -8.196   0.111  -5.702  1.00  0.00     0.195 C 
ENDBRANCH  76  77
BRANCH  76  79
ATOM     79  C   UNL     1      -9.589   1.043  -3.567  1.00  0.00     0.068 C 
BRANCH  79  80
ATOM     80  C   UNL     1      -9.574   1.601  -2.165  1.00  0.00    -0.045 A 
ATOM     81  C   UNL     1      -8.590   1.215  -1.245  1.00  0.00     0.004 A 
ATOM     82  C   UNL     1     -10.567   2.501  -1.751  1.00  0.00     0.004 A 
ATOM     83  C   UNL     1      -8.591   1.725   0.055  1.00  0.00     0.000 A 
ATOM     84  C   UNL     1     -10.567   3.011  -0.450  1.00  0.00     0.000 A 
ATOM     85  C   UNL     1      -9.579   2.624   0.451  1.00  0.00     0.000 A 
ENDBRANCH  79  80
ENDBRANCH  76  79
ENDBRANCH  74  76
ENDBRANCH  72  74
ENDBRANCH  70  71
ENDBRANCH   1  69
TORSDOF 17
ENDMDL
MODEL 24
REMARK VINA RESULT:    -6.138      6.911     11.675
REMARK INTER + INTRA:         -25.950
REMARK INTER:                 -17.181
REMARK INTRA:                  -8.769
REMARK UNBOUND:                -7.611
REMARK SMILES C=C1C(=O)N[C@H](C)C(=O)N[C@@H](CC(C)C)C(=O)N[C@@H](C(=O)O)[C@H](C)C(=O)N[C@@H](CCCN=C(N)N)C(=O)N[C@@H](/C=C/C(C)=C/[C@H](C)[C@H](Cc2ccccc2)OC)[C@H](C)C(=O)N[C@@H](C(=O)O)CCC(=O)N1C
REMARK SMILES IDX 39 1 38 2 37 3 36 4 28 6 27 7 25 8 26 9 23 11 24 12 19 13
REMARK SMILES IDX 18 14 16 15 17 16 11 18 10 19 8 20 9 21 12 24 13 25 14 26
REMARK SMILES IDX 15 27 20 28 21 29 22 30 29 32 30 33 31 34 32 35 33 36 34 37
REMARK SMILES IDX 35 38 57 43 58 44 59 45 60 46 61 47 62 49 66 50 67 51 68 52
REMARK SMILES IDX 69 53 70 54 71 55 2 56 1 57 3 58 4 59 5 60 6 62 7 63 63 65
REMARK SMILES IDX 64 66 65 67 40 69 41 70 42 71 44 72 43 73 45 74 46 75 47 76
REMARK SMILES IDX 55 77 56 78 48 79 49 80 50 81 54 82 51 83 53 84 52 85
REMARK H PARENT 38 5 27 10 18 17 10 22 22 31 34 39 34 40 35 41 35 42 61 48
REMARK H PARENT 5 61 65 68
REMARK Flexibility Score:  369.900
ROOT
ATOM      1  C   UNL     1      -7.089  -1.299  -3.011  1.00  0.00     0.117 C 
ENDROOT
BRANCH   1   2
ATOM      2  N   UNL     1      -7.563  -0.280  -3.948  1.00  0.00    -0.347 N 
ATOM      3  O   UNL     1      -5.528   0.296  -4.841  1.00  0.00    -0.273 OA
ATOM      4  C   UNL     1      -6.752   0.373  -4.856  1.00  0.00     0.243 C 
ATOM      5  H   UNL     1      -8.547  -0.062  -3.984  1.00  0.00     0.164 HD
BRANCH   4   6
ATOM      6  C   UNL     1      -7.519   1.342  -5.792  1.00  0.00     0.171 C 
BRANCH   6   7
ATOM      7  N   UNL     1      -8.971   1.130  -5.674  1.00  0.00    -0.344 N 
ATOM      8  C   UNL     1      -9.685   0.566  -6.709  1.00  0.00     0.226 C 
ATOM      9  O   UNL     1      -9.165   0.239  -7.768  1.00  0.00    -0.275 OA
ATOM     10  H   UNL     1      -9.447   1.450  -4.840  1.00  0.00     0.164 HD
BRANCH   8  11
ATOM     11  C   UNL     1     -11.161   0.364  -6.412  1.00  0.00     0.109 C 
ATOM     12  C   UNL     1     -11.409   0.431  -4.905  1.00  0.00     0.021 C 
BRANCH  11  13
ATOM     13  C   UNL     1     -12.001   1.348  -7.252  1.00  0.00     0.204 C 
BRANCH  13  14
ATOM     14  N   UNL     1     -11.164   2.203  -8.100  1.00  0.00    -0.340 N 
ATOM     15  C   UNL     1     -11.476   3.516  -8.377  1.00  0.00     0.243 C 
ATOM     16  O   UNL     1     -12.449   4.082  -7.882  1.00  0.00    -0.273 OA
ATOM     17  H   UNL     1     -10.433   1.756  -8.659  1.00  0.00     0.164 HD
BRANCH  15  18
ATOM     18  C   UNL     1     -10.567   4.153  -9.456  1.00  0.00     0.171 C 
BRANCH  18  19
ATOM     19  N   UNL     1     -11.441   4.557 -10.556  1.00  0.00    -0.343 N 
ATOM     20  C   UNL     1     -12.084   3.630 -11.353  1.00  0.00     0.242 CG0
ATOM     21  O   UNL     1     -11.848   2.428 -11.261  1.00  0.00    -0.273 OA
ATOM     22  H   UNL     1     -11.577   5.543 -10.746  1.00  0.00     0.164 HD
ATOM     23  G   UNL     1     -13.026   4.244 -12.410  1.00  0.00     0.000 G0
ENDBRANCH  18  19
BRANCH  18  24
ATOM     24  C   UNL     1      -9.799   5.349  -8.880  1.00  0.00     0.038 C 
BRANCH  24  25
ATOM     25  C   UNL     1     -10.360   6.730  -9.284  1.00  0.00    -0.015 C 
ATOM     26  C   UNL     1      -9.337   7.578 -10.040  1.00  0.00     0.007 C 
ATOM     27  C   UNL     1     -10.829   7.480  -8.035  1.00  0.00     0.007 C 
ENDBRANCH  24  25
ENDBRANCH  18  24
ENDBRANCH  15  18
ENDBRANCH  13  14
BRANCH  13  28
ATOM     28  C   UNL     1     -13.011   0.650  -8.167  1.00  0.00     0.327 C 
ATOM     29  O   UNL     1     -14.180   0.410  -7.903  1.00  0.00    -0.250 OA
BRANCH  28  30
ATOM     30  O   UNL     1     -12.461   0.190  -9.309  1.00  0.00    -0.480 OA
ATOM     31  H   UNL     1     -11.638   0.712  -9.407  1.00  0.00     0.296 HD
ENDBRANCH  28  30
ENDBRANCH  13  28
ENDBRANCH  11  13
ENDBRANCH   8  11
ENDBRANCH   6   7
BRANCH   6  32
ATOM     32  C   UNL     1      -7.146   2.785  -5.437  1.00  0.00     0.037 C 
BRANCH  32  33
ATOM     33  C   UNL     1      -8.066   3.373  -4.358  1.00  0.00     0.026 C 
BRANCH  33  34
ATOM     34  C   UNL     1      -8.931   4.518  -4.888  1.00  0.00     0.146 C 
BRANCH  34  35
ATOM     35  N   UNL     1     -10.251   3.997  -5.215  1.00  0.00    -0.254 NA
ATOM     36  C   UNL     1     -11.257   4.396  -4.529  1.00  0.00     0.185 C 
ATOM     37  N   UNL     1     -12.478   3.927  -4.825  1.00  0.00    -0.370 N 
ATOM     38  N   UNL     1     -11.287   5.262  -3.500  1.00  0.00    -0.370 N 
ATOM     39  H   UNL     1     -12.540   3.276  -5.598  1.00  0.00     0.159 HD
ATOM     40  H   UNL     1     -13.328   4.316  -4.456  1.00  0.00     0.159 HD
ATOM     41  H   UNL     1     -12.122   5.389  -2.951  1.00  0.00     0.159 HD
ATOM     42  H   UNL     1     -10.437   5.682  -3.158  1.00  0.00     0.159 HD
ENDBRANCH  34  35
ENDBRANCH  33  34
ENDBRANCH  32  33
ENDBRANCH   6  32
ENDBRANCH   4   6
ENDBRANCH   1   2
BRANCH   1  43
ATOM     43  C   UNL     1      -7.372  -2.703  -3.621  1.00  0.00     0.102 C 
ATOM     44  C   UNL     1      -8.493  -2.698  -4.674  1.00  0.00     0.020 C 
BRANCH  43  45
ATOM     45  C   UNL     1      -7.558  -3.752  -2.521  1.00  0.00     0.225 C 
ATOM     46  O   UNL     1      -8.631  -3.953  -1.959  1.00  0.00    -0.275 OA
ATOM     47  N   UNL     1      -6.413  -4.405  -2.125  1.00  0.00    -0.342 N 
ATOM     48  H   UNL     1      -5.580  -4.341  -2.692  1.00  0.00     0.164 HD
BRANCH  47  49
ATOM     49  C   UNL     1      -6.445  -5.460  -1.108  1.00  0.00     0.192 C 
BRANCH  49  50
ATOM     50  C   UNL     1      -5.590  -5.044   0.092  1.00  0.00     0.047 C 
BRANCH  50  51
ATOM     51  C   UNL     1      -6.406  -4.301   1.159  1.00  0.00     0.103 C 
BRANCH  51  52
ATOM     52  C   UNL     1      -7.150  -5.262   2.084  1.00  0.00     0.226 C 
ATOM     53  O   UNL     1      -8.251  -5.703   1.749  1.00  0.00    -0.275 OA
BRANCH  52  54
ATOM     54  N   UNL     1      -6.476  -5.650   3.258  1.00  0.00    -0.311 N 
ATOM     55  C   UNL     1      -7.138  -6.484   4.269  1.00  0.00     0.153 C 
BRANCH  54  56
ATOM     56  C   UNL     1      -5.149  -5.260   3.503  1.00  0.00     0.102 C 
ATOM     57  C   UNL     1      -4.780  -4.094   4.059  1.00  0.00     0.043 C 
BRANCH  56  58
ATOM     58  C   UNL     1      -3.998  -6.185   3.184  1.00  0.00     0.268 C 
ATOM     59  O   UNL     1      -4.083  -7.110   2.388  1.00  0.00    -0.268 OA
ATOM     60  N   UNL     1      -2.834  -5.840   3.828  1.00  0.00    -0.339 N 
ATOM     61  H   UNL     1      -2.849  -5.066   4.481  1.00  0.00     0.164 HD
BRANCH  60  62
ATOM     62  C   UNL     1      -1.582  -6.565   3.615  1.00  0.00     0.168 CG0
ATOM     63  C   UNL     1      -1.575  -7.883   4.379  1.00  0.00     0.041 C 
ATOM     64  G   UNL     1      -0.393  -5.680   4.043  1.00  0.00     0.000 G0
ENDBRANCH  60  62
ENDBRANCH  56  58
ENDBRANCH  54  56
ENDBRANCH  52  54
ENDBRANCH  51  52
ENDBRANCH  50  51
ENDBRANCH  49  50
BRANCH  49  65
ATOM     65  C   UNL     1      -5.929  -6.797  -1.661  1.00  0.00     0.326 C 
ATOM     66  O   UNL     1      -5.387  -6.956  -2.745  1.00  0.00    -0.250 OA
BRANCH  65  67
ATOM     67  O   UNL     1      -6.168  -7.866  -0.869  1.00  0.00    -0.480 OA
ATOM     68  H   UNL     1      -6.225  -8.614  -1.501  1.00  0.00     0.296 HD
ENDBRANCH  65  67
ENDBRANCH  49  65
ENDBRANCH  47  49
ENDBRANCH  43  45
ENDBRANCH   1  43
BRANCH   1  69
ATOM     69  C   UNL     1      -7.692  -0.949  -1.663  1.00  0.00    -0.001 C 
ATOM     70  C   UNL     1      -7.037  -0.635  -0.532  1.00  0.00     0.001 C 
BRANCH  70  71
ATOM     71  C   UNL     1      -7.630  -0.278   0.758  1.00  0.00    -0.055 C 
ATOM     72  C   UNL     1      -8.154  -1.273   1.505  1.00  0.00    -0.018 C 
ATOM     73  C   UNL     1      -7.608   1.173   1.164  1.00  0.00     0.044 C 
BRANCH  72  74
ATOM     74  C   UNL     1      -8.825  -1.202   2.869  1.00  0.00     0.038 C 
ATOM     75  C   UNL     1      -7.919  -1.946   3.858  1.00  0.00     0.015 C 
BRANCH  74  76
ATOM     76  C   UNL     1     -10.268  -1.775   2.748  1.00  0.00     0.128 C 
BRANCH  76  77
ATOM     77  O   UNL     1     -10.559  -2.616   3.877  1.00  0.00    -0.381 OA
ATOM     78  C   UNL     1     -11.732  -2.237   4.585  1.00  0.00     0.195 C 
ENDBRANCH  76  77
BRANCH  76  79
ATOM     79  C   UNL     1     -11.355  -0.697   2.508  1.00  0.00     0.068 C 
BRANCH  79  80
ATOM     80  C   UNL     1     -11.275   0.118   1.240  1.00  0.00    -0.045 A 
ATOM     81  C   UNL     1     -11.288  -0.500  -0.018  1.00  0.00     0.004 A 
ATOM     82  C   UNL     1     -11.156   1.515   1.303  1.00  0.00     0.004 A 
ATOM     83  C   UNL     1     -11.199   0.259  -1.186  1.00  0.00     0.000 A 
ATOM     84  C   UNL     1     -11.066   2.273   0.133  1.00  0.00     0.000 A 
ATOM     85  C   UNL     1     -11.090   1.646  -1.110  1.00  0.00     0.000 A 
ENDBRANCH  79  80
ENDBRANCH  76  79
ENDBRANCH  74  76
ENDBRANCH  72  74
ENDBRANCH  70  71
ENDBRANCH   1  69
TORSDOF 17
ENDMDL
MODEL 25
REMARK VINA RESULT:    -6.111      3.267     11.404
REMARK INTER + INTRA:         -25.869
REMARK INTER:                 -19.834
REMARK INTRA:                  -6.035
REMARK UNBOUND:                -7.611
REMARK SMILES C=C1C(=O)N[C@H](C)C(=O)N[C@@H](CC(C)C)C(=O)N[C@@H](C(=O)O)[C@H](C)C(=O)N[C@@H](CCCN=C(N)N)C(=O)N[C@@H](/C=C/C(C)=C/[C@H](C)[C@H](Cc2ccccc2)OC)[C@H](C)C(=O)N[C@@H](C(=O)O)CCC(=O)N1C
REMARK SMILES IDX 39 1 38 2 37 3 36 4 28 6 27 7 25 8 26 9 23 11 24 12 19 13
REMARK SMILES IDX 18 14 16 15 17 16 11 18 10 19 8 20 9 21 12 24 13 25 14 26
REMARK SMILES IDX 15 27 20 28 21 29 22 30 29 32 30 33 31 34 32 35 33 36 34 37
REMARK SMILES IDX 35 38 57 43 58 44 59 45 60 46 61 47 62 49 66 50 67 51 68 52
REMARK SMILES IDX 69 53 70 54 71 55 2 56 1 57 3 58 4 59 5 60 6 62 7 63 63 65
REMARK SMILES IDX 64 66 65 67 40 69 41 70 42 71 44 72 43 73 45 74 46 75 47 76
REMARK SMILES IDX 55 77 56 78 48 79 49 80 50 81 54 82 51 83 53 84 52 85
REMARK H PARENT 38 5 27 10 18 17 10 22 22 31 34 39 34 40 35 41 35 42 61 48
REMARK H PARENT 5 61 65 68
REMARK Flexibility Score:  369.900
ROOT
ATOM      1  C   UNL     1      -4.839   0.905  -6.766  1.00  0.00     0.117 C 
ENDROOT
BRANCH   1   2
ATOM      2  N   UNL     1      -5.665  -0.208  -6.296  1.00  0.00    -0.347 N 
ATOM      3  O   UNL     1      -5.898  -1.294  -8.305  1.00  0.00    -0.273 OA
ATOM      4  C   UNL     1      -6.054  -1.271  -7.088  1.00  0.00     0.243 C 
ATOM      5  H   UNL     1      -5.938  -0.245  -5.326  1.00  0.00     0.164 HD
BRANCH   4   6
ATOM      6  C   UNL     1      -6.852  -2.358  -6.325  1.00  0.00     0.171 C 
BRANCH   6   7
ATOM      7  N   UNL     1      -8.138  -1.817  -5.856  1.00  0.00    -0.344 N 
ATOM      8  C   UNL     1      -8.304  -1.443  -4.540  1.00  0.00     0.226 C 
ATOM      9  O   UNL     1      -7.417  -1.560  -3.703  1.00  0.00    -0.275 OA
ATOM     10  H   UNL     1      -8.915  -1.769  -6.502  1.00  0.00     0.164 HD
BRANCH   8  11
ATOM     11  C   UNL     1      -9.668  -0.854  -4.225  1.00  0.00     0.109 C 
ATOM     12  C   UNL     1     -10.394  -0.486  -5.519  1.00  0.00     0.021 C 
BRANCH  11  13
ATOM     13  C   UNL     1     -10.445  -1.806  -3.294  1.00  0.00     0.204 C 
BRANCH  13  14
ATOM     14  N   UNL     1     -10.787  -1.172  -2.017  1.00  0.00    -0.340 N 
ATOM     15  C   UNL     1     -10.154  -1.484  -0.833  1.00  0.00     0.243 C 
ATOM     16  O   UNL     1      -9.214  -2.275  -0.775  1.00  0.00    -0.273 OA
ATOM     17  H   UNL     1     -11.650  -0.625  -1.968  1.00  0.00     0.164 HD
BRANCH  15  18
ATOM     18  C   UNL     1     -10.819  -0.847   0.411  1.00  0.00     0.171 C 
BRANCH  18  19
ATOM     19  N   UNL     1     -12.253  -1.101   0.296  1.00  0.00    -0.343 N 
ATOM     20  C   UNL     1     -13.193  -0.148   0.640  1.00  0.00     0.242 CG0
ATOM     21  O   UNL     1     -12.871   0.906   1.184  1.00  0.00    -0.273 OA
ATOM     22  H   UNL     1     -12.573  -2.002  -0.041  1.00  0.00     0.164 HD
ATOM     23  G   UNL     1     -14.653  -0.569   0.376  1.00  0.00     0.000 G0
ENDBRANCH  18  19
BRANCH  18  24
ATOM     24  C   UNL     1     -10.244  -1.447   1.700  1.00  0.00     0.038 C 
BRANCH  24  25
ATOM     25  C   UNL     1      -9.336  -0.494   2.506  1.00  0.00    -0.015 C 
ATOM     26  C   UNL     1      -9.174   0.869   1.832  1.00  0.00     0.007 C 
ATOM     27  C   UNL     1      -7.961  -1.137   2.704  1.00  0.00     0.007 C 
ENDBRANCH  24  25
ENDBRANCH  18  24
ENDBRANCH  15  18
ENDBRANCH  13  14
BRANCH  13  28
ATOM     28  C   UNL     1     -11.750  -2.320  -3.909  1.00  0.00     0.327 C 
ATOM     29  O   UNL     1     -12.866  -1.858  -3.727  1.00  0.00    -0.250 OA
BRANCH  28  30
ATOM     30  O   UNL     1     -11.589  -3.454  -4.620  1.00  0.00    -0.480 OA
ATOM     31  H   UNL     1     -11.879  -4.164  -4.010  1.00  0.00     0.296 HD
ENDBRANCH  28  30
ENDBRANCH  13  28
ENDBRANCH  11  13
ENDBRANCH   8  11
ENDBRANCH   6   7
BRANCH   6  32
ATOM     32  C   UNL     1      -7.069  -3.563  -7.247  1.00  0.00     0.037 C 
BRANCH  32  33
ATOM     33  C   UNL     1      -6.000  -4.646  -7.045  1.00  0.00     0.026 C 
BRANCH  33  34
ATOM     34  C   UNL     1      -4.976  -4.266  -5.974  1.00  0.00     0.146 C 
BRANCH  34  35
ATOM     35  N   UNL     1      -4.846  -5.372  -5.036  1.00  0.00    -0.254 NA
ATOM     36  C   UNL     1      -5.327  -5.236  -3.856  1.00  0.00     0.185 C 
ATOM     37  N   UNL     1      -5.216  -6.251  -2.984  1.00  0.00    -0.370 N 
ATOM     38  N   UNL     1      -5.962  -4.180  -3.319  1.00  0.00    -0.370 N 
ATOM     39  H   UNL     1      -4.757  -7.089  -3.318  1.00  0.00     0.159 HD
ATOM     40  H   UNL     1      -5.713  -6.290  -2.111  1.00  0.00     0.159 HD
ATOM     41  H   UNL     1      -6.170  -4.142  -2.335  1.00  0.00     0.159 HD
ATOM     42  H   UNL     1      -6.102  -3.338  -3.856  1.00  0.00     0.159 HD
ENDBRANCH  34  35
ENDBRANCH  33  34
ENDBRANCH  32  33
ENDBRANCH   6  32
ENDBRANCH   4   6
ENDBRANCH   1   2
BRANCH   1  43
ATOM     43  C   UNL     1      -3.416   0.757  -6.154  1.00  0.00     0.102 C 
ATOM     44  C   UNL     1      -2.838   2.079  -5.621  1.00  0.00     0.020 C 
BRANCH  43  45
ATOM     45  C   UNL     1      -2.480   0.012  -7.111  1.00  0.00     0.225 C 
ATOM     46  O   UNL     1      -1.355  -0.362  -6.793  1.00  0.00    -0.275 OA
ATOM     47  N   UNL     1      -2.944  -0.136  -8.398  1.00  0.00    -0.342 N 
ATOM     48  H   UNL     1      -3.918   0.038  -8.601  1.00  0.00     0.164 HD
BRANCH  47  49
ATOM     49  C   UNL     1      -2.172  -0.859  -9.413  1.00  0.00     0.192 C 
BRANCH  49  50
ATOM     50  C   UNL     1      -2.013   0.016 -10.659  1.00  0.00     0.047 C 
BRANCH  50  51
ATOM     51  C   UNL     1      -1.965   1.512 -10.317  1.00  0.00     0.103 C 
BRANCH  51  52
ATOM     52  C   UNL     1      -0.622   1.920  -9.716  1.00  0.00     0.226 C 
ATOM     53  O   UNL     1      -0.593   2.553  -8.659  1.00  0.00    -0.275 OA
BRANCH  52  54
ATOM     54  N   UNL     1       0.529   1.470 -10.390  1.00  0.00    -0.311 N 
ATOM     55  C   UNL     1       1.086   2.223 -11.522  1.00  0.00     0.153 C 
BRANCH  54  56
ATOM     56  C   UNL     1       1.190   0.292 -10.004  1.00  0.00     0.102 C 
ATOM     57  C   UNL     1       1.541  -0.015  -8.744  1.00  0.00     0.043 C 
BRANCH  56  58
ATOM     58  C   UNL     1       1.526  -0.776 -11.018  1.00  0.00     0.268 C 
ATOM     59  O   UNL     1       1.009  -0.834 -12.125  1.00  0.00    -0.268 OA
ATOM     60  N   UNL     1       2.514  -1.631 -10.594  1.00  0.00    -0.339 N 
ATOM     61  H   UNL     1       2.884  -1.523  -9.657  1.00  0.00     0.164 HD
BRANCH  60  62
ATOM     62  C   UNL     1       3.036  -2.701 -11.444  1.00  0.00     0.168 CG0
ATOM     63  C   UNL     1       3.786  -3.739 -10.619  1.00  0.00     0.041 C 
ATOM     64  G   UNL     1       3.953  -2.099 -12.528  1.00  0.00     0.000 G0
ENDBRANCH  60  62
ENDBRANCH  56  58
ENDBRANCH  54  56
ENDBRANCH  52  54
ENDBRANCH  51  52
ENDBRANCH  50  51
ENDBRANCH  49  50
BRANCH  49  65
ATOM     65  C   UNL     1      -2.849  -2.182  -9.803  1.00  0.00     0.326 C 
ATOM     66  O   UNL     1      -3.015  -2.585 -10.945  1.00  0.00    -0.250 OA
BRANCH  65  67
ATOM     67  O   UNL     1      -3.332  -2.897  -8.763  1.00  0.00    -0.480 OA
ATOM     68  H   UNL     1      -2.985  -2.424  -7.976  1.00  0.00     0.296 HD
ENDBRANCH  65  67
ENDBRANCH  49  65
ENDBRANCH  47  49
ENDBRANCH  43  45
ENDBRANCH   1  43
BRANCH   1  69
ATOM     69  C   UNL     1      -5.630   2.169  -6.485  1.00  0.00    -0.001 C 
ATOM     70  C   UNL     1      -5.715   3.268  -7.255  1.00  0.00     0.001 C 
BRANCH  70  71
ATOM     71  C   UNL     1      -6.499   4.474  -6.984  1.00  0.00    -0.055 C 
ATOM     72  C   UNL     1      -7.840   4.395  -7.122  1.00  0.00    -0.018 C 
ATOM     73  C   UNL     1      -5.756   5.715  -6.562  1.00  0.00     0.044 C 
BRANCH  72  74
ATOM     74  C   UNL     1      -8.895   5.471  -6.907  1.00  0.00     0.038 C 
ATOM     75  C   UNL     1      -9.785   5.008  -5.748  1.00  0.00     0.015 C 
BRANCH  74  76
ATOM     76  C   UNL     1      -9.645   5.712  -8.250  1.00  0.00     0.128 C 
BRANCH  76  77
ATOM     77  O   UNL     1     -10.845   6.468  -8.014  1.00  0.00    -0.381 OA
ATOM     78  C   UNL     1     -10.736   7.839  -8.374  1.00  0.00     0.195 C 
ENDBRANCH  76  77
BRANCH  76  79
ATOM     79  C   UNL     1      -8.760   6.324  -9.365  1.00  0.00     0.068 C 
BRANCH  79  80
ATOM     80  C   UNL     1      -8.640   5.570 -10.667  1.00  0.00    -0.045 A 
ATOM     81  C   UNL     1      -7.464   4.885 -10.999  1.00  0.00     0.004 A 
ATOM     82  C   UNL     1      -9.702   5.567 -11.584  1.00  0.00     0.004 A 
ATOM     83  C   UNL     1      -7.355   4.201 -12.212  1.00  0.00     0.000 A 
ATOM     84  C   UNL     1      -9.593   4.884 -12.797  1.00  0.00     0.000 A 
ATOM     85  C   UNL     1      -8.420   4.200 -13.110  1.00  0.00     0.000 A 
ENDBRANCH  79  80
ENDBRANCH  76  79
ENDBRANCH  74  76
ENDBRANCH  72  74
ENDBRANCH  70  71
ENDBRANCH   1  69
TORSDOF 17
ENDMDL
MODEL 26
REMARK VINA RESULT:    -6.101      5.821     14.553
REMARK INTER + INTRA:         -25.839
REMARK INTER:                 -18.968
REMARK INTRA:                  -6.870
REMARK UNBOUND:                -7.611
REMARK SMILES C=C1C(=O)N[C@H](C)C(=O)N[C@@H](CC(C)C)C(=O)N[C@@H](C(=O)O)[C@H](C)C(=O)N[C@@H](CCCN=C(N)N)C(=O)N[C@@H](/C=C/C(C)=C/[C@H](C)[C@H](Cc2ccccc2)OC)[C@H](C)C(=O)N[C@@H](C(=O)O)CCC(=O)N1C
REMARK SMILES IDX 39 1 38 2 37 3 36 4 28 6 27 7 25 8 26 9 23 11 24 12 19 13
REMARK SMILES IDX 18 14 16 15 17 16 11 18 10 19 8 20 9 21 12 24 13 25 14 26
REMARK SMILES IDX 15 27 20 28 21 29 22 30 29 32 30 33 31 34 32 35 33 36 34 37
REMARK SMILES IDX 35 38 57 43 58 44 59 45 60 46 61 47 62 49 66 50 67 51 68 52
REMARK SMILES IDX 69 53 70 54 71 55 2 56 1 57 3 58 4 59 5 60 6 62 7 63 63 65
REMARK SMILES IDX 64 66 65 67 40 69 41 70 42 71 44 72 43 73 45 74 46 75 47 76
REMARK SMILES IDX 55 77 56 78 48 79 49 80 50 81 54 82 51 83 53 84 52 85
REMARK H PARENT 38 5 27 10 18 17 10 22 22 31 34 39 34 40 35 41 35 42 61 48
REMARK H PARENT 5 61 65 68
REMARK Flexibility Score:  369.900
ROOT
ATOM      1  C   UNL     1      -7.220  -1.916  -3.547  1.00  0.00     0.117 C 
ENDROOT
BRANCH   1   2
ATOM      2  N   UNL     1      -7.914  -1.700  -2.277  1.00  0.00    -0.347 N 
ATOM      3  O   UNL     1      -6.720   0.130  -1.575  1.00  0.00    -0.273 OA
ATOM      4  C   UNL     1      -7.668  -0.635  -1.432  1.00  0.00     0.243 C 
ATOM      5  H   UNL     1      -8.655  -2.329  -2.005  1.00  0.00     0.164 HD
BRANCH   4   6
ATOM      6  C   UNL     1      -8.600  -0.593  -0.195  1.00  0.00     0.171 C 
BRANCH   6   7
ATOM      7  N   UNL     1     -10.001  -0.790  -0.599  1.00  0.00    -0.344 N 
ATOM      8  C   UNL     1     -10.927   0.217  -0.438  1.00  0.00     0.226 C 
ATOM      9  O   UNL     1     -10.645   1.300   0.061  1.00  0.00    -0.275 OA
ATOM     10  H   UNL     1     -10.287  -1.694  -0.953  1.00  0.00     0.164 HD
BRANCH   8  11
ATOM     11  C   UNL     1     -12.315  -0.121  -0.953  1.00  0.00     0.109 C 
ATOM     12  C   UNL     1     -12.257  -1.360  -1.846  1.00  0.00     0.021 C 
BRANCH  11  13
ATOM     13  C   UNL     1     -13.300  -0.219   0.229  1.00  0.00     0.204 C 
BRANCH  13  14
ATOM     14  N   UNL     1     -13.774   1.098   0.663  1.00  0.00    -0.340 N 
ATOM     15  C   UNL     1     -13.869   1.460   1.990  1.00  0.00     0.243 C 
ATOM     16  O   UNL     1     -13.504   0.721   2.903  1.00  0.00    -0.273 OA
ATOM     17  H   UNL     1     -14.232   1.697  -0.030  1.00  0.00     0.164 HD
BRANCH  15  18
ATOM     18  C   UNL     1     -14.587   2.813   2.213  1.00  0.00     0.171 C 
BRANCH  18  19
ATOM     19  N   UNL     1     -15.939   2.662   1.678  1.00  0.00    -0.343 N 
ATOM     20  C   UNL     1     -16.596   3.704   1.052  1.00  0.00     0.242 CG0
ATOM     21  O   UNL     1     -16.128   4.840   1.033  1.00  0.00    -0.273 OA
ATOM     22  H   UNL     1     -16.415   1.772   1.773  1.00  0.00     0.164 HD
ATOM     23  G   UNL     1     -17.981   3.334   0.484  1.00  0.00     0.000 G0
ENDBRANCH  18  19
BRANCH  18  24
ATOM     24  C   UNL     1     -14.609   3.176   3.702  1.00  0.00     0.038 C 
BRANCH  24  25
ATOM     25  C   UNL     1     -13.646   4.314   4.103  1.00  0.00    -0.015 C 
ATOM     26  C   UNL     1     -13.089   4.139   5.516  1.00  0.00     0.007 C 
ATOM     27  C   UNL     1     -14.367   5.660   3.996  1.00  0.00     0.007 C 
ENDBRANCH  24  25
ENDBRANCH  18  24
ENDBRANCH  15  18
ENDBRANCH  13  14
BRANCH  13  28
ATOM     28  C   UNL     1     -14.538  -1.066  -0.086  1.00  0.00     0.327 C 
ATOM     29  O   UNL     1     -15.487  -0.729  -0.776  1.00  0.00    -0.250 OA
BRANCH  28  30
ATOM     30  O   UNL     1     -14.561  -2.236   0.583  1.00  0.00    -0.480 OA
ATOM     31  H   UNL     1     -14.928  -2.876  -0.063  1.00  0.00     0.296 HD
ENDBRANCH  28  30
ENDBRANCH  13  28
ENDBRANCH  11  13
ENDBRANCH   8  11
ENDBRANCH   6   7
BRANCH   6  32
ATOM     32  C   UNL     1      -8.161  -1.670   0.803  1.00  0.00     0.037 C 
BRANCH  32  33
ATOM     33  C   UNL     1      -7.978  -1.108   2.220  1.00  0.00     0.026 C 
BRANCH  33  34
ATOM     34  C   UNL     1      -8.934  -1.743   3.230  1.00  0.00     0.146 C 
BRANCH  34  35
ATOM     35  N   UNL     1     -10.270  -1.784   2.651  1.00  0.00    -0.254 NA
ATOM     36  C   UNL     1     -11.242  -2.192   3.378  1.00  0.00     0.185 C 
ATOM     37  N   UNL     1     -12.478  -2.229   2.856  1.00  0.00    -0.370 N 
ATOM     38  N   UNL     1     -11.223  -2.613   4.655  1.00  0.00    -0.370 N 
ATOM     39  H   UNL     1     -12.576  -1.916   1.899  1.00  0.00     0.159 HD
ATOM     40  H   UNL     1     -13.309  -2.367   3.405  1.00  0.00     0.159 HD
ATOM     41  H   UNL     1     -12.033  -3.041   5.075  1.00  0.00     0.159 HD
ATOM     42  H   UNL     1     -10.357  -2.653   5.169  1.00  0.00     0.159 HD
ENDBRANCH  34  35
ENDBRANCH  33  34
ENDBRANCH  32  33
ENDBRANCH   6  32
ENDBRANCH   4   6
ENDBRANCH   1   2
BRANCH   1  43
ATOM     43  C   UNL     1      -8.137  -1.421  -4.702  1.00  0.00     0.102 C 
ATOM     44  C   UNL     1      -8.423  -2.499  -5.762  1.00  0.00     0.020 C 
BRANCH  43  45
ATOM     45  C   UNL     1      -7.625  -0.100  -5.283  1.00  0.00     0.225 C 
ATOM     46  O   UNL     1      -8.220   0.524  -6.157  1.00  0.00    -0.275 OA
ATOM     47  N   UNL     1      -6.392   0.309  -4.829  1.00  0.00    -0.342 N 
ATOM     48  H   UNL     1      -5.991  -0.127  -4.010  1.00  0.00     0.164 HD
BRANCH  47  49
ATOM     49  C   UNL     1      -5.793   1.572  -5.270  1.00  0.00     0.192 C 
BRANCH  49  50
ATOM     50  C   UNL     1      -5.028   1.349  -6.578  1.00  0.00     0.047 C 
BRANCH  50  51
ATOM     51  C   UNL     1      -4.388  -0.044  -6.648  1.00  0.00     0.103 C 
BRANCH  51  52
ATOM     52  C   UNL     1      -2.912  -0.018  -6.256  1.00  0.00     0.226 C 
ATOM     53  O   UNL     1      -2.511  -0.738  -5.340  1.00  0.00    -0.275 OA
BRANCH  52  54
ATOM     54  N   UNL     1      -2.071   0.794  -7.039  1.00  0.00    -0.311 N 
ATOM     55  C   UNL     1      -1.365   1.940  -6.451  1.00  0.00     0.153 C 
BRANCH  54  56
ATOM     56  C   UNL     1      -1.869   0.537  -8.405  1.00  0.00     0.102 C 
ATOM     57  C   UNL     1      -2.396   1.258  -9.408  1.00  0.00     0.043 C 
BRANCH  56  58
ATOM     58  C   UNL     1      -0.971  -0.590  -8.858  1.00  0.00     0.268 C 
ATOM     59  O   UNL     1      -1.382  -1.716  -9.104  1.00  0.00    -0.268 OA
ATOM     60  N   UNL     1       0.337  -0.203  -9.028  1.00  0.00    -0.339 N 
ATOM     61  H   UNL     1       0.599   0.746  -8.792  1.00  0.00     0.164 HD
BRANCH  60  62
ATOM     62  C   UNL     1       1.363  -1.122  -9.520  1.00  0.00     0.168 CG0
ATOM     63  C   UNL     1       2.053  -1.841  -8.368  1.00  0.00     0.041 C 
ATOM     64  G   UNL     1       2.389  -0.343 -10.370  1.00  0.00     0.000 G0
ENDBRANCH  60  62
ENDBRANCH  56  58
ENDBRANCH  54  56
ENDBRANCH  52  54
ENDBRANCH  51  52
ENDBRANCH  50  51
ENDBRANCH  49  50
BRANCH  49  65
ATOM     65  C   UNL     1      -4.837   2.146  -4.213  1.00  0.00     0.326 C 
ATOM     66  O   UNL     1      -4.053   3.068  -4.389  1.00  0.00    -0.250 OA
BRANCH  65  67
ATOM     67  O   UNL     1      -4.864   1.507  -3.022  1.00  0.00    -0.480 OA
ATOM     68  H   UNL     1      -5.670   1.861  -2.588  1.00  0.00     0.296 HD
ENDBRANCH  65  67
ENDBRANCH  49  65
ENDBRANCH  47  49
ENDBRANCH  43  45
ENDBRANCH   1  43
BRANCH   1  69
ATOM     69  C   UNL     1      -6.765  -3.364  -3.541  1.00  0.00    -0.001 C 
ATOM     70  C   UNL     1      -5.696  -3.887  -4.168  1.00  0.00     0.001 C 
BRANCH  70  71
ATOM     71  C   UNL     1      -5.255  -5.283  -4.137  1.00  0.00    -0.055 C 
ATOM     72  C   UNL     1      -5.253  -5.915  -2.944  1.00  0.00    -0.018 C 
ATOM     73  C   UNL     1      -4.841  -5.918  -5.439  1.00  0.00     0.044 C 
BRANCH  72  74
ATOM     74  C   UNL     1      -4.854  -7.346  -2.613  1.00  0.00     0.038 C 
ATOM     75  C   UNL     1      -5.967  -8.260  -3.140  1.00  0.00     0.015 C 
BRANCH  74  76
ATOM     76  C   UNL     1      -4.594  -7.451  -1.081  1.00  0.00     0.128 C 
BRANCH  76  77
ATOM     77  O   UNL     1      -4.164  -8.781  -0.746  1.00  0.00    -0.381 OA
ATOM     78  C   UNL     1      -2.763  -8.978  -0.877  1.00  0.00     0.195 C 
ENDBRANCH  76  77
BRANCH  76  79
ATOM     79  C   UNL     1      -3.646  -6.357  -0.527  1.00  0.00     0.068 C 
BRANCH  79  80
ATOM     80  C   UNL     1      -4.115  -5.551   0.661  1.00  0.00    -0.045 A 
ATOM     81  C   UNL     1      -3.239  -5.230   1.706  1.00  0.00     0.004 A 
ATOM     82  C   UNL     1      -5.451  -5.133   0.749  1.00  0.00     0.004 A 
ATOM     83  C   UNL     1      -3.683  -4.497   2.808  1.00  0.00     0.000 A 
ATOM     84  C   UNL     1      -5.895  -4.400   1.851  1.00  0.00     0.000 A 
ATOM     85  C   UNL     1      -5.011  -4.080   2.879  1.00  0.00     0.000 A 
ENDBRANCH  79  80
ENDBRANCH  76  79
ENDBRANCH  74  76
ENDBRANCH  72  74
ENDBRANCH  70  71
ENDBRANCH   1  69
TORSDOF 17
ENDMDL
MODEL 27
REMARK VINA RESULT:    -6.097      7.231     13.274
REMARK INTER + INTRA:         -25.828
REMARK INTER:                 -16.905
REMARK INTRA:                  -8.922
REMARK UNBOUND:                -7.611
REMARK SMILES C=C1C(=O)N[C@H](C)C(=O)N[C@@H](CC(C)C)C(=O)N[C@@H](C(=O)O)[C@H](C)C(=O)N[C@@H](CCCN=C(N)N)C(=O)N[C@@H](/C=C/C(C)=C/[C@H](C)[C@H](Cc2ccccc2)OC)[C@H](C)C(=O)N[C@@H](C(=O)O)CCC(=O)N1C
REMARK SMILES IDX 39 1 38 2 37 3 36 4 28 6 27 7 25 8 26 9 23 11 24 12 19 13
REMARK SMILES IDX 18 14 16 15 17 16 11 18 10 19 8 20 9 21 12 24 13 25 14 26
REMARK SMILES IDX 15 27 20 28 21 29 22 30 29 32 30 33 31 34 32 35 33 36 34 37
REMARK SMILES IDX 35 38 57 43 58 44 59 45 60 46 61 47 62 49 66 50 67 51 68 52
REMARK SMILES IDX 69 53 70 54 71 55 2 56 1 57 3 58 4 59 5 60 6 62 7 63 63 65
REMARK SMILES IDX 64 66 65 67 40 69 41 70 42 71 44 72 43 73 45 74 46 75 47 76
REMARK SMILES IDX 55 77 56 78 48 79 49 80 50 81 54 82 51 83 53 84 52 85
REMARK H PARENT 38 5 27 10 18 17 10 22 22 31 34 39 34 40 35 41 35 42 61 48
REMARK H PARENT 5 61 65 68
REMARK Flexibility Score:  369.900
ROOT
ATOM      1  C   UNL     1     -14.495   4.735  -7.398  1.00  0.00     0.117 C 
ENDROOT
BRANCH   1   2
ATOM      2  N   UNL     1     -13.234   5.439  -7.160  1.00  0.00    -0.347 N 
ATOM      3  O   UNL     1     -11.981   4.392  -8.773  1.00  0.00    -0.273 OA
ATOM      4  C   UNL     1     -12.099   5.275  -7.931  1.00  0.00     0.243 C 
ATOM      5  H   UNL     1     -13.184   6.127  -6.425  1.00  0.00     0.164 HD
BRANCH   4   6
ATOM      6  C   UNL     1     -10.928   6.203  -7.521  1.00  0.00     0.171 C 
BRANCH   6   7
ATOM      7  N   UNL     1      -9.690   5.426  -7.353  1.00  0.00    -0.344 N 
ATOM      8  C   UNL     1      -9.169   5.196  -6.097  1.00  0.00     0.226 C 
ATOM      9  O   UNL     1      -9.686   5.637  -5.078  1.00  0.00    -0.275 OA
ATOM     10  H   UNL     1      -9.198   5.102  -8.176  1.00  0.00     0.164 HD
BRANCH   8  11
ATOM     11  C   UNL     1      -7.920   4.332  -6.087  1.00  0.00     0.109 C 
ATOM     12  C   UNL     1      -6.883   4.896  -7.058  1.00  0.00     0.021 C 
BRANCH  11  13
ATOM     13  C   UNL     1      -7.423   4.153  -4.639  1.00  0.00     0.204 C 
BRANCH  13  14
ATOM     14  N   UNL     1      -7.720   2.816  -4.115  1.00  0.00    -0.340 N 
ATOM     15  C   UNL     1      -8.695   2.582  -3.170  1.00  0.00     0.243 C 
ATOM     16  O   UNL     1      -9.428   3.472  -2.744  1.00  0.00    -0.273 OA
ATOM     17  H   UNL     1      -7.053   2.064  -4.311  1.00  0.00     0.164 HD
BRANCH  15  18
ATOM     18  C   UNL     1      -8.687   1.135  -2.618  1.00  0.00     0.171 C 
BRANCH  18  19
ATOM     19  N   UNL     1      -7.800   1.136  -1.456  1.00  0.00    -0.343 N 
ATOM     20  C   UNL     1      -6.997   0.054  -1.152  1.00  0.00     0.242 CG0
ATOM     21  O   UNL     1      -7.089  -1.008  -1.764  1.00  0.00    -0.273 OA
ATOM     22  H   UNL     1      -7.774   1.949  -0.851  1.00  0.00     0.164 HD
ATOM     23  G   UNL     1      -6.072   0.269   0.064  1.00  0.00     0.000 G0
ENDBRANCH  18  19
BRANCH  18  24
ATOM     24  C   UNL     1     -10.106   0.692  -2.241  1.00  0.00     0.038 C 
BRANCH  24  25
ATOM     25  C   UNL     1     -10.352   0.539  -0.725  1.00  0.00    -0.015 C 
ATOM     26  C   UNL     1     -11.074  -0.763  -0.378  1.00  0.00     0.007 C 
ATOM     27  C   UNL     1     -11.165   1.731  -0.212  1.00  0.00     0.007 C 
ENDBRANCH  24  25
ENDBRANCH  18  24
ENDBRANCH  15  18
ENDBRANCH  13  14
BRANCH  13  28
ATOM     28  C   UNL     1      -5.915   4.375  -4.487  1.00  0.00     0.327 C 
ATOM     29  O   UNL     1      -5.034   3.580  -4.777  1.00  0.00    -0.250 OA
BRANCH  28  30
ATOM     30  O   UNL     1      -5.611   5.535  -3.870  1.00  0.00    -0.480 OA
ATOM     31  H   UNL     1      -6.184   5.542  -3.075  1.00  0.00     0.296 HD
ENDBRANCH  28  30
ENDBRANCH  13  28
ENDBRANCH  11  13
ENDBRANCH   8  11
ENDBRANCH   6   7
BRANCH   6  32
ATOM     32  C   UNL     1     -10.751   7.291  -8.586  1.00  0.00     0.037 C 
BRANCH  32  33
ATOM     33  C   UNL     1      -9.277   7.499  -8.962  1.00  0.00     0.026 C 
BRANCH  33  34
ATOM     34  C   UNL     1      -8.965   7.033 -10.384  1.00  0.00     0.146 C 
BRANCH  34  35
ATOM     35  N   UNL     1      -9.325   5.627 -10.508  1.00  0.00    -0.254 NA
ATOM     36  C   UNL     1     -10.048   5.263 -11.500  1.00  0.00     0.185 C 
ATOM     37  N   UNL     1     -10.382   3.969 -11.627  1.00  0.00    -0.370 N 
ATOM     38  N   UNL     1     -10.555   6.012 -12.496  1.00  0.00    -0.370 N 
ATOM     39  H   UNL     1     -10.028   3.338 -10.920  1.00  0.00     0.159 HD
ATOM     40  H   UNL     1     -10.793   3.580 -12.458  1.00  0.00     0.159 HD
ATOM     41  H   UNL     1     -11.226   5.632 -13.143  1.00  0.00     0.159 HD
ATOM     42  H   UNL     1     -10.398   7.007 -12.520  1.00  0.00     0.159 HD
ENDBRANCH  34  35
ENDBRANCH  33  34
ENDBRANCH  32  33
ENDBRANCH   6  32
ENDBRANCH   4   6
ENDBRANCH   1   2
BRANCH   1  43
ATOM     43  C   UNL     1     -15.480   5.709  -8.107  1.00  0.00     0.102 C 
ATOM     44  C   UNL     1     -16.950   5.262  -8.021  1.00  0.00     0.020 C 
BRANCH  43  45
ATOM     45  C   UNL     1     -15.010   6.029  -9.529  1.00  0.00     0.225 C 
ATOM     46  O   UNL     1     -14.353   7.027  -9.809  1.00  0.00    -0.275 OA
ATOM     47  N   UNL     1     -15.453   5.168 -10.507  1.00  0.00    -0.342 N 
ATOM     48  H   UNL     1     -15.858   4.280 -10.246  1.00  0.00     0.164 HD
BRANCH  47  49
ATOM     49  C   UNL     1     -15.054   5.330 -11.908  1.00  0.00     0.192 C 
BRANCH  49  50
ATOM     50  C   UNL     1     -16.198   4.887 -12.823  1.00  0.00     0.047 C 
BRANCH  50  51
ATOM     51  C   UNL     1     -17.560   4.933 -12.117  1.00  0.00     0.103 C 
BRANCH  51  52
ATOM     52  C   UNL     1     -18.264   6.274 -12.315  1.00  0.00     0.226 C 
ATOM     53  O   UNL     1     -18.593   6.629 -13.449  1.00  0.00    -0.275 OA
BRANCH  52  54
ATOM     54  N   UNL     1     -18.564   7.003 -11.149  1.00  0.00    -0.311 N 
ATOM     55  C   UNL     1     -19.693   6.622 -10.290  1.00  0.00     0.153 C 
BRANCH  54  56
ATOM     56  C   UNL     1     -17.797   8.113 -10.761  1.00  0.00     0.102 C 
ATOM     57  C   UNL     1     -17.665   8.553  -9.499  1.00  0.00     0.043 C 
BRANCH  56  58
ATOM     58  C   UNL     1     -16.996   8.895 -11.776  1.00  0.00     0.268 C 
ATOM     59  O   UNL     1     -15.778   8.827 -11.864  1.00  0.00    -0.268 OA
ATOM     60  N   UNL     1     -17.780   9.635 -12.629  1.00  0.00    -0.339 N 
ATOM     61  H   UNL     1     -18.783   9.646 -12.482  1.00  0.00     0.164 HD
BRANCH  60  62
ATOM     62  C   UNL     1     -17.214  10.418 -13.726  1.00  0.00     0.168 CG0
ATOM     63  C   UNL     1     -16.964  11.859 -13.298  1.00  0.00     0.041 C 
ATOM     64  G   UNL     1     -18.163  10.366 -14.941  1.00  0.00     0.000 G0
ENDBRANCH  60  62
ENDBRANCH  56  58
ENDBRANCH  54  56
ENDBRANCH  52  54
ENDBRANCH  51  52
ENDBRANCH  50  51
ENDBRANCH  49  50
BRANCH  49  65
ATOM     65  C   UNL     1     -13.794   4.513 -12.236  1.00  0.00     0.326 C 
ATOM     66  O   UNL     1     -13.112   4.632 -13.244  1.00  0.00    -0.250 OA
BRANCH  65  67
ATOM     67  O   UNL     1     -13.490   3.558 -11.330  1.00  0.00    -0.480 OA
ATOM     68  H   UNL     1     -14.344   3.099 -11.181  1.00  0.00     0.296 HD
ENDBRANCH  65  67
ENDBRANCH  49  65
ENDBRANCH  47  49
ENDBRANCH  43  45
ENDBRANCH   1  43
BRANCH   1  69
ATOM     69  C   UNL     1     -14.896   4.124  -6.068  1.00  0.00    -0.001 C 
ATOM     70  C   UNL     1     -15.724   3.084  -5.864  1.00  0.00     0.001 C 
BRANCH  70  71
ATOM     71  C   UNL     1     -16.088   2.489  -4.576  1.00  0.00    -0.055 C 
ATOM     72  C   UNL     1     -15.907   3.236  -3.466  1.00  0.00    -0.018 C 
ATOM     73  C   UNL     1     -16.645   1.090  -4.581  1.00  0.00     0.044 C 
BRANCH  72  74
ATOM     74  C   UNL     1     -16.194   2.887  -2.013  1.00  0.00     0.038 C 
ATOM     75  C   UNL     1     -17.053   4.019  -1.437  1.00  0.00     0.015 C 
BRANCH  74  76
ATOM     76  C   UNL     1     -14.842   2.653  -1.277  1.00  0.00     0.128 C 
BRANCH  76  77
ATOM     77  O   UNL     1     -14.635   3.679  -0.292  1.00  0.00    -0.381 OA
ATOM     78  C   UNL     1     -14.426   3.176   1.021  1.00  0.00     0.195 C 
ENDBRANCH  76  77
BRANCH  76  79
ATOM     79  C   UNL     1     -14.679   1.225  -0.699  1.00  0.00     0.068 C 
BRANCH  79  80
ATOM     80  C   UNL     1     -14.550   0.078  -1.673  1.00  0.00    -0.045 A 
ATOM     81  C   UNL     1     -13.672   0.151  -2.762  1.00  0.00     0.004 A 
ATOM     82  C   UNL     1     -15.334  -1.075  -1.515  1.00  0.00     0.004 A 
ATOM     83  C   UNL     1     -13.569  -0.908  -3.666  1.00  0.00     0.000 A 
ATOM     84  C   UNL     1     -15.231  -2.133  -2.420  1.00  0.00     0.000 A 
ATOM     85  C   UNL     1     -14.348  -2.050  -3.494  1.00  0.00     0.000 A 
ENDBRANCH  79  80
ENDBRANCH  76  79
ENDBRANCH  74  76
ENDBRANCH  72  74
ENDBRANCH  70  71
ENDBRANCH   1  69
TORSDOF 17
ENDMDL
MODEL 28
REMARK VINA RESULT:    -6.083      4.046      8.452
REMARK INTER + INTRA:         -25.784
REMARK INTER:                 -19.073
REMARK INTRA:                  -6.712
REMARK UNBOUND:                -7.611
REMARK SMILES C=C1C(=O)N[C@H](C)C(=O)N[C@@H](CC(C)C)C(=O)N[C@@H](C(=O)O)[C@H](C)C(=O)N[C@@H](CCCN=C(N)N)C(=O)N[C@@H](/C=C/C(C)=C/[C@H](C)[C@H](Cc2ccccc2)OC)[C@H](C)C(=O)N[C@@H](C(=O)O)CCC(=O)N1C
REMARK SMILES IDX 39 1 38 2 37 3 36 4 28 6 27 7 25 8 26 9 23 11 24 12 19 13
REMARK SMILES IDX 18 14 16 15 17 16 11 18 10 19 8 20 9 21 12 24 13 25 14 26
REMARK SMILES IDX 15 27 20 28 21 29 22 30 29 32 30 33 31 34 32 35 33 36 34 37
REMARK SMILES IDX 35 38 57 43 58 44 59 45 60 46 61 47 62 49 66 50 67 51 68 52
REMARK SMILES IDX 69 53 70 54 71 55 2 56 1 57 3 58 4 59 5 60 6 62 7 63 63 65
REMARK SMILES IDX 64 66 65 67 40 69 41 70 42 71 44 72 43 73 45 74 46 75 47 76
REMARK SMILES IDX 55 77 56 78 48 79 49 80 50 81 54 82 51 83 53 84 52 85
REMARK H PARENT 38 5 27 10 18 17 10 22 22 31 34 39 34 40 35 41 35 42 61 48
REMARK H PARENT 5 61 65 68
REMARK Flexibility Score:  369.900
ROOT
ATOM      1  C   UNL     1      -8.002  -2.981  -4.171  1.00  0.00     0.117 C 
ENDROOT
BRANCH   1   2
ATOM      2  N   UNL     1      -6.861  -2.168  -4.594  1.00  0.00    -0.347 N 
ATOM      3  O   UNL     1      -5.899  -3.694  -6.014  1.00  0.00    -0.273 OA
ATOM      4  C   UNL     1      -5.948  -2.558  -5.555  1.00  0.00     0.243 C 
ATOM      5  H   UNL     1      -6.743  -1.243  -4.209  1.00  0.00     0.164 HD
BRANCH   4   6
ATOM      6  C   UNL     1      -4.886  -1.476  -5.881  1.00  0.00     0.171 C 
BRANCH   6   7
ATOM      7  N   UNL     1      -4.824  -1.237  -7.331  1.00  0.00    -0.344 N 
ATOM      8  C   UNL     1      -3.638  -0.879  -7.934  1.00  0.00     0.226 C 
ATOM      9  O   UNL     1      -2.599  -0.722  -7.305  1.00  0.00    -0.275 OA
ATOM     10  H   UNL     1      -5.677  -1.291  -7.875  1.00  0.00     0.164 HD
BRANCH   8  11
ATOM     11  C   UNL     1      -3.725  -0.722  -9.442  1.00  0.00     0.109 C 
ATOM     12  C   UNL     1      -3.506   0.740  -9.832  1.00  0.00     0.021 C 
BRANCH  11  13
ATOM     13  C   UNL     1      -2.775  -1.725 -10.127  1.00  0.00     0.204 C 
BRANCH  13  14
ATOM     14  N   UNL     1      -1.383  -1.540  -9.708  1.00  0.00    -0.340 N 
ATOM     15  C   UNL     1      -0.428  -0.963 -10.516  1.00  0.00     0.243 C 
ATOM     16  O   UNL     1      -0.692  -0.505 -11.627  1.00  0.00    -0.273 OA
ATOM     17  H   UNL     1      -1.065  -2.030  -8.867  1.00  0.00     0.164 HD
BRANCH  15  18
ATOM     18  C   UNL     1       1.008  -1.063  -9.947  1.00  0.00     0.171 C 
BRANCH  18  19
ATOM     19  N   UNL     1       1.915  -0.681 -11.027  1.00  0.00    -0.343 N 
ATOM     20  C   UNL     1       2.646  -1.619 -11.732  1.00  0.00     0.242 CG0
ATOM     21  O   UNL     1       2.669  -2.800 -11.397  1.00  0.00    -0.273 OA
ATOM     22  H   UNL     1       2.019   0.299 -11.266  1.00  0.00     0.164 HD
ATOM     23  G   UNL     1       3.486  -1.034 -12.886  1.00  0.00     0.000 G0
ENDBRANCH  18  19
BRANCH  18  24
ATOM     24  C   UNL     1       1.172  -0.150  -8.726  1.00  0.00     0.038 C 
BRANCH  24  25
ATOM     25  C   UNL     1       0.740   1.314  -8.954  1.00  0.00    -0.015 C 
ATOM     26  C   UNL     1       1.906   2.295  -8.824  1.00  0.00     0.007 C 
ATOM     27  C   UNL     1      -0.361   1.688  -7.959  1.00  0.00     0.007 C 
ENDBRANCH  24  25
ENDBRANCH  18  24
ENDBRANCH  15  18
ENDBRANCH  13  14
BRANCH  13  28
ATOM     28  C   UNL     1      -3.142  -3.187  -9.853  1.00  0.00     0.327 C 
ATOM     29  O   UNL     1      -4.192  -3.736 -10.150  1.00  0.00    -0.250 OA
BRANCH  28  30
ATOM     30  O   UNL     1      -2.215  -3.836  -9.119  1.00  0.00    -0.480 OA
ATOM     31  H   UNL     1      -1.395  -3.767  -9.651  1.00  0.00     0.296 HD
ENDBRANCH  28  30
ENDBRANCH  13  28
ENDBRANCH  11  13
ENDBRANCH   8  11
ENDBRANCH   6   7
BRANCH   6  32
ATOM     32  C   UNL     1      -5.233  -0.187  -5.128  1.00  0.00     0.037 C 
BRANCH  32  33
ATOM     33  C   UNL     1      -6.034   0.793  -5.996  1.00  0.00     0.026 C 
BRANCH  33  34
ATOM     34  C   UNL     1      -5.260   2.077  -6.296  1.00  0.00     0.146 C 
BRANCH  34  35
ATOM     35  N   UNL     1      -4.307   2.313  -5.220  1.00  0.00    -0.254 NA
ATOM     36  C   UNL     1      -4.584   3.199  -4.337  1.00  0.00     0.185 C 
ATOM     37  N   UNL     1      -3.715   3.421  -3.339  1.00  0.00    -0.370 N 
ATOM     38  N   UNL     1      -5.669   3.988  -4.244  1.00  0.00    -0.370 N 
ATOM     39  H   UNL     1      -2.875   2.856  -3.334  1.00  0.00     0.159 HD
ATOM     40  H   UNL     1      -3.934   3.965  -2.522  1.00  0.00     0.159 HD
ATOM     41  H   UNL     1      -5.707   4.744  -3.581  1.00  0.00     0.159 HD
ATOM     42  H   UNL     1      -6.399   3.940  -4.938  1.00  0.00     0.159 HD
ENDBRANCH  34  35
ENDBRANCH  33  34
ENDBRANCH  32  33
ENDBRANCH   6  32
ENDBRANCH   4   6
ENDBRANCH   1   2
BRANCH   1  43
ATOM     43  C   UNL     1      -9.310  -2.193  -4.471  1.00  0.00     0.102 C 
ATOM     44  C   UNL     1      -9.219  -1.313  -5.729  1.00  0.00     0.020 C 
BRANCH  43  45
ATOM     45  C   UNL     1      -9.801  -1.449  -3.226  1.00  0.00     0.225 C 
ATOM     46  O   UNL     1     -10.512  -1.969  -2.370  1.00  0.00    -0.275 OA
ATOM     47  N   UNL     1      -9.473  -0.114  -3.166  1.00  0.00    -0.342 N 
ATOM     48  H   UNL     1      -8.770   0.257  -3.789  1.00  0.00     0.164 HD
BRANCH  47  49
ATOM     49  C   UNL     1      -9.845   0.716  -2.016  1.00  0.00     0.192 C 
BRANCH  49  50
ATOM     50  C   UNL     1     -11.353   0.978  -2.038  1.00  0.00     0.047 C 
BRANCH  50  51
ATOM     51  C   UNL     1     -11.839   1.466  -3.410  1.00  0.00     0.103 C 
BRANCH  51  52
ATOM     52  C   UNL     1     -13.095   0.727  -3.869  1.00  0.00     0.226 C 
ATOM     53  O   UNL     1     -13.032  -0.474  -4.138  1.00  0.00    -0.275 OA
BRANCH  52  54
ATOM     54  N   UNL     1     -14.289   1.471  -3.884  1.00  0.00    -0.311 N 
ATOM     55  C   UNL     1     -14.529   2.536  -2.901  1.00  0.00     0.153 C 
BRANCH  54  56
ATOM     56  C   UNL     1     -15.291   1.229  -4.839  1.00  0.00     0.102 C 
ATOM     57  C   UNL     1     -15.303   1.732  -6.084  1.00  0.00     0.043 C 
BRANCH  56  58
ATOM     58  C   UNL     1     -16.450   0.310  -4.531  1.00  0.00     0.268 C 
ATOM     59  O   UNL     1     -17.579   0.715  -4.291  1.00  0.00    -0.268 OA
ATOM     60  N   UNL     1     -16.120  -1.022  -4.613  1.00  0.00    -0.339 N 
ATOM     61  H   UNL     1     -15.158  -1.274  -4.807  1.00  0.00     0.164 HD
BRANCH  60  62
ATOM     62  C   UNL     1     -17.107  -2.082  -4.413  1.00  0.00     0.168 CG0
ATOM     63  C   UNL     1     -17.615  -2.615  -5.748  1.00  0.00     0.041 C 
ATOM     64  G   UNL     1     -18.274  -1.547  -3.559  1.00  0.00     0.000 G0
ENDBRANCH  60  62
ENDBRANCH  56  58
ENDBRANCH  54  56
ENDBRANCH  52  54
ENDBRANCH  51  52
ENDBRANCH  50  51
ENDBRANCH  49  50
BRANCH  49  65
ATOM     65  C   UNL     1      -9.095   2.057  -2.018  1.00  0.00     0.326 C 
ATOM     66  O   UNL     1      -9.478   3.086  -1.480  1.00  0.00    -0.250 OA
BRANCH  65  67
ATOM     67  O   UNL     1      -7.949   2.061  -2.734  1.00  0.00    -0.480 OA
ATOM     68  H   UNL     1      -7.657   2.997  -2.697  1.00  0.00     0.296 HD
ENDBRANCH  65  67
ENDBRANCH  49  65
ENDBRANCH  47  49
ENDBRANCH  43  45
ENDBRANCH   1  43
BRANCH   1  69
ATOM     69  C   UNL     1      -7.713  -3.406  -2.742  1.00  0.00    -0.001 C 
ATOM     70  C   UNL     1      -6.723  -4.209  -2.313  1.00  0.00     0.001 C 
BRANCH  70  71
ATOM     71  C   UNL     1      -6.441  -4.594  -0.929  1.00  0.00    -0.055 C 
ATOM     72  C   UNL     1      -7.070  -3.915   0.052  1.00  0.00    -0.018 C 
ATOM     73  C   UNL     1      -5.475  -5.727  -0.699  1.00  0.00     0.044 C 
BRANCH  72  74
ATOM     74  C   UNL     1      -6.977  -4.095   1.561  1.00  0.00     0.038 C 
ATOM     75  C   UNL     1      -7.957  -5.209   1.946  1.00  0.00     0.015 C 
BRANCH  74  76
ATOM     76  C   UNL     1      -7.246  -2.723   2.246  1.00  0.00     0.128 C 
BRANCH  76  77
ATOM     77  O   UNL     1      -6.367  -2.555   3.371  1.00  0.00    -0.381 OA
ATOM     78  C   UNL     1      -5.199  -3.363   3.309  1.00  0.00     0.195 C 
ENDBRANCH  76  77
BRANCH  76  79
ATOM     79  C   UNL     1      -7.213  -1.516   1.275  1.00  0.00     0.068 C 
BRANCH  79  80
ATOM     80  C   UNL     1      -8.238  -0.425   1.467  1.00  0.00    -0.045 A 
ATOM     81  C   UNL     1      -9.606  -0.723   1.533  1.00  0.00     0.004 A 
ATOM     82  C   UNL     1      -7.836   0.916   1.554  1.00  0.00     0.004 A 
ATOM     83  C   UNL     1     -10.549   0.294   1.696  1.00  0.00     0.000 A 
ATOM     84  C   UNL     1      -8.780   1.932   1.717  1.00  0.00     0.000 A 
ATOM     85  C   UNL     1     -10.136   1.621   1.790  1.00  0.00     0.000 A 
ENDBRANCH  79  80
ENDBRANCH  76  79
ENDBRANCH  74  76
ENDBRANCH  72  74
ENDBRANCH  70  71
ENDBRANCH   1  69
TORSDOF 17
ENDMDL
MODEL 29
REMARK VINA RESULT:    -6.022      3.028     11.330
REMARK INTER + INTRA:         -25.602
REMARK INTER:                 -16.828
REMARK INTRA:                  -8.774
REMARK UNBOUND:                -7.611
REMARK SMILES C=C1C(=O)N[C@H](C)C(=O)N[C@@H](CC(C)C)C(=O)N[C@@H](C(=O)O)[C@H](C)C(=O)N[C@@H](CCCN=C(N)N)C(=O)N[C@@H](/C=C/C(C)=C/[C@H](C)[C@H](Cc2ccccc2)OC)[C@H](C)C(=O)N[C@@H](C(=O)O)CCC(=O)N1C
REMARK SMILES IDX 39 1 38 2 37 3 36 4 28 6 27 7 25 8 26 9 23 11 24 12 19 13
REMARK SMILES IDX 18 14 16 15 17 16 11 18 10 19 8 20 9 21 12 24 13 25 14 26
REMARK SMILES IDX 15 27 20 28 21 29 22 30 29 32 30 33 31 34 32 35 33 36 34 37
REMARK SMILES IDX 35 38 57 43 58 44 59 45 60 46 61 47 62 49 66 50 67 51 68 52
REMARK SMILES IDX 69 53 70 54 71 55 2 56 1 57 3 58 4 59 5 60 6 62 7 63 63 65
REMARK SMILES IDX 64 66 65 67 40 69 41 70 42 71 44 72 43 73 45 74 46 75 47 76
REMARK SMILES IDX 55 77 56 78 48 79 49 80 50 81 54 82 51 83 53 84 52 85
REMARK H PARENT 38 5 27 10 18 17 10 22 22 31 34 39 34 40 35 41 35 42 61 48
REMARK H PARENT 5 61 65 68
REMARK Flexibility Score:  369.900
ROOT
ATOM      1  C   UNL     1      -5.903   3.247  -6.798  1.00  0.00     0.117 C 
ENDROOT
BRANCH   1   2
ATOM      2  N   UNL     1      -6.785   2.545  -5.865  1.00  0.00    -0.347 N 
ATOM      3  O   UNL     1      -5.772   0.488  -5.964  1.00  0.00    -0.273 OA
ATOM      4  C   UNL     1      -6.593   1.241  -5.451  1.00  0.00     0.243 C 
ATOM      5  H   UNL     1      -7.559   3.040  -5.449  1.00  0.00     0.164 HD
BRANCH   4   6
ATOM      6  C   UNL     1      -7.621   0.765  -4.394  1.00  0.00     0.171 C 
BRANCH   6   7
ATOM      7  N   UNL     1      -8.891   0.398  -5.040  1.00  0.00    -0.344 N 
ATOM      8  C   UNL     1      -9.922   1.308  -5.129  1.00  0.00     0.226 C 
ATOM      9  O   UNL     1      -9.846   2.440  -4.665  1.00  0.00    -0.275 OA
ATOM     10  H   UNL     1      -9.016  -0.549  -5.375  1.00  0.00     0.164 HD
BRANCH   8  11
ATOM     11  C   UNL     1     -11.145   0.798  -5.871  1.00  0.00     0.109 C 
ATOM     12  C   UNL     1     -10.720   0.061  -7.141  1.00  0.00     0.021 C 
BRANCH  11  13
ATOM     13  C   UNL     1     -12.032  -0.022  -4.912  1.00  0.00     0.204 C 
BRANCH  13  14
ATOM     14  N   UNL     1     -11.654   0.173  -3.509  1.00  0.00    -0.340 N 
ATOM     15  C   UNL     1     -11.316  -0.869  -2.673  1.00  0.00     0.243 C 
ATOM     16  O   UNL     1     -11.248  -2.033  -3.064  1.00  0.00    -0.273 OA
ATOM     17  H   UNL     1     -11.836   1.087  -3.085  1.00  0.00     0.164 HD
BRANCH  15  18
ATOM     18  C   UNL     1     -11.159  -0.448  -1.192  1.00  0.00     0.171 C 
BRANCH  18  19
ATOM     19  N   UNL     1     -12.233  -1.108  -0.452  1.00  0.00    -0.343 N 
ATOM     20  C   UNL     1     -13.106  -0.401   0.352  1.00  0.00     0.242 CG0
ATOM     21  O   UNL     1     -12.939   0.793   0.589  1.00  0.00    -0.273 OA
ATOM     22  H   UNL     1     -12.341  -2.114  -0.524  1.00  0.00     0.164 HD
ATOM     23  G   UNL     1     -14.220  -1.257   0.988  1.00  0.00     0.000 G0
ENDBRANCH  18  19
BRANCH  18  24
ATOM     24  C   UNL     1      -9.779  -0.851  -0.658  1.00  0.00     0.038 C 
BRANCH  24  25
ATOM     25  C   UNL     1      -8.961   0.307  -0.046  1.00  0.00    -0.015 C 
ATOM     26  C   UNL     1      -9.455   0.701   1.346  1.00  0.00     0.007 C 
ATOM     27  C   UNL     1      -9.015   1.522  -0.976  1.00  0.00     0.007 C 
ENDBRANCH  24  25
ENDBRANCH  18  24
ENDBRANCH  15  18
ENDBRANCH  13  14
BRANCH  13  28
ATOM     28  C   UNL     1     -13.521   0.314  -5.033  1.00  0.00     0.327 C 
ATOM     29  O   UNL     1     -14.168   1.013  -4.268  1.00  0.00    -0.250 OA
BRANCH  28  30
ATOM     30  O   UNL     1     -14.132  -0.345  -6.038  1.00  0.00    -0.480 OA
ATOM     31  H   UNL     1     -13.396  -0.725  -6.560  1.00  0.00     0.296 HD
ENDBRANCH  28  30
ENDBRANCH  13  28
ENDBRANCH  11  13
ENDBRANCH   8  11
ENDBRANCH   6   7
BRANCH   6  32
ATOM     32  C   UNL     1      -7.036  -0.424  -3.623  1.00  0.00     0.037 C 
BRANCH  32  33
ATOM     33  C   UNL     1      -7.852  -1.707  -3.830  1.00  0.00     0.026 C 
BRANCH  33  34
ATOM     34  C   UNL     1      -6.974  -2.958  -3.883  1.00  0.00     0.146 C 
BRANCH  34  35
ATOM     35  N   UNL     1      -6.512  -3.150  -5.251  1.00  0.00    -0.254 NA
ATOM     36  C   UNL     1      -5.277  -2.940  -5.518  1.00  0.00     0.185 C 
ATOM     37  N   UNL     1      -4.839  -3.119  -6.773  1.00  0.00    -0.370 N 
ATOM     38  N   UNL     1      -4.290  -2.545  -4.693  1.00  0.00    -0.370 N 
ATOM     39  H   UNL     1      -5.523  -3.427  -7.453  1.00  0.00     0.159 HD
ATOM     40  H   UNL     1      -3.866  -3.144  -7.025  1.00  0.00     0.159 HD
ATOM     41  H   UNL     1      -3.387  -2.279  -5.052  1.00  0.00     0.159 HD
ATOM     42  H   UNL     1      -4.478  -2.357  -3.721  1.00  0.00     0.159 HD
ENDBRANCH  34  35
ENDBRANCH  33  34
ENDBRANCH  32  33
ENDBRANCH   6  32
ENDBRANCH   4   6
ENDBRANCH   1   2
BRANCH   1  43
ATOM     43  C   UNL     1      -4.888   4.094  -5.977  1.00  0.00     0.102 C 
ATOM     44  C   UNL     1      -4.730   5.533  -6.497  1.00  0.00     0.020 C 
BRANCH  43  45
ATOM     45  C   UNL     1      -3.562   3.348  -5.802  1.00  0.00     0.225 C 
ATOM     46  O   UNL     1      -2.734   3.642  -4.945  1.00  0.00    -0.275 OA
ATOM     47  N   UNL     1      -3.305   2.371  -6.737  1.00  0.00    -0.342 N 
ATOM     48  H   UNL     1      -4.050   2.041  -7.333  1.00  0.00     0.164 HD
BRANCH  47  49
ATOM     49  C   UNL     1      -2.091   1.551  -6.673  1.00  0.00     0.192 C 
BRANCH  49  50
ATOM     50  C   UNL     1      -1.451   1.472  -8.061  1.00  0.00     0.047 C 
BRANCH  50  51
ATOM     51  C   UNL     1      -0.259   0.506  -8.098  1.00  0.00     0.103 C 
BRANCH  51  52
ATOM     52  C   UNL     1      -0.431  -0.576  -9.162  1.00  0.00     0.226 C 
ATOM     53  O   UNL     1      -0.820  -1.699  -8.833  1.00  0.00    -0.275 OA
BRANCH  52  54
ATOM     54  N   UNL     1      -0.200  -0.188 -10.495  1.00  0.00    -0.311 N 
ATOM     55  C   UNL     1      -1.314   0.178 -11.380  1.00  0.00     0.153 C 
BRANCH  54  56
ATOM     56  C   UNL     1       1.099  -0.130 -11.026  1.00  0.00     0.102 C 
ATOM     57  C   UNL     1       1.853   0.979 -11.094  1.00  0.00     0.043 C 
BRANCH  56  58
ATOM     58  C   UNL     1       1.784  -1.376 -11.538  1.00  0.00     0.268 C 
ATOM     59  O   UNL     1       1.554  -1.863 -12.636  1.00  0.00    -0.268 OA
ATOM     60  N   UNL     1       2.734  -1.864 -10.673  1.00  0.00    -0.339 N 
ATOM     61  H   UNL     1       2.857  -1.409  -9.776  1.00  0.00     0.164 HD
BRANCH  60  62
ATOM     62  C   UNL     1       3.559  -3.027 -10.998  1.00  0.00     0.168 CG0
ATOM     63  C   UNL     1       3.412  -4.115  -9.941  1.00  0.00     0.041 C 
ATOM     64  G   UNL     1       5.033  -2.593 -11.133  1.00  0.00     0.000 G0
ENDBRANCH  60  62
ENDBRANCH  56  58
ENDBRANCH  54  56
ENDBRANCH  52  54
ENDBRANCH  51  52
ENDBRANCH  50  51
ENDBRANCH  49  50
BRANCH  49  65
ATOM     65  C   UNL     1      -2.393   0.130  -6.171  1.00  0.00     0.326 C 
ATOM     66  O   UNL     1      -1.968  -0.363  -5.136  1.00  0.00    -0.250 OA
BRANCH  65  67
ATOM     67  O   UNL     1      -3.152  -0.614  -7.006  1.00  0.00    -0.480 OA
ATOM     68  H   UNL     1      -2.532  -0.856  -7.728  1.00  0.00     0.296 HD
ENDBRANCH  65  67
ENDBRANCH  49  65
ENDBRANCH  47  49
ENDBRANCH  43  45
ENDBRANCH   1  43
BRANCH   1  69
ATOM     69  C   UNL     1      -6.809   3.949  -7.792  1.00  0.00    -0.001 C 
ATOM     70  C   UNL     1      -6.719   3.930  -9.134  1.00  0.00     0.001 C 
BRANCH  70  71
ATOM     71  C   UNL     1      -7.613   4.595 -10.085  1.00  0.00    -0.055 C 
ATOM     72  C   UNL     1      -8.557   5.421  -9.586  1.00  0.00    -0.018 C 
ATOM     73  C   UNL     1      -7.412   4.315 -11.551  1.00  0.00     0.044 C 
BRANCH  72  74
ATOM     74  C   UNL     1      -9.608   6.238 -10.324  1.00  0.00     0.038 C 
ATOM     75  C   UNL     1      -9.175   7.707 -10.248  1.00  0.00     0.015 C 
BRANCH  74  76
ATOM     76  C   UNL     1     -11.004   5.937  -9.702  1.00  0.00     0.128 C 
BRANCH  76  77
ATOM     77  O   UNL     1     -12.015   5.979 -10.723  1.00  0.00    -0.381 OA
ATOM     78  C   UNL     1     -13.288   6.395 -10.249  1.00  0.00     0.195 C 
ENDBRANCH  76  77
BRANCH  76  79
ATOM     79  C   UNL     1     -11.051   4.634  -8.864  1.00  0.00     0.068 C 
BRANCH  79  80
ATOM     80  C   UNL     1     -11.493   4.735  -7.424  1.00  0.00    -0.045 A 
ATOM     81  C   UNL     1     -10.798   5.540  -6.511  1.00  0.00     0.004 A 
ATOM     82  C   UNL     1     -12.596   3.998  -6.970  1.00  0.00     0.004 A 
ATOM     83  C   UNL     1     -11.205   5.617  -5.178  1.00  0.00     0.000 A 
ATOM     84  C   UNL     1     -13.001   4.075  -5.635  1.00  0.00     0.000 A 
ATOM     85  C   UNL     1     -12.307   4.886  -4.740  1.00  0.00     0.000 A 
ENDBRANCH  79  80
ENDBRANCH  76  79
ENDBRANCH  74  76
ENDBRANCH  72  74
ENDBRANCH  70  71
ENDBRANCH   1  69
TORSDOF 17
ENDMDL
MODEL 30
REMARK VINA RESULT:    -6.003      4.305     13.684
REMARK INTER + INTRA:         -25.546
REMARK INTER:                 -17.761
REMARK INTRA:                  -7.786
REMARK UNBOUND:                -7.611
REMARK SMILES C=C1C(=O)N[C@H](C)C(=O)N[C@@H](CC(C)C)C(=O)N[C@@H](C(=O)O)[C@H](C)C(=O)N[C@@H](CCCN=C(N)N)C(=O)N[C@@H](/C=C/C(C)=C/[C@H](C)[C@H](Cc2ccccc2)OC)[C@H](C)C(=O)N[C@@H](C(=O)O)CCC(=O)N1C
REMARK SMILES IDX 39 1 38 2 37 3 36 4 28 6 27 7 25 8 26 9 23 11 24 12 19 13
REMARK SMILES IDX 18 14 16 15 17 16 11 18 10 19 8 20 9 21 12 24 13 25 14 26
REMARK SMILES IDX 15 27 20 28 21 29 22 30 29 32 30 33 31 34 32 35 33 36 34 37
REMARK SMILES IDX 35 38 57 43 58 44 59 45 60 46 61 47 62 49 66 50 67 51 68 52
REMARK SMILES IDX 69 53 70 54 71 55 2 56 1 57 3 58 4 59 5 60 6 62 7 63 63 65
REMARK SMILES IDX 64 66 65 67 40 69 41 70 42 71 44 72 43 73 45 74 46 75 47 76
REMARK SMILES IDX 55 77 56 78 48 79 49 80 50 81 54 82 51 83 53 84 52 85
REMARK H PARENT 38 5 27 10 18 17 10 22 22 31 34 39 34 40 35 41 35 42 61 48
REMARK H PARENT 5 61 65 68
REMARK Flexibility Score:  369.900
ROOT
ATOM      1  C   UNL     1      -8.353   2.625  -4.385  1.00  0.00     0.117 C 
ENDROOT
BRANCH   1   2
ATOM      2  N   UNL     1      -9.481   3.199  -5.120  1.00  0.00    -0.347 N 
ATOM      3  O   UNL     1      -8.567   5.265  -5.530  1.00  0.00    -0.273 OA
ATOM      4  C   UNL     1      -9.461   4.446  -5.715  1.00  0.00     0.243 C 
ATOM      5  H   UNL     1     -10.315   2.649  -5.255  1.00  0.00     0.164 HD
BRANCH   4   6
ATOM      6  C   UNL     1     -10.752   4.779  -6.505  1.00  0.00     0.171 C 
BRANCH   6   7
ATOM      7  N   UNL     1     -11.905   4.068  -5.931  1.00  0.00    -0.344 N 
ATOM      8  C   UNL     1     -12.827   3.449  -6.747  1.00  0.00     0.226 C 
ATOM      9  O   UNL     1     -12.750   3.477  -7.970  1.00  0.00    -0.275 OA
ATOM     10  H   UNL     1     -12.039   4.080  -4.927  1.00  0.00     0.164 HD
BRANCH   8  11
ATOM     11  C   UNL     1     -13.927   2.712  -6.003  1.00  0.00     0.109 C 
ATOM     12  C   UNL     1     -15.048   2.327  -6.968  1.00  0.00     0.021 C 
BRANCH  11  13
ATOM     13  C   UNL     1     -13.322   1.536  -5.210  1.00  0.00     0.204 C 
BRANCH  13  14
ATOM     14  N   UNL     1     -14.355   0.680  -4.619  1.00  0.00    -0.340 N 
ATOM     15  C   UNL     1     -15.101   1.055  -3.523  1.00  0.00     0.243 C 
ATOM     16  O   UNL     1     -14.993   2.161  -2.998  1.00  0.00    -0.273 OA
ATOM     17  H   UNL     1     -14.389  -0.301  -4.909  1.00  0.00     0.164 HD
BRANCH  15  18
ATOM     18  C   UNL     1     -15.978  -0.087  -2.952  1.00  0.00     0.171 C 
BRANCH  18  19
ATOM     19  N   UNL     1     -15.755  -0.104  -1.507  1.00  0.00    -0.343 N 
ATOM     20  C   UNL     1     -15.182  -1.188  -0.871  1.00  0.00     0.242 CG0
ATOM     21  O   UNL     1     -14.956  -2.238  -1.467  1.00  0.00    -0.273 OA
ATOM     22  H   UNL     1     -16.033   0.698  -0.952  1.00  0.00     0.164 HD
ATOM     23  G   UNL     1     -14.955  -0.991   0.642  1.00  0.00     0.000 G0
ENDBRANCH  18  19
BRANCH  18  24
ATOM     24  C   UNL     1     -17.456   0.145  -3.290  1.00  0.00     0.038 C 
BRANCH  24  25
ATOM     25  C   UNL     1     -17.991  -0.710  -4.458  1.00  0.00    -0.015 C 
ATOM     26  C   UNL     1     -19.453  -1.115  -4.265  1.00  0.00     0.007 C 
ATOM     27  C   UNL     1     -17.126  -1.963  -4.618  1.00  0.00     0.007 C 
ENDBRANCH  24  25
ENDBRANCH  18  24
ENDBRANCH  15  18
ENDBRANCH  13  14
BRANCH  13  28
ATOM     28  C   UNL     1     -12.417   0.637  -6.058  1.00  0.00     0.327 C 
ATOM     29  O   UNL     1     -12.781  -0.279  -6.780  1.00  0.00    -0.250 OA
BRANCH  28  30
ATOM     30  O   UNL     1     -11.104   0.867  -5.856  1.00  0.00    -0.480 OA
ATOM     31  H   UNL     1     -10.799   1.273  -6.694  1.00  0.00     0.296 HD
ENDBRANCH  28  30
ENDBRANCH  13  28
ENDBRANCH  11  13
ENDBRANCH   8  11
ENDBRANCH   6   7
BRANCH   6  32
ATOM     32  C   UNL     1     -10.978   6.295  -6.483  1.00  0.00     0.037 C 
BRANCH  32  33
ATOM     33  C   UNL     1     -11.239   6.862  -7.885  1.00  0.00     0.026 C 
BRANCH  33  34
ATOM     34  C   UNL     1     -10.054   7.667  -8.421  1.00  0.00     0.146 C 
BRANCH  34  35
ATOM     35  N   UNL     1      -9.074   6.745  -8.978  1.00  0.00    -0.254 NA
ATOM     36  C   UNL     1      -9.117   6.485 -10.231  1.00  0.00     0.185 C 
ATOM     37  N   UNL     1      -8.215   5.641 -10.756  1.00  0.00    -0.370 N 
ATOM     38  N   UNL     1      -9.970   6.950 -11.161  1.00  0.00    -0.370 N 
ATOM     39  H   UNL     1      -7.530   5.256 -10.118  1.00  0.00     0.159 HD
ATOM     40  H   UNL     1      -8.073   5.522 -11.744  1.00  0.00     0.159 HD
ATOM     41  H   UNL     1      -9.989   6.563 -12.090  1.00  0.00     0.159 HD
ATOM     42  H   UNL     1     -10.713   7.582 -10.906  1.00  0.00     0.159 HD
ENDBRANCH  34  35
ENDBRANCH  33  34
ENDBRANCH  32  33
ENDBRANCH   6  32
ENDBRANCH   4   6
ENDBRANCH   1   2
BRANCH   1  43
ATOM     43  C   UNL     1      -7.740   1.476  -5.237  1.00  0.00     0.102 C 
ATOM     44  C   UNL     1      -7.203   0.308  -4.392  1.00  0.00     0.020 C 
BRANCH  43  45
ATOM     45  C   UNL     1      -6.734   2.022  -6.254  1.00  0.00     0.225 C 
ATOM     46  O   UNL     1      -6.429   1.424  -7.282  1.00  0.00    -0.275 OA
ATOM     47  N   UNL     1      -6.112   3.197  -5.900  1.00  0.00    -0.342 N 
ATOM     48  H   UNL     1      -6.479   3.747  -5.137  1.00  0.00     0.164 HD
BRANCH  47  49
ATOM     49  C   UNL     1      -5.152   3.854  -6.792  1.00  0.00     0.192 C 
BRANCH  49  50
ATOM     50  C   UNL     1      -3.796   3.973  -6.091  1.00  0.00     0.047 C 
BRANCH  50  51
ATOM     51  C   UNL     1      -2.971   2.684  -6.196  1.00  0.00     0.103 C 
BRANCH  51  52
ATOM     52  C   UNL     1      -1.989   2.725  -7.364  1.00  0.00     0.226 C 
ATOM     53  O   UNL     1      -1.863   3.761  -8.020  1.00  0.00    -0.275 OA
BRANCH  52  54
ATOM     54  N   UNL     1      -1.215   1.568  -7.574  1.00  0.00    -0.311 N 
ATOM     55  C   UNL     1      -1.195   0.482  -6.585  1.00  0.00     0.153 C 
BRANCH  54  56
ATOM     56  C   UNL     1      -0.442   1.405  -8.735  1.00  0.00     0.102 C 
ATOM     57  C   UNL     1      -0.909   0.964  -9.915  1.00  0.00     0.043 C 
BRANCH  56  58
ATOM     58  C   UNL     1       1.023   1.773  -8.748  1.00  0.00     0.268 C 
ATOM     59  O   UNL     1       1.922   0.943  -8.761  1.00  0.00    -0.268 OA
ATOM     60  N   UNL     1       1.239   3.129  -8.812  1.00  0.00    -0.339 N 
ATOM     61  H   UNL     1       0.440   3.751  -8.787  1.00  0.00     0.164 HD
BRANCH  60  62
ATOM     62  C   UNL     1       2.582   3.701  -8.896  1.00  0.00     0.168 CG0
ATOM     63  C   UNL     1       2.800   4.388 -10.238  1.00  0.00     0.041 C 
ATOM     64  G   UNL     1       3.631   2.591  -8.675  1.00  0.00     0.000 G0
ENDBRANCH  60  62
ENDBRANCH  56  58
ENDBRANCH  54  56
ENDBRANCH  52  54
ENDBRANCH  51  52
ENDBRANCH  50  51
ENDBRANCH  49  50
BRANCH  49  65
ATOM     65  C   UNL     1      -5.633   5.252  -7.210  1.00  0.00     0.326 C 
ATOM     66  O   UNL     1      -5.130   6.311  -6.863  1.00  0.00    -0.250 OA
BRANCH  65  67
ATOM     67  O   UNL     1      -6.742   5.259  -7.982  1.00  0.00    -0.480 OA
ATOM     68  H   UNL     1      -7.476   5.311  -7.333  1.00  0.00     0.296 HD
ENDBRANCH  65  67
ENDBRANCH  49  65
ENDBRANCH  47  49
ENDBRANCH  43  45
ENDBRANCH   1  43
BRANCH   1  69
ATOM     69  C   UNL     1      -8.870   2.311  -2.993  1.00  0.00    -0.001 C 
ATOM     70  C   UNL     1     -10.132   2.009  -2.639  1.00  0.00     0.001 C 
BRANCH  70  71
ATOM     71  C   UNL     1     -10.616   1.686  -1.295  1.00  0.00    -0.055 C 
ATOM     72  C   UNL     1      -9.696   1.412  -0.347  1.00  0.00    -0.018 C 
ATOM     73  C   UNL     1     -12.104   1.692  -1.064  1.00  0.00     0.044 C 
BRANCH  72  74
ATOM     74  C   UNL     1      -9.900   1.051   1.118  1.00  0.00     0.038 C 
ATOM     75  C   UNL     1      -9.006   1.984   1.943  1.00  0.00     0.015 C 
BRANCH  74  76
ATOM     76  C   UNL     1      -9.610  -0.467   1.305  1.00  0.00     0.128 C 
BRANCH  76  77
ATOM     77  O   UNL     1      -9.982  -0.878   2.632  1.00  0.00    -0.381 OA
ATOM     78  C   UNL     1      -9.034  -1.737   3.250  1.00  0.00     0.195 C 
ENDBRANCH  76  77
BRANCH  76  79
ATOM     79  C   UNL     1     -10.226  -1.366   0.204  1.00  0.00     0.068 C 
BRANCH  79  80
ATOM     80  C   UNL     1      -9.300  -1.940  -0.840  1.00  0.00    -0.045 A 
ATOM     81  C   UNL     1      -9.765  -2.254  -2.124  1.00  0.00     0.004 A 
ATOM     82  C   UNL     1      -7.956  -2.196  -0.530  1.00  0.00     0.004 A 
ATOM     83  C   UNL     1      -8.905  -2.797  -3.080  1.00  0.00     0.000 A 
ATOM     84  C   UNL     1      -7.097  -2.741  -1.487  1.00  0.00     0.000 A 
ATOM     85  C   UNL     1      -7.571  -3.040  -2.762  1.00  0.00     0.000 A 
ENDBRANCH  79  80
ENDBRANCH  76  79
ENDBRANCH  74  76
ENDBRANCH  72  74
ENDBRANCH  70  71
ENDBRANCH   1  69
TORSDOF 17
ENDMDL
MODEL 31
REMARK VINA RESULT:    -6.003      6.286     11.824
REMARK INTER + INTRA:         -25.545
REMARK INTER:                 -17.341
REMARK INTRA:                  -8.204
REMARK UNBOUND:                -7.611
REMARK SMILES C=C1C(=O)N[C@H](C)C(=O)N[C@@H](CC(C)C)C(=O)N[C@@H](C(=O)O)[C@H](C)C(=O)N[C@@H](CCCN=C(N)N)C(=O)N[C@@H](/C=C/C(C)=C/[C@H](C)[C@H](Cc2ccccc2)OC)[C@H](C)C(=O)N[C@@H](C(=O)O)CCC(=O)N1C
REMARK SMILES IDX 39 1 38 2 37 3 36 4 28 6 27 7 25 8 26 9 23 11 24 12 19 13
REMARK SMILES IDX 18 14 16 15 17 16 11 18 10 19 8 20 9 21 12 24 13 25 14 26
REMARK SMILES IDX 15 27 20 28 21 29 22 30 29 32 30 33 31 34 32 35 33 36 34 37
REMARK SMILES IDX 35 38 57 43 58 44 59 45 60 46 61 47 62 49 66 50 67 51 68 52
REMARK SMILES IDX 69 53 70 54 71 55 2 56 1 57 3 58 4 59 5 60 6 62 7 63 63 65
REMARK SMILES IDX 64 66 65 67 40 69 41 70 42 71 44 72 43 73 45 74 46 75 47 76
REMARK SMILES IDX 55 77 56 78 48 79 49 80 50 81 54 82 51 83 53 84 52 85
REMARK H PARENT 38 5 27 10 18 17 10 22 22 31 34 39 34 40 35 41 35 42 61 48
REMARK H PARENT 5 61 65 68
REMARK Flexibility Score:  369.900
ROOT
ATOM      1  C   UNL     1     -11.425   3.294  -4.556  1.00  0.00     0.117 C 
ENDROOT
BRANCH   1   2
ATOM      2  N   UNL     1      -9.993   2.999  -4.606  1.00  0.00    -0.347 N 
ATOM      3  O   UNL     1     -10.148   0.803  -5.257  1.00  0.00    -0.273 OA
ATOM      4  C   UNL     1      -9.465   1.800  -5.043  1.00  0.00     0.243 C 
ATOM      5  H   UNL     1      -9.331   3.719  -4.358  1.00  0.00     0.164 HD
BRANCH   4   6
ATOM      6  C   UNL     1      -7.916   1.777  -5.080  1.00  0.00     0.171 C 
BRANCH   6   7
ATOM      7  N   UNL     1      -7.432   0.483  -5.588  1.00  0.00    -0.344 N 
ATOM      8  C   UNL     1      -6.798  -0.408  -4.750  1.00  0.00     0.226 C 
ATOM      9  O   UNL     1      -6.588  -0.168  -3.568  1.00  0.00    -0.275 OA
ATOM     10  H   UNL     1      -7.528   0.277  -6.575  1.00  0.00     0.164 HD
BRANCH   8  11
ATOM     11  C   UNL     1      -6.408  -1.719  -5.411  1.00  0.00     0.109 C 
ATOM     12  C   UNL     1      -4.920  -1.993  -5.198  1.00  0.00     0.021 C 
BRANCH  11  13
ATOM     13  C   UNL     1      -7.349  -2.843  -4.935  1.00  0.00     0.204 C 
BRANCH  13  14
ATOM     14  N   UNL     1      -7.312  -3.015  -3.479  1.00  0.00    -0.340 N 
ATOM     15  C   UNL     1      -6.636  -4.046  -2.864  1.00  0.00     0.243 C 
ATOM     16  O   UNL     1      -5.965  -4.863  -3.493  1.00  0.00    -0.273 OA
ATOM     17  H   UNL     1      -7.966  -2.467  -2.914  1.00  0.00     0.164 HD
BRANCH  15  18
ATOM     18  C   UNL     1      -6.909  -4.145  -1.343  1.00  0.00     0.171 C 
BRANCH  18  19
ATOM     19  N   UNL     1      -5.765  -4.841  -0.757  1.00  0.00    -0.343 N 
ATOM     20  C   UNL     1      -5.879  -6.114  -0.231  1.00  0.00     0.242 CG0
ATOM     21  O   UNL     1      -6.970  -6.665  -0.110  1.00  0.00    -0.273 OA
ATOM     22  H   UNL     1      -4.863  -4.380  -0.728  1.00  0.00     0.164 HD
ATOM     23  G   UNL     1      -4.550  -6.716   0.270  1.00  0.00     0.000 G0
ENDBRANCH  18  19
BRANCH  18  24
ATOM     24  C   UNL     1      -7.089  -2.749  -0.734  1.00  0.00     0.038 C 
BRANCH  24  25
ATOM     25  C   UNL     1      -7.934  -2.713   0.557  1.00  0.00    -0.015 C 
ATOM     26  C   UNL     1      -7.081  -2.847   1.819  1.00  0.00     0.007 C 
ATOM     27  C   UNL     1      -8.978  -3.833   0.520  1.00  0.00     0.007 C 
ENDBRANCH  24  25
ENDBRANCH  18  24
ENDBRANCH  15  18
ENDBRANCH  13  14
BRANCH  13  28
ATOM     28  C   UNL     1      -8.812  -2.613  -5.327  1.00  0.00     0.327 C 
ATOM     29  O   UNL     1      -9.789  -2.800  -4.618  1.00  0.00    -0.250 OA
BRANCH  28  30
ATOM     30  O   UNL     1      -8.965  -2.275  -6.624  1.00  0.00    -0.480 OA
ATOM     31  H   UNL     1      -8.826  -3.115  -7.109  1.00  0.00     0.296 HD
ENDBRANCH  28  30
ENDBRANCH  13  28
ENDBRANCH  11  13
ENDBRANCH   8  11
ENDBRANCH   6   7
BRANCH   6  32
ATOM     32  C   UNL     1      -7.416   2.931  -5.956  1.00  0.00     0.037 C 
BRANCH  32  33
ATOM     33  C   UNL     1      -5.884   3.028  -5.967  1.00  0.00     0.026 C 
BRANCH  33  34
ATOM     34  C   UNL     1      -5.391   4.456  -6.207  1.00  0.00     0.146 C 
BRANCH  34  35
ATOM     35  N   UNL     1      -5.625   5.242  -5.004  1.00  0.00    -0.254 NA
ATOM     36  C   UNL     1      -4.635   5.488  -4.228  1.00  0.00     0.185 C 
ATOM     37  N   UNL     1      -4.839   6.215  -3.119  1.00  0.00    -0.370 N 
ATOM     38  N   UNL     1      -3.350   5.112  -4.354  1.00  0.00    -0.370 N 
ATOM     39  H   UNL     1      -5.782   6.545  -2.959  1.00  0.00     0.159 HD
ATOM     40  H   UNL     1      -4.095   6.595  -2.559  1.00  0.00     0.159 HD
ATOM     41  H   UNL     1      -2.692   5.250  -3.604  1.00  0.00     0.159 HD
ATOM     42  H   UNL     1      -3.055   4.546  -5.134  1.00  0.00     0.159 HD
ENDBRANCH  34  35
ENDBRANCH  33  34
ENDBRANCH  32  33
ENDBRANCH   6  32
ENDBRANCH   4   6
ENDBRANCH   1   2
BRANCH   1  43
ATOM     43  C   UNL     1     -11.656   4.728  -5.114  1.00  0.00     0.102 C 
ATOM     44  C   UNL     1     -12.983   4.882  -5.876  1.00  0.00     0.020 C 
BRANCH  43  45
ATOM     45  C   UNL     1     -10.432   5.218  -5.893  1.00  0.00     0.225 C 
ATOM     46  O   UNL     1      -9.414   5.637  -5.349  1.00  0.00    -0.275 OA
ATOM     47  N   UNL     1     -10.575   5.251  -7.261  1.00  0.00    -0.342 N 
ATOM     48  H   UNL     1     -11.348   4.767  -7.695  1.00  0.00     0.164 HD
BRANCH  47  49
ATOM     49  C   UNL     1      -9.474   5.664  -8.137  1.00  0.00     0.192 C 
BRANCH  49  50
ATOM     50  C   UNL     1      -9.869   6.934  -8.895  1.00  0.00     0.047 C 
BRANCH  50  51
ATOM     51  C   UNL     1     -11.370   7.234  -8.786  1.00  0.00     0.103 C 
BRANCH  51  52
ATOM     52  C   UNL     1     -12.117   6.900 -10.075  1.00  0.00     0.226 C 
ATOM     53  O   UNL     1     -11.852   7.512 -11.111  1.00  0.00    -0.275 OA
BRANCH  52  54
ATOM     54  N   UNL     1     -13.033   5.833 -10.009  1.00  0.00    -0.311 N 
ATOM     55  C   UNL     1     -12.576   4.439 -10.083  1.00  0.00     0.153 C 
BRANCH  54  56
ATOM     56  C   UNL     1     -14.412   6.060  -9.866  1.00  0.00     0.102 C 
ATOM     57  C   UNL     1     -15.082   6.012  -8.703  1.00  0.00     0.043 C 
BRANCH  56  58
ATOM     58  C   UNL     1     -15.264   6.432 -11.057  1.00  0.00     0.268 C 
ATOM     59  O   UNL     1     -15.507   7.590 -11.370  1.00  0.00    -0.268 OA
ATOM     60  N   UNL     1     -15.680   5.343 -11.786  1.00  0.00    -0.339 N 
ATOM     61  H   UNL     1     -15.444   4.416 -11.453  1.00  0.00     0.164 HD
BRANCH  60  62
ATOM     62  C   UNL     1     -16.463   5.480 -13.013  1.00  0.00     0.168 CG0
ATOM     63  C   UNL     1     -17.869   4.924 -12.830  1.00  0.00     0.041 C 
ATOM     64  G   UNL     1     -15.738   4.763 -14.171  1.00  0.00     0.000 G0
ENDBRANCH  60  62
ENDBRANCH  56  58
ENDBRANCH  54  56
ENDBRANCH  52  54
ENDBRANCH  51  52
ENDBRANCH  50  51
ENDBRANCH  49  50
BRANCH  49  65
ATOM     65  C   UNL     1      -9.107   4.563  -9.143  1.00  0.00     0.326 C 
ATOM     66  O   UNL     1      -8.627   4.746 -10.253  1.00  0.00    -0.250 OA
BRANCH  65  67
ATOM     67  O   UNL     1      -9.410   3.309  -8.743  1.00  0.00    -0.480 OA
ATOM     68  H   UNL     1      -9.831   2.909  -9.534  1.00  0.00     0.296 HD
ENDBRANCH  65  67
ENDBRANCH  49  65
ENDBRANCH  47  49
ENDBRANCH  43  45
ENDBRANCH   1  43
BRANCH   1  69
ATOM     69  C   UNL     1     -11.874   2.977  -3.141  1.00  0.00    -0.001 C 
ATOM     70  C   UNL     1     -12.597   3.757  -2.319  1.00  0.00     0.001 C 
BRANCH  70  71
ATOM     71  C   UNL     1     -13.042   3.431  -0.962  1.00  0.00    -0.055 C 
ATOM     72  C   UNL     1     -12.711   2.220  -0.467  1.00  0.00    -0.018 C 
ATOM     73  C   UNL     1     -13.831   4.473  -0.213  1.00  0.00     0.044 C 
BRANCH  72  74
ATOM     74  C   UNL     1     -13.028   1.616   0.894  1.00  0.00     0.038 C 
ATOM     75  C   UNL     1     -12.339   2.490   1.949  1.00  0.00     0.015 C 
BRANCH  74  76
ATOM     76  C   UNL     1     -12.588   0.123   0.894  1.00  0.00     0.128 C 
BRANCH  76  77
ATOM     77  O   UNL     1     -13.739  -0.728   0.761  1.00  0.00    -0.381 OA
ATOM     78  C   UNL     1     -13.802  -1.415  -0.482  1.00  0.00     0.195 C 
ENDBRANCH  76  77
BRANCH  76  79
ATOM     79  C   UNL     1     -11.477  -0.206  -0.135  1.00  0.00     0.068 C 
BRANCH  79  80
ATOM     80  C   UNL     1     -10.077   0.275   0.158  1.00  0.00    -0.045 A 
ATOM     81  C   UNL     1      -9.216   0.665  -0.877  1.00  0.00     0.004 A 
ATOM     82  C   UNL     1      -9.604   0.314   1.478  1.00  0.00     0.004 A 
ATOM     83  C   UNL     1      -7.918   1.096  -0.598  1.00  0.00     0.000 A 
ATOM     84  C   UNL     1      -8.305   0.745   1.756  1.00  0.00     0.000 A 
ATOM     85  C   UNL     1      -7.463   1.137   0.718  1.00  0.00     0.000 A 
ENDBRANCH  79  80
ENDBRANCH  76  79
ENDBRANCH  74  76
ENDBRANCH  72  74
ENDBRANCH  70  71
ENDBRANCH   1  69
TORSDOF 17
ENDMDL
MODEL 32
REMARK VINA RESULT:    -6.002      3.518     11.617
REMARK INTER + INTRA:         -25.544
REMARK INTER:                 -17.344
REMARK INTRA:                  -8.200
REMARK UNBOUND:                -7.611
REMARK SMILES C=C1C(=O)N[C@H](C)C(=O)N[C@@H](CC(C)C)C(=O)N[C@@H](C(=O)O)[C@H](C)C(=O)N[C@@H](CCCN=C(N)N)C(=O)N[C@@H](/C=C/C(C)=C/[C@H](C)[C@H](Cc2ccccc2)OC)[C@H](C)C(=O)N[C@@H](C(=O)O)CCC(=O)N1C
REMARK SMILES IDX 39 1 38 2 37 3 36 4 28 6 27 7 25 8 26 9 23 11 24 12 19 13
REMARK SMILES IDX 18 14 16 15 17 16 11 18 10 19 8 20 9 21 12 24 13 25 14 26
REMARK SMILES IDX 15 27 20 28 21 29 22 30 29 32 30 33 31 34 32 35 33 36 34 37
REMARK SMILES IDX 35 38 57 43 58 44 59 45 60 46 61 47 62 49 66 50 67 51 68 52
REMARK SMILES IDX 69 53 70 54 71 55 2 56 1 57 3 58 4 59 5 60 6 62 7 63 63 65
REMARK SMILES IDX 64 66 65 67 40 69 41 70 42 71 44 72 43 73 45 74 46 75 47 76
REMARK SMILES IDX 55 77 56 78 48 79 49 80 50 81 54 82 51 83 53 84 52 85
REMARK H PARENT 38 5 27 10 18 17 10 22 22 31 34 39 34 40 35 41 35 42 61 48
REMARK H PARENT 5 61 65 68
REMARK Flexibility Score:  369.900
ROOT
ATOM      1  C   UNL     1      -6.066   3.491  -6.546  1.00  0.00     0.117 C 
ENDROOT
BRANCH   1   2
ATOM      2  N   UNL     1      -7.082   2.871  -5.694  1.00  0.00    -0.347 N 
ATOM      3  O   UNL     1      -5.990   0.892  -5.294  1.00  0.00    -0.273 OA
ATOM      4  C   UNL     1      -6.922   1.655  -5.060  1.00  0.00     0.243 C 
ATOM      5  H   UNL     1      -7.939   3.369  -5.506  1.00  0.00     0.164 HD
BRANCH   4   6
ATOM      6  C   UNL     1      -8.113   1.266  -4.147  1.00  0.00     0.171 C 
BRANCH   6   7
ATOM      7  N   UNL     1      -7.642   0.964  -2.787  1.00  0.00    -0.344 N 
ATOM      8  C   UNL     1      -7.778  -0.303  -2.261  1.00  0.00     0.226 C 
ATOM      9  O   UNL     1      -8.308  -1.220  -2.877  1.00  0.00    -0.275 OA
ATOM     10  H   UNL     1      -7.259   1.712  -2.222  1.00  0.00     0.164 HD
BRANCH   8  11
ATOM     11  C   UNL     1      -7.193  -0.469  -0.869  1.00  0.00     0.109 C 
ATOM     12  C   UNL     1      -6.369   0.762  -0.495  1.00  0.00     0.021 C 
BRANCH  11  13
ATOM     13  C   UNL     1      -8.314  -0.828   0.127  1.00  0.00     0.204 C 
BRANCH  13  14
ATOM     14  N   UNL     1      -9.597  -0.222  -0.244  1.00  0.00    -0.340 N 
ATOM     15  C   UNL     1     -10.363   0.507   0.639  1.00  0.00     0.243 C 
ATOM     16  O   UNL     1      -9.996   0.753   1.786  1.00  0.00    -0.273 OA
ATOM     17  H   UNL     1     -10.028  -0.513  -1.126  1.00  0.00     0.164 HD
BRANCH  15  18
ATOM     18  C   UNL     1     -11.765   0.867   0.089  1.00  0.00     0.171 C 
BRANCH  18  19
ATOM     19  N   UNL     1     -12.496   1.498   1.186  1.00  0.00    -0.343 N 
ATOM     20  C   UNL     1     -13.606   0.907   1.758  1.00  0.00     0.242 CG0
ATOM     21  O   UNL     1     -14.108  -0.110   1.285  1.00  0.00    -0.273 OA
ATOM     22  H   UNL     1     -12.187   2.398   1.537  1.00  0.00     0.164 HD
ATOM     23  G   UNL     1     -14.196   1.682   2.954  1.00  0.00     0.000 G0
ENDBRANCH  18  19
BRANCH  18  24
ATOM     24  C   UNL     1     -11.648   1.804  -1.120  1.00  0.00     0.038 C 
BRANCH  24  25
ATOM     25  C   UNL     1     -12.863   2.731  -1.337  1.00  0.00    -0.015 C 
ATOM     26  C   UNL     1     -13.934   2.095  -2.223  1.00  0.00     0.007 C 
ATOM     27  C   UNL     1     -12.398   4.051  -1.957  1.00  0.00     0.007 C 
ENDBRANCH  24  25
ENDBRANCH  18  24
ENDBRANCH  15  18
ENDBRANCH  13  14
BRANCH  13  28
ATOM     28  C   UNL     1      -8.545  -2.336   0.259  1.00  0.00     0.327 C 
ATOM     29  O   UNL     1      -9.386  -2.880   0.959  1.00  0.00    -0.250 OA
BRANCH  28  30
ATOM     30  O   UNL     1      -7.629  -3.071  -0.404  1.00  0.00    -0.480 OA
ATOM     31  H   UNL     1      -6.883  -2.452  -0.550  1.00  0.00     0.296 HD
ENDBRANCH  28  30
ENDBRANCH  13  28
ENDBRANCH  11  13
ENDBRANCH   8  11
ENDBRANCH   6   7
BRANCH   6  32
ATOM     32  C   UNL     1      -9.130   2.413  -4.131  1.00  0.00     0.037 C 
BRANCH  32  33
ATOM     33  C   UNL     1     -10.515   1.967  -4.621  1.00  0.00     0.026 C 
BRANCH  33  34
ATOM     34  C   UNL     1     -10.545   0.492  -5.024  1.00  0.00     0.146 C 
BRANCH  34  35
ATOM     35  N   UNL     1     -11.908  -0.004  -4.890  1.00  0.00    -0.254 NA
ATOM     36  C   UNL     1     -12.167  -0.846  -3.960  1.00  0.00     0.185 C 
ATOM     37  N   UNL     1     -13.421  -1.305  -3.825  1.00  0.00    -0.370 N 
ATOM     38  N   UNL     1     -11.337  -1.374  -3.044  1.00  0.00    -0.370 N 
ATOM     39  H   UNL     1     -14.109  -0.945  -4.474  1.00  0.00     0.159 HD
ATOM     40  H   UNL     1     -13.739  -1.825  -3.025  1.00  0.00     0.159 HD
ATOM     41  H   UNL     1     -11.630  -2.134  -2.452  1.00  0.00     0.159 HD
ATOM     42  H   UNL     1     -10.359  -1.130  -3.037  1.00  0.00     0.159 HD
ENDBRANCH  34  35
ENDBRANCH  33  34
ENDBRANCH  32  33
ENDBRANCH   6  32
ENDBRANCH   4   6
ENDBRANCH   1   2
BRANCH   1  43
ATOM     43  C   UNL     1      -5.117   4.337  -5.649  1.00  0.00     0.102 C 
ATOM     44  C   UNL     1      -4.964   5.793  -6.123  1.00  0.00     0.020 C 
BRANCH  43  45
ATOM     45  C   UNL     1      -3.786   3.615  -5.420  1.00  0.00     0.225 C 
ATOM     46  O   UNL     1      -2.963   3.974  -4.583  1.00  0.00    -0.275 OA
ATOM     47  N   UNL     1      -3.519   2.578  -6.285  1.00  0.00    -0.342 N 
ATOM     48  H   UNL     1      -4.260   2.202  -6.859  1.00  0.00     0.164 HD
BRANCH  47  49
ATOM     49  C   UNL     1      -2.299   1.774  -6.163  1.00  0.00     0.192 C 
BRANCH  49  50
ATOM     50  C   UNL     1      -1.823   1.347  -7.554  1.00  0.00     0.047 C 
BRANCH  50  51
ATOM     51  C   UNL     1      -2.110   2.414  -8.619  1.00  0.00     0.103 C 
BRANCH  51  52
ATOM     52  C   UNL     1      -0.901   2.665  -9.519  1.00  0.00     0.226 C 
ATOM     53  O   UNL     1      -0.339   3.762  -9.493  1.00  0.00    -0.275 OA
BRANCH  52  54
ATOM     54  N   UNL     1      -0.452   1.573 -10.284  1.00  0.00    -0.311 N 
ATOM     55  C   UNL     1      -1.331   0.926 -11.267  1.00  0.00     0.153 C 
BRANCH  54  56
ATOM     56  C   UNL     1       0.851   1.067 -10.143  1.00  0.00     0.102 C 
ATOM     57  C   UNL     1       1.224   0.148  -9.237  1.00  0.00     0.043 C 
BRANCH  56  58
ATOM     58  C   UNL     1       1.959   1.507 -11.071  1.00  0.00     0.268 C 
ATOM     59  O   UNL     1       2.618   0.726 -11.744  1.00  0.00    -0.268 OA
ATOM     60  N   UNL     1       2.104   2.872 -11.129  1.00  0.00    -0.339 N 
ATOM     61  H   UNL     1       1.525   3.450 -10.531  1.00  0.00     0.164 HD
BRANCH  60  62
ATOM     62  C   UNL     1       3.076   3.516 -12.012  1.00  0.00     0.168 CG0
ATOM     63  C   UNL     1       4.214   4.137 -11.213  1.00  0.00     0.041 C 
ATOM     64  G   UNL     1       2.367   4.582 -12.872  1.00  0.00     0.000 G0
ENDBRANCH  60  62
ENDBRANCH  56  58
ENDBRANCH  54  56
ENDBRANCH  52  54
ENDBRANCH  51  52
ENDBRANCH  50  51
ENDBRANCH  49  50
BRANCH  49  65
ATOM     65  C   UNL     1      -2.529   0.524  -5.298  1.00  0.00     0.326 C 
ATOM     66  O   UNL     1      -2.702  -0.610  -5.720  1.00  0.00    -0.250 OA
BRANCH  65  67
ATOM     67  O   UNL     1      -2.591   0.762  -3.969  1.00  0.00    -0.480 OA
ATOM     68  H   UNL     1      -3.507   1.088  -3.835  1.00  0.00     0.296 HD
ENDBRANCH  65  67
ENDBRANCH  49  65
ENDBRANCH  47  49
ENDBRANCH  43  45
ENDBRANCH   1  43
BRANCH   1  69
ATOM     69  C   UNL     1      -6.817   4.177  -7.671  1.00  0.00    -0.001 C 
ATOM     70  C   UNL     1      -6.717   3.932  -8.990  1.00  0.00     0.001 C 
BRANCH  70  71
ATOM     71  C   UNL     1      -7.463   4.587 -10.066  1.00  0.00    -0.055 C 
ATOM     72  C   UNL     1      -8.318   5.574  -9.726  1.00  0.00    -0.018 C 
ATOM     73  C   UNL     1      -7.218   4.119 -11.476  1.00  0.00     0.044 C 
BRANCH  72  74
ATOM     74  C   UNL     1      -9.213   6.423 -10.617  1.00  0.00     0.038 C 
ATOM     75  C   UNL     1      -8.984   7.888 -10.225  1.00  0.00     0.015 C 
BRANCH  74  76
ATOM     76  C   UNL     1     -10.682   5.929 -10.469  1.00  0.00     0.128 C 
BRANCH  76  77
ATOM     77  O   UNL     1     -10.701   4.514 -10.217  1.00  0.00    -0.381 OA
ATOM     78  C   UNL     1     -11.423   3.770 -11.190  1.00  0.00     0.195 C 
ENDBRANCH  76  77
BRANCH  76  79
ATOM     79  C   UNL     1     -11.515   6.733  -9.439  1.00  0.00     0.068 C 
BRANCH  79  80
ATOM     80  C   UNL     1     -11.633   6.179  -8.039  1.00  0.00    -0.045 A 
ATOM     81  C   UNL     1     -12.725   5.384  -7.667  1.00  0.00     0.004 A 
ATOM     82  C   UNL     1     -10.658   6.479  -7.076  1.00  0.00     0.004 A 
ATOM     83  C   UNL     1     -12.834   4.887  -6.366  1.00  0.00     0.000 A 
ATOM     84  C   UNL     1     -10.769   5.983  -5.775  1.00  0.00     0.000 A 
ATOM     85  C   UNL     1     -11.855   5.186  -5.421  1.00  0.00     0.000 A 
ENDBRANCH  79  80
ENDBRANCH  76  79
ENDBRANCH  74  76
ENDBRANCH  72  74
ENDBRANCH  70  71
ENDBRANCH   1  69
TORSDOF 17
ENDMDL
MODEL 33
REMARK VINA RESULT:    -5.969      5.574     10.714
REMARK INTER + INTRA:         -25.443
REMARK INTER:                 -16.529
REMARK INTRA:                  -8.914
REMARK UNBOUND:                -7.611
REMARK SMILES C=C1C(=O)N[C@H](C)C(=O)N[C@@H](CC(C)C)C(=O)N[C@@H](C(=O)O)[C@H](C)C(=O)N[C@@H](CCCN=C(N)N)C(=O)N[C@@H](/C=C/C(C)=C/[C@H](C)[C@H](Cc2ccccc2)OC)[C@H](C)C(=O)N[C@@H](C(=O)O)CCC(=O)N1C
REMARK SMILES IDX 39 1 38 2 37 3 36 4 28 6 27 7 25 8 26 9 23 11 24 12 19 13
REMARK SMILES IDX 18 14 16 15 17 16 11 18 10 19 8 20 9 21 12 24 13 25 14 26
REMARK SMILES IDX 15 27 20 28 21 29 22 30 29 32 30 33 31 34 32 35 33 36 34 37
REMARK SMILES IDX 35 38 57 43 58 44 59 45 60 46 61 47 62 49 66 50 67 51 68 52
REMARK SMILES IDX 69 53 70 54 71 55 2 56 1 57 3 58 4 59 5 60 6 62 7 63 63 65
REMARK SMILES IDX 64 66 65 67 40 69 41 70 42 71 44 72 43 73 45 74 46 75 47 76
REMARK SMILES IDX 55 77 56 78 48 79 49 80 50 81 54 82 51 83 53 84 52 85
REMARK H PARENT 38 5 27 10 18 17 10 22 22 31 34 39 34 40 35 41 35 42 61 48
REMARK H PARENT 5 61 65 68
REMARK Flexibility Score:  369.900
ROOT
ATOM      1  C   UNL     1     -12.546  -0.298  -4.969  1.00  0.00     0.117 C 
ENDROOT
BRANCH   1   2
ATOM      2  N   UNL     1     -11.179  -0.773  -4.753  1.00  0.00    -0.347 N 
ATOM      3  O   UNL     1     -10.809  -1.629  -6.851  1.00  0.00    -0.273 OA
ATOM      4  C   UNL     1     -10.385  -1.320  -5.742  1.00  0.00     0.243 C 
ATOM      5  H   UNL     1     -10.753  -0.658  -3.846  1.00  0.00     0.164 HD
BRANCH   4   6
ATOM      6  C   UNL     1      -8.948  -1.661  -5.271  1.00  0.00     0.171 C 
BRANCH   6   7
ATOM      7  N   UNL     1      -8.221  -0.435  -4.906  1.00  0.00    -0.344 N 
ATOM      8  C   UNL     1      -7.169   0.014  -5.675  1.00  0.00     0.226 C 
ATOM      9  O   UNL     1      -6.776  -0.584  -6.669  1.00  0.00    -0.275 OA
ATOM     10  H   UNL     1      -8.474   0.050  -4.054  1.00  0.00     0.164 HD
BRANCH   8  11
ATOM     11  C   UNL     1      -6.559   1.320  -5.199  1.00  0.00     0.109 C 
ATOM     12  C   UNL     1      -7.357   1.874  -4.018  1.00  0.00     0.021 C 
BRANCH  11  13
ATOM     13  C   UNL     1      -5.054   1.125  -4.929  1.00  0.00     0.204 C 
BRANCH  13  14
ATOM     14  N   UNL     1      -4.293   0.927  -6.167  1.00  0.00    -0.340 N 
ATOM     15  C   UNL     1      -3.269   0.011  -6.277  1.00  0.00     0.243 C 
ATOM     16  O   UNL     1      -2.962  -0.750  -5.361  1.00  0.00    -0.273 OA
ATOM     17  H   UNL     1      -4.394   1.623  -6.910  1.00  0.00     0.164 HD
BRANCH  15  18
ATOM     18  C   UNL     1      -2.478   0.124  -7.603  1.00  0.00     0.171 C 
BRANCH  18  19
ATOM     19  N   UNL     1      -3.427  -0.149  -8.681  1.00  0.00    -0.343 N 
ATOM     20  C   UNL     1      -3.620  -1.425  -9.177  1.00  0.00     0.242 CG0
ATOM     21  O   UNL     1      -2.909  -2.365  -8.828  1.00  0.00    -0.273 OA
ATOM     22  H   UNL     1      -3.956   0.616  -9.084  1.00  0.00     0.164 HD
ATOM     23  G   UNL     1      -4.717  -1.529 -10.256  1.00  0.00     0.000 G0
ENDBRANCH  18  19
BRANCH  18  24
ATOM     24  C   UNL     1      -1.854   1.517  -7.744  1.00  0.00     0.038 C 
BRANCH  24  25
ATOM     25  C   UNL     1      -0.315   1.525  -7.866  1.00  0.00    -0.015 C 
ATOM     26  C   UNL     1       0.194   2.640  -8.780  1.00  0.00     0.007 C 
ATOM     27  C   UNL     1       0.166   0.169  -8.391  1.00  0.00     0.007 C 
ENDBRANCH  24  25
ENDBRANCH  18  24
ENDBRANCH  15  18
ENDBRANCH  13  14
BRANCH  13  28
ATOM     28  C   UNL     1      -4.416   2.304  -4.188  1.00  0.00     0.327 C 
ATOM     29  O   UNL     1      -4.248   3.430  -4.630  1.00  0.00    -0.250 OA
BRANCH  28  30
ATOM     30  O   UNL     1      -3.920   1.964  -2.981  1.00  0.00    -0.480 OA
ATOM     31  H   UNL     1      -4.312   1.085  -2.798  1.00  0.00     0.296 HD
ENDBRANCH  28  30
ENDBRANCH  13  28
ENDBRANCH  11  13
ENDBRANCH   8  11
ENDBRANCH   6   7
BRANCH   6  32
ATOM     32  C   UNL     1      -9.024  -2.626  -4.083  1.00  0.00     0.037 C 
BRANCH  32  33
ATOM     33  C   UNL     1      -7.887  -2.398  -3.077  1.00  0.00     0.026 C 
BRANCH  33  34
ATOM     34  C   UNL     1      -6.720  -3.364  -3.284  1.00  0.00     0.146 C 
BRANCH  34  35
ATOM     35  N   UNL     1      -5.836  -2.820  -4.306  1.00  0.00    -0.254 NA
ATOM     36  C   UNL     1      -5.556  -3.545  -5.324  1.00  0.00     0.185 C 
ATOM     37  N   UNL     1      -4.746  -3.052  -6.274  1.00  0.00    -0.370 N 
ATOM     38  N   UNL     1      -5.967  -4.792  -5.613  1.00  0.00    -0.370 N 
ATOM     39  H   UNL     1      -4.402  -2.110  -6.134  1.00  0.00     0.159 HD
ATOM     40  H   UNL     1      -4.619  -3.481  -7.175  1.00  0.00     0.159 HD
ATOM     41  H   UNL     1      -5.565  -5.309  -6.378  1.00  0.00     0.159 HD
ATOM     42  H   UNL     1      -6.568  -5.293  -4.978  1.00  0.00     0.159 HD
ENDBRANCH  34  35
ENDBRANCH  33  34
ENDBRANCH  32  33
ENDBRANCH   6  32
ENDBRANCH   4   6
ENDBRANCH   1   2
BRANCH   1  43
ATOM     43  C   UNL     1     -12.499   1.229  -5.266  1.00  0.00     0.102 C 
ATOM     44  C   UNL     1     -12.103   1.558  -6.716  1.00  0.00     0.020 C 
BRANCH  43  45
ATOM     45  C   UNL     1     -11.670   1.969  -4.213  1.00  0.00     0.225 C 
ATOM     46  O   UNL     1     -10.465   1.790  -4.060  1.00  0.00    -0.275 OA
ATOM     47  N   UNL     1     -12.381   2.792  -3.370  1.00  0.00    -0.342 N 
ATOM     48  H   UNL     1     -13.332   3.044  -3.601  1.00  0.00     0.164 HD
BRANCH  47  49
ATOM     49  C   UNL     1     -11.715   3.590  -2.336  1.00  0.00     0.192 C 
BRANCH  49  50
ATOM     50  C   UNL     1     -12.729   3.987  -1.260  1.00  0.00     0.047 C 
BRANCH  50  51
ATOM     51  C   UNL     1     -13.187   2.786  -0.421  1.00  0.00     0.103 C 
BRANCH  51  52
ATOM     52  C   UNL     1     -13.686   3.208   0.960  1.00  0.00     0.226 C 
ATOM     53  O   UNL     1     -13.041   2.897   1.963  1.00  0.00    -0.275 OA
BRANCH  52  54
ATOM     54  N   UNL     1     -14.841   4.012   0.990  1.00  0.00    -0.311 N 
ATOM     55  C   UNL     1     -16.058   3.613   0.270  1.00  0.00     0.153 C 
BRANCH  54  56
ATOM     56  C   UNL     1     -14.877   5.217   1.711  1.00  0.00     0.102 C 
ATOM     57  C   UNL     1     -14.203   6.330   1.380  1.00  0.00     0.043 C 
BRANCH  56  58
ATOM     58  C   UNL     1     -15.748   5.361   2.937  1.00  0.00     0.268 C 
ATOM     59  O   UNL     1     -16.785   6.011   2.948  1.00  0.00    -0.268 OA
ATOM     60  N   UNL     1     -15.292   4.636   4.012  1.00  0.00    -0.339 N 
ATOM     61  H   UNL     1     -14.418   4.132   3.924  1.00  0.00     0.164 HD
BRANCH  60  62
ATOM     62  C   UNL     1     -16.018   4.584   5.280  1.00  0.00     0.168 CG0
ATOM     63  C   UNL     1     -15.095   4.897   6.452  1.00  0.00     0.041 C 
ATOM     64  G   UNL     1     -16.663   3.194   5.450  1.00  0.00     0.000 G0
ENDBRANCH  60  62
ENDBRANCH  56  58
ENDBRANCH  54  56
ENDBRANCH  52  54
ENDBRANCH  51  52
ENDBRANCH  50  51
ENDBRANCH  49  50
BRANCH  49  65
ATOM     65  C   UNL     1     -11.075   4.858  -2.924  1.00  0.00     0.326 C 
ATOM     66  O   UNL     1      -9.948   5.264  -2.679  1.00  0.00    -0.250 OA
BRANCH  65  67
ATOM     67  O   UNL     1     -11.886   5.577  -3.731  1.00  0.00    -0.480 OA
ATOM     68  H   UNL     1     -12.780   5.222  -3.537  1.00  0.00     0.296 HD
ENDBRANCH  65  67
ENDBRANCH  49  65
ENDBRANCH  47  49
ENDBRANCH  43  45
ENDBRANCH   1  43
BRANCH   1  69
ATOM     69  C   UNL     1     -13.358  -0.790  -3.785  1.00  0.00    -0.001 C 
ATOM     70  C   UNL     1     -14.684  -0.674  -3.599  1.00  0.00     0.001 C 
BRANCH  70  71
ATOM     71  C   UNL     1     -15.460  -1.172  -2.461  1.00  0.00    -0.055 C 
ATOM     72  C   UNL     1     -15.133  -0.719  -1.233  1.00  0.00    -0.018 C 
ATOM     73  C   UNL     1     -16.573  -2.147  -2.743  1.00  0.00     0.044 C 
BRANCH  72  74
ATOM     74  C   UNL     1     -15.757  -1.054   0.115  1.00  0.00     0.038 C 
ATOM     75  C   UNL     1     -16.926  -0.084   0.326  1.00  0.00     0.015 C 
BRANCH  74  76
ATOM     76  C   UNL     1     -14.651  -0.992   1.208  1.00  0.00     0.128 C 
BRANCH  76  77
ATOM     77  O   UNL     1     -15.169  -1.477   2.459  1.00  0.00    -0.381 OA
ATOM     78  C   UNL     1     -14.244  -2.270   3.191  1.00  0.00     0.195 C 
ENDBRANCH  76  77
BRANCH  76  79
ATOM     79  C   UNL     1     -13.324  -1.682   0.802  1.00  0.00     0.068 C 
BRANCH  79  80
ATOM     80  C   UNL     1     -12.111  -0.809   0.586  1.00  0.00    -0.045 A 
ATOM     81  C   UNL     1     -11.511  -0.131   1.655  1.00  0.00     0.004 A 
ATOM     82  C   UNL     1     -11.580  -0.642  -0.701  1.00  0.00     0.004 A 
ATOM     83  C   UNL     1     -10.397   0.685   1.446  1.00  0.00     0.000 A 
ATOM     84  C   UNL     1     -10.466   0.175  -0.910  1.00  0.00     0.000 A 
ATOM     85  C   UNL     1      -9.875   0.837   0.163  1.00  0.00     0.000 A 
ENDBRANCH  79  80
ENDBRANCH  76  79
ENDBRANCH  74  76
ENDBRANCH  72  74
ENDBRANCH  70  71
ENDBRANCH   1  69
TORSDOF 17
ENDMDL
MODEL 34
REMARK VINA RESULT:    -5.962      5.893     10.483
REMARK INTER + INTRA:         -25.425
REMARK INTER:                 -17.691
REMARK INTRA:                  -7.734
REMARK UNBOUND:                -7.611
REMARK SMILES C=C1C(=O)N[C@H](C)C(=O)N[C@@H](CC(C)C)C(=O)N[C@@H](C(=O)O)[C@H](C)C(=O)N[C@@H](CCCN=C(N)N)C(=O)N[C@@H](/C=C/C(C)=C/[C@H](C)[C@H](Cc2ccccc2)OC)[C@H](C)C(=O)N[C@@H](C(=O)O)CCC(=O)N1C
REMARK SMILES IDX 39 1 38 2 37 3 36 4 28 6 27 7 25 8 26 9 23 11 24 12 19 13
REMARK SMILES IDX 18 14 16 15 17 16 11 18 10 19 8 20 9 21 12 24 13 25 14 26
REMARK SMILES IDX 15 27 20 28 21 29 22 30 29 32 30 33 31 34 32 35 33 36 34 37
REMARK SMILES IDX 35 38 57 43 58 44 59 45 60 46 61 47 62 49 66 50 67 51 68 52
REMARK SMILES IDX 69 53 70 54 71 55 2 56 1 57 3 58 4 59 5 60 6 62 7 63 63 65
REMARK SMILES IDX 64 66 65 67 40 69 41 70 42 71 44 72 43 73 45 74 46 75 47 76
REMARK SMILES IDX 55 77 56 78 48 79 49 80 50 81 54 82 51 83 53 84 52 85
REMARK H PARENT 38 5 27 10 18 17 10 22 22 31 34 39 34 40 35 41 35 42 61 48
REMARK H PARENT 5 61 65 68
REMARK Flexibility Score:  369.900
ROOT
ATOM      1  C   UNL     1      -6.329  -1.777  -5.043  1.00  0.00     0.117 C 
ENDROOT
BRANCH   1   2
ATOM      2  N   UNL     1      -6.729  -0.903  -3.940  1.00  0.00    -0.347 N 
ATOM      3  O   UNL     1      -8.739  -0.208  -4.804  1.00  0.00    -0.273 OA
ATOM      4  C   UNL     1      -7.948  -0.258  -3.867  1.00  0.00     0.243 C 
ATOM      5  H   UNL     1      -6.111  -0.790  -3.150  1.00  0.00     0.164 HD
BRANCH   4   6
ATOM      6  C   UNL     1      -8.155   0.537  -2.553  1.00  0.00     0.171 C 
BRANCH   6   7
ATOM      7  N   UNL     1      -9.542   1.021  -2.458  1.00  0.00    -0.344 N 
ATOM      8  C   UNL     1      -9.830   2.361  -2.593  1.00  0.00     0.226 C 
ATOM      9  O   UNL     1      -8.962   3.208  -2.774  1.00  0.00    -0.275 OA
ATOM     10  H   UNL     1     -10.278   0.360  -2.242  1.00  0.00     0.164 HD
BRANCH   8  11
ATOM     11  C   UNL     1     -11.310   2.694  -2.525  1.00  0.00     0.109 C 
ATOM     12  C   UNL     1     -11.543   3.861  -1.566  1.00  0.00     0.021 C 
BRANCH  11  13
ATOM     13  C   UNL     1     -11.864   2.904  -3.948  1.00  0.00     0.204 C 
BRANCH  13  14
ATOM     14  N   UNL     1     -10.884   3.542  -4.833  1.00  0.00    -0.340 N 
ATOM     15  C   UNL     1     -10.946   4.873  -5.181  1.00  0.00     0.243 C 
ATOM     16  O   UNL     1     -11.796   5.637  -4.725  1.00  0.00    -0.273 OA
ATOM     17  H   UNL     1     -10.249   2.938  -5.362  1.00  0.00     0.164 HD
BRANCH  15  18
ATOM     18  C   UNL     1      -9.935   5.272  -6.284  1.00  0.00     0.171 C 
BRANCH  18  19
ATOM     19  N   UNL     1     -10.089   6.711  -6.493  1.00  0.00    -0.343 N 
ATOM     20  C   UNL     1     -10.467   7.234  -7.714  1.00  0.00     0.242 CG0
ATOM     21  O   UNL     1     -10.563   6.527  -8.715  1.00  0.00    -0.273 OA
ATOM     22  H   UNL     1      -9.908   7.347  -5.725  1.00  0.00     0.164 HD
ATOM     23  G   UNL     1     -10.654   8.765  -7.721  1.00  0.00     0.000 G0
ENDBRANCH  18  19
BRANCH  18  24
ATOM     24  C   UNL     1      -8.505   4.915  -5.862  1.00  0.00     0.038 C 
BRANCH  24  25
ATOM     25  C   UNL     1      -7.781   3.931  -6.806  1.00  0.00    -0.015 C 
ATOM     26  C   UNL     1      -8.671   3.463  -7.957  1.00  0.00     0.007 C 
ATOM     27  C   UNL     1      -7.290   2.720  -6.008  1.00  0.00     0.007 C 
ENDBRANCH  24  25
ENDBRANCH  18  24
ENDBRANCH  15  18
ENDBRANCH  13  14
BRANCH  13  28
ATOM     28  C   UNL     1     -12.304   1.601  -4.623  1.00  0.00     0.327 C 
ATOM     29  O   UNL     1     -13.419   1.104  -4.578  1.00  0.00    -0.250 OA
BRANCH  28  30
ATOM     30  O   UNL     1     -11.287   0.942  -5.214  1.00  0.00    -0.480 OA
ATOM     31  H   UNL     1     -11.232   1.335  -6.110  1.00  0.00     0.296 HD
ENDBRANCH  28  30
ENDBRANCH  13  28
ENDBRANCH  11  13
ENDBRANCH   8  11
ENDBRANCH   6   7
BRANCH   6  32
ATOM     32  C   UNL     1      -7.805  -0.361  -1.361  1.00  0.00     0.037 C 
BRANCH  32  33
ATOM     33  C   UNL     1      -9.003  -1.203  -0.899  1.00  0.00     0.026 C 
BRANCH  33  34
ATOM     34  C   UNL     1      -9.488  -0.813   0.498  1.00  0.00     0.146 C 
BRANCH  34  35
ATOM     35  N   UNL     1      -8.713  -1.551   1.486  1.00  0.00    -0.254 NA
ATOM     36  C   UNL     1      -7.839  -0.920   2.178  1.00  0.00     0.185 C 
ATOM     37  N   UNL     1      -7.123  -1.589   3.095  1.00  0.00    -0.370 N 
ATOM     38  N   UNL     1      -7.504   0.382   2.131  1.00  0.00    -0.370 N 
ATOM     39  H   UNL     1      -7.326  -2.575   3.198  1.00  0.00     0.159 HD
ATOM     40  H   UNL     1      -6.551  -1.140   3.790  1.00  0.00     0.159 HD
ATOM     41  H   UNL     1      -6.702   0.731   2.629  1.00  0.00     0.159 HD
ATOM     42  H   UNL     1      -7.951   1.003   1.475  1.00  0.00     0.159 HD
ENDBRANCH  34  35
ENDBRANCH  33  34
ENDBRANCH  32  33
ENDBRANCH   6  32
ENDBRANCH   4   6
ENDBRANCH   1   2
BRANCH   1  43
ATOM     43  C   UNL     1      -5.802  -3.115  -4.449  1.00  0.00     0.102 C 
ATOM     44  C   UNL     1      -5.440  -4.159  -5.519  1.00  0.00     0.020 C 
BRANCH  43  45
ATOM     45  C   UNL     1      -6.741  -3.641  -3.360  1.00  0.00     0.225 C 
ATOM     46  O   UNL     1      -7.943  -3.393  -3.333  1.00  0.00    -0.275 OA
ATOM     47  N   UNL     1      -6.134  -4.343  -2.344  1.00  0.00    -0.342 N 
ATOM     48  H   UNL     1      -5.184  -4.666  -2.456  1.00  0.00     0.164 HD
BRANCH  47  49
ATOM     49  C   UNL     1      -6.913  -4.937  -1.252  1.00  0.00     0.192 C 
BRANCH  49  50
ATOM     50  C   UNL     1      -6.740  -4.099   0.018  1.00  0.00     0.047 C 
BRANCH  50  51
ATOM     51  C   UNL     1      -6.154  -4.915   1.178  1.00  0.00     0.103 C 
BRANCH  51  52
ATOM     52  C   UNL     1      -7.164  -5.112   2.307  1.00  0.00     0.226 C 
ATOM     53  O   UNL     1      -8.343  -5.350   2.037  1.00  0.00    -0.275 OA
BRANCH  52  54
ATOM     54  N   UNL     1      -6.652  -5.082   3.618  1.00  0.00    -0.311 N 
ATOM     55  C   UNL     1      -5.245  -4.748   3.873  1.00  0.00     0.153 C 
BRANCH  54  56
ATOM     56  C   UNL     1      -7.466  -5.363   4.728  1.00  0.00     0.102 C 
ATOM     57  C   UNL     1      -8.064  -4.438   5.496  1.00  0.00     0.043 C 
BRANCH  56  58
ATOM     58  C   UNL     1      -7.772  -6.788   5.123  1.00  0.00     0.268 C 
ATOM     59  O   UNL     1      -8.586  -7.487   4.533  1.00  0.00    -0.268 OA
ATOM     60  N   UNL     1      -6.998  -7.238   6.166  1.00  0.00    -0.339 N 
ATOM     61  H   UNL     1      -6.354  -6.593   6.608  1.00  0.00     0.164 HD
BRANCH  60  62
ATOM     62  C   UNL     1      -7.088  -8.609   6.668  1.00  0.00     0.168 CG0
ATOM     63  C   UNL     1      -6.586  -8.699   8.104  1.00  0.00     0.041 C 
ATOM     64  G   UNL     1      -6.282  -9.549   5.748  1.00  0.00     0.000 G0
ENDBRANCH  60  62
ENDBRANCH  56  58
ENDBRANCH  54  56
ENDBRANCH  52  54
ENDBRANCH  51  52
ENDBRANCH  50  51
ENDBRANCH  49  50
BRANCH  49  65
ATOM     65  C   UNL     1      -6.481  -6.384  -0.970  1.00  0.00     0.326 C 
ATOM     66  O   UNL     1      -5.368  -6.846  -1.174  1.00  0.00    -0.250 OA
BRANCH  65  67
ATOM     67  O   UNL     1      -7.465  -7.187  -0.509  1.00  0.00    -0.480 OA
ATOM     68  H   UNL     1      -8.023  -6.584   0.028  1.00  0.00     0.296 HD
ENDBRANCH  65  67
ENDBRANCH  49  65
ENDBRANCH  47  49
ENDBRANCH  43  45
ENDBRANCH   1  43
BRANCH   1  69
ATOM     69  C   UNL     1      -5.408  -0.952  -5.925  1.00  0.00    -0.001 C 
ATOM     70  C   UNL     1      -5.676  -0.454  -7.145  1.00  0.00     0.001 C 
BRANCH  70  71
ATOM     71  C   UNL     1      -4.786   0.359  -7.977  1.00  0.00    -0.055 C 
ATOM     72  C   UNL     1      -3.459   0.129  -7.888  1.00  0.00    -0.018 C 
ATOM     73  C   UNL     1      -5.415   1.388  -8.879  1.00  0.00     0.044 C 
BRANCH  72  74
ATOM     74  C   UNL     1      -2.313   0.807  -8.624  1.00  0.00     0.038 C 
ATOM     75  C   UNL     1      -1.680  -0.245  -9.543  1.00  0.00     0.015 C 
BRANCH  74  76
ATOM     76  C   UNL     1      -1.342   1.428  -7.576  1.00  0.00     0.128 C 
BRANCH  76  77
ATOM     77  O   UNL     1      -0.639   2.539  -8.157  1.00  0.00    -0.381 OA
ATOM     78  C   UNL     1       0.744   2.291  -8.370  1.00  0.00     0.195 C 
ENDBRANCH  76  77
BRANCH  76  79
ATOM     79  C   UNL     1      -2.016   1.783  -6.227  1.00  0.00     0.068 C 
BRANCH  79  80
ATOM     80  C   UNL     1      -2.883   3.018  -6.174  1.00  0.00    -0.045 A 
ATOM     81  C   UNL     1      -3.056   3.828  -7.304  1.00  0.00     0.004 A 
ATOM     82  C   UNL     1      -3.511   3.390  -4.975  1.00  0.00     0.004 A 
ATOM     83  C   UNL     1      -3.849   4.976  -7.242  1.00  0.00     0.000 A 
ATOM     84  C   UNL     1      -4.302   4.539  -4.915  1.00  0.00     0.000 A 
ATOM     85  C   UNL     1      -4.472   5.331  -6.048  1.00  0.00     0.000 A 
ENDBRANCH  79  80
ENDBRANCH  76  79
ENDBRANCH  74  76
ENDBRANCH  72  74
ENDBRANCH  70  71
ENDBRANCH   1  69
TORSDOF 17
ENDMDL
MODEL 35
REMARK VINA RESULT:    -5.962      5.111     12.102
REMARK INTER + INTRA:         -25.423
REMARK INTER:                 -18.429
REMARK INTRA:                  -6.993
REMARK UNBOUND:                -7.611
REMARK SMILES C=C1C(=O)N[C@H](C)C(=O)N[C@@H](CC(C)C)C(=O)N[C@@H](C(=O)O)[C@H](C)C(=O)N[C@@H](CCCN=C(N)N)C(=O)N[C@@H](/C=C/C(C)=C/[C@H](C)[C@H](Cc2ccccc2)OC)[C@H](C)C(=O)N[C@@H](C(=O)O)CCC(=O)N1C
REMARK SMILES IDX 39 1 38 2 37 3 36 4 28 6 27 7 25 8 26 9 23 11 24 12 19 13
REMARK SMILES IDX 18 14 16 15 17 16 11 18 10 19 8 20 9 21 12 24 13 25 14 26
REMARK SMILES IDX 15 27 20 28 21 29 22 30 29 32 30 33 31 34 32 35 33 36 34 37
REMARK SMILES IDX 35 38 57 43 58 44 59 45 60 46 61 47 62 49 66 50 67 51 68 52
REMARK SMILES IDX 69 53 70 54 71 55 2 56 1 57 3 58 4 59 5 60 6 62 7 63 63 65
REMARK SMILES IDX 64 66 65 67 40 69 41 70 42 71 44 72 43 73 45 74 46 75 47 76
REMARK SMILES IDX 55 77 56 78 48 79 49 80 50 81 54 82 51 83 53 84 52 85
REMARK H PARENT 38 5 27 10 18 17 10 22 22 31 34 39 34 40 35 41 35 42 61 48
REMARK H PARENT 5 61 65 68
REMARK Flexibility Score:  369.900
ROOT
ATOM      1  C   UNL     1      -5.652  -1.449  -5.614  1.00  0.00     0.117 C 
ENDROOT
BRANCH   1   2
ATOM      2  N   UNL     1      -5.777  -1.949  -4.244  1.00  0.00    -0.347 N 
ATOM      3  O   UNL     1      -7.916  -2.767  -4.404  1.00  0.00    -0.273 OA
ATOM      4  C   UNL     1      -6.870  -2.652  -3.774  1.00  0.00     0.243 C 
ATOM      5  H   UNL     1      -5.010  -1.826  -3.601  1.00  0.00     0.164 HD
BRANCH   4   6
ATOM      6  C   UNL     1      -6.714  -3.142  -2.312  1.00  0.00     0.171 C 
BRANCH   6   7
ATOM      7  N   UNL     1      -7.892  -2.766  -1.515  1.00  0.00    -0.344 N 
ATOM      8  C   UNL     1      -7.825  -1.732  -0.607  1.00  0.00     0.226 C 
ATOM      9  O   UNL     1      -6.797  -1.099  -0.402  1.00  0.00    -0.275 OA
ATOM     10  H   UNL     1      -8.741  -3.310  -1.608  1.00  0.00     0.164 HD
BRANCH   8  11
ATOM     11  C   UNL     1      -9.137  -1.432   0.096  1.00  0.00     0.109 C 
ATOM     12  C   UNL     1     -10.294  -1.488  -0.902  1.00  0.00     0.021 C 
BRANCH  11  13
ATOM     13  C   UNL     1      -9.294  -2.352   1.324  1.00  0.00     0.204 C 
BRANCH  13  14
ATOM     14  N   UNL     1      -7.999  -2.732   1.896  1.00  0.00    -0.340 N 
ATOM     15  C   UNL     1      -7.754  -3.979   2.429  1.00  0.00     0.243 C 
ATOM     16  O   UNL     1      -8.589  -4.883   2.407  1.00  0.00    -0.273 OA
ATOM     17  H   UNL     1      -7.320  -1.990   2.083  1.00  0.00     0.164 HD
BRANCH  15  18
ATOM     18  C   UNL     1      -6.393  -4.084   3.160  1.00  0.00     0.171 C 
BRANCH  18  19
ATOM     19  N   UNL     1      -6.678  -3.998   4.591  1.00  0.00    -0.343 N 
ATOM     20  C   UNL     1      -6.695  -2.790   5.260  1.00  0.00     0.242 CG0
ATOM     21  O   UNL     1      -6.340  -1.748   4.714  1.00  0.00    -0.273 OA
ATOM     22  H   UNL     1      -6.865  -4.848   5.112  1.00  0.00     0.164 HD
ATOM     23  G   UNL     1      -7.093  -2.891   6.747  1.00  0.00     0.000 G0
ENDBRANCH  18  19
BRANCH  18  24
ATOM     24  C   UNL     1      -5.687  -5.398   2.805  1.00  0.00     0.038 C 
BRANCH  24  25
ATOM     25  C   UNL     1      -4.180  -5.259   2.501  1.00  0.00    -0.015 C 
ATOM     26  C   UNL     1      -3.494  -6.611   2.311  1.00  0.00     0.007 C 
ATOM     27  C   UNL     1      -3.496  -4.488   3.633  1.00  0.00     0.007 C 
ENDBRANCH  24  25
ENDBRANCH  18  24
ENDBRANCH  15  18
ENDBRANCH  13  14
BRANCH  13  28
ATOM     28  C   UNL     1     -10.120  -1.721   2.449  1.00  0.00     0.327 C 
ATOM     29  O   UNL     1     -10.053  -0.564   2.834  1.00  0.00    -0.250 OA
BRANCH  28  30
ATOM     30  O   UNL     1     -10.895  -2.613   3.099  1.00  0.00    -0.480 OA
ATOM     31  H   UNL     1     -11.803  -2.416   2.789  1.00  0.00     0.296 HD
ENDBRANCH  28  30
ENDBRANCH  13  28
ENDBRANCH  11  13
ENDBRANCH   8  11
ENDBRANCH   6   7
BRANCH   6  32
ATOM     32  C   UNL     1      -6.513  -4.662  -2.310  1.00  0.00     0.037 C 
BRANCH  32  33
ATOM     33  C   UNL     1      -6.347  -5.222  -0.890  1.00  0.00     0.026 C 
BRANCH  33  34
ATOM     34  C   UNL     1      -5.331  -6.363  -0.827  1.00  0.00     0.146 C 
BRANCH  34  35
ATOM     35  N   UNL     1      -5.263  -7.005  -2.133  1.00  0.00    -0.254 NA
ATOM     36  C   UNL     1      -6.015  -8.017  -2.360  1.00  0.00     0.185 C 
ATOM     37  N   UNL     1      -5.964  -8.612  -3.562  1.00  0.00    -0.370 N 
ATOM     38  N   UNL     1      -6.899  -8.613  -1.541  1.00  0.00    -0.370 N 
ATOM     39  H   UNL     1      -5.327  -8.213  -4.240  1.00  0.00     0.159 HD
ATOM     40  H   UNL     1      -6.637  -9.291  -3.875  1.00  0.00     0.159 HD
ATOM     41  H   UNL     1      -7.330  -9.489  -1.789  1.00  0.00     0.159 HD
ATOM     42  H   UNL     1      -7.031  -8.280  -0.599  1.00  0.00     0.159 HD
ENDBRANCH  34  35
ENDBRANCH  33  34
ENDBRANCH  32  33
ENDBRANCH   6  32
ENDBRANCH   4   6
ENDBRANCH   1   2
BRANCH   1  43
ATOM     43  C   UNL     1      -4.176  -1.624  -6.072  1.00  0.00     0.102 C 
ATOM     44  C   UNL     1      -3.223  -0.570  -5.483  1.00  0.00     0.020 C 
BRANCH  43  45
ATOM     45  C   UNL     1      -4.085  -1.763  -7.595  1.00  0.00     0.225 C 
ATOM     46  O   UNL     1      -4.224  -2.833  -8.180  1.00  0.00    -0.275 OA
ATOM     47  N   UNL     1      -3.740  -0.617  -8.274  1.00  0.00    -0.342 N 
ATOM     48  H   UNL     1      -3.778   0.275  -7.802  1.00  0.00     0.164 HD
BRANCH  47  49
ATOM     49  C   UNL     1      -3.650  -0.591  -9.737  1.00  0.00     0.192 C 
BRANCH  49  50
ATOM     50  C   UNL     1      -2.275  -0.069 -10.159  1.00  0.00     0.047 C 
BRANCH  50  51
ATOM     51  C   UNL     1      -1.157  -1.084  -9.881  1.00  0.00     0.103 C 
BRANCH  51  52
ATOM     52  C   UNL     1      -0.260  -0.646  -8.725  1.00  0.00     0.226 C 
ATOM     53  O   UNL     1      -0.670  -0.738  -7.566  1.00  0.00    -0.275 OA
BRANCH  52  54
ATOM     54  N   UNL     1       1.039  -0.226  -9.064  1.00  0.00    -0.311 N 
ATOM     55  C   UNL     1       2.183  -1.141  -8.954  1.00  0.00     0.153 C 
BRANCH  54  56
ATOM     56  C   UNL     1       1.291   1.078  -9.524  1.00  0.00     0.102 C 
ATOM     57  C   UNL     1       1.538   2.137  -8.736  1.00  0.00     0.043 C 
BRANCH  56  58
ATOM     58  C   UNL     1       1.347   1.380 -11.003  1.00  0.00     0.268 C 
ATOM     59  O   UNL     1       2.192   0.908 -11.752  1.00  0.00    -0.268 OA
ATOM     60  N   UNL     1       0.316   2.184 -11.430  1.00  0.00    -0.339 N 
ATOM     61  H   UNL     1      -0.337   2.543 -10.744  1.00  0.00     0.164 HD
BRANCH  60  62
ATOM     62  C   UNL     1       0.144   2.549 -12.835  1.00  0.00     0.168 CG0
ATOM     63  C   UNL     1      -1.032   1.803 -13.454  1.00  0.00     0.041 C 
ATOM     64  G   UNL     1       1.446   2.255 -13.609  1.00  0.00     0.000 G0
ENDBRANCH  60  62
ENDBRANCH  56  58
ENDBRANCH  54  56
ENDBRANCH  52  54
ENDBRANCH  51  52
ENDBRANCH  50  51
ENDBRANCH  49  50
BRANCH  49  65
ATOM     65  C   UNL     1      -4.743   0.295 -10.356  1.00  0.00     0.326 C 
ATOM     66  O   UNL     1      -5.910   0.339  -9.996  1.00  0.00    -0.250 OA
BRANCH  65  67
ATOM     67  O   UNL     1      -4.341   1.025 -11.419  1.00  0.00    -0.480 OA
ATOM     68  H   UNL     1      -3.398   0.776 -11.529  1.00  0.00     0.296 HD
ENDBRANCH  65  67
ENDBRANCH  49  65
ENDBRANCH  47  49
ENDBRANCH  43  45
ENDBRANCH   1  43
BRANCH   1  69
ATOM     69  C   UNL     1      -6.260  -0.058  -5.615  1.00  0.00    -0.001 C 
ATOM     70  C   UNL     1      -6.930   0.540  -6.616  1.00  0.00     0.001 C 
BRANCH  70  71
ATOM     71  C   UNL     1      -7.531   1.875  -6.598  1.00  0.00    -0.055 C 
ATOM     72  C   UNL     1      -7.286   2.659  -5.527  1.00  0.00    -0.018 C 
ATOM     73  C   UNL     1      -8.374   2.282  -7.778  1.00  0.00     0.044 C 
BRANCH  72  74
ATOM     74  C   UNL     1      -7.767   4.074  -5.239  1.00  0.00     0.038 C 
ATOM     75  C   UNL     1      -9.256   3.982  -4.885  1.00  0.00     0.015 C 
BRANCH  74  76
ATOM     76  C   UNL     1      -7.442   4.974  -6.467  1.00  0.00     0.128 C 
BRANCH  76  77
ATOM     77  O   UNL     1      -8.428   6.013  -6.590  1.00  0.00    -0.381 OA
ATOM     78  C   UNL     1      -8.788   6.303  -7.934  1.00  0.00     0.195 C 
ENDBRANCH  76  77
BRANCH  76  79
ATOM     79  C   UNL     1      -5.991   5.519  -6.482  1.00  0.00     0.068 C 
BRANCH  79  80
ATOM     80  C   UNL     1      -4.865   4.529  -6.658  1.00  0.00    -0.045 A 
ATOM     81  C   UNL     1      -4.679   3.855  -7.872  1.00  0.00     0.004 A 
ATOM     82  C   UNL     1      -3.999   4.246  -5.590  1.00  0.00     0.004 A 
ATOM     83  C   UNL     1      -3.644   2.930  -8.022  1.00  0.00     0.000 A 
ATOM     84  C   UNL     1      -2.965   3.320  -5.741  1.00  0.00     0.000 A 
ATOM     85  C   UNL     1      -2.786   2.664  -6.957  1.00  0.00     0.000 A 
ENDBRANCH  79  80
ENDBRANCH  76  79
ENDBRANCH  74  76
ENDBRANCH  72  74
ENDBRANCH  70  71
ENDBRANCH   1  69
TORSDOF 17
ENDMDL
MODEL 36
REMARK VINA RESULT:    -5.918     19.240     24.544
REMARK INTER + INTRA:         -25.291
REMARK INTER:                 -17.847
REMARK INTRA:                  -7.445
REMARK UNBOUND:                -7.611
REMARK SMILES C=C1C(=O)N[C@H](C)C(=O)N[C@@H](CC(C)C)C(=O)N[C@@H](C(=O)O)[C@H](C)C(=O)N[C@@H](CCCN=C(N)N)C(=O)N[C@@H](/C=C/C(C)=C/[C@H](C)[C@H](Cc2ccccc2)OC)[C@H](C)C(=O)N[C@@H](C(=O)O)CCC(=O)N1C
REMARK SMILES IDX 39 1 38 2 37 3 36 4 28 6 27 7 25 8 26 9 23 11 24 12 19 13
REMARK SMILES IDX 18 14 16 15 17 16 11 18 10 19 8 20 9 21 12 24 13 25 14 26
REMARK SMILES IDX 15 27 20 28 21 29 22 30 29 32 30 33 31 34 32 35 33 36 34 37
REMARK SMILES IDX 35 38 57 43 58 44 59 45 60 46 61 47 62 49 66 50 67 51 68 52
REMARK SMILES IDX 69 53 70 54 71 55 2 56 1 57 3 58 4 59 5 60 6 62 7 63 63 65
REMARK SMILES IDX 64 66 65 67 40 69 41 70 42 71 44 72 43 73 45 74 46 75 47 76
REMARK SMILES IDX 55 77 56 78 48 79 49 80 50 81 54 82 51 83 53 84 52 85
REMARK H PARENT 38 5 27 10 18 17 10 22 22 31 34 39 34 40 35 41 35 42 61 48
REMARK H PARENT 5 61 65 68
REMARK Flexibility Score:  369.900
ROOT
ATOM      1  C   UNL     1      -6.668  -0.645  12.431  1.00  0.00     0.117 C 
ENDROOT
BRANCH   1   2
ATOM      2  N   UNL     1      -7.944  -1.301  12.716  1.00  0.00    -0.347 N 
ATOM      3  O   UNL     1      -8.215  -0.537  14.864  1.00  0.00    -0.273 OA
ATOM      4  C   UNL     1      -8.663  -1.120  13.882  1.00  0.00     0.243 C 
ATOM      5  H   UNL     1      -8.367  -1.888  12.013  1.00  0.00     0.164 HD
BRANCH   4   6
ATOM      6  C   UNL     1     -10.024  -1.862  13.897  1.00  0.00     0.171 C 
BRANCH   6   7
ATOM      7  N   UNL     1     -10.668  -1.782  12.576  1.00  0.00    -0.344 N 
ATOM      8  C   UNL     1     -11.866  -1.120  12.418  1.00  0.00     0.226 C 
ATOM      9  O   UNL     1     -12.459  -0.594  13.353  1.00  0.00    -0.275 OA
ATOM     10  H   UNL     1     -10.243  -2.261  11.793  1.00  0.00     0.164 HD
BRANCH   8  11
ATOM     11  C   UNL     1     -12.374  -1.078  10.987  1.00  0.00     0.109 C 
ATOM     12  C   UNL     1     -11.221  -0.780  10.029  1.00  0.00     0.021 C 
BRANCH  11  13
ATOM     13  C   UNL     1     -13.159  -2.367  10.674  1.00  0.00     0.204 C 
BRANCH  13  14
ATOM     14  N   UNL     1     -14.280  -2.568  11.599  1.00  0.00    -0.340 N 
ATOM     15  C   UNL     1     -14.739  -3.817  11.958  1.00  0.00     0.243 C 
ATOM     16  O   UNL     1     -14.200  -4.854  11.575  1.00  0.00    -0.273 OA
ATOM     17  H   UNL     1     -14.862  -1.759  11.831  1.00  0.00     0.164 HD
BRANCH  15  18
ATOM     18  C   UNL     1     -16.054  -3.782  12.774  1.00  0.00     0.171 C 
BRANCH  18  19
ATOM     19  N   UNL     1     -15.783  -4.468  14.035  1.00  0.00    -0.343 N 
ATOM     20  C   UNL     1     -16.466  -5.611  14.405  1.00  0.00     0.242 CG0
ATOM     21  O   UNL     1     -17.421  -6.028  13.755  1.00  0.00    -0.273 OA
ATOM     22  H   UNL     1     -15.080  -4.095  14.663  1.00  0.00     0.164 HD
ATOM     23  G   UNL     1     -15.988  -6.237  15.731  1.00  0.00     0.000 G0
ENDBRANCH  18  19
BRANCH  18  24
ATOM     24  C   UNL     1     -16.508  -2.335  13.007  1.00  0.00     0.038 C 
BRANCH  24  25
ATOM     25  C   UNL     1     -17.528  -1.806  11.976  1.00  0.00    -0.015 C 
ATOM     26  C   UNL     1     -18.453  -0.739  12.563  1.00  0.00     0.007 C 
ATOM     27  C   UNL     1     -18.362  -2.969  11.433  1.00  0.00     0.007 C 
ENDBRANCH  24  25
ENDBRANCH  18  24
ENDBRANCH  15  18
ENDBRANCH  13  14
BRANCH  13  28
ATOM     28  C   UNL     1     -13.732  -2.395   9.254  1.00  0.00     0.327 C 
ATOM     29  O   UNL     1     -14.676  -1.738   8.842  1.00  0.00    -0.250 OA
BRANCH  28  30
ATOM     30  O   UNL     1     -13.161  -3.334   8.472  1.00  0.00    -0.480 OA
ATOM     31  H   UNL     1     -13.626  -3.249   7.614  1.00  0.00     0.296 HD
ENDBRANCH  28  30
ENDBRANCH  13  28
ENDBRANCH  11  13
ENDBRANCH   8  11
ENDBRANCH   6   7
BRANCH   6  32
ATOM     32  C   UNL     1      -9.797  -3.322  14.307  1.00  0.00     0.037 C 
BRANCH  32  33
ATOM     33  C   UNL     1     -11.090  -4.147  14.249  1.00  0.00     0.026 C 
BRANCH  33  34
ATOM     34  C   UNL     1     -11.021  -5.270  13.214  1.00  0.00     0.146 C 
BRANCH  34  35
ATOM     35  N   UNL     1     -10.660  -4.698  11.924  1.00  0.00    -0.254 NA
ATOM     36  C   UNL     1     -10.982  -5.333  10.858  1.00  0.00     0.185 C 
ATOM     37  N   UNL     1     -10.658  -4.812   9.664  1.00  0.00    -0.370 N 
ATOM     38  N   UNL     1     -11.631  -6.504  10.737  1.00  0.00    -0.370 N 
ATOM     39  H   UNL     1     -10.175  -3.923   9.672  1.00  0.00     0.159 HD
ATOM     40  H   UNL     1     -11.022  -5.154   8.792  1.00  0.00     0.159 HD
ATOM     41  H   UNL     1     -11.702  -6.970   9.847  1.00  0.00     0.159 HD
ATOM     42  H   UNL     1     -11.921  -7.017  11.554  1.00  0.00     0.159 HD
ENDBRANCH  34  35
ENDBRANCH  33  34
ENDBRANCH  32  33
ENDBRANCH   6  32
ENDBRANCH   4   6
ENDBRANCH   1   2
BRANCH   1  43
ATOM     43  C   UNL     1      -6.842   0.249  11.170  1.00  0.00     0.102 C 
ATOM     44  C   UNL     1      -5.778  -0.003  10.088  1.00  0.00     0.020 C 
BRANCH  43  45
ATOM     45  C   UNL     1      -6.996   1.723  11.558  1.00  0.00     0.225 C 
ATOM     46  O   UNL     1      -7.872   2.450  11.098  1.00  0.00    -0.275 OA
ATOM     47  N   UNL     1      -6.023   2.220  12.395  1.00  0.00    -0.342 N 
ATOM     48  H   UNL     1      -5.407   1.582  12.880  1.00  0.00     0.164 HD
BRANCH  47  49
ATOM     49  C   UNL     1      -6.062   3.603  12.879  1.00  0.00     0.192 C 
BRANCH  49  50
ATOM     50  C   UNL     1      -4.662   4.216  12.796  1.00  0.00     0.047 C 
BRANCH  50  51
ATOM     51  C   UNL     1      -3.606   3.197  12.348  1.00  0.00     0.103 C 
BRANCH  51  52
ATOM     52  C   UNL     1      -2.265   3.416  13.045  1.00  0.00     0.226 C 
ATOM     53  O   UNL     1      -2.241   3.763  14.228  1.00  0.00    -0.275 OA
BRANCH  52  54
ATOM     54  N   UNL     1      -1.112   3.127  12.292  1.00  0.00    -0.311 N 
ATOM     55  C   UNL     1      -0.466   1.810  12.374  1.00  0.00     0.153 C 
BRANCH  54  56
ATOM     56  C   UNL     1      -0.540   4.080  11.432  1.00  0.00     0.102 C 
ATOM     57  C   UNL     1      -0.853   4.229  10.135  1.00  0.00     0.043 C 
BRANCH  56  58
ATOM     58  C   UNL     1       0.476   5.073  11.943  1.00  0.00     0.268 C 
ATOM     59  O   UNL     1       0.353   5.673  13.002  1.00  0.00    -0.268 OA
ATOM     60  N   UNL     1       1.580   5.183  11.132  1.00  0.00    -0.339 N 
ATOM     61  H   UNL     1       1.601   4.659  10.265  1.00  0.00     0.164 HD
BRANCH  60  62
ATOM     62  C   UNL     1       2.714   6.042  11.470  1.00  0.00     0.168 CG0
ATOM     63  C   UNL     1       3.980   5.583  10.757  1.00  0.00     0.041 C 
ATOM     64  G   UNL     1       2.920   6.048  12.999  1.00  0.00     0.000 G0
ENDBRANCH  60  62
ENDBRANCH  56  58
ENDBRANCH  54  56
ENDBRANCH  52  54
ENDBRANCH  51  52
ENDBRANCH  50  51
ENDBRANCH  49  50
BRANCH  49  65
ATOM     65  C   UNL     1      -6.569   3.684  14.327  1.00  0.00     0.326 C 
ATOM     66  O   UNL     1      -5.909   4.043  15.292  1.00  0.00    -0.250 OA
BRANCH  65  67
ATOM     67  O   UNL     1      -7.839   3.258  14.505  1.00  0.00    -0.480 OA
ATOM     68  H   UNL     1      -8.229   3.936  15.098  1.00  0.00     0.296 HD
ENDBRANCH  65  67
ENDBRANCH  49  65
ENDBRANCH  47  49
ENDBRANCH  43  45
ENDBRANCH   1  43
BRANCH   1  69
ATOM     69  C   UNL     1      -5.621  -1.744  12.412  1.00  0.00    -0.001 C 
ATOM     70  C   UNL     1      -4.801  -2.109  13.413  1.00  0.00     0.001 C 
BRANCH  70  71
ATOM     71  C   UNL     1      -3.809  -3.186  13.389  1.00  0.00    -0.055 C 
ATOM     72  C   UNL     1      -2.631  -2.941  12.778  1.00  0.00    -0.018 C 
ATOM     73  C   UNL     1      -4.170  -4.488  14.055  1.00  0.00     0.044 C 
BRANCH  72  74
ATOM     74  C   UNL     1      -1.427  -3.856  12.604  1.00  0.00     0.038 C 
ATOM     75  C   UNL     1      -0.560  -3.707  13.859  1.00  0.00     0.015 C 
BRANCH  74  76
ATOM     76  C   UNL     1      -0.712  -3.494  11.269  1.00  0.00     0.128 C 
BRANCH  76  77
ATOM     77  O   UNL     1       0.063  -4.614  10.808  1.00  0.00    -0.381 OA
ATOM     78  C   UNL     1       1.435  -4.309  10.594  1.00  0.00     0.195 C 
ENDBRANCH  76  77
BRANCH  76  79
ATOM     79  C   UNL     1      -1.659  -2.931  10.179  1.00  0.00     0.068 C 
BRANCH  79  80
ATOM     80  C   UNL     1      -1.356  -1.564   9.616  1.00  0.00    -0.045 A 
ATOM     81  C   UNL     1      -2.249  -0.498   9.789  1.00  0.00     0.004 A 
ATOM     82  C   UNL     1      -0.181  -1.346   8.882  1.00  0.00     0.004 A 
ATOM     83  C   UNL     1      -1.968   0.760   9.253  1.00  0.00     0.000 A 
ATOM     84  C   UNL     1       0.099  -0.088   8.345  1.00  0.00     0.000 A 
ATOM     85  C   UNL     1      -0.793   0.965   8.532  1.00  0.00     0.000 A 
ENDBRANCH  79  80
ENDBRANCH  76  79
ENDBRANCH  74  76
ENDBRANCH  72  74
ENDBRANCH  70  71
ENDBRANCH   1  69
TORSDOF 17
ENDMDL
MODEL 37
REMARK VINA RESULT:    -5.896     16.509     23.610
REMARK INTER + INTRA:         -25.228
REMARK INTER:                 -18.578
REMARK INTRA:                  -6.649
REMARK UNBOUND:                -7.611
REMARK SMILES C=C1C(=O)N[C@H](C)C(=O)N[C@@H](CC(C)C)C(=O)N[C@@H](C(=O)O)[C@H](C)C(=O)N[C@@H](CCCN=C(N)N)C(=O)N[C@@H](/C=C/C(C)=C/[C@H](C)[C@H](Cc2ccccc2)OC)[C@H](C)C(=O)N[C@@H](C(=O)O)CCC(=O)N1C
REMARK SMILES IDX 39 1 38 2 37 3 36 4 28 6 27 7 25 8 26 9 23 11 24 12 19 13
REMARK SMILES IDX 18 14 16 15 17 16 11 18 10 19 8 20 9 21 12 24 13 25 14 26
REMARK SMILES IDX 15 27 20 28 21 29 22 30 29 32 30 33 31 34 32 35 33 36 34 37
REMARK SMILES IDX 35 38 57 43 58 44 59 45 60 46 61 47 62 49 66 50 67 51 68 52
REMARK SMILES IDX 69 53 70 54 71 55 2 56 1 57 3 58 4 59 5 60 6 62 7 63 63 65
REMARK SMILES IDX 64 66 65 67 40 69 41 70 42 71 44 72 43 73 45 74 46 75 47 76
REMARK SMILES IDX 55 77 56 78 48 79 49 80 50 81 54 82 51 83 53 84 52 85
REMARK H PARENT 38 5 27 10 18 17 10 22 22 31 34 39 34 40 35 41 35 42 61 48
REMARK H PARENT 5 61 65 68
REMARK Flexibility Score:  369.900
ROOT
ATOM      1  C   UNL     1      -7.536  -0.306  11.233  1.00  0.00     0.117 C 
ENDROOT
BRANCH   1   2
ATOM      2  N   UNL     1      -8.633  -1.130  11.744  1.00  0.00    -0.347 N 
ATOM      3  O   UNL     1      -7.916  -1.293  13.919  1.00  0.00    -0.273 OA
ATOM      4  C   UNL     1      -8.782  -1.482  13.071  1.00  0.00     0.243 C 
ATOM      5  H   UNL     1      -9.362  -1.429  11.114  1.00  0.00     0.164 HD
BRANCH   4   6
ATOM      6  C   UNL     1     -10.075  -2.286  13.361  1.00  0.00     0.171 C 
BRANCH   6   7
ATOM      7  N   UNL     1     -11.101  -1.993  12.348  1.00  0.00    -0.344 N 
ATOM      8  C   UNL     1     -12.191  -1.208  12.657  1.00  0.00     0.226 C 
ATOM      9  O   UNL     1     -12.373  -0.742  13.775  1.00  0.00    -0.275 OA
ATOM     10  H   UNL     1     -11.021  -2.416  11.431  1.00  0.00     0.164 HD
BRANCH   8  11
ATOM     11  C   UNL     1     -13.130  -0.954  11.490  1.00  0.00     0.109 C 
ATOM     12  C   UNL     1     -12.336  -0.862  10.187  1.00  0.00     0.021 C 
BRANCH  11  13
ATOM     13  C   UNL     1     -14.258  -2.004  11.490  1.00  0.00     0.204 C 
BRANCH  13  14
ATOM     14  N   UNL     1     -15.575  -1.400  11.266  1.00  0.00    -0.340 N 
ATOM     15  C   UNL     1     -16.657  -1.639  12.085  1.00  0.00     0.243 C 
ATOM     16  O   UNL     1     -16.579  -2.330  13.099  1.00  0.00    -0.273 OA
ATOM     17  H   UNL     1     -15.747  -0.943  10.366  1.00  0.00     0.164 HD
BRANCH  15  18
ATOM     18  C   UNL     1     -17.986  -1.063  11.536  1.00  0.00     0.171 C 
BRANCH  18  19
ATOM     19  N   UNL     1     -18.838  -2.208  11.218  1.00  0.00    -0.343 N 
ATOM     20  C   UNL     1     -18.591  -3.018  10.126  1.00  0.00     0.242 CG0
ATOM     21  O   UNL     1     -17.727  -2.738   9.299  1.00  0.00    -0.273 OA
ATOM     22  H   UNL     1     -19.636  -2.413  11.808  1.00  0.00     0.164 HD
ATOM     23  G   UNL     1     -19.549  -4.221   9.997  1.00  0.00     0.000 G0
ENDBRANCH  18  19
BRANCH  18  24
ATOM     24  C   UNL     1     -18.646  -0.143  12.571  1.00  0.00     0.038 C 
BRANCH  24  25
ATOM     25  C   UNL     1     -19.453   1.027  11.971  1.00  0.00    -0.015 C 
ATOM     26  C   UNL     1     -20.963   0.801  12.056  1.00  0.00     0.007 C 
ATOM     27  C   UNL     1     -19.046   1.238  10.510  1.00  0.00     0.007 C 
ENDBRANCH  24  25
ENDBRANCH  18  24
ENDBRANCH  15  18
ENDBRANCH  13  14
BRANCH  13  28
ATOM     28  C   UNL     1     -14.071  -3.091  10.427  1.00  0.00     0.327 C 
ATOM     29  O   UNL     1     -13.419  -4.117  10.549  1.00  0.00    -0.250 OA
BRANCH  28  30
ATOM     30  O   UNL     1     -14.615  -2.766   9.237  1.00  0.00    -0.480 OA
ATOM     31  H   UNL     1     -15.404  -2.233   9.470  1.00  0.00     0.296 HD
ENDBRANCH  28  30
ENDBRANCH  13  28
ENDBRANCH  11  13
ENDBRANCH   8  11
ENDBRANCH   6   7
BRANCH   6  32
ATOM     32  C   UNL     1      -9.743  -3.782  13.387  1.00  0.00     0.037 C 
BRANCH  32  33
ATOM     33  C   UNL     1     -10.164  -4.446  14.706  1.00  0.00     0.026 C 
BRANCH  33  34
ATOM     34  C   UNL     1     -11.563  -4.022  15.154  1.00  0.00     0.146 C 
BRANCH  34  35
ATOM     35  N   UNL     1     -12.549  -4.708  14.330  1.00  0.00    -0.254 NA
ATOM     36  C   UNL     1     -13.733  -4.226  14.259  1.00  0.00     0.185 C 
ATOM     37  N   UNL     1     -14.648  -4.848  13.499  1.00  0.00    -0.370 N 
ATOM     38  N   UNL     1     -14.238  -3.133  14.858  1.00  0.00    -0.370 N 
ATOM     39  H   UNL     1     -14.341  -5.677  13.005  1.00  0.00     0.159 HD
ATOM     40  H   UNL     1     -15.535  -4.444  13.254  1.00  0.00     0.159 HD
ATOM     41  H   UNL     1     -15.225  -2.934  14.834  1.00  0.00     0.159 HD
ATOM     42  H   UNL     1     -13.666  -2.575  15.473  1.00  0.00     0.159 HD
ENDBRANCH  34  35
ENDBRANCH  33  34
ENDBRANCH  32  33
ENDBRANCH   6  32
ENDBRANCH   4   6
ENDBRANCH   1   2
BRANCH   1  43
ATOM     43  C   UNL     1      -8.026   1.168  11.140  1.00  0.00     0.102 C 
ATOM     44  C   UNL     1      -8.419   1.593   9.716  1.00  0.00     0.020 C 
BRANCH  43  45
ATOM     45  C   UNL     1      -7.039   2.119  11.823  1.00  0.00     0.225 C 
ATOM     46  O   UNL     1      -7.319   3.278  12.118  1.00  0.00    -0.275 OA
ATOM     47  N   UNL     1      -5.768   1.624  12.005  1.00  0.00    -0.342 N 
ATOM     48  H   UNL     1      -5.597   0.634  11.899  1.00  0.00     0.164 HD
BRANCH  47  49
ATOM     49  C   UNL     1      -4.729   2.409  12.677  1.00  0.00     0.192 C 
BRANCH  49  50
ATOM     50  C   UNL     1      -3.356   2.035  12.113  1.00  0.00     0.047 C 
BRANCH  50  51
ATOM     51  C   UNL     1      -2.581   3.259  11.607  1.00  0.00     0.103 C 
BRANCH  51  52
ATOM     52  C   UNL     1      -1.637   2.907  10.459  1.00  0.00     0.226 C 
ATOM     53  O   UNL     1      -1.811   1.864   9.824  1.00  0.00    -0.275 OA
BRANCH  52  54
ATOM     54  N   UNL     1      -0.650   3.858  10.144  1.00  0.00    -0.311 N 
ATOM     55  C   UNL     1      -0.623   4.513   8.829  1.00  0.00     0.153 C 
BRANCH  54  56
ATOM     56  C   UNL     1       0.340   4.221  11.072  1.00  0.00     0.102 C 
ATOM     57  C   UNL     1       1.321   3.413  11.505  1.00  0.00     0.043 C 
BRANCH  56  58
ATOM     58  C   UNL     1       0.397   5.621  11.637  1.00  0.00     0.268 C 
ATOM     59  O   UNL     1       0.039   5.900  12.773  1.00  0.00    -0.268 OA
ATOM     60  N   UNL     1       0.951   6.532  10.769  1.00  0.00    -0.339 N 
ATOM     61  H   UNL     1       1.212   6.223   9.841  1.00  0.00     0.164 HD
BRANCH  60  62
ATOM     62  C   UNL     1       1.158   7.932  11.137  1.00  0.00     0.168 CG0
ATOM     63  C   UNL     1       2.459   8.107  11.911  1.00  0.00     0.041 C 
ATOM     64  G   UNL     1      -0.042   8.432  11.966  1.00  0.00     0.000 G0
ENDBRANCH  60  62
ENDBRANCH  56  58
ENDBRANCH  54  56
ENDBRANCH  52  54
ENDBRANCH  51  52
ENDBRANCH  50  51
ENDBRANCH  49  50
BRANCH  49  65
ATOM     65  C   UNL     1      -4.735   2.177  14.196  1.00  0.00     0.326 C 
ATOM     66  O   UNL     1      -3.946   1.474  14.811  1.00  0.00    -0.250 OA
BRANCH  65  67
ATOM     67  O   UNL     1      -5.751   2.778  14.854  1.00  0.00    -0.480 OA
ATOM     68  H   UNL     1      -5.378   3.648  15.111  1.00  0.00     0.296 HD
ENDBRANCH  65  67
ENDBRANCH  49  65
ENDBRANCH  47  49
ENDBRANCH  43  45
ENDBRANCH   1  43
BRANCH   1  69
ATOM     69  C   UNL     1      -7.039  -0.995   9.976  1.00  0.00    -0.001 C 
ATOM     70  C   UNL     1      -5.780  -1.025   9.504  1.00  0.00     0.001 C 
BRANCH  70  71
ATOM     71  C   UNL     1      -5.308  -1.711   8.299  1.00  0.00    -0.055 C 
ATOM     72  C   UNL     1      -6.235  -2.132   7.413  1.00  0.00    -0.018 C 
ATOM     73  C   UNL     1      -3.822  -1.891   8.130  1.00  0.00     0.044 C 
BRANCH  72  74
ATOM     74  C   UNL     1      -6.042  -2.861   6.091  1.00  0.00     0.038 C 
ATOM     75  C   UNL     1      -6.283  -1.840   4.972  1.00  0.00     0.015 C 
BRANCH  74  76
ATOM     76  C   UNL     1      -6.985  -4.099   6.059  1.00  0.00     0.128 C 
BRANCH  76  77
ATOM     77  O   UNL     1      -6.292  -5.230   5.504  1.00  0.00    -0.381 OA
ATOM     78  C   UNL     1      -7.059  -6.426   5.504  1.00  0.00     0.195 C 
ENDBRANCH  76  77
BRANCH  76  79
ATOM     79  C   UNL     1      -7.655  -4.416   7.420  1.00  0.00     0.068 C 
BRANCH  79  80
ATOM     80  C   UNL     1      -9.158  -4.553   7.454  1.00  0.00    -0.045 A 
ATOM     81  C   UNL     1      -9.976  -3.724   6.675  1.00  0.00     0.004 A 
ATOM     82  C   UNL     1      -9.763  -5.500   8.294  1.00  0.00     0.004 A 
ATOM     83  C   UNL     1     -11.366  -3.847   6.723  1.00  0.00     0.000 A 
ATOM     84  C   UNL     1     -11.153  -5.622   8.341  1.00  0.00     0.000 A 
ATOM     85  C   UNL     1     -11.954  -4.797   7.555  1.00  0.00     0.000 A 
ENDBRANCH  79  80
ENDBRANCH  76  79
ENDBRANCH  74  76
ENDBRANCH  72  74
ENDBRANCH  70  71
ENDBRANCH   1  69
TORSDOF 17
ENDMDL
MODEL 38
REMARK VINA RESULT:    -5.892     16.856     22.393
REMARK INTER + INTRA:         -25.214
REMARK INTER:                 -17.489
REMARK INTRA:                  -7.725
REMARK UNBOUND:                -7.611
REMARK SMILES C=C1C(=O)N[C@H](C)C(=O)N[C@@H](CC(C)C)C(=O)N[C@@H](C(=O)O)[C@H](C)C(=O)N[C@@H](CCCN=C(N)N)C(=O)N[C@@H](/C=C/C(C)=C/[C@H](C)[C@H](Cc2ccccc2)OC)[C@H](C)C(=O)N[C@@H](C(=O)O)CCC(=O)N1C
REMARK SMILES IDX 39 1 38 2 37 3 36 4 28 6 27 7 25 8 26 9 23 11 24 12 19 13
REMARK SMILES IDX 18 14 16 15 17 16 11 18 10 19 8 20 9 21 12 24 13 25 14 26
REMARK SMILES IDX 15 27 20 28 21 29 22 30 29 32 30 33 31 34 32 35 33 36 34 37
REMARK SMILES IDX 35 38 57 43 58 44 59 45 60 46 61 47 62 49 66 50 67 51 68 52
REMARK SMILES IDX 69 53 70 54 71 55 2 56 1 57 3 58 4 59 5 60 6 62 7 63 63 65
REMARK SMILES IDX 64 66 65 67 40 69 41 70 42 71 44 72 43 73 45 74 46 75 47 76
REMARK SMILES IDX 55 77 56 78 48 79 49 80 50 81 54 82 51 83 53 84 52 85
REMARK H PARENT 38 5 27 10 18 17 10 22 22 31 34 39 34 40 35 41 35 42 61 48
REMARK H PARENT 5 61 65 68
REMARK Flexibility Score:  369.900
ROOT
ATOM      1  C   UNL     1      -2.661  -3.718  10.824  1.00  0.00     0.117 C 
ENDROOT
BRANCH   1   2
ATOM      2  N   UNL     1      -4.121  -3.821  10.805  1.00  0.00    -0.347 N 
ATOM      3  O   UNL     1      -4.499  -2.567   8.920  1.00  0.00    -0.273 OA
ATOM      4  C   UNL     1      -4.919  -3.311   9.800  1.00  0.00     0.243 C 
ATOM      5  H   UNL     1      -4.590  -4.334  11.537  1.00  0.00     0.164 HD
BRANCH   4   6
ATOM      6  C   UNL     1      -6.425  -3.632   9.977  1.00  0.00     0.171 C 
BRANCH   6   7
ATOM      7  N   UNL     1      -7.174  -2.413  10.321  1.00  0.00    -0.344 N 
ATOM      8  C   UNL     1      -7.080  -1.863  11.581  1.00  0.00     0.226 C 
ATOM      9  O   UNL     1      -6.400  -2.362  12.471  1.00  0.00    -0.275 OA
ATOM     10  H   UNL     1      -7.798  -2.009   9.634  1.00  0.00     0.164 HD
BRANCH   8  11
ATOM     11  C   UNL     1      -7.868  -0.577  11.763  1.00  0.00     0.109 C 
ATOM     12  C   UNL     1      -7.890   0.215  10.456  1.00  0.00     0.021 C 
BRANCH  11  13
ATOM     13  C   UNL     1      -9.256  -0.895  12.353  1.00  0.00     0.204 C 
BRANCH  13  14
ATOM     14  N   UNL     1     -10.244  -1.190  11.310  1.00  0.00    -0.340 N 
ATOM     15  C   UNL     1     -11.418  -0.483  11.170  1.00  0.00     0.243 C 
ATOM     16  O   UNL     1     -11.693   0.487  11.874  1.00  0.00    -0.273 OA
ATOM     17  H   UNL     1     -10.150  -2.070  10.795  1.00  0.00     0.164 HD
BRANCH  15  18
ATOM     18  C   UNL     1     -12.395  -1.103  10.141  1.00  0.00     0.171 C 
BRANCH  18  19
ATOM     19  N   UNL     1     -13.715  -1.112  10.769  1.00  0.00    -0.343 N 
ATOM     20  C   UNL     1     -14.359  -2.291  11.092  1.00  0.00     0.242 CG0
ATOM     21  O   UNL     1     -13.914  -3.383  10.747  1.00  0.00    -0.273 OA
ATOM     22  H   UNL     1     -14.176  -0.232  10.969  1.00  0.00     0.164 HD
ATOM     23  G   UNL     1     -15.706  -2.100  11.819  1.00  0.00     0.000 G0
ENDBRANCH  18  19
BRANCH  18  24
ATOM     24  C   UNL     1     -12.397  -0.290   8.840  1.00  0.00     0.038 C 
BRANCH  24  25
ATOM     25  C   UNL     1     -12.684  -1.114   7.566  1.00  0.00    -0.015 C 
ATOM     26  C   UNL     1     -14.168  -1.124   7.198  1.00  0.00     0.007 C 
ATOM     27  C   UNL     1     -12.192  -2.550   7.761  1.00  0.00     0.007 C 
ENDBRANCH  24  25
ENDBRANCH  18  24
ENDBRANCH  15  18
ENDBRANCH  13  14
BRANCH  13  28
ATOM     28  C   UNL     1      -9.244  -2.086  13.316  1.00  0.00     0.327 C 
ATOM     29  O   UNL     1      -9.781  -3.168  13.134  1.00  0.00    -0.250 OA
BRANCH  28  30
ATOM     30  O   UNL     1      -8.661  -1.804  14.499  1.00  0.00    -0.480 OA
ATOM     31  H   UNL     1      -8.918  -2.550  15.079  1.00  0.00     0.296 HD
ENDBRANCH  28  30
ENDBRANCH  13  28
ENDBRANCH  11  13
ENDBRANCH   8  11
ENDBRANCH   6   7
BRANCH   6  32
ATOM     32  C   UNL     1      -6.962  -4.257   8.685  1.00  0.00     0.037 C 
BRANCH  32  33
ATOM     33  C   UNL     1      -7.284  -5.749   8.853  1.00  0.00     0.026 C 
BRANCH  33  34
ATOM     34  C   UNL     1      -8.787  -6.028   8.847  1.00  0.00     0.146 C 
BRANCH  34  35
ATOM     35  N   UNL     1      -9.407  -5.283   9.934  1.00  0.00    -0.254 NA
ATOM     36  C   UNL     1     -10.684  -5.292  10.035  1.00  0.00     0.185 C 
ATOM     37  N   UNL     1     -11.266  -4.614  11.037  1.00  0.00    -0.370 N 
ATOM     38  N   UNL     1     -11.589  -5.910   9.255  1.00  0.00    -0.370 N 
ATOM     39  H   UNL     1     -10.648  -4.130  11.676  1.00  0.00     0.159 HD
ATOM     40  H   UNL     1     -12.235  -4.712  11.286  1.00  0.00     0.159 HD
ATOM     41  H   UNL     1     -12.574  -5.727   9.355  1.00  0.00     0.159 HD
ATOM     42  H   UNL     1     -11.294  -6.445   8.453  1.00  0.00     0.159 HD
ENDBRANCH  34  35
ENDBRANCH  33  34
ENDBRANCH  32  33
ENDBRANCH   6  32
ENDBRANCH   4   6
ENDBRANCH   1   2
BRANCH   1  43
ATOM     43  C   UNL     1      -2.084  -4.983  11.523  1.00  0.00     0.102 C 
ATOM     44  C   UNL     1      -2.946  -5.481  12.695  1.00  0.00     0.020 C 
BRANCH  43  45
ATOM     45  C   UNL     1      -0.607  -4.790  11.876  1.00  0.00     0.225 C 
ATOM     46  O   UNL     1      -0.224  -4.423  12.983  1.00  0.00    -0.275 OA
ATOM     47  N   UNL     1       0.279  -4.966  10.837  1.00  0.00    -0.342 N 
ATOM     48  H   UNL     1      -0.032  -5.411   9.985  1.00  0.00     0.164 HD
BRANCH  47  49
ATOM     49  C   UNL     1       1.726  -4.849  11.036  1.00  0.00     0.192 C 
BRANCH  49  50
ATOM     50  C   UNL     1       2.381  -4.326   9.755  1.00  0.00     0.047 C 
BRANCH  50  51
ATOM     51  C   UNL     1       1.462  -4.462   8.534  1.00  0.00     0.103 C 
BRANCH  51  52
ATOM     52  C   UNL     1       2.028  -5.428   7.495  1.00  0.00     0.226 C 
ATOM     53  O   UNL     1       2.622  -6.443   7.865  1.00  0.00    -0.275 OA
BRANCH  52  54
ATOM     54  N   UNL     1       1.762  -5.125   6.146  1.00  0.00    -0.311 N 
ATOM     55  C   UNL     1       1.544  -3.739   5.712  1.00  0.00     0.153 C 
BRANCH  54  56
ATOM     56  C   UNL     1       1.699  -6.131   5.168  1.00  0.00     0.102 C 
ATOM     57  C   UNL     1       0.572  -6.733   4.756  1.00  0.00     0.043 C 
BRANCH  56  58
ATOM     58  C   UNL     1       2.946  -6.592   4.450  1.00  0.00     0.268 C 
ATOM     59  O   UNL     1       3.644  -5.848   3.775  1.00  0.00    -0.268 OA
ATOM     60  N   UNL     1       3.249  -7.912   4.688  1.00  0.00    -0.339 N 
ATOM     61  H   UNL     1       2.613  -8.464   5.251  1.00  0.00     0.164 HD
BRANCH  60  62
ATOM     62  C   UNL     1       4.447  -8.547   4.141  1.00  0.00     0.168 CG0
ATOM     63  C   UNL     1       5.052  -9.526   5.140  1.00  0.00     0.041 C 
ATOM     64  G   UNL     1       5.473  -7.463   3.750  1.00  0.00     0.000 G0
ENDBRANCH  60  62
ENDBRANCH  56  58
ENDBRANCH  54  56
ENDBRANCH  52  54
ENDBRANCH  51  52
ENDBRANCH  50  51
ENDBRANCH  49  50
BRANCH  49  65
ATOM     65  C   UNL     1       2.357  -6.198  11.415  1.00  0.00     0.326 C 
ATOM     66  O   UNL     1       3.230  -6.364  12.255  1.00  0.00    -0.250 OA
BRANCH  65  67
ATOM     67  O   UNL     1       1.914  -7.251  10.692  1.00  0.00    -0.480 OA
ATOM     68  H   UNL     1       2.622  -7.388  10.026  1.00  0.00     0.296 HD
ENDBRANCH  65  67
ENDBRANCH  49  65
ENDBRANCH  47  49
ENDBRANCH  43  45
ENDBRANCH   1  43
BRANCH   1  69
ATOM     69  C   UNL     1      -2.340  -2.351  11.400  1.00  0.00    -0.001 C 
ATOM     70  C   UNL     1      -3.000  -1.699  12.374  1.00  0.00     0.001 C 
BRANCH  70  71
ATOM     71  C   UNL     1      -2.668  -0.389  12.937  1.00  0.00    -0.055 C 
ATOM     72  C   UNL     1      -3.152   0.704  12.311  1.00  0.00    -0.018 C 
ATOM     73  C   UNL     1      -1.816  -0.354  14.179  1.00  0.00     0.044 C 
BRANCH  72  74
ATOM     74  C   UNL     1      -2.976   2.174  12.665  1.00  0.00     0.038 C 
ATOM     75  C   UNL     1      -4.378   2.792  12.742  1.00  0.00     0.015 C 
BRANCH  74  76
ATOM     76  C   UNL     1      -2.029   2.831  11.619  1.00  0.00     0.128 C 
BRANCH  76  77
ATOM     77  O   UNL     1      -2.035   4.260  11.780  1.00  0.00    -0.381 OA
ATOM     78  C   UNL     1      -0.736   4.829  11.880  1.00  0.00     0.195 C 
ENDBRANCH  76  77
BRANCH  76  79
ATOM     79  C   UNL     1      -0.599   2.236  11.603  1.00  0.00     0.068 C 
BRANCH  79  80
ATOM     80  C   UNL     1      -0.324   1.079  10.673  1.00  0.00    -0.045 A 
ATOM     81  C   UNL     1       0.493   0.012  11.068  1.00  0.00     0.004 A 
ATOM     82  C   UNL     1      -0.865   1.070   9.378  1.00  0.00     0.004 A 
ATOM     83  C   UNL     1       0.753  -1.047  10.196  1.00  0.00     0.000 A 
ATOM     84  C   UNL     1      -0.603   0.011   8.506  1.00  0.00     0.000 A 
ATOM     85  C   UNL     1       0.204  -1.048   8.916  1.00  0.00     0.000 A 
ENDBRANCH  79  80
ENDBRANCH  76  79
ENDBRANCH  74  76
ENDBRANCH  72  74
ENDBRANCH  70  71
ENDBRANCH   1  69
TORSDOF 17
ENDMDL
MODEL 39
REMARK VINA RESULT:    -5.892      3.252     11.707
REMARK INTER + INTRA:         -25.214
REMARK INTER:                 -17.663
REMARK INTRA:                  -7.551
REMARK UNBOUND:                -7.611
REMARK SMILES C=C1C(=O)N[C@H](C)C(=O)N[C@@H](CC(C)C)C(=O)N[C@@H](C(=O)O)[C@H](C)C(=O)N[C@@H](CCCN=C(N)N)C(=O)N[C@@H](/C=C/C(C)=C/[C@H](C)[C@H](Cc2ccccc2)OC)[C@H](C)C(=O)N[C@@H](C(=O)O)CCC(=O)N1C
REMARK SMILES IDX 39 1 38 2 37 3 36 4 28 6 27 7 25 8 26 9 23 11 24 12 19 13
REMARK SMILES IDX 18 14 16 15 17 16 11 18 10 19 8 20 9 21 12 24 13 25 14 26
REMARK SMILES IDX 15 27 20 28 21 29 22 30 29 32 30 33 31 34 32 35 33 36 34 37
REMARK SMILES IDX 35 38 57 43 58 44 59 45 60 46 61 47 62 49 66 50 67 51 68 52
REMARK SMILES IDX 69 53 70 54 71 55 2 56 1 57 3 58 4 59 5 60 6 62 7 63 63 65
REMARK SMILES IDX 64 66 65 67 40 69 41 70 42 71 44 72 43 73 45 74 46 75 47 76
REMARK SMILES IDX 55 77 56 78 48 79 49 80 50 81 54 82 51 83 53 84 52 85
REMARK H PARENT 38 5 27 10 18 17 10 22 22 31 34 39 34 40 35 41 35 42 61 48
REMARK H PARENT 5 61 65 68
REMARK Flexibility Score:  369.900
ROOT
ATOM      1  C   UNL     1      -6.251   3.701  -7.164  1.00  0.00     0.117 C 
ENDROOT
BRANCH   1   2
ATOM      2  N   UNL     1      -7.331   3.054  -6.417  1.00  0.00    -0.347 N 
ATOM      3  O   UNL     1      -6.176   1.185  -5.752  1.00  0.00    -0.273 OA
ATOM      4  C   UNL     1      -7.179   1.888  -5.692  1.00  0.00     0.243 C 
ATOM      5  H   UNL     1      -8.237   3.496  -6.376  1.00  0.00     0.164 HD
BRANCH   4   6
ATOM      6  C   UNL     1      -8.456   1.463  -4.922  1.00  0.00     0.171 C 
BRANCH   6   7
ATOM      7  N   UNL     1      -9.342   2.619  -4.717  1.00  0.00    -0.344 N 
ATOM      8  C   UNL     1      -9.978   2.812  -3.510  1.00  0.00     0.226 C 
ATOM      9  O   UNL     1      -9.860   2.034  -2.570  1.00  0.00    -0.275 OA
ATOM     10  H   UNL     1      -9.518   3.247  -5.492  1.00  0.00     0.164 HD
BRANCH   8  11
ATOM     11  C   UNL     1     -10.814   4.078  -3.438  1.00  0.00     0.109 C 
ATOM     12  C   UNL     1     -10.627   4.905  -4.710  1.00  0.00     0.021 C 
BRANCH  11  13
ATOM     13  C   UNL     1     -12.276   3.719  -3.106  1.00  0.00     0.204 C 
BRANCH  13  14
ATOM     14  N   UNL     1     -12.580   2.316  -3.401  1.00  0.00    -0.340 N 
ATOM     15  C   UNL     1     -13.576   1.933  -4.273  1.00  0.00     0.243 C 
ATOM     16  O   UNL     1     -14.241   2.745  -4.914  1.00  0.00    -0.273 OA
ATOM     17  H   UNL     1     -12.173   1.598  -2.795  1.00  0.00     0.164 HD
BRANCH  15  18
ATOM     18  C   UNL     1     -13.852   0.409  -4.267  1.00  0.00     0.171 C 
BRANCH  18  19
ATOM     19  N   UNL     1     -14.861   0.162  -5.295  1.00  0.00    -0.343 N 
ATOM     20  C   UNL     1     -16.084  -0.407  -4.996  1.00  0.00     0.242 CG0
ATOM     21  O   UNL     1     -16.329  -0.852  -3.877  1.00  0.00    -0.273 OA
ATOM     22  H   UNL     1     -14.659   0.408  -6.258  1.00  0.00     0.164 HD
ATOM     23  G   UNL     1     -17.046  -0.516  -6.196  1.00  0.00     0.000 G0
ENDBRANCH  18  19
BRANCH  18  24
ATOM     24  C   UNL     1     -12.564  -0.376  -4.542  1.00  0.00     0.038 C 
BRANCH  24  25
ATOM     25  C   UNL     1     -12.103  -1.285  -3.383  1.00  0.00    -0.015 C 
ATOM     26  C   UNL     1     -11.609  -2.648  -3.869  1.00  0.00     0.007 C 
ATOM     27  C   UNL     1     -13.253  -1.478  -2.391  1.00  0.00     0.007 C 
ENDBRANCH  24  25
ENDBRANCH  18  24
ENDBRANCH  15  18
ENDBRANCH  13  14
BRANCH  13  28
ATOM     28  C   UNL     1     -12.640   3.964  -1.639  1.00  0.00     0.327 C 
ATOM     29  O   UNL     1     -12.142   3.414  -0.669  1.00  0.00    -0.250 OA
BRANCH  28  30
ATOM     30  O   UNL     1     -13.690   4.797  -1.486  1.00  0.00    -0.480 OA
ATOM     31  H   UNL     1     -14.182   4.722  -2.330  1.00  0.00     0.296 HD
ENDBRANCH  28  30
ENDBRANCH  13  28
ENDBRANCH  11  13
ENDBRANCH   8  11
ENDBRANCH   6   7
BRANCH   6  32
ATOM     32  C   UNL     1      -9.171   0.357  -5.707  1.00  0.00     0.037 C 
BRANCH  32  33
ATOM     33  C   UNL     1      -8.869  -1.039  -5.146  1.00  0.00     0.026 C 
BRANCH  33  34
ATOM     34  C   UNL     1      -7.891  -1.823  -6.022  1.00  0.00     0.146 C 
BRANCH  34  35
ATOM     35  N   UNL     1      -7.270  -2.865  -5.217  1.00  0.00    -0.254 NA
ATOM     36  C   UNL     1      -6.168  -2.605  -4.619  1.00  0.00     0.185 C 
ATOM     37  N   UNL     1      -5.589  -3.556  -3.870  1.00  0.00    -0.370 N 
ATOM     38  N   UNL     1      -5.456  -1.464  -4.619  1.00  0.00    -0.370 N 
ATOM     39  H   UNL     1      -6.072  -4.444  -3.811  1.00  0.00     0.159 HD
ATOM     40  H   UNL     1      -4.828  -3.380  -3.237  1.00  0.00     0.159 HD
ATOM     41  H   UNL     1      -4.531  -1.427  -4.222  1.00  0.00     0.159 HD
ATOM     42  H   UNL     1      -5.764  -0.667  -5.154  1.00  0.00     0.159 HD
ENDBRANCH  34  35
ENDBRANCH  33  34
ENDBRANCH  32  33
ENDBRANCH   6  32
ENDBRANCH   4   6
ENDBRANCH   1   2
BRANCH   1  43
ATOM     43  C   UNL     1      -5.369   4.502  -6.165  1.00  0.00     0.102 C 
ATOM     44  C   UNL     1      -5.330   6.012  -6.457  1.00  0.00     0.020 C 
BRANCH  43  45
ATOM     45  C   UNL     1      -3.985   3.863  -6.017  1.00  0.00     0.225 C 
ATOM     46  O   UNL     1      -3.067   4.386  -5.392  1.00  0.00    -0.275 OA
ATOM     47  N   UNL     1      -3.796   2.692  -6.716  1.00  0.00    -0.342 N 
ATOM     48  H   UNL     1      -4.594   2.202  -7.095  1.00  0.00     0.164 HD
BRANCH  47  49
ATOM     49  C   UNL     1      -2.534   1.950  -6.640  1.00  0.00     0.192 C 
BRANCH  49  50
ATOM     50  C   UNL     1      -2.067   1.584  -8.051  1.00  0.00     0.047 C 
BRANCH  50  51
ATOM     51  C   UNL     1      -0.862   2.422  -8.501  1.00  0.00     0.103 C 
BRANCH  51  52
ATOM     52  C   UNL     1       0.358   1.555  -8.806  1.00  0.00     0.226 C 
ATOM     53  O   UNL     1       0.397   0.392  -8.398  1.00  0.00    -0.275 OA
BRANCH  52  54
ATOM     54  N   UNL     1       1.350   2.133  -9.620  1.00  0.00    -0.311 N 
ATOM     55  C   UNL     1       1.654   1.583 -10.947  1.00  0.00     0.153 C 
BRANCH  54  56
ATOM     56  C   UNL     1       2.080   3.256  -9.197  1.00  0.00     0.102 C 
ATOM     57  C   UNL     1       2.661   3.387  -7.993  1.00  0.00     0.043 C 
BRANCH  56  58
ATOM     58  C   UNL     1       2.310   4.425 -10.126  1.00  0.00     0.268 C 
ATOM     59  O   UNL     1       3.418   4.887 -10.359  1.00  0.00    -0.268 OA
ATOM     60  N   UNL     1       1.158   4.870 -10.730  1.00  0.00    -0.339 N 
ATOM     61  H   UNL     1       0.277   4.440 -10.475  1.00  0.00     0.164 HD
BRANCH  60  62
ATOM     62  C   UNL     1       1.161   5.952 -11.713  1.00  0.00     0.168 CG0
ATOM     63  C   UNL     1       1.234   5.401 -13.132  1.00  0.00     0.041 C 
ATOM     64  G   UNL     1       2.346   6.900 -11.434  1.00  0.00     0.000 G0
ENDBRANCH  60  62
ENDBRANCH  56  58
ENDBRANCH  54  56
ENDBRANCH  52  54
ENDBRANCH  51  52
ENDBRANCH  50  51
ENDBRANCH  49  50
BRANCH  49  65
ATOM     65  C   UNL     1      -2.679   0.669  -5.804  1.00  0.00     0.326 C 
ATOM     66  O   UNL     1      -2.241  -0.431  -6.108  1.00  0.00    -0.250 OA
BRANCH  65  67
ATOM     67  O   UNL     1      -3.406   0.812  -4.674  1.00  0.00    -0.480 OA
ATOM     68  H   UNL     1      -3.986   1.580  -4.868  1.00  0.00     0.296 HD
ENDBRANCH  65  67
ENDBRANCH  49  65
ENDBRANCH  47  49
ENDBRANCH  43  45
ENDBRANCH   1  43
BRANCH   1  69
ATOM     69  C   UNL     1      -6.913   4.439  -8.313  1.00  0.00    -0.001 C 
ATOM     70  C   UNL     1      -6.946   4.075  -9.608  1.00  0.00     0.001 C 
BRANCH  70  71
ATOM     71  C   UNL     1      -7.607   4.784 -10.705  1.00  0.00    -0.055 C 
ATOM     72  C   UNL     1      -8.637   5.599 -10.394  1.00  0.00    -0.018 C 
ATOM     73  C   UNL     1      -7.085   4.562 -12.100  1.00  0.00     0.044 C 
BRANCH  72  74
ATOM     74  C   UNL     1      -9.499   6.455 -11.312  1.00  0.00     0.038 C 
ATOM     75  C   UNL     1      -9.659   7.822 -10.638  1.00  0.00     0.015 C 
BRANCH  74  76
ATOM     76  C   UNL     1     -10.834   5.703 -11.590  1.00  0.00     0.128 C 
BRANCH  76  77
ATOM     77  O   UNL     1     -10.909   5.333 -12.977  1.00  0.00    -0.381 OA
ATOM     78  C   UNL     1     -10.620   3.962 -13.219  1.00  0.00     0.195 C 
ENDBRANCH  76  77
BRANCH  76  79
ATOM     79  C   UNL     1     -11.095   4.510 -10.636  1.00  0.00     0.068 C 
BRANCH  79  80
ATOM     80  C   UNL     1     -12.173   4.664  -9.590  1.00  0.00    -0.045 A 
ATOM     81  C   UNL     1     -11.994   5.511  -8.489  1.00  0.00     0.004 A 
ATOM     82  C   UNL     1     -13.367   3.935  -9.693  1.00  0.00     0.004 A 
ATOM     83  C   UNL     1     -12.990   5.637  -7.518  1.00  0.00     0.000 A 
ATOM     84  C   UNL     1     -14.362   4.061  -8.721  1.00  0.00     0.000 A 
ATOM     85  C   UNL     1     -14.175   4.913  -7.636  1.00  0.00     0.000 A 
ENDBRANCH  79  80
ENDBRANCH  76  79
ENDBRANCH  74  76
ENDBRANCH  72  74
ENDBRANCH  70  71
ENDBRANCH   1  69
TORSDOF 17
ENDMDL
MODEL 40
REMARK VINA RESULT:    -5.876      3.568     11.562
REMARK INTER + INTRA:         -25.167
REMARK INTER:                 -17.519
REMARK INTRA:                  -7.647
REMARK UNBOUND:                -7.611
REMARK SMILES C=C1C(=O)N[C@H](C)C(=O)N[C@@H](CC(C)C)C(=O)N[C@@H](C(=O)O)[C@H](C)C(=O)N[C@@H](CCCN=C(N)N)C(=O)N[C@@H](/C=C/C(C)=C/[C@H](C)[C@H](Cc2ccccc2)OC)[C@H](C)C(=O)N[C@@H](C(=O)O)CCC(=O)N1C
REMARK SMILES IDX 39 1 38 2 37 3 36 4 28 6 27 7 25 8 26 9 23 11 24 12 19 13
REMARK SMILES IDX 18 14 16 15 17 16 11 18 10 19 8 20 9 21 12 24 13 25 14 26
REMARK SMILES IDX 15 27 20 28 21 29 22 30 29 32 30 33 31 34 32 35 33 36 34 37
REMARK SMILES IDX 35 38 57 43 58 44 59 45 60 46 61 47 62 49 66 50 67 51 68 52
REMARK SMILES IDX 69 53 70 54 71 55 2 56 1 57 3 58 4 59 5 60 6 62 7 63 63 65
REMARK SMILES IDX 64 66 65 67 40 69 41 70 42 71 44 72 43 73 45 74 46 75 47 76
REMARK SMILES IDX 55 77 56 78 48 79 49 80 50 81 54 82 51 83 53 84 52 85
REMARK H PARENT 38 5 27 10 18 17 10 22 22 31 34 39 34 40 35 41 35 42 61 48
REMARK H PARENT 5 61 65 68
REMARK Flexibility Score:  369.900
ROOT
ATOM      1  C   UNL     1      -5.432   1.581  -5.849  1.00  0.00     0.117 C 
ENDROOT
BRANCH   1   2
ATOM      2  N   UNL     1      -6.140   0.327  -5.589  1.00  0.00    -0.347 N 
ATOM      3  O   UNL     1      -5.242  -0.902  -7.308  1.00  0.00    -0.273 OA
ATOM      4  C   UNL     1      -5.918  -0.845  -6.286  1.00  0.00     0.243 C 
ATOM      5  H   UNL     1      -6.798   0.279  -4.826  1.00  0.00     0.164 HD
BRANCH   4   6
ATOM      6  C   UNL     1      -6.735  -2.051  -5.755  1.00  0.00     0.171 C 
BRANCH   6   7
ATOM      7  N   UNL     1      -7.701  -1.609  -4.737  1.00  0.00    -0.344 N 
ATOM      8  C   UNL     1      -7.724  -2.193  -3.489  1.00  0.00     0.226 C 
ATOM      9  O   UNL     1      -6.972  -3.108  -3.175  1.00  0.00    -0.275 OA
ATOM     10  H   UNL     1      -8.383  -0.901  -4.982  1.00  0.00     0.164 HD
BRANCH   8  11
ATOM     11  C   UNL     1      -8.740  -1.590  -2.535  1.00  0.00     0.109 C 
ATOM     12  C   UNL     1      -8.864  -2.458  -1.282  1.00  0.00     0.021 C 
BRANCH  11  13
ATOM     13  C   UNL     1      -8.391  -0.112  -2.268  1.00  0.00     0.204 C 
BRANCH  13  14
ATOM     14  N   UNL     1      -9.397   0.550  -1.431  1.00  0.00    -0.340 N 
ATOM     15  C   UNL     1      -9.663   1.900  -1.507  1.00  0.00     0.243 C 
ATOM     16  O   UNL     1      -9.116   2.635  -2.327  1.00  0.00    -0.273 OA
ATOM     17  H   UNL     1      -9.775   0.032  -0.633  1.00  0.00     0.164 HD
BRANCH  15  18
ATOM     18  C   UNL     1     -10.608   2.408  -0.391  1.00  0.00     0.171 C 
BRANCH  18  19
ATOM     19  N   UNL     1     -11.734   3.058  -1.059  1.00  0.00    -0.343 N 
ATOM     20  C   UNL     1     -12.786   3.604  -0.349  1.00  0.00     0.242 CG0
ATOM     21  O   UNL     1     -12.890   3.452   0.866  1.00  0.00    -0.273 OA
ATOM     22  H   UNL     1     -11.751   3.107  -2.071  1.00  0.00     0.164 HD
ATOM     23  G   UNL     1     -13.841   4.316  -1.220  1.00  0.00     0.000 G0
ENDBRANCH  18  19
BRANCH  18  24
ATOM     24  C   UNL     1     -11.074   1.246   0.495  1.00  0.00     0.038 C 
BRANCH  24  25
ATOM     25  C   UNL     1     -10.380   1.164   1.870  1.00  0.00    -0.015 C 
ATOM     26  C   UNL     1      -9.330   2.259   2.061  1.00  0.00     0.007 C 
ATOM     27  C   UNL     1      -9.726  -0.210   2.036  1.00  0.00     0.007 C 
ENDBRANCH  24  25
ENDBRANCH  18  24
ENDBRANCH  15  18
ENDBRANCH  13  14
BRANCH  13  28
ATOM     28  C   UNL     1      -7.036   0.073  -1.579  1.00  0.00     0.327 C 
ATOM     29  O   UNL     1      -6.753  -0.259  -0.438  1.00  0.00    -0.250 OA
BRANCH  28  30
ATOM     30  O   UNL     1      -6.155   0.771  -2.324  1.00  0.00    -0.480 OA
ATOM     31  H   UNL     1      -6.289   0.434  -3.235  1.00  0.00     0.296 HD
ENDBRANCH  28  30
ENDBRANCH  13  28
ENDBRANCH  11  13
ENDBRANCH   8  11
ENDBRANCH   6   7
BRANCH   6  32
ATOM     32  C   UNL     1      -7.449  -2.731  -6.928  1.00  0.00     0.037 C 
BRANCH  32  33
ATOM     33  C   UNL     1      -6.958  -4.169  -7.150  1.00  0.00     0.026 C 
BRANCH  33  34
ATOM     34  C   UNL     1      -5.586  -4.422  -6.524  1.00  0.00     0.146 C 
BRANCH  34  35
ATOM     35  N   UNL     1      -5.574  -5.756  -5.942  1.00  0.00    -0.254 NA
ATOM     36  C   UNL     1      -5.224  -5.889  -4.717  1.00  0.00     0.185 C 
ATOM     37  N   UNL     1      -5.214  -7.114  -4.168  1.00  0.00    -0.370 N 
ATOM     38  N   UNL     1      -4.844  -4.943  -3.840  1.00  0.00    -0.370 N 
ATOM     39  H   UNL     1      -5.499  -7.880  -4.764  1.00  0.00     0.159 HD
ATOM     40  H   UNL     1      -5.123  -7.280  -3.181  1.00  0.00     0.159 HD
ATOM     41  H   UNL     1      -4.458  -5.189  -2.943  1.00  0.00     0.159 HD
ATOM     42  H   UNL     1      -4.789  -3.976  -4.120  1.00  0.00     0.159 HD
ENDBRANCH  34  35
ENDBRANCH  33  34
ENDBRANCH  32  33
ENDBRANCH   6  32
ENDBRANCH   4   6
ENDBRANCH   1   2
BRANCH   1  43
ATOM     43  C   UNL     1      -4.200   1.660  -4.903  1.00  0.00     0.102 C 
ATOM     44  C   UNL     1      -4.062   3.016  -4.191  1.00  0.00     0.020 C 
BRANCH  43  45
ATOM     45  C   UNL     1      -2.926   1.201  -5.618  1.00  0.00     0.225 C 
ATOM     46  O   UNL     1      -1.951   0.746  -5.027  1.00  0.00    -0.275 OA
ATOM     47  N   UNL     1      -2.899   1.418  -6.977  1.00  0.00    -0.342 N 
ATOM     48  H   UNL     1      -3.754   1.647  -7.464  1.00  0.00     0.164 HD
BRANCH  47  49
ATOM     49  C   UNL     1      -1.760   0.997  -7.798  1.00  0.00     0.192 C 
BRANCH  49  50
ATOM     50  C   UNL     1      -1.443   2.080  -8.832  1.00  0.00     0.047 C 
BRANCH  50  51
ATOM     51  C   UNL     1      -0.018   2.631  -8.680  1.00  0.00     0.103 C 
BRANCH  51  52
ATOM     52  C   UNL     1       1.013   1.758  -9.394  1.00  0.00     0.226 C 
ATOM     53  O   UNL     1       1.891   1.193  -8.739  1.00  0.00    -0.275 OA
BRANCH  52  54
ATOM     54  N   UNL     1       0.842   1.593 -10.781  1.00  0.00    -0.311 N 
ATOM     55  C   UNL     1       0.741   2.754 -11.674  1.00  0.00     0.153 C 
BRANCH  54  56
ATOM     56  C   UNL     1       0.767   0.316 -11.362  1.00  0.00     0.102 C 
ATOM     57  C   UNL     1      -0.369  -0.286 -11.751  1.00  0.00     0.043 C 
BRANCH  56  58
ATOM     58  C   UNL     1       2.018  -0.483 -11.642  1.00  0.00     0.268 C 
ATOM     59  O   UNL     1       3.035   0.009 -12.112  1.00  0.00    -0.268 OA
ATOM     60  N   UNL     1       1.918  -1.797 -11.253  1.00  0.00    -0.339 N 
ATOM     61  H   UNL     1       1.036  -2.130 -10.881  1.00  0.00     0.164 HD
BRANCH  60  62
ATOM     62  C   UNL     1       3.035  -2.733 -11.375  1.00  0.00     0.168 CG0
ATOM     63  C   UNL     1       3.410  -3.318 -10.019  1.00  0.00     0.041 C 
ATOM     64  G   UNL     1       4.243  -2.016 -12.013  1.00  0.00     0.000 G0
ENDBRANCH  60  62
ENDBRANCH  56  58
ENDBRANCH  54  56
ENDBRANCH  52  54
ENDBRANCH  51  52
ENDBRANCH  50  51
ENDBRANCH  49  50
BRANCH  49  65
ATOM     65  C   UNL     1      -2.041  -0.330  -8.520  1.00  0.00     0.326 C 
ATOM     66  O   UNL     1      -1.281  -1.286  -8.570  1.00  0.00    -0.250 OA
BRANCH  65  67
ATOM     67  O   UNL     1      -3.216  -0.372  -9.185  1.00  0.00    -0.480 OA
ATOM     68  H   UNL     1      -2.999   0.011 -10.063  1.00  0.00     0.296 HD
ENDBRANCH  65  67
ENDBRANCH  49  65
ENDBRANCH  47  49
ENDBRANCH  43  45
ENDBRANCH   1  43
BRANCH   1  69
ATOM     69  C   UNL     1      -6.478   2.679  -5.785  1.00  0.00    -0.001 C 
ATOM     70  C   UNL     1      -7.396   2.988  -6.718  1.00  0.00     0.001 C 
BRANCH  70  71
ATOM     71  C   UNL     1      -8.415   4.037  -6.635  1.00  0.00    -0.055 C 
ATOM     72  C   UNL     1      -9.553   3.754  -5.967  1.00  0.00    -0.018 C 
ATOM     73  C   UNL     1      -8.118   5.358  -7.294  1.00  0.00     0.044 C 
BRANCH  72  74
ATOM     74  C   UNL     1     -10.769   4.637  -5.720  1.00  0.00     0.038 C 
ATOM     75  C   UNL     1     -10.776   4.988  -4.227  1.00  0.00     0.015 C 
BRANCH  74  76
ATOM     76  C   UNL     1     -12.040   3.890  -6.221  1.00  0.00     0.128 C 
BRANCH  76  77
ATOM     77  O   UNL     1     -12.358   4.307  -7.559  1.00  0.00    -0.381 OA
ATOM     78  C   UNL     1     -13.450   5.215  -7.630  1.00  0.00     0.195 C 
ENDBRANCH  76  77
BRANCH  76  79
ATOM     79  C   UNL     1     -11.964   2.349  -6.075  1.00  0.00     0.068 C 
BRANCH  79  80
ATOM     80  C   UNL     1     -12.570   1.725  -4.841  1.00  0.00    -0.045 A 
ATOM     81  C   UNL     1     -11.934   0.665  -4.182  1.00  0.00     0.004 A 
ATOM     82  C   UNL     1     -13.802   2.183  -4.349  1.00  0.00     0.004 A 
ATOM     83  C   UNL     1     -12.508   0.083  -3.050  1.00  0.00     0.000 A 
ATOM     84  C   UNL     1     -14.375   1.600  -3.217  1.00  0.00     0.000 A 
ATOM     85  C   UNL     1     -13.728   0.552  -2.567  1.00  0.00     0.000 A 
ENDBRANCH  79  80
ENDBRANCH  76  79
ENDBRANCH  74  76
ENDBRANCH  72  74
ENDBRANCH  70  71
ENDBRANCH   1  69
TORSDOF 17
ENDMDL
MODEL 41
REMARK VINA RESULT:    -5.876      9.036     14.911
REMARK INTER + INTRA:         -25.166
REMARK INTER:                 -16.686
REMARK INTRA:                  -8.480
REMARK UNBOUND:                -7.611
REMARK SMILES C=C1C(=O)N[C@H](C)C(=O)N[C@@H](CC(C)C)C(=O)N[C@@H](C(=O)O)[C@H](C)C(=O)N[C@@H](CCCN=C(N)N)C(=O)N[C@@H](/C=C/C(C)=C/[C@H](C)[C@H](Cc2ccccc2)OC)[C@H](C)C(=O)N[C@@H](C(=O)O)CCC(=O)N1C
REMARK SMILES IDX 39 1 38 2 37 3 36 4 28 6 27 7 25 8 26 9 23 11 24 12 19 13
REMARK SMILES IDX 18 14 16 15 17 16 11 18 10 19 8 20 9 21 12 24 13 25 14 26
REMARK SMILES IDX 15 27 20 28 21 29 22 30 29 32 30 33 31 34 32 35 33 36 34 37
REMARK SMILES IDX 35 38 57 43 58 44 59 45 60 46 61 47 62 49 66 50 67 51 68 52
REMARK SMILES IDX 69 53 70 54 71 55 2 56 1 57 3 58 4 59 5 60 6 62 7 63 63 65
REMARK SMILES IDX 64 66 65 67 40 69 41 70 42 71 44 72 43 73 45 74 46 75 47 76
REMARK SMILES IDX 55 77 56 78 48 79 49 80 50 81 54 82 51 83 53 84 52 85
REMARK H PARENT 38 5 27 10 18 17 10 22 22 31 34 39 34 40 35 41 35 42 61 48
REMARK H PARENT 5 61 65 68
REMARK Flexibility Score:  369.900
ROOT
ATOM      1  C   UNL     1     -13.260   1.494  -0.627  1.00  0.00     0.117 C 
ENDROOT
BRANCH   1   2
ATOM      2  N   UNL     1     -14.151   1.196  -1.749  1.00  0.00    -0.347 N 
ATOM      3  O   UNL     1     -12.630   1.491  -3.444  1.00  0.00    -0.273 OA
ATOM      4  C   UNL     1     -13.740   1.129  -3.067  1.00  0.00     0.243 C 
ATOM      5  H   UNL     1     -15.119   0.975  -1.568  1.00  0.00     0.164 HD
BRANCH   4   6
ATOM      6  C   UNL     1     -14.863   0.711  -4.049  1.00  0.00     0.171 C 
BRANCH   6   7
ATOM      7  N   UNL     1     -14.291   0.318  -5.347  1.00  0.00    -0.344 N 
ATOM      8  C   UNL     1     -14.479   1.104  -6.464  1.00  0.00     0.226 C 
ATOM      9  O   UNL     1     -15.137   2.137  -6.442  1.00  0.00    -0.275 OA
ATOM     10  H   UNL     1     -13.798  -0.563  -5.420  1.00  0.00     0.164 HD
BRANCH   8  11
ATOM     11  C   UNL     1     -13.781   0.593  -7.712  1.00  0.00     0.109 C 
ATOM     12  C   UNL     1     -14.587   0.967  -8.956  1.00  0.00     0.021 C 
BRANCH  11  13
ATOM     13  C   UNL     1     -12.315   1.070  -7.722  1.00  0.00     0.204 C 
BRANCH  13  14
ATOM     14  N   UNL     1     -12.112   2.249  -6.875  1.00  0.00    -0.340 N 
ATOM     15  C   UNL     1     -11.915   3.513  -7.387  1.00  0.00     0.243 C 
ATOM     16  O   UNL     1     -11.956   3.751  -8.593  1.00  0.00    -0.273 OA
ATOM     17  H   UNL     1     -11.917   2.099  -5.882  1.00  0.00     0.164 HD
BRANCH  15  18
ATOM     18  C   UNL     1     -11.517   4.559  -6.317  1.00  0.00     0.171 C 
BRANCH  18  19
ATOM     19  N   UNL     1     -11.411   5.844  -7.006  1.00  0.00    -0.343 N 
ATOM     20  C   UNL     1     -10.278   6.629  -6.913  1.00  0.00     0.242 CG0
ATOM     21  O   UNL     1      -9.362   6.349  -6.143  1.00  0.00    -0.273 OA
ATOM     22  H   UNL     1     -12.190   6.175  -7.564  1.00  0.00     0.164 HD
ATOM     23  G   UNL     1     -10.320   7.910  -7.772  1.00  0.00     0.000 G0
ENDBRANCH  18  19
BRANCH  18  24
ATOM     24  C   UNL     1     -12.561   4.608  -5.194  1.00  0.00     0.038 C 
BRANCH  24  25
ATOM     25  C   UNL     1     -12.031   5.141  -3.845  1.00  0.00    -0.015 C 
ATOM     26  C   UNL     1     -10.702   4.501  -3.445  1.00  0.00     0.007 C 
ATOM     27  C   UNL     1     -13.072   4.894  -2.750  1.00  0.00     0.007 C 
ENDBRANCH  24  25
ENDBRANCH  18  24
ENDBRANCH  15  18
ENDBRANCH  13  14
BRANCH  13  28
ATOM     28  C   UNL     1     -11.328  -0.003  -7.251  1.00  0.00     0.327 C 
ATOM     29  O   UNL     1     -11.478  -0.754  -6.299  1.00  0.00    -0.250 OA
BRANCH  28  30
ATOM     30  O   UNL     1     -10.163   0.015  -7.930  1.00  0.00    -0.480 OA
ATOM     31  H   UNL     1     -10.060  -0.903  -8.256  1.00  0.00     0.296 HD
ENDBRANCH  28  30
ENDBRANCH  13  28
ENDBRANCH  11  13
ENDBRANCH   8  11
ENDBRANCH   6   7
BRANCH   6  32
ATOM     32  C   UNL     1     -15.667  -0.441  -3.435  1.00  0.00     0.037 C 
BRANCH  32  33
ATOM     33  C   UNL     1     -17.151  -0.087  -3.268  1.00  0.00     0.026 C 
BRANCH  33  34
ATOM     34  C   UNL     1     -18.066  -1.298  -3.459  1.00  0.00     0.146 C 
BRANCH  34  35
ATOM     35  N   UNL     1     -18.085  -1.655  -4.871  1.00  0.00    -0.254 NA
ATOM     36  C   UNL     1     -17.943  -2.886  -5.196  1.00  0.00     0.185 C 
ATOM     37  N   UNL     1     -17.964  -3.226  -6.493  1.00  0.00    -0.370 N 
ATOM     38  N   UNL     1     -17.767  -3.955  -4.399  1.00  0.00    -0.370 N 
ATOM     39  H   UNL     1     -18.104  -2.476  -7.158  1.00  0.00     0.159 HD
ATOM     40  H   UNL     1     -18.034  -4.175  -6.818  1.00  0.00     0.159 HD
ATOM     41  H   UNL     1     -17.527  -4.855  -4.780  1.00  0.00     0.159 HD
ATOM     42  H   UNL     1     -17.714  -3.845  -3.398  1.00  0.00     0.159 HD
ENDBRANCH  34  35
ENDBRANCH  33  34
ENDBRANCH  32  33
ENDBRANCH   6  32
ENDBRANCH   4   6
ENDBRANCH   1   2
BRANCH   1  43
ATOM     43  C   UNL     1     -12.986   0.175   0.151  1.00  0.00     0.102 C 
ATOM     44  C   UNL     1     -12.232  -0.879  -0.678  1.00  0.00     0.020 C 
BRANCH  43  45
ATOM     45  C   UNL     1     -14.265  -0.352   0.809  1.00  0.00     0.225 C 
ATOM     46  O   UNL     1     -15.267  -0.666   0.172  1.00  0.00    -0.275 OA
ATOM     47  N   UNL     1     -14.261  -0.365   2.185  1.00  0.00    -0.342 N 
ATOM     48  H   UNL     1     -13.390  -0.251   2.683  1.00  0.00     0.164 HD
BRANCH  47  49
ATOM     49  C   UNL     1     -15.403  -0.876   2.949  1.00  0.00     0.192 C 
BRANCH  49  50
ATOM     50  C   UNL     1     -15.359  -0.319   4.374  1.00  0.00     0.047 C 
BRANCH  50  51
ATOM     51  C   UNL     1     -13.922  -0.141   4.885  1.00  0.00     0.103 C 
BRANCH  51  52
ATOM     52  C   UNL     1     -13.442  -1.354   5.680  1.00  0.00     0.226 C 
ATOM     53  O   UNL     1     -12.760  -2.216   5.124  1.00  0.00    -0.275 OA
BRANCH  52  54
ATOM     54  N   UNL     1     -13.757  -1.369   7.052  1.00  0.00    -0.311 N 
ATOM     55  C   UNL     1     -15.142  -1.545   7.508  1.00  0.00     0.153 C 
BRANCH  54  56
ATOM     56  C   UNL     1     -12.763  -1.223   8.033  1.00  0.00     0.102 C 
ATOM     57  C   UNL     1     -12.343  -0.049   8.534  1.00  0.00     0.043 C 
BRANCH  56  58
ATOM     58  C   UNL     1     -12.100  -2.432   8.651  1.00  0.00     0.268 C 
ATOM     59  O   UNL     1     -12.281  -2.775   9.811  1.00  0.00    -0.268 OA
ATOM     60  N   UNL     1     -11.329  -3.140   7.760  1.00  0.00    -0.339 N 
ATOM     61  H   UNL     1     -11.221  -2.782   6.818  1.00  0.00     0.164 HD
BRANCH  60  62
ATOM     62  C   UNL     1     -10.648  -4.379   8.132  1.00  0.00     0.168 CG0
ATOM     63  C   UNL     1     -11.247  -5.573   7.400  1.00  0.00     0.041 C 
ATOM     64  G   UNL     1     -10.731  -4.576   9.659  1.00  0.00     0.000 G0
ENDBRANCH  60  62
ENDBRANCH  56  58
ENDBRANCH  54  56
ENDBRANCH  52  54
ENDBRANCH  51  52
ENDBRANCH  50  51
ENDBRANCH  49  50
BRANCH  49  65
ATOM     65  C   UNL     1     -15.407  -2.412   3.003  1.00  0.00     0.326 C 
ATOM     66  O   UNL     1     -16.360  -3.110   3.317  1.00  0.00    -0.250 OA
BRANCH  65  67
ATOM     67  O   UNL     1     -14.217  -2.989   2.726  1.00  0.00    -0.480 OA
ATOM     68  H   UNL     1     -13.674  -2.246   2.384  1.00  0.00     0.296 HD
ENDBRANCH  65  67
ENDBRANCH  49  65
ENDBRANCH  47  49
ENDBRANCH  43  45
ENDBRANCH   1  43
BRANCH   1  69
ATOM     69  C   UNL     1     -13.884   2.664   0.110  1.00  0.00    -0.001 C 
ATOM     70  C   UNL     1     -13.346   3.376   1.117  1.00  0.00     0.001 C 
BRANCH  70  71
ATOM     71  C   UNL     1     -13.950   4.518   1.807  1.00  0.00    -0.055 C 
ATOM     72  C   UNL     1     -14.246   4.375   3.116  1.00  0.00    -0.018 C 
ATOM     73  C   UNL     1     -14.190   5.774   1.010  1.00  0.00     0.044 C 
BRANCH  72  74
ATOM     74  C   UNL     1     -14.867   5.378   4.078  1.00  0.00     0.038 C 
ATOM     75  C   UNL     1     -13.843   5.631   5.191  1.00  0.00     0.015 C 
BRANCH  74  76
ATOM     76  C   UNL     1     -16.237   4.822   4.565  1.00  0.00     0.128 C 
BRANCH  76  77
ATOM     77  O   UNL     1     -16.545   5.348   5.867  1.00  0.00    -0.381 OA
ATOM     78  C   UNL     1     -17.923   5.263   6.205  1.00  0.00     0.195 C 
ENDBRANCH  76  77
BRANCH  76  79
ATOM     79  C   UNL     1     -17.392   5.017   3.551  1.00  0.00     0.068 C 
BRANCH  79  80
ATOM     80  C   UNL     1     -17.431   4.116   2.341  1.00  0.00    -0.045 A 
ATOM     81  C   UNL     1     -17.630   4.639   1.056  1.00  0.00     0.004 A 
ATOM     82  C   UNL     1     -17.295   2.727   2.489  1.00  0.00     0.004 A 
ATOM     83  C   UNL     1     -17.678   3.797  -0.057  1.00  0.00     0.000 A 
ATOM     84  C   UNL     1     -17.344   1.886   1.375  1.00  0.00     0.000 A 
ATOM     85  C   UNL     1     -17.534   2.420   0.103  1.00  0.00     0.000 A 
ENDBRANCH  79  80
ENDBRANCH  76  79
ENDBRANCH  74  76
ENDBRANCH  72  74
ENDBRANCH  70  71
ENDBRANCH   1  69
TORSDOF 17
ENDMDL
MODEL 42
REMARK VINA RESULT:    -5.861      6.719     11.725
REMARK INTER + INTRA:         -25.121
REMARK INTER:                 -18.358
REMARK INTRA:                  -6.763
REMARK UNBOUND:                -7.611
REMARK SMILES C=C1C(=O)N[C@H](C)C(=O)N[C@@H](CC(C)C)C(=O)N[C@@H](C(=O)O)[C@H](C)C(=O)N[C@@H](CCCN=C(N)N)C(=O)N[C@@H](/C=C/C(C)=C/[C@H](C)[C@H](Cc2ccccc2)OC)[C@H](C)C(=O)N[C@@H](C(=O)O)CCC(=O)N1C
REMARK SMILES IDX 39 1 38 2 37 3 36 4 28 6 27 7 25 8 26 9 23 11 24 12 19 13
REMARK SMILES IDX 18 14 16 15 17 16 11 18 10 19 8 20 9 21 12 24 13 25 14 26
REMARK SMILES IDX 15 27 20 28 21 29 22 30 29 32 30 33 31 34 32 35 33 36 34 37
REMARK SMILES IDX 35 38 57 43 58 44 59 45 60 46 61 47 62 49 66 50 67 51 68 52
REMARK SMILES IDX 69 53 70 54 71 55 2 56 1 57 3 58 4 59 5 60 6 62 7 63 63 65
REMARK SMILES IDX 64 66 65 67 40 69 41 70 42 71 44 72 43 73 45 74 46 75 47 76
REMARK SMILES IDX 55 77 56 78 48 79 49 80 50 81 54 82 51 83 53 84 52 85
REMARK H PARENT 38 5 27 10 18 17 10 22 22 31 34 39 34 40 35 41 35 42 61 48
REMARK H PARENT 5 61 65 68
REMARK Flexibility Score:  369.900
ROOT
ATOM      1  C   UNL     1     -11.151   1.535   0.154  1.00  0.00     0.117 C 
ENDROOT
BRANCH   1   2
ATOM      2  N   UNL     1     -10.675   1.551  -1.230  1.00  0.00    -0.347 N 
ATOM      3  O   UNL     1     -10.089   3.768  -1.334  1.00  0.00    -0.273 OA
ATOM      4  C   UNL     1     -10.095   2.649  -1.835  1.00  0.00     0.243 C 
ATOM      5  H   UNL     1     -10.717   0.705  -1.777  1.00  0.00     0.164 HD
BRANCH   4   6
ATOM      6  C   UNL     1      -9.598   2.375  -3.277  1.00  0.00     0.171 C 
BRANCH   6   7
ATOM      7  N   UNL     1      -8.162   2.676  -3.392  1.00  0.00    -0.344 N 
ATOM      8  C   UNL     1      -7.531   2.635  -4.617  1.00  0.00     0.226 C 
ATOM      9  O   UNL     1      -8.115   2.331  -5.650  1.00  0.00    -0.275 OA
ATOM     10  H   UNL     1      -7.631   2.865  -2.551  1.00  0.00     0.164 HD
BRANCH   8  11
ATOM     11  C   UNL     1      -6.063   3.022  -4.578  1.00  0.00     0.109 C 
ATOM     12  C   UNL     1      -5.191   1.816  -4.928  1.00  0.00     0.021 C 
BRANCH  11  13
ATOM     13  C   UNL     1      -5.829   4.268  -5.455  1.00  0.00     0.204 C 
BRANCH  13  14
ATOM     14  N   UNL     1      -7.085   4.834  -5.957  1.00  0.00    -0.340 N 
ATOM     15  C   UNL     1      -7.289   5.144  -7.284  1.00  0.00     0.243 C 
ATOM     16  O   UNL     1      -6.451   4.912  -8.153  1.00  0.00    -0.273 OA
ATOM     17  H   UNL     1      -7.759   5.190  -5.273  1.00  0.00     0.164 HD
BRANCH  15  18
ATOM     18  C   UNL     1      -8.605   5.919  -7.543  1.00  0.00     0.171 C 
BRANCH  18  19
ATOM     19  N   UNL     1      -8.594   6.303  -8.953  1.00  0.00    -0.343 N 
ATOM     20  C   UNL     1      -9.106   7.512  -9.383  1.00  0.00     0.242 CG0
ATOM     21  O   UNL     1      -9.714   8.261  -8.621  1.00  0.00    -0.273 OA
ATOM     22  H   UNL     1      -8.206   5.666  -9.639  1.00  0.00     0.164 HD
ATOM     23  G   UNL     1      -8.935   7.775 -10.893  1.00  0.00     0.000 G0
ENDBRANCH  18  19
BRANCH  18  24
ATOM     24  C   UNL     1      -9.821   5.047  -7.207  1.00  0.00     0.038 C 
BRANCH  24  25
ATOM     25  C   UNL     1     -10.949   5.779  -6.448  1.00  0.00    -0.015 C 
ATOM     26  C   UNL     1     -11.124   5.262  -5.020  1.00  0.00     0.007 C 
ATOM     27  C   UNL     1     -12.266   5.631  -7.214  1.00  0.00     0.007 C 
ENDBRANCH  24  25
ENDBRANCH  18  24
ENDBRANCH  15  18
ENDBRANCH  13  14
BRANCH  13  28
ATOM     28  C   UNL     1      -5.086   5.390  -4.725  1.00  0.00     0.327 C 
ATOM     29  O   UNL     1      -4.081   5.965  -5.115  1.00  0.00    -0.250 OA
BRANCH  28  30
ATOM     30  O   UNL     1      -5.581   5.639  -3.495  1.00  0.00    -0.480 OA
ATOM     31  H   UNL     1      -5.107   6.446  -3.203  1.00  0.00     0.296 HD
ENDBRANCH  28  30
ENDBRANCH  13  28
ENDBRANCH  11  13
ENDBRANCH   8  11
ENDBRANCH   6   7
BRANCH   6  32
ATOM     32  C   UNL     1      -9.882   0.913  -3.639  1.00  0.00     0.037 C 
BRANCH  32  33
ATOM     33  C   UNL     1     -10.990   0.782  -4.692  1.00  0.00     0.026 C 
BRANCH  33  34
ATOM     34  C   UNL     1     -10.673  -0.280  -5.747  1.00  0.00     0.146 C 
BRANCH  34  35
ATOM     35  N   UNL     1     -11.329  -1.525  -5.373  1.00  0.00    -0.254 NA
ATOM     36  C   UNL     1     -10.618  -2.471  -4.883  1.00  0.00     0.185 C 
ATOM     37  N   UNL     1     -11.214  -3.621  -4.530  1.00  0.00    -0.370 N 
ATOM     38  N   UNL     1      -9.294  -2.500  -4.651  1.00  0.00    -0.370 N 
ATOM     39  H   UNL     1     -12.216  -3.674  -4.665  1.00  0.00     0.159 HD
ATOM     40  H   UNL     1     -10.764  -4.336  -3.986  1.00  0.00     0.159 HD
ATOM     41  H   UNL     1      -8.829  -3.355  -4.392  1.00  0.00     0.159 HD
ATOM     42  H   UNL     1      -8.716  -1.708  -4.884  1.00  0.00     0.159 HD
ENDBRANCH  34  35
ENDBRANCH  33  34
ENDBRANCH  32  33
ENDBRANCH   6  32
ENDBRANCH   4   6
ENDBRANCH   1   2
BRANCH   1  43
ATOM     43  C   UNL     1     -10.728   0.188   0.808  1.00  0.00     0.102 C 
ATOM     44  C   UNL     1      -9.888   0.364   2.084  1.00  0.00     0.020 C 
BRANCH  43  45
ATOM     45  C   UNL     1     -10.099  -0.752  -0.225  1.00  0.00     0.225 C 
ATOM     46  O   UNL     1     -10.761  -1.421  -1.014  1.00  0.00    -0.275 OA
ATOM     47  N   UNL     1      -8.730  -0.875  -0.158  1.00  0.00    -0.342 N 
ATOM     48  H   UNL     1      -8.194  -0.212   0.385  1.00  0.00     0.164 HD
BRANCH  47  49
ATOM     49  C   UNL     1      -7.989  -1.712  -1.106  1.00  0.00     0.192 C 
BRANCH  49  50
ATOM     50  C   UNL     1      -7.093  -2.688  -0.340  1.00  0.00     0.047 C 
BRANCH  50  51
ATOM     51  C   UNL     1      -7.255  -2.556   1.181  1.00  0.00     0.103 C 
BRANCH  51  52
ATOM     52  C   UNL     1      -6.360  -3.533   1.940  1.00  0.00     0.226 C 
ATOM     53  O   UNL     1      -5.695  -3.133   2.898  1.00  0.00    -0.275 OA
BRANCH  52  54
ATOM     54  N   UNL     1      -6.412  -4.879   1.531  1.00  0.00    -0.311 N 
ATOM     55  C   UNL     1      -5.306  -5.482   0.775  1.00  0.00     0.153 C 
BRANCH  54  56
ATOM     56  C   UNL     1      -7.515  -5.694   1.834  1.00  0.00     0.102 C 
ATOM     57  C   UNL     1      -8.552  -5.919   1.011  1.00  0.00     0.043 C 
BRANCH  56  58
ATOM     58  C   UNL     1      -7.590  -6.441   3.144  1.00  0.00     0.268 C 
ATOM     59  O   UNL     1      -8.214  -7.484   3.285  1.00  0.00    -0.268 OA
ATOM     60  N   UNL     1      -6.835  -5.866   4.138  1.00  0.00    -0.339 N 
ATOM     61  H   UNL     1      -6.355  -4.995   3.943  1.00  0.00     0.164 HD
BRANCH  60  62
ATOM     62  C   UNL     1      -6.716  -6.460   5.469  1.00  0.00     0.168 CG0
ATOM     63  C   UNL     1      -7.698  -5.821   6.443  1.00  0.00     0.041 C 
ATOM     64  G   UNL     1      -5.267  -6.308   5.975  1.00  0.00     0.000 G0
ENDBRANCH  60  62
ENDBRANCH  56  58
ENDBRANCH  54  56
ENDBRANCH  52  54
ENDBRANCH  51  52
ENDBRANCH  50  51
ENDBRANCH  49  50
BRANCH  49  65
ATOM     65  C   UNL     1      -7.125  -0.864  -2.053  1.00  0.00     0.326 C 
ATOM     66  O   UNL     1      -6.841   0.314  -1.893  1.00  0.00    -0.250 OA
BRANCH  65  67
ATOM     67  O   UNL     1      -6.715  -1.507  -3.169  1.00  0.00    -0.480 OA
ATOM     68  H   UNL     1      -7.550  -1.831  -3.570  1.00  0.00     0.296 HD
ENDBRANCH  65  67
ENDBRANCH  49  65
ENDBRANCH  47  49
ENDBRANCH  43  45
ENDBRANCH   1  43
BRANCH   1  69
ATOM     69  C   UNL     1     -12.625   1.893   0.099  1.00  0.00    -0.001 C 
ATOM     70  C   UNL     1     -13.569   1.349  -0.691  1.00  0.00     0.001 C 
BRANCH  70  71
ATOM     71  C   UNL     1     -14.993   1.688  -0.720  1.00  0.00    -0.055 C 
ATOM     72  C   UNL     1     -15.773   1.208   0.271  1.00  0.00    -0.018 C 
ATOM     73  C   UNL     1     -15.486   2.555  -1.849  1.00  0.00     0.044 C 
BRANCH  72  74
ATOM     74  C   UNL     1     -17.266   1.396   0.499  1.00  0.00     0.038 C 
ATOM     75  C   UNL     1     -17.454   1.779   1.972  1.00  0.00     0.015 C 
BRANCH  74  76
ATOM     76  C   UNL     1     -18.007   0.097   0.062  1.00  0.00     0.128 C 
BRANCH  76  77
ATOM     77  O   UNL     1     -18.991  -0.261   1.047  1.00  0.00    -0.381 OA
ATOM     78  C   UNL     1     -18.787  -1.548   1.615  1.00  0.00     0.195 C 
ENDBRANCH  76  77
BRANCH  76  79
ATOM     79  C   UNL     1     -18.588   0.157  -1.373  1.00  0.00     0.068 C 
BRANCH  79  80
ATOM     80  C   UNL     1     -17.976  -0.739  -2.422  1.00  0.00    -0.045 A 
ATOM     81  C   UNL     1     -18.613  -0.950  -3.652  1.00  0.00     0.004 A 
ATOM     82  C   UNL     1     -16.766  -1.402  -2.167  1.00  0.00     0.004 A 
ATOM     83  C   UNL     1     -18.048  -1.792  -4.611  1.00  0.00     0.000 A 
ATOM     84  C   UNL     1     -16.202  -2.244  -3.127  1.00  0.00     0.000 A 
ATOM     85  C   UNL     1     -16.841  -2.438  -4.349  1.00  0.00     0.000 A 
ENDBRANCH  79  80
ENDBRANCH  76  79
ENDBRANCH  74  76
ENDBRANCH  72  74
ENDBRANCH  70  71
ENDBRANCH   1  69
TORSDOF 17
ENDMDL
MODEL 43
REMARK VINA RESULT:    -5.846      4.340     13.736
REMARK INTER + INTRA:         -25.076
REMARK INTER:                 -18.345
REMARK INTRA:                  -6.731
REMARK UNBOUND:                -7.611
REMARK SMILES C=C1C(=O)N[C@H](C)C(=O)N[C@@H](CC(C)C)C(=O)N[C@@H](C(=O)O)[C@H](C)C(=O)N[C@@H](CCCN=C(N)N)C(=O)N[C@@H](/C=C/C(C)=C/[C@H](C)[C@H](Cc2ccccc2)OC)[C@H](C)C(=O)N[C@@H](C(=O)O)CCC(=O)N1C
REMARK SMILES IDX 39 1 38 2 37 3 36 4 28 6 27 7 25 8 26 9 23 11 24 12 19 13
REMARK SMILES IDX 18 14 16 15 17 16 11 18 10 19 8 20 9 21 12 24 13 25 14 26
REMARK SMILES IDX 15 27 20 28 21 29 22 30 29 32 30 33 31 34 32 35 33 36 34 37
REMARK SMILES IDX 35 38 57 43 58 44 59 45 60 46 61 47 62 49 66 50 67 51 68 52
REMARK SMILES IDX 69 53 70 54 71 55 2 56 1 57 3 58 4 59 5 60 6 62 7 63 63 65
REMARK SMILES IDX 64 66 65 67 40 69 41 70 42 71 44 72 43 73 45 74 46 75 47 76
REMARK SMILES IDX 55 77 56 78 48 79 49 80 50 81 54 82 51 83 53 84 52 85
REMARK H PARENT 38 5 27 10 18 17 10 22 22 31 34 39 34 40 35 41 35 42 61 48
REMARK H PARENT 5 61 65 68
REMARK Flexibility Score:  369.900
ROOT
ATOM      1  C   UNL     1      -6.290  -3.144  -4.206  1.00  0.00     0.117 C 
ENDROOT
BRANCH   1   2
ATOM      2  N   UNL     1      -7.540  -2.505  -4.620  1.00  0.00    -0.347 N 
ATOM      3  O   UNL     1      -6.813  -0.328  -4.561  1.00  0.00    -0.273 OA
ATOM      4  C   UNL     1      -7.675  -1.150  -4.853  1.00  0.00     0.243 C 
ATOM      5  H   UNL     1      -8.352  -3.076  -4.798  1.00  0.00     0.164 HD
BRANCH   4   6
ATOM      6  C   UNL     1      -9.080  -0.743  -5.365  1.00  0.00     0.171 C 
BRANCH   6   7
ATOM      7  N   UNL     1     -10.012  -0.582  -4.237  1.00  0.00    -0.344 N 
ATOM      8  C   UNL     1     -10.641  -1.676  -3.683  1.00  0.00     0.226 C 
ATOM      9  O   UNL     1     -10.481  -2.814  -4.107  1.00  0.00    -0.275 OA
ATOM     10  H   UNL     1     -10.222   0.350  -3.903  1.00  0.00     0.164 HD
BRANCH   8  11
ATOM     11  C   UNL     1     -11.528  -1.352  -2.494  1.00  0.00     0.109 C 
ATOM     12  C   UNL     1     -10.677  -1.183  -1.235  1.00  0.00     0.021 C 
BRANCH  11  13
ATOM     13  C   UNL     1     -12.433  -0.150  -2.830  1.00  0.00     0.204 C 
BRANCH  13  14
ATOM     14  N   UNL     1     -13.857  -0.485  -2.722  1.00  0.00    -0.340 N 
ATOM     15  C   UNL     1     -14.607  -0.917  -3.794  1.00  0.00     0.243 C 
ATOM     16  O   UNL     1     -14.120  -1.110  -4.906  1.00  0.00    -0.273 OA
ATOM     17  H   UNL     1     -14.353  -0.204  -1.872  1.00  0.00     0.164 HD
BRANCH  15  18
ATOM     18  C   UNL     1     -16.123  -1.008  -3.491  1.00  0.00     0.171 C 
BRANCH  18  19
ATOM     19  N   UNL     1     -16.448   0.129  -2.633  1.00  0.00    -0.343 N 
ATOM     20  C   UNL     1     -17.121  -0.030  -1.437  1.00  0.00     0.242 CG0
ATOM     21  O   UNL     1     -17.594  -1.114  -1.104  1.00  0.00    -0.273 OA
ATOM     22  H   UNL     1     -16.179   1.063  -2.921  1.00  0.00     0.164 HD
ATOM     23  G   UNL     1     -17.304   1.273  -0.631  1.00  0.00     0.000 G0
ENDBRANCH  18  19
BRANCH  18  24
ATOM     24  C   UNL     1     -16.937  -0.982  -4.791  1.00  0.00     0.038 C 
BRANCH  24  25
ATOM     25  C   UNL     1     -18.159  -1.926  -4.805  1.00  0.00    -0.015 C 
ATOM     26  C   UNL     1     -19.415  -1.265  -4.238  1.00  0.00     0.007 C 
ATOM     27  C   UNL     1     -17.839  -3.194  -4.009  1.00  0.00     0.007 C 
ENDBRANCH  24  25
ENDBRANCH  18  24
ENDBRANCH  15  18
ENDBRANCH  13  14
BRANCH  13  28
ATOM     28  C   UNL     1     -12.184   1.064  -1.931  1.00  0.00     0.327 C 
ATOM     29  O   UNL     1     -12.843   1.389  -0.955  1.00  0.00    -0.250 OA
BRANCH  28  30
ATOM     30  O   UNL     1     -11.194   1.861  -2.382  1.00  0.00    -0.480 OA
ATOM     31  H   UNL     1     -10.748   1.326  -3.070  1.00  0.00     0.296 HD
ENDBRANCH  28  30
ENDBRANCH  13  28
ENDBRANCH  11  13
ENDBRANCH   8  11
ENDBRANCH   6   7
BRANCH   6  32
ATOM     32  C   UNL     1      -8.966   0.556  -6.170  1.00  0.00     0.037 C 
BRANCH  32  33
ATOM     33  C   UNL     1      -9.462   0.388  -7.613  1.00  0.00     0.026 C 
BRANCH  33  34
ATOM     34  C   UNL     1      -9.504   1.713  -8.375  1.00  0.00     0.146 C 
BRANCH  34  35
ATOM     35  N   UNL     1      -8.246   2.416  -8.166  1.00  0.00    -0.254 NA
ATOM     36  C   UNL     1      -8.264   3.694  -8.079  1.00  0.00     0.185 C 
ATOM     37  N   UNL     1      -7.111   4.352  -7.881  1.00  0.00    -0.370 N 
ATOM     38  N   UNL     1      -9.313   4.532  -8.158  1.00  0.00    -0.370 N 
ATOM     39  H   UNL     1      -6.274   3.788  -7.800  1.00  0.00     0.159 HD
ATOM     40  H   UNL     1      -7.061   5.325  -7.630  1.00  0.00     0.159 HD
ATOM     41  H   UNL     1      -9.180   5.529  -8.214  1.00  0.00     0.159 HD
ATOM     42  H   UNL     1     -10.242   4.177  -8.322  1.00  0.00     0.159 HD
ENDBRANCH  34  35
ENDBRANCH  33  34
ENDBRANCH  32  33
ENDBRANCH   6  32
ENDBRANCH   4   6
ENDBRANCH   1   2
BRANCH   1  43
ATOM     43  C   UNL     1      -5.783  -4.040  -5.373  1.00  0.00     0.102 C 
ATOM     44  C   UNL     1      -5.210  -5.389  -4.904  1.00  0.00     0.020 C 
BRANCH  43  45
ATOM     45  C   UNL     1      -4.849  -3.258  -6.302  1.00  0.00     0.225 C 
ATOM     46  O   UNL     1      -4.075  -2.393  -5.901  1.00  0.00    -0.275 OA
ATOM     47  N   UNL     1      -4.995  -3.519  -7.645  1.00  0.00    -0.342 N 
ATOM     48  H   UNL     1      -5.518  -4.330  -7.943  1.00  0.00     0.164 HD
BRANCH  47  49
ATOM     49  C   UNL     1      -4.144  -2.871  -8.648  1.00  0.00     0.192 C 
BRANCH  49  50
ATOM     50  C   UNL     1      -5.006  -2.004  -9.570  1.00  0.00     0.047 C 
BRANCH  50  51
ATOM     51  C   UNL     1      -4.371  -0.633  -9.840  1.00  0.00     0.103 C 
BRANCH  51  52
ATOM     52  C   UNL     1      -4.240   0.199  -8.565  1.00  0.00     0.226 C 
ATOM     53  O   UNL     1      -5.144   0.179  -7.728  1.00  0.00    -0.275 OA
BRANCH  52  54
ATOM     54  N   UNL     1      -3.029   0.895  -8.393  1.00  0.00    -0.311 N 
ATOM     55  C   UNL     1      -2.825   2.219  -8.996  1.00  0.00     0.153 C 
BRANCH  54  56
ATOM     56  C   UNL     1      -1.977   0.356  -7.635  1.00  0.00     0.102 C 
ATOM     57  C   UNL     1      -1.901   0.385  -6.294  1.00  0.00     0.043 C 
BRANCH  56  58
ATOM     58  C   UNL     1      -0.830  -0.365  -8.304  1.00  0.00     0.268 C 
ATOM     59  O   UNL     1      -0.934  -1.483  -8.791  1.00  0.00    -0.268 OA
ATOM     60  N   UNL     1       0.318   0.389  -8.368  1.00  0.00    -0.339 N 
ATOM     61  H   UNL     1       0.326   1.303  -7.931  1.00  0.00     0.164 HD
BRANCH  60  62
ATOM     62  C   UNL     1       1.530  -0.093  -9.030  1.00  0.00     0.168 CG0
ATOM     63  C   UNL     1       1.528   0.274 -10.509  1.00  0.00     0.041 C 
ATOM     64  G   UNL     1       1.647  -1.620  -8.847  1.00  0.00     0.000 G0
ENDBRANCH  60  62
ENDBRANCH  56  58
ENDBRANCH  54  56
ENDBRANCH  52  54
ENDBRANCH  51  52
ENDBRANCH  50  51
ENDBRANCH  49  50
BRANCH  49  65
ATOM     65  C   UNL     1      -3.376  -3.901  -9.490  1.00  0.00     0.326 C 
ATOM     66  O   UNL     1      -3.339  -3.936 -10.711  1.00  0.00    -0.250 OA
BRANCH  65  67
ATOM     67  O   UNL     1      -2.749  -4.860  -8.773  1.00  0.00    -0.480 OA
ATOM     68  H   UNL     1      -3.186  -5.689  -9.064  1.00  0.00     0.296 HD
ENDBRANCH  65  67
ENDBRANCH  49  65
ENDBRANCH  47  49
ENDBRANCH  43  45
ENDBRANCH   1  43
BRANCH   1  69
ATOM     69  C   UNL     1      -6.566  -3.783  -2.858  1.00  0.00    -0.001 C 
ATOM     70  C   UNL     1      -7.329  -3.295  -1.863  1.00  0.00     0.001 C 
BRANCH  70  71
ATOM     71  C   UNL     1      -7.605  -3.931  -0.574  1.00  0.00    -0.055 C 
ATOM     72  C   UNL     1      -6.960  -3.455   0.512  1.00  0.00    -0.018 C 
ATOM     73  C   UNL     1      -8.596  -5.065  -0.548  1.00  0.00     0.044 C 
BRANCH  72  74
ATOM     74  C   UNL     1      -7.048  -3.910   1.962  1.00  0.00     0.038 C 
ATOM     75  C   UNL     1      -6.921  -2.657   2.838  1.00  0.00     0.015 C 
BRANCH  74  76
ATOM     76  C   UNL     1      -5.961  -4.996   2.214  1.00  0.00     0.128 C 
BRANCH  76  77
ATOM     77  O   UNL     1      -6.554  -6.305   2.159  1.00  0.00    -0.381 OA
ATOM     78  C   UNL     1      -7.802  -6.395   2.833  1.00  0.00     0.195 C 
ENDBRANCH  76  77
BRANCH  76  79
ATOM     79  C   UNL     1      -4.716  -4.863   1.302  1.00  0.00     0.068 C 
BRANCH  79  80
ATOM     80  C   UNL     1      -4.308  -6.064   0.482  1.00  0.00    -0.045 A 
ATOM     81  C   UNL     1      -4.907  -6.330  -0.756  1.00  0.00     0.004 A 
ATOM     82  C   UNL     1      -3.336  -6.952   0.966  1.00  0.00     0.004 A 
ATOM     83  C   UNL     1      -4.534  -7.451  -1.501  1.00  0.00     0.000 A 
ATOM     84  C   UNL     1      -2.964  -8.073   0.220  1.00  0.00     0.000 A 
ATOM     85  C   UNL     1      -3.562  -8.321  -1.013  1.00  0.00     0.000 A 
ENDBRANCH  79  80
ENDBRANCH  76  79
ENDBRANCH  74  76
ENDBRANCH  72  74
ENDBRANCH  70  71
ENDBRANCH   1  69
TORSDOF 17
ENDMDL
MODEL 44
REMARK VINA RESULT:    -5.829     10.264     18.180
REMARK INTER + INTRA:         -25.027
REMARK INTER:                 -18.763
REMARK INTRA:                  -6.264
REMARK UNBOUND:                -7.611
REMARK SMILES C=C1C(=O)N[C@H](C)C(=O)N[C@@H](CC(C)C)C(=O)N[C@@H](C(=O)O)[C@H](C)C(=O)N[C@@H](CCCN=C(N)N)C(=O)N[C@@H](/C=C/C(C)=C/[C@H](C)[C@H](Cc2ccccc2)OC)[C@H](C)C(=O)N[C@@H](C(=O)O)CCC(=O)N1C
REMARK SMILES IDX 39 1 38 2 37 3 36 4 28 6 27 7 25 8 26 9 23 11 24 12 19 13
REMARK SMILES IDX 18 14 16 15 17 16 11 18 10 19 8 20 9 21 12 24 13 25 14 26
REMARK SMILES IDX 15 27 20 28 21 29 22 30 29 32 30 33 31 34 32 35 33 36 34 37
REMARK SMILES IDX 35 38 57 43 58 44 59 45 60 46 61 47 62 49 66 50 67 51 68 52
REMARK SMILES IDX 69 53 70 54 71 55 2 56 1 57 3 58 4 59 5 60 6 62 7 63 63 65
REMARK SMILES IDX 64 66 65 67 40 69 41 70 42 71 44 72 43 73 45 74 46 75 47 76
REMARK SMILES IDX 55 77 56 78 48 79 49 80 50 81 54 82 51 83 53 84 52 85
REMARK H PARENT 38 5 27 10 18 17 10 22 22 31 34 39 34 40 35 41 35 42 61 48
REMARK H PARENT 5 61 65 68
REMARK Flexibility Score:  369.900
ROOT
ATOM      1  C   UNL     1      -9.402  -2.504   2.380  1.00  0.00     0.117 C 
ENDROOT
BRANCH   1   2
ATOM      2  N   UNL     1     -10.808  -2.211   2.663  1.00  0.00    -0.347 N 
ATOM      3  O   UNL     1     -10.860  -2.988   4.823  1.00  0.00    -0.273 OA
ATOM      4  C   UNL     1     -11.402  -2.394   3.897  1.00  0.00     0.243 C 
ATOM      5  H   UNL     1     -11.383  -1.805   1.942  1.00  0.00     0.164 HD
BRANCH   4   6
ATOM      6  C   UNL     1     -12.878  -1.924   3.953  1.00  0.00     0.171 C 
BRANCH   6   7
ATOM      7  N   UNL     1     -13.268  -1.617   5.339  1.00  0.00    -0.344 N 
ATOM      8  C   UNL     1     -14.204  -2.389   5.993  1.00  0.00     0.226 C 
ATOM      9  O   UNL     1     -14.767  -3.338   5.459  1.00  0.00    -0.275 OA
ATOM     10  H   UNL     1     -12.875  -0.801   5.790  1.00  0.00     0.164 HD
BRANCH   8  11
ATOM     11  C   UNL     1     -14.457  -1.978   7.433  1.00  0.00     0.109 C 
ATOM     12  C   UNL     1     -13.585  -0.778   7.799  1.00  0.00     0.021 C 
BRANCH  11  13
ATOM     13  C   UNL     1     -15.969  -1.774   7.658  1.00  0.00     0.204 C 
BRANCH  13  14
ATOM     14  N   UNL     1     -16.321  -1.790   9.081  1.00  0.00    -0.340 N 
ATOM     15  C   UNL     1     -17.471  -2.379   9.561  1.00  0.00     0.243 C 
ATOM     16  O   UNL     1     -18.255  -2.987   8.833  1.00  0.00    -0.273 OA
ATOM     17  H   UNL     1     -15.798  -1.178   9.713  1.00  0.00     0.164 HD
BRANCH  15  18
ATOM     18  C   UNL     1     -17.735  -2.092  11.059  1.00  0.00     0.171 C 
BRANCH  18  19
ATOM     19  N   UNL     1     -19.068  -1.499  11.143  1.00  0.00    -0.343 N 
ATOM     20  C   UNL     1     -19.263  -0.203  11.583  1.00  0.00     0.242 CG0
ATOM     21  O   UNL     1     -18.342   0.463  12.049  1.00  0.00    -0.273 OA
ATOM     22  H   UNL     1     -19.876  -2.051  10.878  1.00  0.00     0.164 HD
ATOM     23  G   UNL     1     -20.729   0.274  11.528  1.00  0.00     0.000 G0
ENDBRANCH  18  19
BRANCH  18  24
ATOM     24  C   UNL     1     -17.642  -3.383  11.883  1.00  0.00     0.038 C 
BRANCH  24  25
ATOM     25  C   UNL     1     -16.482  -3.415  12.900  1.00  0.00    -0.015 C 
ATOM     26  C   UNL     1     -16.084  -2.019  13.379  1.00  0.00     0.007 C 
ATOM     27  C   UNL     1     -15.269  -4.110  12.275  1.00  0.00     0.007 C 
ENDBRANCH  24  25
ENDBRANCH  18  24
ENDBRANCH  15  18
ENDBRANCH  13  14
BRANCH  13  28
ATOM     28  C   UNL     1     -16.493  -0.458   7.076  1.00  0.00     0.327 C 
ATOM     29  O   UNL     1     -16.709  -0.224   5.897  1.00  0.00    -0.250 OA
BRANCH  28  30
ATOM     30  O   UNL     1     -16.602   0.522   7.997  1.00  0.00    -0.480 OA
ATOM     31  H   UNL     1     -15.882   0.334   8.635  1.00  0.00     0.296 HD
ENDBRANCH  28  30
ENDBRANCH  13  28
ENDBRANCH  11  13
ENDBRANCH   8  11
ENDBRANCH   6   7
BRANCH   6  32
ATOM     32  C   UNL     1     -13.051  -0.697   3.052  1.00  0.00     0.037 C 
BRANCH  32  33
ATOM     33  C   UNL     1     -14.410  -0.015   3.256  1.00  0.00     0.026 C 
BRANCH  33  34
ATOM     34  C   UNL     1     -15.453  -0.468   2.234  1.00  0.00     0.146 C 
BRANCH  34  35
ATOM     35  N   UNL     1     -15.782  -1.865   2.486  1.00  0.00    -0.254 NA
ATOM     36  C   UNL     1     -16.908  -2.142   3.030  1.00  0.00     0.185 C 
ATOM     37  N   UNL     1     -17.224  -3.425   3.263  1.00  0.00    -0.370 N 
ATOM     38  N   UNL     1     -17.883  -1.305   3.428  1.00  0.00    -0.370 N 
ATOM     39  H   UNL     1     -16.543  -4.119   2.980  1.00  0.00     0.159 HD
ATOM     40  H   UNL     1     -18.145  -3.733   3.521  1.00  0.00     0.159 HD
ATOM     41  H   UNL     1     -18.664  -1.636   3.971  1.00  0.00     0.159 HD
ATOM     42  H   UNL     1     -17.774  -0.308   3.329  1.00  0.00     0.159 HD
ENDBRANCH  34  35
ENDBRANCH  33  34
ENDBRANCH  32  33
ENDBRANCH   6  32
ENDBRANCH   4   6
ENDBRANCH   1   2
BRANCH   1  43
ATOM     43  C   UNL     1      -8.517  -1.518   3.196  1.00  0.00     0.102 C 
ATOM     44  C   UNL     1      -7.936  -0.374   2.349  1.00  0.00     0.020 C 
BRANCH  43  45
ATOM     45  C   UNL     1      -7.471  -2.273   4.021  1.00  0.00     0.225 C 
ATOM     46  O   UNL     1      -6.453  -1.744   4.459  1.00  0.00    -0.275 OA
ATOM     47  N   UNL     1      -7.693  -3.623   4.168  1.00  0.00    -0.342 N 
ATOM     48  H   UNL     1      -8.598  -4.009   3.937  1.00  0.00     0.164 HD
BRANCH  47  49
ATOM     49  C   UNL     1      -6.795  -4.466   4.963  1.00  0.00     0.192 C 
BRANCH  49  50
ATOM     50  C   UNL     1      -5.845  -5.225   4.033  1.00  0.00     0.047 C 
BRANCH  50  51
ATOM     51  C   UNL     1      -6.516  -5.618   2.710  1.00  0.00     0.103 C 
BRANCH  51  52
ATOM     52  C   UNL     1      -5.957  -4.832   1.527  1.00  0.00     0.226 C 
ATOM     53  O   UNL     1      -5.917  -3.601   1.576  1.00  0.00    -0.275 OA
BRANCH  52  54
ATOM     54  N   UNL     1      -5.439  -5.589   0.459  1.00  0.00    -0.311 N 
ATOM     55  C   UNL     1      -4.030  -6.000   0.437  1.00  0.00     0.153 C 
BRANCH  54  56
ATOM     56  C   UNL     1      -6.249  -5.983  -0.619  1.00  0.00     0.102 C 
ATOM     57  C   UNL     1      -7.587  -6.096  -0.574  1.00  0.00     0.043 C 
BRANCH  56  58
ATOM     58  C   UNL     1      -5.648  -6.275  -1.974  1.00  0.00     0.268 C 
ATOM     59  O   UNL     1      -5.294  -7.393  -2.322  1.00  0.00    -0.268 OA
ATOM     60  N   UNL     1      -5.602  -5.173  -2.794  1.00  0.00    -0.339 N 
ATOM     61  H   UNL     1      -5.905  -4.279  -2.426  1.00  0.00     0.164 HD
BRANCH  60  62
ATOM     62  C   UNL     1      -5.114  -5.246  -4.170  1.00  0.00     0.168 CG0
ATOM     63  C   UNL     1      -5.146  -3.875  -4.835  1.00  0.00     0.041 C 
ATOM     64  G   UNL     1      -5.963  -6.258  -4.966  1.00  0.00     0.000 G0
ENDBRANCH  60  62
ENDBRANCH  56  58
ENDBRANCH  54  56
ENDBRANCH  52  54
ENDBRANCH  51  52
ENDBRANCH  50  51
ENDBRANCH  49  50
BRANCH  49  65
ATOM     65  C   UNL     1      -7.575  -5.472   5.824  1.00  0.00     0.326 C 
ATOM     66  O   UNL     1      -8.589  -6.063   5.483  1.00  0.00    -0.250 OA
BRANCH  65  67
ATOM     67  O   UNL     1      -7.090  -5.639   7.074  1.00  0.00    -0.480 OA
ATOM     68  H   UNL     1      -7.855  -5.999   7.573  1.00  0.00     0.296 HD
ENDBRANCH  65  67
ENDBRANCH  49  65
ENDBRANCH  47  49
ENDBRANCH  43  45
ENDBRANCH   1  43
BRANCH   1  69
ATOM     69  C   UNL     1      -9.271  -2.529   0.868  1.00  0.00    -0.001 C 
ATOM     70  C   UNL     1      -9.901  -1.739  -0.020  1.00  0.00     0.001 C 
BRANCH  70  71
ATOM     71  C   UNL     1      -9.750  -1.758  -1.476  1.00  0.00    -0.055 C 
ATOM     72  C   UNL     1     -10.114  -0.652  -2.159  1.00  0.00    -0.018 C 
ATOM     73  C   UNL     1      -9.191  -3.006  -2.108  1.00  0.00     0.044 C 
BRANCH  72  74
ATOM     74  C   UNL     1     -10.066  -0.386  -3.657  1.00  0.00     0.038 C 
ATOM     75  C   UNL     1      -9.159   0.831  -3.872  1.00  0.00     0.015 C 
BRANCH  74  76
ATOM     76  C   UNL     1     -11.522  -0.217  -4.182  1.00  0.00     0.128 C 
BRANCH  76  77
ATOM     77  O   UNL     1     -11.511   0.458  -5.451  1.00  0.00    -0.381 OA
ATOM     78  C   UNL     1     -12.749   0.388  -6.146  1.00  0.00     0.195 C 
ENDBRANCH  76  77
BRANCH  76  79
ATOM     79  C   UNL     1     -12.339  -1.534  -4.210  1.00  0.00     0.068 C 
BRANCH  79  80
ATOM     80  C   UNL     1     -13.548  -1.635  -3.313  1.00  0.00    -0.045 A 
ATOM     81  C   UNL     1     -13.478  -1.270  -1.962  1.00  0.00     0.004 A 
ATOM     82  C   UNL     1     -14.762  -2.127  -3.816  1.00  0.00     0.004 A 
ATOM     83  C   UNL     1     -14.598  -1.380  -1.136  1.00  0.00     0.000 A 
ATOM     84  C   UNL     1     -15.882  -2.237  -2.988  1.00  0.00     0.000 A 
ATOM     85  C   UNL     1     -15.800  -1.862  -1.649  1.00  0.00     0.000 A 
ENDBRANCH  79  80
ENDBRANCH  76  79
ENDBRANCH  74  76
ENDBRANCH  72  74
ENDBRANCH  70  71
ENDBRANCH   1  69
TORSDOF 17
ENDMDL
MODEL 45
REMARK VINA RESULT:    -5.808     11.131     18.268
REMARK INTER + INTRA:         -24.963
REMARK INTER:                 -18.583
REMARK INTRA:                  -6.380
REMARK UNBOUND:                -7.611
REMARK SMILES C=C1C(=O)N[C@H](C)C(=O)N[C@@H](CC(C)C)C(=O)N[C@@H](C(=O)O)[C@H](C)C(=O)N[C@@H](CCCN=C(N)N)C(=O)N[C@@H](/C=C/C(C)=C/[C@H](C)[C@H](Cc2ccccc2)OC)[C@H](C)C(=O)N[C@@H](C(=O)O)CCC(=O)N1C
REMARK SMILES IDX 39 1 38 2 37 3 36 4 28 6 27 7 25 8 26 9 23 11 24 12 19 13
REMARK SMILES IDX 18 14 16 15 17 16 11 18 10 19 8 20 9 21 12 24 13 25 14 26
REMARK SMILES IDX 15 27 20 28 21 29 22 30 29 32 30 33 31 34 32 35 33 36 34 37
REMARK SMILES IDX 35 38 57 43 58 44 59 45 60 46 61 47 62 49 66 50 67 51 68 52
REMARK SMILES IDX 69 53 70 54 71 55 2 56 1 57 3 58 4 59 5 60 6 62 7 63 63 65
REMARK SMILES IDX 64 66 65 67 40 69 41 70 42 71 44 72 43 73 45 74 46 75 47 76
REMARK SMILES IDX 55 77 56 78 48 79 49 80 50 81 54 82 51 83 53 84 52 85
REMARK H PARENT 38 5 27 10 18 17 10 22 22 31 34 39 34 40 35 41 35 42 61 48
REMARK H PARENT 5 61 65 68
REMARK Flexibility Score:  369.900
ROOT
ATOM      1  C   UNL     1      -9.590  -2.392   2.523  1.00  0.00     0.117 C 
ENDROOT
BRANCH   1   2
ATOM      2  N   UNL     1     -10.859  -2.182   3.222  1.00  0.00    -0.347 N 
ATOM      3  O   UNL     1     -10.366  -3.363   5.127  1.00  0.00    -0.273 OA
ATOM      4  C   UNL     1     -11.112  -2.609   4.511  1.00  0.00     0.243 C 
ATOM      5  H   UNL     1     -11.589  -1.652   2.771  1.00  0.00     0.164 HD
BRANCH   4   6
ATOM      6  C   UNL     1     -12.502  -2.183   5.047  1.00  0.00     0.171 C 
BRANCH   6   7
ATOM      7  N   UNL     1     -12.419  -1.839   6.476  1.00  0.00    -0.344 N 
ATOM      8  C   UNL     1     -12.658  -2.790   7.443  1.00  0.00     0.226 C 
ATOM      9  O   UNL     1     -12.968  -3.944   7.172  1.00  0.00    -0.275 OA
ATOM     10  H   UNL     1     -12.231  -0.879   6.739  1.00  0.00     0.164 HD
BRANCH   8  11
ATOM     11  C   UNL     1     -12.480  -2.293   8.867  1.00  0.00     0.109 C 
ATOM     12  C   UNL     1     -12.384  -0.768   8.883  1.00  0.00     0.021 C 
BRANCH  11  13
ATOM     13  C   UNL     1     -13.583  -2.884   9.768  1.00  0.00     0.204 C 
BRANCH  13  14
ATOM     14  N   UNL     1     -13.178  -2.932  11.176  1.00  0.00    -0.340 N 
ATOM     15  C   UNL     1     -12.964  -4.113  11.853  1.00  0.00     0.243 C 
ATOM     16  O   UNL     1     -13.038  -5.211  11.305  1.00  0.00    -0.273 OA
ATOM     17  H   UNL     1     -13.247  -2.071  11.725  1.00  0.00     0.164 HD
BRANCH  15  18
ATOM     18  C   UNL     1     -12.751  -3.924  13.375  1.00  0.00     0.171 C 
BRANCH  18  19
ATOM     19  N   UNL     1     -13.986  -4.353  14.027  1.00  0.00    -0.343 N 
ATOM     20  C   UNL     1     -14.963  -3.451  14.404  1.00  0.00     0.242 CG0
ATOM     21  O   UNL     1     -14.782  -2.238  14.330  1.00  0.00    -0.273 OA
ATOM     22  H   UNL     1     -14.133  -5.338  14.216  1.00  0.00     0.164 HD
ATOM     23  G   UNL     1     -16.228  -4.097  15.005  1.00  0.00     0.000 G0
ENDBRANCH  18  19
BRANCH  18  24
ATOM     24  C   UNL     1     -11.547  -4.741  13.859  1.00  0.00     0.038 C 
BRANCH  24  25
ATOM     25  C   UNL     1     -10.628  -4.005  14.858  1.00  0.00    -0.015 C 
ATOM     26  C   UNL     1     -11.011  -2.535  15.032  1.00  0.00     0.007 C 
ATOM     27  C   UNL     1      -9.174  -4.106  14.390  1.00  0.00     0.007 C 
ENDBRANCH  24  25
ENDBRANCH  18  24
ENDBRANCH  15  18
ENDBRANCH  13  14
BRANCH  13  28
ATOM     28  C   UNL     1     -14.899  -2.104   9.700  1.00  0.00     0.327 C 
ATOM     29  O   UNL     1     -15.587  -1.931   8.705  1.00  0.00    -0.250 OA
BRANCH  28  30
ATOM     30  O   UNL     1     -15.209  -1.488  10.859  1.00  0.00    -0.480 OA
ATOM     31  H   UNL     1     -16.049  -1.021  10.667  1.00  0.00     0.296 HD
ENDBRANCH  28  30
ENDBRANCH  13  28
ENDBRANCH  11  13
ENDBRANCH   8  11
ENDBRANCH   6   7
BRANCH   6  32
ATOM     32  C   UNL     1     -13.016  -0.995   4.227  1.00  0.00     0.037 C 
BRANCH  32  33
ATOM     33  C   UNL     1     -14.447  -0.599   4.615  1.00  0.00     0.026 C 
BRANCH  33  34
ATOM     34  C   UNL     1     -15.405  -1.790   4.614  1.00  0.00     0.146 C 
BRANCH  34  35
ATOM     35  N   UNL     1     -16.764  -1.300   4.433  1.00  0.00    -0.254 NA
ATOM     36  C   UNL     1     -17.297  -1.379   3.271  1.00  0.00     0.185 C 
ATOM     37  N   UNL     1     -18.551  -0.935   3.095  1.00  0.00    -0.370 N 
ATOM     38  N   UNL     1     -16.771  -1.864   2.132  1.00  0.00    -0.370 N 
ATOM     39  H   UNL     1     -19.020  -0.563   3.911  1.00  0.00     0.159 HD
ATOM     40  H   UNL     1     -19.095  -1.118   2.269  1.00  0.00     0.159 HD
ATOM     41  H   UNL     1     -17.240  -1.743   1.249  1.00  0.00     0.159 HD
ATOM     42  H   UNL     1     -15.827  -2.218   2.113  1.00  0.00     0.159 HD
ENDBRANCH  34  35
ENDBRANCH  33  34
ENDBRANCH  32  33
ENDBRANCH   6  32
ENDBRANCH   4   6
ENDBRANCH   1   2
BRANCH   1  43
ATOM     43  C   UNL     1      -8.477  -1.599   3.268  1.00  0.00     0.102 C 
ATOM     44  C   UNL     1      -7.846  -0.485   2.417  1.00  0.00     0.020 C 
BRANCH  43  45
ATOM     45  C   UNL     1      -7.458  -2.548   3.905  1.00  0.00     0.225 C 
ATOM     46  O   UNL     1      -6.537  -2.162   4.619  1.00  0.00    -0.275 OA
ATOM     47  N   UNL     1      -7.580  -3.872   3.551  1.00  0.00    -0.342 N 
ATOM     48  H   UNL     1      -8.421  -4.192   3.093  1.00  0.00     0.164 HD
BRANCH  47  49
ATOM     49  C   UNL     1      -6.696  -4.900   4.110  1.00  0.00     0.192 C 
BRANCH  49  50
ATOM     50  C   UNL     1      -5.755  -5.419   3.020  1.00  0.00     0.047 C 
BRANCH  50  51
ATOM     51  C   UNL     1      -5.881  -4.621   1.715  1.00  0.00     0.103 C 
BRANCH  51  52
ATOM     52  C   UNL     1      -5.150  -5.297   0.556  1.00  0.00     0.226 C 
ATOM     53  O   UNL     1      -3.919  -5.359   0.565  1.00  0.00    -0.275 OA
BRANCH  52  54
ATOM     54  N   UNL     1      -5.956  -5.887  -0.434  1.00  0.00    -0.311 N 
ATOM     55  C   UNL     1      -7.420  -5.784  -0.378  1.00  0.00     0.153 C 
BRANCH  54  56
ATOM     56  C   UNL     1      -5.394  -6.589  -1.514  1.00  0.00     0.102 C 
ATOM     57  C   UNL     1      -5.212  -6.088  -2.746  1.00  0.00     0.043 C 
BRANCH  56  58
ATOM     58  C   UNL     1      -4.893  -8.004  -1.341  1.00  0.00     0.268 C 
ATOM     59  O   UNL     1      -5.597  -8.990  -1.512  1.00  0.00    -0.268 OA
ATOM     60  N   UNL     1      -3.553  -8.069  -1.039  1.00  0.00    -0.339 N 
ATOM     61  H   UNL     1      -3.042  -7.205  -0.903  1.00  0.00     0.164 HD
BRANCH  60  62
ATOM     62  C   UNL     1      -2.849  -9.342  -0.890  1.00  0.00     0.168 CG0
ATOM     63  C   UNL     1      -2.590  -9.656   0.578  1.00  0.00     0.041 C 
ATOM     64  G   UNL     1      -1.526  -9.296  -1.681  1.00  0.00     0.000 G0
ENDBRANCH  60  62
ENDBRANCH  56  58
ENDBRANCH  54  56
ENDBRANCH  52  54
ENDBRANCH  51  52
ENDBRANCH  50  51
ENDBRANCH  49  50
BRANCH  49  65
ATOM     65  C   UNL     1      -7.493  -6.075   4.696  1.00  0.00     0.326 C 
ATOM     66  O   UNL     1      -7.274  -7.259   4.484  1.00  0.00    -0.250 OA
BRANCH  65  67
ATOM     67  O   UNL     1      -8.549  -5.716   5.460  1.00  0.00    -0.480 OA
ATOM     68  H   UNL     1      -8.462  -4.740   5.530  1.00  0.00     0.296 HD
ENDBRANCH  65  67
ENDBRANCH  49  65
ENDBRANCH  47  49
ENDBRANCH  43  45
ENDBRANCH   1  43
BRANCH   1  69
ATOM     69  C   UNL     1      -9.855  -2.085   1.061  1.00  0.00    -0.001 C 
ATOM     70  C   UNL     1     -10.932  -1.472   0.537  1.00  0.00     0.001 C 
BRANCH  70  71
ATOM     71  C   UNL     1     -11.167  -1.162  -0.875  1.00  0.00    -0.055 C 
ATOM     72  C   UNL     1     -10.244  -1.572  -1.770  1.00  0.00    -0.018 C 
ATOM     73  C   UNL     1     -12.425  -0.413  -1.229  1.00  0.00     0.044 C 
BRANCH  72  74
ATOM     74  C   UNL     1     -10.224  -1.398  -3.282  1.00  0.00     0.038 C 
ATOM     75  C   UNL     1     -10.658  -2.733  -3.897  1.00  0.00     0.015 C 
BRANCH  74  76
ATOM     76  C   UNL     1      -8.809  -0.910  -3.711  1.00  0.00     0.128 C 
BRANCH  76  77
ATOM     77  O   UNL     1      -8.467  -1.464  -4.993  1.00  0.00    -0.381 OA
ATOM     78  C   UNL     1      -7.105  -1.272  -5.352  1.00  0.00     0.195 C 
ENDBRANCH  76  77
BRANCH  76  79
ATOM     79  C   UNL     1      -8.629   0.628  -3.655  1.00  0.00     0.068 C 
BRANCH  79  80
ATOM     80  C   UNL     1      -8.998   1.337  -2.374  1.00  0.00    -0.045 A 
ATOM     81  C   UNL     1      -8.254   1.144  -1.202  1.00  0.00     0.004 A 
ATOM     82  C   UNL     1     -10.116   2.183  -2.331  1.00  0.00     0.004 A 
ATOM     83  C   UNL     1      -8.610   1.792  -0.018  1.00  0.00     0.000 A 
ATOM     84  C   UNL     1     -10.472   2.831  -1.145  1.00  0.00     0.000 A 
ATOM     85  C   UNL     1      -9.718   2.636   0.010  1.00  0.00     0.000 A 
ENDBRANCH  79  80
ENDBRANCH  76  79
ENDBRANCH  74  76
ENDBRANCH  72  74
ENDBRANCH  70  71
ENDBRANCH   1  69
TORSDOF 17
ENDMDL
MODEL 46
REMARK VINA RESULT:    -5.804      5.816     12.435
REMARK INTER + INTRA:         -24.951
REMARK INTER:                 -17.794
REMARK INTRA:                  -7.157
REMARK UNBOUND:                -7.611
REMARK SMILES C=C1C(=O)N[C@H](C)C(=O)N[C@@H](CC(C)C)C(=O)N[C@@H](C(=O)O)[C@H](C)C(=O)N[C@@H](CCCN=C(N)N)C(=O)N[C@@H](/C=C/C(C)=C/[C@H](C)[C@H](Cc2ccccc2)OC)[C@H](C)C(=O)N[C@@H](C(=O)O)CCC(=O)N1C
REMARK SMILES IDX 39 1 38 2 37 3 36 4 28 6 27 7 25 8 26 9 23 11 24 12 19 13
REMARK SMILES IDX 18 14 16 15 17 16 11 18 10 19 8 20 9 21 12 24 13 25 14 26
REMARK SMILES IDX 15 27 20 28 21 29 22 30 29 32 30 33 31 34 32 35 33 36 34 37
REMARK SMILES IDX 35 38 57 43 58 44 59 45 60 46 61 47 62 49 66 50 67 51 68 52
REMARK SMILES IDX 69 53 70 54 71 55 2 56 1 57 3 58 4 59 5 60 6 62 7 63 63 65
REMARK SMILES IDX 64 66 65 67 40 69 41 70 42 71 44 72 43 73 45 74 46 75 47 76
REMARK SMILES IDX 55 77 56 78 48 79 49 80 50 81 54 82 51 83 53 84 52 85
REMARK H PARENT 38 5 27 10 18 17 10 22 22 31 34 39 34 40 35 41 35 42 61 48
REMARK H PARENT 5 61 65 68
REMARK Flexibility Score:  369.900
ROOT
ATOM      1  C   UNL     1     -12.435   0.651  -5.119  1.00  0.00     0.117 C 
ENDROOT
BRANCH   1   2
ATOM      2  N   UNL     1     -11.023   0.611  -5.502  1.00  0.00    -0.347 N 
ATOM      3  O   UNL     1     -11.238  -0.738  -7.347  1.00  0.00    -0.273 OA
ATOM      4  C   UNL     1     -10.549  -0.008  -6.643  1.00  0.00     0.243 C 
ATOM      5  H   UNL     1     -10.344   1.101  -4.940  1.00  0.00     0.164 HD
BRANCH   4   6
ATOM      6  C   UNL     1      -9.025   0.171  -6.861  1.00  0.00     0.171 C 
BRANCH   6   7
ATOM      7  N   UNL     1      -8.328  -1.115  -6.696  1.00  0.00    -0.344 N 
ATOM      8  C   UNL     1      -7.640  -1.397  -5.535  1.00  0.00     0.226 C 
ATOM      9  O   UNL     1      -7.556  -0.601  -4.608  1.00  0.00    -0.275 OA
ATOM     10  H   UNL     1      -8.319  -1.770  -7.467  1.00  0.00     0.164 HD
BRANCH   8  11
ATOM     11  C   UNL     1      -7.022  -2.784  -5.497  1.00  0.00     0.109 C 
ATOM     12  C   UNL     1      -6.573  -3.198  -6.898  1.00  0.00     0.021 C 
BRANCH  11  13
ATOM     13  C   UNL     1      -5.918  -2.832  -4.421  1.00  0.00     0.204 C 
BRANCH  13  14
ATOM     14  N   UNL     1      -6.196  -3.838  -3.391  1.00  0.00    -0.340 N 
ATOM     15  C   UNL     1      -6.801  -3.532  -2.191  1.00  0.00     0.243 C 
ATOM     16  O   UNL     1      -7.206  -2.402  -1.925  1.00  0.00    -0.273 OA
ATOM     17  H   UNL     1      -5.752  -4.755  -3.483  1.00  0.00     0.164 HD
BRANCH  15  18
ATOM     18  C   UNL     1      -6.801  -4.706  -1.182  1.00  0.00     0.171 C 
BRANCH  18  19
ATOM     19  N   UNL     1      -5.654  -5.548  -1.518  1.00  0.00    -0.343 N 
ATOM     20  C   UNL     1      -5.698  -6.923  -1.394  1.00  0.00     0.242 CG0
ATOM     21  O   UNL     1      -6.654  -7.492  -0.872  1.00  0.00    -0.273 OA
ATOM     22  H   UNL     1      -4.799  -5.114  -1.845  1.00  0.00     0.164 HD
ATOM     23  G   UNL     1      -4.422  -7.646  -1.871  1.00  0.00     0.000 G0
ENDBRANCH  18  19
BRANCH  18  24
ATOM     24  C   UNL     1      -6.712  -4.183   0.257  1.00  0.00     0.038 C 
BRANCH  24  25
ATOM     25  C   UNL     1      -8.070  -4.044   0.977  1.00  0.00    -0.015 C 
ATOM     26  C   UNL     1      -7.920  -3.939   2.495  1.00  0.00     0.007 C 
ATOM     27  C   UNL     1      -8.962  -5.238   0.629  1.00  0.00     0.007 C 
ENDBRANCH  24  25
ENDBRANCH  18  24
ENDBRANCH  15  18
ENDBRANCH  13  14
BRANCH  13  28
ATOM     28  C   UNL     1      -4.531  -3.140  -4.994  1.00  0.00     0.327 C 
ATOM     29  O   UNL     1      -4.114  -4.239  -5.326  1.00  0.00    -0.250 OA
BRANCH  28  30
ATOM     30  O   UNL     1      -3.713  -2.068  -5.002  1.00  0.00    -0.480 OA
ATOM     31  H   UNL     1      -3.372  -2.032  -5.920  1.00  0.00     0.296 HD
ENDBRANCH  28  30
ENDBRANCH  13  28
ENDBRANCH  11  13
ENDBRANCH   8  11
ENDBRANCH   6   7
BRANCH   6  32
ATOM     32  C   UNL     1      -8.781   0.750  -8.258  1.00  0.00     0.037 C 
BRANCH  32  33
ATOM     33  C   UNL     1      -7.364   0.454  -8.769  1.00  0.00     0.026 C 
BRANCH  33  34
ATOM     34  C   UNL     1      -6.334   1.458  -8.251  1.00  0.00     0.146 C 
BRANCH  34  35
ATOM     35  N   UNL     1      -5.017   0.837  -8.281  1.00  0.00    -0.254 NA
ATOM     36  C   UNL     1      -4.484   0.472  -7.174  1.00  0.00     0.185 C 
ATOM     37  N   UNL     1      -3.273  -0.106  -7.191  1.00  0.00    -0.370 N 
ATOM     38  N   UNL     1      -4.972   0.581  -5.926  1.00  0.00    -0.370 N 
ATOM     39  H   UNL     1      -2.843  -0.232  -8.098  1.00  0.00     0.159 HD
ATOM     40  H   UNL     1      -2.869  -0.572  -6.397  1.00  0.00     0.159 HD
ATOM     41  H   UNL     1      -4.397   0.383  -5.123  1.00  0.00     0.159 HD
ATOM     42  H   UNL     1      -5.869   1.011  -5.762  1.00  0.00     0.159 HD
ENDBRANCH  34  35
ENDBRANCH  33  34
ENDBRANCH  32  33
ENDBRANCH   6  32
ENDBRANCH   4   6
ENDBRANCH   1   2
BRANCH   1  43
ATOM     43  C   UNL     1     -12.957   2.106  -5.302  1.00  0.00     0.102 C 
ATOM     44  C   UNL     1     -13.469   2.740  -3.998  1.00  0.00     0.020 C 
BRANCH  43  45
ATOM     45  C   UNL     1     -13.948   2.192  -6.466  1.00  0.00     0.225 C 
ATOM     46  O   UNL     1     -14.393   1.204  -7.043  1.00  0.00    -0.275 OA
ATOM     47  N   UNL     1     -14.245   3.465  -6.897  1.00  0.00    -0.342 N 
ATOM     48  H   UNL     1     -13.996   4.258  -6.324  1.00  0.00     0.164 HD
BRANCH  47  49
ATOM     49  C   UNL     1     -15.206   3.702  -7.979  1.00  0.00     0.192 C 
BRANCH  49  50
ATOM     50  C   UNL     1     -14.496   4.373  -9.159  1.00  0.00     0.047 C 
BRANCH  50  51
ATOM     51  C   UNL     1     -14.964   3.819 -10.511  1.00  0.00     0.103 C 
BRANCH  51  52
ATOM     52  C   UNL     1     -14.997   4.897 -11.592  1.00  0.00     0.226 C 
ATOM     53  O   UNL     1     -14.150   4.890 -12.488  1.00  0.00    -0.275 OA
BRANCH  52  54
ATOM     54  N   UNL     1     -16.067   5.809 -11.535  1.00  0.00    -0.311 N 
ATOM     55  C   UNL     1     -15.870   7.175 -11.032  1.00  0.00     0.153 C 
BRANCH  54  56
ATOM     56  C   UNL     1     -17.358   5.452 -11.961  1.00  0.00     0.102 C 
ATOM     57  C   UNL     1     -17.631   4.511 -12.879  1.00  0.00     0.043 C 
BRANCH  56  58
ATOM     58  C   UNL     1     -18.580   6.100 -11.355  1.00  0.00     0.268 C 
ATOM     59  O   UNL     1     -19.160   7.048 -11.868  1.00  0.00    -0.268 OA
ATOM     60  N   UNL     1     -19.011   5.475 -10.209  1.00  0.00    -0.339 N 
ATOM     61  H   UNL     1     -18.469   4.701  -9.843  1.00  0.00     0.164 HD
BRANCH  60  62
ATOM     62  C   UNL     1     -20.214   5.900  -9.495  1.00  0.00     0.168 CG0
ATOM     63  C   UNL     1     -20.290   5.253  -8.117  1.00  0.00     0.041 C 
ATOM     64  G   UNL     1     -21.462   5.551 -10.331  1.00  0.00     0.000 G0
ENDBRANCH  60  62
ENDBRANCH  56  58
ENDBRANCH  54  56
ENDBRANCH  52  54
ENDBRANCH  51  52
ENDBRANCH  50  51
ENDBRANCH  49  50
BRANCH  49  65
ATOM     65  C   UNL     1     -16.373   4.588  -7.517  1.00  0.00     0.326 C 
ATOM     66  O   UNL     1     -16.824   5.546  -8.128  1.00  0.00    -0.250 OA
BRANCH  65  67
ATOM     67  O   UNL     1     -16.872   4.273  -6.301  1.00  0.00    -0.480 OA
ATOM     68  H   UNL     1     -17.466   5.027  -6.093  1.00  0.00     0.296 HD
ENDBRANCH  65  67
ENDBRANCH  49  65
ENDBRANCH  47  49
ENDBRANCH  43  45
ENDBRANCH   1  43
BRANCH   1  69
ATOM     69  C   UNL     1     -12.520   0.009  -3.746  1.00  0.00    -0.001 C 
ATOM     70  C   UNL     1     -11.532  -0.123  -2.843  1.00  0.00     0.001 C 
BRANCH  70  71
ATOM     71  C   UNL     1     -11.632  -0.726  -1.513  1.00  0.00    -0.055 C 
ATOM     72  C   UNL     1     -12.788  -0.566  -0.836  1.00  0.00    -0.018 C 
ATOM     73  C   UNL     1     -10.440  -1.490  -0.997  1.00  0.00     0.044 C 
BRANCH  72  74
ATOM     74  C   UNL     1     -13.174  -1.076   0.545  1.00  0.00     0.038 C 
ATOM     75  C   UNL     1     -14.649  -1.489   0.479  1.00  0.00     0.015 C 
BRANCH  74  76
ATOM     76  C   UNL     1     -12.852   0.028   1.595  1.00  0.00     0.128 C 
BRANCH  76  77
ATOM     77  O   UNL     1     -14.029   0.336   2.361  1.00  0.00    -0.381 OA
ATOM     78  C   UNL     1     -14.070   1.677   2.830  1.00  0.00     0.195 C 
ENDBRANCH  76  77
BRANCH  76  79
ATOM     79  C   UNL     1     -11.624  -0.289   2.485  1.00  0.00     0.068 C 
BRANCH  79  80
ATOM     80  C   UNL     1     -10.300   0.331   2.110  1.00  0.00    -0.045 A 
ATOM     81  C   UNL     1      -9.112  -0.410   2.172  1.00  0.00     0.004 A 
ATOM     82  C   UNL     1     -10.235   1.677   1.719  1.00  0.00     0.004 A 
ATOM     83  C   UNL     1      -7.889   0.176   1.837  1.00  0.00     0.000 A 
ATOM     84  C   UNL     1      -9.011   2.262   1.385  1.00  0.00     0.000 A 
ATOM     85  C   UNL     1      -7.840   1.511   1.442  1.00  0.00     0.000 A 
ENDBRANCH  79  80
ENDBRANCH  76  79
ENDBRANCH  74  76
ENDBRANCH  72  74
ENDBRANCH  70  71
ENDBRANCH   1  69
TORSDOF 17
ENDMDL
MODEL 47
REMARK VINA RESULT:    -5.802     16.243     23.442
REMARK INTER + INTRA:         -24.944
REMARK INTER:                 -17.748
REMARK INTRA:                  -7.197
REMARK UNBOUND:                -7.611
REMARK SMILES C=C1C(=O)N[C@H](C)C(=O)N[C@@H](CC(C)C)C(=O)N[C@@H](C(=O)O)[C@H](C)C(=O)N[C@@H](CCCN=C(N)N)C(=O)N[C@@H](/C=C/C(C)=C/[C@H](C)[C@H](Cc2ccccc2)OC)[C@H](C)C(=O)N[C@@H](C(=O)O)CCC(=O)N1C
REMARK SMILES IDX 39 1 38 2 37 3 36 4 28 6 27 7 25 8 26 9 23 11 24 12 19 13
REMARK SMILES IDX 18 14 16 15 17 16 11 18 10 19 8 20 9 21 12 24 13 25 14 26
REMARK SMILES IDX 15 27 20 28 21 29 22 30 29 32 30 33 31 34 32 35 33 36 34 37
REMARK SMILES IDX 35 38 57 43 58 44 59 45 60 46 61 47 62 49 66 50 67 51 68 52
REMARK SMILES IDX 69 53 70 54 71 55 2 56 1 57 3 58 4 59 5 60 6 62 7 63 63 65
REMARK SMILES IDX 64 66 65 67 40 69 41 70 42 71 44 72 43 73 45 74 46 75 47 76
REMARK SMILES IDX 55 77 56 78 48 79 49 80 50 81 54 82 51 83 53 84 52 85
REMARK H PARENT 38 5 27 10 18 17 10 22 22 31 34 39 34 40 35 41 35 42 61 48
REMARK H PARENT 5 61 65 68
REMARK Flexibility Score:  369.900
ROOT
ATOM      1  C   UNL     1      -7.681  -0.396  11.219  1.00  0.00     0.117 C 
ENDROOT
BRANCH   1   2
ATOM      2  N   UNL     1      -8.790  -1.181  11.762  1.00  0.00    -0.347 N 
ATOM      3  O   UNL     1      -7.737  -1.945  13.653  1.00  0.00    -0.273 OA
ATOM      4  C   UNL     1      -8.759  -1.821  12.986  1.00  0.00     0.243 C 
ATOM      5  H   UNL     1      -9.658  -1.232  11.249  1.00  0.00     0.164 HD
BRANCH   4   6
ATOM      6  C   UNL     1     -10.094  -2.511  13.363  1.00  0.00     0.171 C 
BRANCH   6   7
ATOM      7  N   UNL     1     -11.173  -2.071  12.464  1.00  0.00    -0.344 N 
ATOM      8  C   UNL     1     -12.238  -1.342  12.947  1.00  0.00     0.226 C 
ATOM      9  O   UNL     1     -12.353  -1.047  14.130  1.00  0.00    -0.275 OA
ATOM     10  H   UNL     1     -11.147  -2.354  11.492  1.00  0.00     0.164 HD
BRANCH   8  11
ATOM     11  C   UNL     1     -13.238  -0.918  11.886  1.00  0.00     0.109 C 
ATOM     12  C   UNL     1     -12.505  -0.477  10.619  1.00  0.00     0.021 C 
BRANCH  11  13
ATOM     13  C   UNL     1     -14.281  -2.033  11.676  1.00  0.00     0.204 C 
BRANCH  13  14
ATOM     14  N   UNL     1     -15.619  -1.495  11.414  1.00  0.00    -0.340 N 
ATOM     15  C   UNL     1     -16.687  -1.697  12.261  1.00  0.00     0.243 C 
ATOM     16  O   UNL     1     -16.577  -2.293  13.331  1.00  0.00    -0.273 OA
ATOM     17  H   UNL     1     -15.813  -1.125  10.479  1.00  0.00     0.164 HD
BRANCH  15  18
ATOM     18  C   UNL     1     -18.039  -1.217  11.679  1.00  0.00     0.171 C 
BRANCH  18  19
ATOM     19  N   UNL     1     -18.339   0.063  12.317  1.00  0.00    -0.343 N 
ATOM     20  C   UNL     1     -19.632   0.437  12.629  1.00  0.00     0.242 CG0
ATOM     21  O   UNL     1     -20.599  -0.228  12.265  1.00  0.00    -0.273 OA
ATOM     22  H   UNL     1     -17.581   0.701  12.534  1.00  0.00     0.164 HD
ATOM     23  G   UNL     1     -19.744   1.785  13.370  1.00  0.00     0.000 G0
ENDBRANCH  18  19
BRANCH  18  24
ATOM     24  C   UNL     1     -17.952  -1.077  10.154  1.00  0.00     0.038 C 
BRANCH  24  25
ATOM     25  C   UNL     1     -18.748  -2.138   9.364  1.00  0.00    -0.015 C 
ATOM     26  C   UNL     1     -19.092  -3.363  10.211  1.00  0.00     0.007 C 
ATOM     27  C   UNL     1     -17.946  -2.571   8.133  1.00  0.00     0.007 C 
ENDBRANCH  24  25
ENDBRANCH  18  24
ENDBRANCH  15  18
ENDBRANCH  13  14
BRANCH  13  28
ATOM     28  C   UNL     1     -13.935  -2.974  10.518  1.00  0.00     0.327 C 
ATOM     29  O   UNL     1     -13.145  -3.905  10.554  1.00  0.00    -0.250 OA
BRANCH  28  30
ATOM     30  O   UNL     1     -14.512  -2.613   9.354  1.00  0.00    -0.480 OA
ATOM     31  H   UNL     1     -13.795  -2.702   8.692  1.00  0.00     0.296 HD
ENDBRANCH  28  30
ENDBRANCH  13  28
ENDBRANCH  11  13
ENDBRANCH   8  11
ENDBRANCH   6   7
BRANCH   6  32
ATOM     32  C   UNL     1      -9.912  -4.031  13.297  1.00  0.00     0.037 C 
BRANCH  32  33
ATOM     33  C   UNL     1     -10.254  -4.714  14.629  1.00  0.00     0.026 C 
BRANCH  33  34
ATOM     34  C   UNL     1     -11.639  -4.324  15.147  1.00  0.00     0.146 C 
BRANCH  34  35
ATOM     35  N   UNL     1     -12.648  -4.868  14.249  1.00  0.00    -0.254 NA
ATOM     36  C   UNL     1     -13.829  -4.373  14.280  1.00  0.00     0.185 C 
ATOM     37  N   UNL     1     -14.765  -4.863  13.453  1.00  0.00    -0.370 N 
ATOM     38  N   UNL     1     -14.310  -3.382  15.052  1.00  0.00    -0.370 N 
ATOM     39  H   UNL     1     -14.477  -5.607  12.831  1.00  0.00     0.159 HD
ATOM     40  H   UNL     1     -15.654  -4.420  13.294  1.00  0.00     0.159 HD
ATOM     41  H   UNL     1     -15.295  -3.177  15.082  1.00  0.00     0.159 HD
ATOM     42  H   UNL     1     -13.720  -2.931  15.733  1.00  0.00     0.159 HD
ENDBRANCH  34  35
ENDBRANCH  33  34
ENDBRANCH  32  33
ENDBRANCH   6  32
ENDBRANCH   4   6
ENDBRANCH   1   2
BRANCH   1  43
ATOM     43  C   UNL     1      -8.137   1.087  11.098  1.00  0.00     0.102 C 
ATOM     44  C   UNL     1      -8.477   1.507   9.658  1.00  0.00     0.020 C 
BRANCH  43  45
ATOM     45  C   UNL     1      -7.152   2.024  11.803  1.00  0.00     0.225 C 
ATOM     46  O   UNL     1      -7.439   3.171  12.136  1.00  0.00    -0.275 OA
ATOM     47  N   UNL     1      -5.877   1.533  11.961  1.00  0.00    -0.342 N 
ATOM     48  H   UNL     1      -5.699   0.548  11.823  1.00  0.00     0.164 HD
BRANCH  47  49
ATOM     49  C   UNL     1      -4.838   2.305  12.650  1.00  0.00     0.192 C 
BRANCH  49  50
ATOM     50  C   UNL     1      -3.464   1.942  12.080  1.00  0.00     0.047 C 
BRANCH  50  51
ATOM     51  C   UNL     1      -2.521   3.151  12.020  1.00  0.00     0.103 C 
BRANCH  51  52
ATOM     52  C   UNL     1      -1.712   3.184  10.725  1.00  0.00     0.226 C 
ATOM     53  O   UNL     1      -1.839   4.134   9.950  1.00  0.00    -0.275 OA
BRANCH  52  54
ATOM     54  N   UNL     1      -0.794   2.135  10.533  1.00  0.00    -0.311 N 
ATOM     55  C   UNL     1       0.262   1.865  11.518  1.00  0.00     0.153 C 
BRANCH  54  56
ATOM     56  C   UNL     1      -0.855   1.307   9.400  1.00  0.00     0.102 C 
ATOM     57  C   UNL     1      -0.739   1.731   8.131  1.00  0.00     0.043 C 
BRANCH  56  58
ATOM     58  C   UNL     1      -1.016  -0.188   9.541  1.00  0.00     0.268 C 
ATOM     59  O   UNL     1      -1.741  -0.707  10.380  1.00  0.00    -0.268 OA
ATOM     60  N   UNL     1      -0.320  -0.899   8.593  1.00  0.00    -0.339 N 
ATOM     61  H   UNL     1       0.267  -0.394   7.940  1.00  0.00     0.164 HD
BRANCH  60  62
ATOM     62  C   UNL     1      -0.386  -2.357   8.508  1.00  0.00     0.168 CG0
ATOM     63  C   UNL     1       0.843  -2.998   9.141  1.00  0.00     0.041 C 
ATOM     64  G   UNL     1      -0.526  -2.783   7.032  1.00  0.00     0.000 G0
ENDBRANCH  60  62
ENDBRANCH  56  58
ENDBRANCH  54  56
ENDBRANCH  52  54
ENDBRANCH  51  52
ENDBRANCH  50  51
ENDBRANCH  49  50
BRANCH  49  65
ATOM     65  C   UNL     1      -4.847   2.042  14.164  1.00  0.00     0.326 C 
ATOM     66  O   UNL     1      -4.079   1.300  14.760  1.00  0.00    -0.250 OA
BRANCH  65  67
ATOM     67  O   UNL     1      -5.839   2.663  14.838  1.00  0.00    -0.480 OA
ATOM     68  H   UNL     1      -5.612   2.506  15.780  1.00  0.00     0.296 HD
ENDBRANCH  65  67
ENDBRANCH  49  65
ENDBRANCH  47  49
ENDBRANCH  43  45
ENDBRANCH   1  43
BRANCH   1  69
ATOM     69  C   UNL     1      -7.217  -1.125   9.971  1.00  0.00    -0.001 C 
ATOM     70  C   UNL     1      -5.999  -1.077   9.403  1.00  0.00     0.001 C 
BRANCH  70  71
ATOM     71  C   UNL     1      -5.556  -1.802   8.210  1.00  0.00    -0.055 C 
ATOM     72  C   UNL     1      -6.504  -2.267   7.370  1.00  0.00    -0.018 C 
ATOM     73  C   UNL     1      -4.073  -1.969   8.000  1.00  0.00     0.044 C 
BRANCH  72  74
ATOM     74  C   UNL     1      -6.343  -3.043   6.070  1.00  0.00     0.038 C 
ATOM     75  C   UNL     1      -6.339  -2.018   4.930  1.00  0.00     0.015 C 
BRANCH  74  76
ATOM     76  C   UNL     1      -7.470  -4.113   5.982  1.00  0.00     0.128 C 
BRANCH  76  77
ATOM     77  O   UNL     1      -7.602  -4.577   4.628  1.00  0.00    -0.381 OA
ATOM     78  C   UNL     1      -7.388  -5.974   4.479  1.00  0.00     0.195 C 
ENDBRANCH  76  77
BRANCH  76  79
ATOM     79  C   UNL     1      -7.319  -5.271   7.001  1.00  0.00     0.068 C 
BRANCH  79  80
ATOM     80  C   UNL     1      -8.476  -5.551   7.930  1.00  0.00    -0.045 A 
ATOM     81  C   UNL     1      -8.265  -5.782   9.295  1.00  0.00     0.004 A 
ATOM     82  C   UNL     1      -9.785  -5.613   7.430  1.00  0.00     0.004 A 
ATOM     83  C   UNL     1      -9.339  -6.054  10.146  1.00  0.00     0.000 A 
ATOM     84  C   UNL     1     -10.859  -5.886   8.281  1.00  0.00     0.000 A 
ATOM     85  C   UNL     1     -10.635  -6.105   9.638  1.00  0.00     0.000 A 
ENDBRANCH  79  80
ENDBRANCH  76  79
ENDBRANCH  74  76
ENDBRANCH  72  74
ENDBRANCH  70  71
ENDBRANCH   1  69
TORSDOF 17
ENDMDL
MODEL 48
REMARK VINA RESULT:    -5.799      4.580     11.656
REMARK INTER + INTRA:         -24.936
REMARK INTER:                 -18.507
REMARK INTRA:                  -6.429
REMARK UNBOUND:                -7.611
REMARK SMILES C=C1C(=O)N[C@H](C)C(=O)N[C@@H](CC(C)C)C(=O)N[C@@H](C(=O)O)[C@H](C)C(=O)N[C@@H](CCCN=C(N)N)C(=O)N[C@@H](/C=C/C(C)=C/[C@H](C)[C@H](Cc2ccccc2)OC)[C@H](C)C(=O)N[C@@H](C(=O)O)CCC(=O)N1C
REMARK SMILES IDX 39 1 38 2 37 3 36 4 28 6 27 7 25 8 26 9 23 11 24 12 19 13
REMARK SMILES IDX 18 14 16 15 17 16 11 18 10 19 8 20 9 21 12 24 13 25 14 26
REMARK SMILES IDX 15 27 20 28 21 29 22 30 29 32 30 33 31 34 32 35 33 36 34 37
REMARK SMILES IDX 35 38 57 43 58 44 59 45 60 46 61 47 62 49 66 50 67 51 68 52
REMARK SMILES IDX 69 53 70 54 71 55 2 56 1 57 3 58 4 59 5 60 6 62 7 63 63 65
REMARK SMILES IDX 64 66 65 67 40 69 41 70 42 71 44 72 43 73 45 74 46 75 47 76
REMARK SMILES IDX 55 77 56 78 48 79 49 80 50 81 54 82 51 83 53 84 52 85
REMARK H PARENT 38 5 27 10 18 17 10 22 22 31 34 39 34 40 35 41 35 42 61 48
REMARK H PARENT 5 61 65 68
REMARK Flexibility Score:  369.900
ROOT
ATOM      1  C   UNL     1      -6.301   3.035  -6.627  1.00  0.00     0.117 C 
ENDROOT
BRANCH   1   2
ATOM      2  N   UNL     1      -7.302   2.331  -5.824  1.00  0.00    -0.347 N 
ATOM      3  O   UNL     1      -5.945   0.664  -5.020  1.00  0.00    -0.273 OA
ATOM      4  C   UNL     1      -7.021   1.252  -5.010  1.00  0.00     0.243 C 
ATOM      5  H   UNL     1      -8.253   2.669  -5.813  1.00  0.00     0.164 HD
BRANCH   4   6
ATOM      6  C   UNL     1      -8.243   0.746  -4.202  1.00  0.00     0.171 C 
BRANCH   6   7
ATOM      7  N   UNL     1      -7.867   0.499  -2.801  1.00  0.00    -0.344 N 
ATOM      8  C   UNL     1      -7.517  -0.765  -2.379  1.00  0.00     0.226 C 
ATOM      9  O   UNL     1      -7.524  -1.736  -3.127  1.00  0.00    -0.275 OA
ATOM     10  H   UNL     1      -7.915   1.263  -2.138  1.00  0.00     0.164 HD
BRANCH   8  11
ATOM     11  C   UNL     1      -7.102  -0.846  -0.920  1.00  0.00     0.109 C 
ATOM     12  C   UNL     1      -7.306   0.508  -0.240  1.00  0.00     0.021 C 
BRANCH  11  13
ATOM     13  C   UNL     1      -7.819  -2.029  -0.239  1.00  0.00     0.204 C 
BRANCH  13  14
ATOM     14  N   UNL     1      -7.157  -2.432   1.006  1.00  0.00    -0.340 N 
ATOM     15  C   UNL     1      -6.717  -3.717   1.237  1.00  0.00     0.243 C 
ATOM     16  O   UNL     1      -6.794  -4.604   0.389  1.00  0.00    -0.273 OA
ATOM     17  H   UNL     1      -7.198  -1.789   1.802  1.00  0.00     0.164 HD
BRANCH  15  18
ATOM     18  C   UNL     1      -6.242  -3.956   2.691  1.00  0.00     0.171 C 
BRANCH  18  19
ATOM     19  N   UNL     1      -5.033  -4.774   2.608  1.00  0.00    -0.343 N 
ATOM     20  C   UNL     1      -4.818  -5.845   3.454  1.00  0.00     0.242 CG0
ATOM     21  O   UNL     1      -5.567  -6.078   4.399  1.00  0.00    -0.273 OA
ATOM     22  H   UNL     1      -4.327  -4.549   1.916  1.00  0.00     0.164 HD
ATOM     23  G   UNL     1      -3.526  -6.636   3.164  1.00  0.00     0.000 G0
ENDBRANCH  18  19
BRANCH  18  24
ATOM     24  C   UNL     1      -5.970  -2.622   3.398  1.00  0.00     0.038 C 
BRANCH  24  25
ATOM     25  C   UNL     1      -6.736  -2.429   4.725  1.00  0.00    -0.015 C 
ATOM     26  C   UNL     1      -5.858  -2.686   5.950  1.00  0.00     0.007 C 
ATOM     27  C   UNL     1      -7.951  -3.359   4.758  1.00  0.00     0.007 C 
ENDBRANCH  24  25
ENDBRANCH  18  24
ENDBRANCH  15  18
ENDBRANCH  13  14
BRANCH  13  28
ATOM     28  C   UNL     1      -9.283  -1.732   0.101  1.00  0.00     0.327 C 
ATOM     29  O   UNL     1     -10.181  -1.518  -0.698  1.00  0.00    -0.250 OA
BRANCH  28  30
ATOM     30  O   UNL     1      -9.503  -1.606   1.426  1.00  0.00    -0.480 OA
ATOM     31  H   UNL     1     -10.173  -2.293   1.625  1.00  0.00     0.296 HD
ENDBRANCH  28  30
ENDBRANCH  13  28
ENDBRANCH  11  13
ENDBRANCH   8  11
ENDBRANCH   6   7
BRANCH   6  32
ATOM     32  C   UNL     1      -9.370   1.781  -4.292  1.00  0.00     0.037 C 
BRANCH  32  33
ATOM     33  C   UNL     1     -10.715   1.143  -4.664  1.00  0.00     0.026 C 
BRANCH  33  34
ATOM     34  C   UNL     1     -10.557  -0.037  -5.624  1.00  0.00     0.146 C 
BRANCH  34  35
ATOM     35  N   UNL     1     -11.164  -1.216  -5.023  1.00  0.00    -0.254 NA
ATOM     36  C   UNL     1     -10.486  -2.302  -4.979  1.00  0.00     0.185 C 
ATOM     37  N   UNL     1     -11.034  -3.393  -4.423  1.00  0.00    -0.370 N 
ATOM     38  N   UNL     1      -9.240  -2.538  -5.426  1.00  0.00    -0.370 N 
ATOM     39  H   UNL     1     -11.970  -3.293  -4.052  1.00  0.00     0.159 HD
ATOM     40  H   UNL     1     -10.513  -4.223  -4.194  1.00  0.00     0.159 HD
ATOM     41  H   UNL     1      -8.867  -3.473  -5.459  1.00  0.00     0.159 HD
ATOM     42  H   UNL     1      -8.712  -1.810  -5.882  1.00  0.00     0.159 HD
ENDBRANCH  34  35
ENDBRANCH  33  34
ENDBRANCH  32  33
ENDBRANCH   6  32
ENDBRANCH   4   6
ENDBRANCH   1   2
BRANCH   1  43
ATOM     43  C   UNL     1      -5.379   3.844  -5.669  1.00  0.00     0.102 C 
ATOM     44  C   UNL     1      -5.599   5.364  -5.748  1.00  0.00     0.020 C 
BRANCH  43  45
ATOM     45  C   UNL     1      -3.916   3.419  -5.825  1.00  0.00     0.225 C 
ATOM     46  O   UNL     1      -2.976   4.073  -5.380  1.00  0.00    -0.275 OA
ATOM     47  N   UNL     1      -3.704   2.292  -6.586  1.00  0.00    -0.342 N 
ATOM     48  H   UNL     1      -4.482   1.688  -6.813  1.00  0.00     0.164 HD
BRANCH  47  49
ATOM     49  C   UNL     1      -2.358   1.748  -6.791  1.00  0.00     0.192 C 
BRANCH  49  50
ATOM     50  C   UNL     1      -2.036   1.723  -8.287  1.00  0.00     0.047 C 
BRANCH  50  51
ATOM     51  C   UNL     1      -0.751   2.495  -8.618  1.00  0.00     0.103 C 
BRANCH  51  52
ATOM     52  C   UNL     1       0.402   1.560  -8.981  1.00  0.00     0.226 C 
ATOM     53  O   UNL     1       0.329   0.363  -8.697  1.00  0.00    -0.275 OA
BRANCH  52  54
ATOM     54  N   UNL     1       1.467   2.130  -9.702  1.00  0.00    -0.311 N 
ATOM     55  C   UNL     1       1.901   1.562 -10.986  1.00  0.00     0.153 C 
BRANCH  54  56
ATOM     56  C   UNL     1       2.150   3.262  -9.228  1.00  0.00     0.102 C 
ATOM     57  C   UNL     1       2.664   3.388  -7.993  1.00  0.00     0.043 C 
BRANCH  56  58
ATOM     58  C   UNL     1       2.404   4.448 -10.128  1.00  0.00     0.268 C 
ATOM     59  O   UNL     1       3.519   4.913 -10.325  1.00  0.00    -0.268 OA
ATOM     60  N   UNL     1       1.267   4.907 -10.750  1.00  0.00    -0.339 N 
ATOM     61  H   UNL     1       0.380   4.474 -10.524  1.00  0.00     0.164 HD
BRANCH  60  62
ATOM     62  C   UNL     1       1.296   6.008 -11.712  1.00  0.00     0.168 CG0
ATOM     63  C   UNL     1       1.371   5.484 -13.141  1.00  0.00     0.041 C 
ATOM     64  G   UNL     1       2.494   6.930 -11.406  1.00  0.00     0.000 G0
ENDBRANCH  60  62
ENDBRANCH  56  58
ENDBRANCH  54  56
ENDBRANCH  52  54
ENDBRANCH  51  52
ENDBRANCH  50  51
ENDBRANCH  49  50
BRANCH  49  65
ATOM     65  C   UNL     1      -2.228   0.328  -6.219  1.00  0.00     0.326 C 
ATOM     66  O   UNL     1      -2.135   0.045  -5.033  1.00  0.00    -0.250 OA
BRANCH  65  67
ATOM     67  O   UNL     1      -2.161  -0.651  -7.149  1.00  0.00    -0.480 OA
ATOM     68  H   UNL     1      -2.862  -1.280  -6.873  1.00  0.00     0.296 HD
ENDBRANCH  65  67
ENDBRANCH  49  65
ENDBRANCH  47  49
ENDBRANCH  43  45
ENDBRANCH   1  43
BRANCH   1  69
ATOM     69  C   UNL     1      -7.067   3.776  -7.707  1.00  0.00    -0.001 C 
ATOM     70  C   UNL     1      -6.745   3.887  -9.008  1.00  0.00     0.001 C 
BRANCH  70  71
ATOM     71  C   UNL     1      -7.504   4.587 -10.046  1.00  0.00    -0.055 C 
ATOM     72  C   UNL     1      -8.363   5.550  -9.653  1.00  0.00    -0.018 C 
ATOM     73  C   UNL     1      -7.266   4.188 -11.479  1.00  0.00     0.044 C 
BRANCH  72  74
ATOM     74  C   UNL     1      -9.270   6.434 -10.497  1.00  0.00     0.038 C 
ATOM     75  C   UNL     1      -8.977   7.888 -10.105  1.00  0.00     0.015 C 
BRANCH  74  76
ATOM     76  C   UNL     1     -10.746   5.986 -10.284  1.00  0.00     0.128 C 
BRANCH  76  77
ATOM     77  O   UNL     1     -11.453   6.014 -11.535  1.00  0.00    -0.381 OA
ATOM     78  C   UNL     1     -10.677   5.569 -12.640  1.00  0.00     0.195 C 
ENDBRANCH  76  77
BRANCH  76  79
ATOM     79  C   UNL     1     -10.892   4.632  -9.543  1.00  0.00     0.068 C 
BRANCH  79  80
ATOM     80  C   UNL     1     -11.728   4.601  -8.286  1.00  0.00    -0.045 A 
ATOM     81  C   UNL     1     -11.144   4.350  -7.037  1.00  0.00     0.004 A 
ATOM     82  C   UNL     1     -13.116   4.795  -8.355  1.00  0.00     0.004 A 
ATOM     83  C   UNL     1     -11.927   4.308  -5.881  1.00  0.00     0.000 A 
ATOM     84  C   UNL     1     -13.897   4.753  -7.198  1.00  0.00     0.000 A 
ATOM     85  C   UNL     1     -13.302   4.511  -5.962  1.00  0.00     0.000 A 
ENDBRANCH  79  80
ENDBRANCH  76  79
ENDBRANCH  74  76
ENDBRANCH  72  74
ENDBRANCH  70  71
ENDBRANCH   1  69
TORSDOF 17
ENDMDL
MODEL 49
REMARK VINA RESULT:    -5.727      4.384     13.832
REMARK INTER + INTRA:         -24.722
REMARK INTER:                 -16.656
REMARK INTRA:                  -8.066
REMARK UNBOUND:                -7.611
REMARK SMILES C=C1C(=O)N[C@H](C)C(=O)N[C@@H](CC(C)C)C(=O)N[C@@H](C(=O)O)[C@H](C)C(=O)N[C@@H](CCCN=C(N)N)C(=O)N[C@@H](/C=C/C(C)=C/[C@H](C)[C@H](Cc2ccccc2)OC)[C@H](C)C(=O)N[C@@H](C(=O)O)CCC(=O)N1C
REMARK SMILES IDX 39 1 38 2 37 3 36 4 28 6 27 7 25 8 26 9 23 11 24 12 19 13
REMARK SMILES IDX 18 14 16 15 17 16 11 18 10 19 8 20 9 21 12 24 13 25 14 26
REMARK SMILES IDX 15 27 20 28 21 29 22 30 29 32 30 33 31 34 32 35 33 36 34 37
REMARK SMILES IDX 35 38 57 43 58 44 59 45 60 46 61 47 62 49 66 50 67 51 68 52
REMARK SMILES IDX 69 53 70 54 71 55 2 56 1 57 3 58 4 59 5 60 6 62 7 63 63 65
REMARK SMILES IDX 64 66 65 67 40 69 41 70 42 71 44 72 43 73 45 74 46 75 47 76
REMARK SMILES IDX 55 77 56 78 48 79 49 80 50 81 54 82 51 83 53 84 52 85
REMARK H PARENT 38 5 27 10 18 17 10 22 22 31 34 39 34 40 35 41 35 42 61 48
REMARK H PARENT 5 61 65 68
REMARK Flexibility Score:  369.900
ROOT
ATOM      1  C   UNL     1      -8.700   3.040  -4.488  1.00  0.00     0.117 C 
ENDROOT
BRANCH   1   2
ATOM      2  N   UNL     1      -9.735   3.680  -5.300  1.00  0.00    -0.347 N 
ATOM      3  O   UNL     1      -8.621   5.637  -5.744  1.00  0.00    -0.273 OA
ATOM      4  C   UNL     1      -9.576   4.893  -5.941  1.00  0.00     0.243 C 
ATOM      5  H   UNL     1     -10.609   3.200  -5.455  1.00  0.00     0.164 HD
BRANCH   4   6
ATOM      6  C   UNL     1     -10.793   5.305  -6.808  1.00  0.00     0.171 C 
BRANCH   6   7
ATOM      7  N   UNL     1     -12.050   4.943  -6.134  1.00  0.00    -0.344 N 
ATOM      8  C   UNL     1     -13.128   4.479  -6.857  1.00  0.00     0.226 C 
ATOM      9  O   UNL     1     -13.105   4.367  -8.077  1.00  0.00    -0.275 OA
ATOM     10  H   UNL     1     -12.130   5.086  -5.135  1.00  0.00     0.164 HD
BRANCH   8  11
ATOM     11  C   UNL     1     -14.331   4.097  -6.013  1.00  0.00     0.109 C 
ATOM     12  C   UNL     1     -15.551   3.876  -6.906  1.00  0.00     0.021 C 
BRANCH  11  13
ATOM     13  C   UNL     1     -13.971   2.908  -5.100  1.00  0.00     0.204 C 
BRANCH  13  14
ATOM     14  N   UNL     1     -15.156   2.318  -4.470  1.00  0.00    -0.340 N 
ATOM     15  C   UNL     1     -15.142   1.791  -3.197  1.00  0.00     0.243 C 
ATOM     16  O   UNL     1     -14.147   1.833  -2.475  1.00  0.00    -0.273 OA
ATOM     17  H   UNL     1     -15.964   2.115  -5.063  1.00  0.00     0.164 HD
BRANCH  15  18
ATOM     18  C   UNL     1     -16.444   1.039  -2.824  1.00  0.00     0.171 C 
BRANCH  18  19
ATOM     19  N   UNL     1     -17.133   1.862  -1.832  1.00  0.00    -0.343 N 
ATOM     20  C   UNL     1     -17.749   3.051  -2.172  1.00  0.00     0.242 CG0
ATOM     21  O   UNL     1     -17.633   3.538  -3.294  1.00  0.00    -0.273 OA
ATOM     22  H   UNL     1     -17.157   1.559  -0.865  1.00  0.00     0.164 HD
ATOM     23  G   UNL     1     -18.491   3.740  -1.008  1.00  0.00     0.000 G0
ENDBRANCH  18  19
BRANCH  18  24
ATOM     24  C   UNL     1     -17.313   0.813  -4.067  1.00  0.00     0.038 C 
BRANCH  24  25
ATOM     25  C   UNL     1     -17.781  -0.644  -4.269  1.00  0.00    -0.015 C 
ATOM     26  C   UNL     1     -19.241  -0.733  -4.714  1.00  0.00     0.007 C 
ATOM     27  C   UNL     1     -17.589  -1.431  -2.970  1.00  0.00     0.007 C 
ENDBRANCH  24  25
ENDBRANCH  18  24
ENDBRANCH  15  18
ENDBRANCH  13  14
BRANCH  13  28
ATOM     28  C   UNL     1     -13.240   1.782  -5.837  1.00  0.00     0.327 C 
ATOM     29  O   UNL     1     -13.755   0.915  -6.526  1.00  0.00    -0.250 OA
BRANCH  28  30
ATOM     30  O   UNL     1     -11.919   1.743  -5.566  1.00  0.00    -0.480 OA
ATOM     31  H   UNL     1     -11.578   1.021  -6.134  1.00  0.00     0.296 HD
ENDBRANCH  28  30
ENDBRANCH  13  28
ENDBRANCH  11  13
ENDBRANCH   8  11
ENDBRANCH   6   7
BRANCH   6  32
ATOM     32  C   UNL     1     -10.731   6.812  -7.079  1.00  0.00     0.037 C 
BRANCH  32  33
ATOM     33  C   UNL     1     -10.868   7.138  -8.573  1.00  0.00     0.026 C 
BRANCH  33  34
ATOM     34  C   UNL     1      -9.531   7.512  -9.215  1.00  0.00     0.146 C 
BRANCH  34  35
ATOM     35  N   UNL     1      -8.538   6.512  -8.847  1.00  0.00    -0.254 NA
ATOM     36  C   UNL     1      -8.380   5.493  -9.607  1.00  0.00     0.185 C 
ATOM     37  N   UNL     1      -7.464   4.569  -9.280  1.00  0.00    -0.370 N 
ATOM     38  N   UNL     1      -9.022   5.183 -10.747  1.00  0.00    -0.370 N 
ATOM     39  H   UNL     1      -6.930   4.737  -8.437  1.00  0.00     0.159 HD
ATOM     40  H   UNL     1      -7.161   3.841  -9.904  1.00  0.00     0.159 HD
ATOM     41  H   UNL     1      -8.906   4.282 -11.181  1.00  0.00     0.159 HD
ATOM     42  H   UNL     1      -9.750   5.782 -11.105  1.00  0.00     0.159 HD
ENDBRANCH  34  35
ENDBRANCH  33  34
ENDBRANCH  32  33
ENDBRANCH   6  32
ENDBRANCH   4   6
ENDBRANCH   1   2
BRANCH   1  43
ATOM     43  C   UNL     1      -8.008   1.940  -5.343  1.00  0.00     0.102 C 
ATOM     44  C   UNL     1      -7.544   0.726  -4.521  1.00  0.00     0.020 C 
BRANCH  43  45
ATOM     45  C   UNL     1      -6.916   2.541  -6.234  1.00  0.00     0.225 C 
ATOM     46  O   UNL     1      -6.703   2.163  -7.382  1.00  0.00    -0.275 OA
ATOM     47  N   UNL     1      -6.112   3.482  -5.632  1.00  0.00    -0.342 N 
ATOM     48  H   UNL     1      -6.392   3.888  -4.750  1.00  0.00     0.164 HD
BRANCH  47  49
ATOM     49  C   UNL     1      -5.049   4.168  -6.372  1.00  0.00     0.192 C 
BRANCH  49  50
ATOM     50  C   UNL     1      -3.683   3.717  -5.847  1.00  0.00     0.047 C 
BRANCH  50  51
ATOM     51  C   UNL     1      -3.215   2.407  -6.495  1.00  0.00     0.103 C 
BRANCH  51  52
ATOM     52  C   UNL     1      -2.094   2.636  -7.507  1.00  0.00     0.226 C 
ATOM     53  O   UNL     1      -1.932   3.757  -7.994  1.00  0.00    -0.275 OA
BRANCH  52  54
ATOM     54  N   UNL     1      -1.251   1.540  -7.767  1.00  0.00    -0.311 N 
ATOM     55  C   UNL     1      -1.182   0.402  -6.840  1.00  0.00     0.153 C 
BRANCH  54  56
ATOM     56  C   UNL     1      -0.450   1.489  -8.920  1.00  0.00     0.102 C 
ATOM     57  C   UNL     1      -0.892   1.176 -10.149  1.00  0.00     0.043 C 
BRANCH  56  58
ATOM     58  C   UNL     1       1.017   1.844  -8.861  1.00  0.00     0.268 C 
ATOM     59  O   UNL     1       1.911   1.013  -8.956  1.00  0.00    -0.268 OA
ATOM     60  N   UNL     1       1.243   3.196  -8.757  1.00  0.00    -0.339 N 
ATOM     61  H   UNL     1       0.448   3.817  -8.672  1.00  0.00     0.164 HD
BRANCH  60  62
ATOM     62  C   UNL     1       2.591   3.762  -8.747  1.00  0.00     0.168 CG0
ATOM     63  C   UNL     1       3.009   4.203 -10.144  1.00  0.00     0.041 C 
ATOM     64  G   UNL     1       3.583   2.724  -8.182  1.00  0.00     0.000 G0
ENDBRANCH  60  62
ENDBRANCH  56  58
ENDBRANCH  54  56
ENDBRANCH  52  54
ENDBRANCH  51  52
ENDBRANCH  50  51
ENDBRANCH  49  50
BRANCH  49  65
ATOM     65  C   UNL     1      -5.164   5.695  -6.245  1.00  0.00     0.326 C 
ATOM     66  O   UNL     1      -4.590   6.385  -5.415  1.00  0.00    -0.250 OA
BRANCH  65  67
ATOM     67  O   UNL     1      -6.028   6.270  -7.111  1.00  0.00    -0.480 OA
ATOM     68  H   UNL     1      -5.468   6.899  -7.613  1.00  0.00     0.296 HD
ENDBRANCH  65  67
ENDBRANCH  49  65
ENDBRANCH  47  49
ENDBRANCH  43  45
ENDBRANCH   1  43
BRANCH   1  69
ATOM     69  C   UNL     1      -9.368   2.643  -3.184  1.00  0.00    -0.001 C 
ATOM     70  C   UNL     1     -10.176   3.397  -2.418  1.00  0.00     0.001 C 
BRANCH  70  71
ATOM     71  C   UNL     1     -10.833   2.996  -1.172  1.00  0.00    -0.055 C 
ATOM     72  C   UNL     1     -10.274   1.993  -0.463  1.00  0.00    -0.018 C 
ATOM     73  C   UNL     1     -12.081   3.735  -0.766  1.00  0.00     0.044 C 
BRANCH  72  74
ATOM     74  C   UNL     1     -10.727   1.374   0.852  1.00  0.00     0.038 C 
ATOM     75  C   UNL     1      -9.712   1.792   1.923  1.00  0.00     0.015 C 
BRANCH  74  76
ATOM     76  C   UNL     1     -10.875  -0.164   0.657  1.00  0.00     0.128 C 
BRANCH  76  77
ATOM     77  O   UNL     1     -10.366  -0.856   1.810  1.00  0.00    -0.381 OA
ATOM     78  C   UNL     1      -9.497  -1.934   1.491  1.00  0.00     0.195 C 
ENDBRANCH  76  77
BRANCH  76  79
ATOM     79  C   UNL     1     -12.306  -0.615   0.270  1.00  0.00     0.068 C 
BRANCH  79  80
ATOM     80  C   UNL     1     -12.575  -0.949  -1.177  1.00  0.00    -0.045 A 
ATOM     81  C   UNL     1     -13.805  -1.488  -1.577  1.00  0.00     0.004 A 
ATOM     82  C   UNL     1     -11.580  -0.749  -2.146  1.00  0.00     0.004 A 
ATOM     83  C   UNL     1     -14.041  -1.807  -2.915  1.00  0.00     0.000 A 
ATOM     84  C   UNL     1     -11.817  -1.069  -3.484  1.00  0.00     0.000 A 
ATOM     85  C   UNL     1     -13.047  -1.597  -3.869  1.00  0.00     0.000 A 
ENDBRANCH  79  80
ENDBRANCH  76  79
ENDBRANCH  74  76
ENDBRANCH  72  74
ENDBRANCH  70  71
ENDBRANCH   1  69
TORSDOF 17
ENDMDL
MODEL 50
REMARK VINA RESULT:    -5.707      7.428     16.619
REMARK INTER + INTRA:         -24.662
REMARK INTER:                 -16.602
REMARK INTRA:                  -8.060
REMARK UNBOUND:                -7.611
REMARK SMILES C=C1C(=O)N[C@H](C)C(=O)N[C@@H](CC(C)C)C(=O)N[C@@H](C(=O)O)[C@H](C)C(=O)N[C@@H](CCCN=C(N)N)C(=O)N[C@@H](/C=C/C(C)=C/[C@H](C)[C@H](Cc2ccccc2)OC)[C@H](C)C(=O)N[C@@H](C(=O)O)CCC(=O)N1C
REMARK SMILES IDX 39 1 38 2 37 3 36 4 28 6 27 7 25 8 26 9 23 11 24 12 19 13
REMARK SMILES IDX 18 14 16 15 17 16 11 18 10 19 8 20 9 21 12 24 13 25 14 26
REMARK SMILES IDX 15 27 20 28 21 29 22 30 29 32 30 33 31 34 32 35 33 36 34 37
REMARK SMILES IDX 35 38 57 43 58 44 59 45 60 46 61 47 62 49 66 50 67 51 68 52
REMARK SMILES IDX 69 53 70 54 71 55 2 56 1 57 3 58 4 59 5 60 6 62 7 63 63 65
REMARK SMILES IDX 64 66 65 67 40 69 41 70 42 71 44 72 43 73 45 74 46 75 47 76
REMARK SMILES IDX 55 77 56 78 48 79 49 80 50 81 54 82 51 83 53 84 52 85
REMARK H PARENT 38 5 27 10 18 17 10 22 22 31 34 39 34 40 35 41 35 42 61 48
REMARK H PARENT 5 61 65 68
REMARK Flexibility Score:  369.900
ROOT
ATOM      1  C   UNL     1     -12.927   2.326   0.227  1.00  0.00     0.117 C 
ENDROOT
BRANCH   1   2
ATOM      2  N   UNL     1     -13.849   1.285  -0.229  1.00  0.00    -0.347 N 
ATOM      3  O   UNL     1     -13.797  -0.025   1.655  1.00  0.00    -0.273 OA
ATOM      4  C   UNL     1     -14.282   0.237   0.560  1.00  0.00     0.243 C 
ATOM      5  H   UNL     1     -14.243   1.344  -1.156  1.00  0.00     0.164 HD
BRANCH   4   6
ATOM      6  C   UNL     1     -15.324  -0.677  -0.135  1.00  0.00     0.171 C 
BRANCH   6   7
ATOM      7  N   UNL     1     -16.683  -0.345   0.319  1.00  0.00    -0.344 N 
ATOM      8  C   UNL     1     -17.250  -1.007   1.386  1.00  0.00     0.226 C 
ATOM      9  O   UNL     1     -16.673  -1.905   1.987  1.00  0.00    -0.275 OA
ATOM     10  H   UNL     1     -17.218   0.345  -0.195  1.00  0.00     0.164 HD
BRANCH   8  11
ATOM     11  C   UNL     1     -18.635  -0.513   1.766  1.00  0.00     0.109 C 
ATOM     12  C   UNL     1     -19.596  -1.694   1.901  1.00  0.00     0.021 C 
BRANCH  11  13
ATOM     13  C   UNL     1     -18.542   0.393   3.010  1.00  0.00     0.204 C 
BRANCH  13  14
ATOM     14  N   UNL     1     -17.497  -0.049   3.938  1.00  0.00    -0.340 N 
ATOM     15  C   UNL     1     -17.775  -0.607   5.167  1.00  0.00     0.243 C 
ATOM     16  O   UNL     1     -18.923  -0.828   5.547  1.00  0.00    -0.273 OA
ATOM     17  H   UNL     1     -16.534   0.242   3.751  1.00  0.00     0.164 HD
BRANCH  15  18
ATOM     18  C   UNL     1     -16.522  -0.802   6.055  1.00  0.00     0.171 C 
BRANCH  18  19
ATOM     19  N   UNL     1     -16.663  -2.108   6.697  1.00  0.00    -0.343 N 
ATOM     20  C   UNL     1     -16.883  -2.232   8.055  1.00  0.00     0.242 CG0
ATOM     21  O   UNL     1     -16.837  -1.261   8.806  1.00  0.00    -0.273 OA
ATOM     22  H   UNL     1     -16.592  -2.949   6.135  1.00  0.00     0.164 HD
ATOM     23  G   UNL     1     -17.084  -3.684   8.538  1.00  0.00     0.000 G0
ENDBRANCH  18  19
BRANCH  18  24
ATOM     24  C   UNL     1     -15.243  -0.726   5.212  1.00  0.00     0.038 C 
BRANCH  24  25
ATOM     25  C   UNL     1     -13.972  -1.238   5.921  1.00  0.00    -0.015 C 
ATOM     26  C   UNL     1     -13.487  -0.285   7.014  1.00  0.00     0.007 C 
ATOM     27  C   UNL     1     -12.858  -1.451   4.892  1.00  0.00     0.007 C 
ENDBRANCH  24  25
ENDBRANCH  18  24
ENDBRANCH  15  18
ENDBRANCH  13  14
BRANCH  13  28
ATOM     28  C   UNL     1     -18.256   1.859   2.669  1.00  0.00     0.327 C 
ATOM     29  O   UNL     1     -18.838   2.534   1.834  1.00  0.00    -0.250 OA
BRANCH  28  30
ATOM     30  O   UNL     1     -17.177   2.350   3.313  1.00  0.00    -0.480 OA
ATOM     31  H   UNL     1     -16.489   1.665   3.187  1.00  0.00     0.296 HD
ENDBRANCH  28  30
ENDBRANCH  13  28
ENDBRANCH  11  13
ENDBRANCH   8  11
ENDBRANCH   6   7
BRANCH   6  32
ATOM     32  C   UNL     1     -15.199  -0.518  -1.654  1.00  0.00     0.037 C 
BRANCH  32  33
ATOM     33  C   UNL     1     -16.518  -0.820  -2.378  1.00  0.00     0.026 C 
BRANCH  33  34
ATOM     34  C   UNL     1     -16.559  -2.236  -2.953  1.00  0.00     0.146 C 
BRANCH  34  35
ATOM     35  N   UNL     1     -16.955  -2.164  -4.353  1.00  0.00    -0.254 NA
ATOM     36  C   UNL     1     -17.590  -3.153  -4.863  1.00  0.00     0.185 C 
ATOM     37  N   UNL     1     -17.964  -3.095  -6.151  1.00  0.00    -0.370 N 
ATOM     38  N   UNL     1     -17.965  -4.307  -4.283  1.00  0.00    -0.370 N 
ATOM     39  H   UNL     1     -17.726  -2.250  -6.655  1.00  0.00     0.159 HD
ATOM     40  H   UNL     1     -18.608  -3.742  -6.572  1.00  0.00     0.159 HD
ATOM     41  H   UNL     1     -18.337  -5.067  -4.828  1.00  0.00     0.159 HD
ATOM     42  H   UNL     1     -17.735  -4.494  -3.319  1.00  0.00     0.159 HD
ENDBRANCH  34  35
ENDBRANCH  33  34
ENDBRANCH  32  33
ENDBRANCH   6  32
ENDBRANCH   4   6
ENDBRANCH   1   2
BRANCH   1  43
ATOM     43  C   UNL     1     -13.197   3.620  -0.595  1.00  0.00     0.102 C 
ATOM     44  C   UNL     1     -14.605   4.200  -0.379  1.00  0.00     0.020 C 
BRANCH  43  45
ATOM     45  C   UNL     1     -12.825   3.423  -2.068  1.00  0.00     0.225 C 
ATOM     46  O   UNL     1     -13.580   2.908  -2.887  1.00  0.00    -0.275 OA
ATOM     47  N   UNL     1     -11.539   3.779  -2.407  1.00  0.00    -0.342 N 
ATOM     48  H   UNL     1     -10.989   4.336  -1.768  1.00  0.00     0.164 HD
BRANCH  47  49
ATOM     49  C   UNL     1     -11.055   3.679  -3.787  1.00  0.00     0.192 C 
BRANCH  49  50
ATOM     50  C   UNL     1      -9.933   2.641  -3.865  1.00  0.00     0.047 C 
BRANCH  50  51
ATOM     51  C   UNL     1     -10.046   1.754  -5.112  1.00  0.00     0.103 C 
BRANCH  51  52
ATOM     52  C   UNL     1      -9.454   2.425  -6.349  1.00  0.00     0.226 C 
ATOM     53  O   UNL     1     -10.199   2.796  -7.259  1.00  0.00    -0.275 OA
BRANCH  52  54
ATOM     54  N   UNL     1      -8.064   2.650  -6.335  1.00  0.00    -0.311 N 
ATOM     55  C   UNL     1      -7.117   1.529  -6.374  1.00  0.00     0.153 C 
BRANCH  54  56
ATOM     56  C   UNL     1      -7.533   3.950  -6.290  1.00  0.00     0.102 C 
ATOM     57  C   UNL     1      -6.908   4.488  -5.230  1.00  0.00     0.043 C 
BRANCH  56  58
ATOM     58  C   UNL     1      -7.592   4.853  -7.499  1.00  0.00     0.268 C 
ATOM     59  O   UNL     1      -6.715   4.889  -8.352  1.00  0.00    -0.268 OA
ATOM     60  N   UNL     1      -8.757   5.579  -7.575  1.00  0.00    -0.339 N 
ATOM     61  H   UNL     1      -9.430   5.501  -6.822  1.00  0.00     0.164 HD
BRANCH  60  62
ATOM     62  C   UNL     1      -9.048   6.470  -8.698  1.00  0.00     0.168 CG0
ATOM     63  C   UNL     1     -10.090   7.513  -8.312  1.00  0.00     0.041 C 
ATOM     64  G   UNL     1      -9.528   5.639  -9.906  1.00  0.00     0.000 G0
ENDBRANCH  60  62
ENDBRANCH  56  58
ENDBRANCH  54  56
ENDBRANCH  52  54
ENDBRANCH  51  52
ENDBRANCH  50  51
ENDBRANCH  49  50
BRANCH  49  65
ATOM     65  C   UNL     1     -10.536   5.030  -4.304  1.00  0.00     0.326 C 
ATOM     66  O   UNL     1     -10.830   5.541  -5.375  1.00  0.00    -0.250 OA
BRANCH  65  67
ATOM     67  O   UNL     1      -9.641   5.637  -3.495  1.00  0.00    -0.480 OA
ATOM     68  H   UNL     1     -10.008   5.497  -2.596  1.00  0.00     0.296 HD
ENDBRANCH  65  67
ENDBRANCH  49  65
ENDBRANCH  47  49
ENDBRANCH  43  45
ENDBRANCH   1  43
BRANCH   1  69
ATOM     69  C   UNL     1     -11.541   1.710   0.191  1.00  0.00    -0.001 C 
ATOM     70  C   UNL     1     -10.377   2.298   0.519  1.00  0.00     0.001 C 
BRANCH  70  71
ATOM     71  C   UNL     1      -9.047   1.686   0.501  1.00  0.00    -0.055 C 
ATOM     72  C   UNL     1      -8.645   1.090  -0.641  1.00  0.00    -0.018 C 
ATOM     73  C   UNL     1      -8.217   1.772   1.756  1.00  0.00     0.044 C 
BRANCH  72  74
ATOM     74  C   UNL     1      -7.332   0.385  -0.950  1.00  0.00     0.038 C 
ATOM     75  C   UNL     1      -6.942   0.762  -2.384  1.00  0.00     0.015 C 
BRANCH  74  76
ATOM     76  C   UNL     1      -7.514  -1.142  -0.703  1.00  0.00     0.128 C 
BRANCH  76  77
ATOM     77  O   UNL     1      -6.714  -1.556   0.417  1.00  0.00    -0.381 OA
ATOM     78  C   UNL     1      -7.473  -1.870   1.577  1.00  0.00     0.195 C 
ENDBRANCH  76  77
BRANCH  76  79
ATOM     79  C   UNL     1      -8.993  -1.588  -0.581  1.00  0.00     0.068 C 
BRANCH  79  80
ATOM     80  C   UNL     1      -9.757  -1.858  -1.854  1.00  0.00    -0.045 A 
ATOM     81  C   UNL     1      -9.268  -2.755  -2.813  1.00  0.00     0.004 A 
ATOM     82  C   UNL     1     -10.964  -1.190  -2.110  1.00  0.00     0.004 A 
ATOM     83  C   UNL     1      -9.974  -2.989  -3.995  1.00  0.00     0.000 A 
ATOM     84  C   UNL     1     -11.668  -1.424  -3.293  1.00  0.00     0.000 A 
ATOM     85  C   UNL     1     -11.174  -2.324  -4.234  1.00  0.00     0.000 A 
ENDBRANCH  79  80
ENDBRANCH  76  79
ENDBRANCH  74  76
ENDBRANCH  72  74
ENDBRANCH  70  71
ENDBRANCH   1  69
TORSDOF 17
ENDMDL
