MODEL 1
REMARK VINA RESULT:    -4.643      0.000      0.000
REMARK INTER + INTRA:          -9.403
REMARK INTER:                  -7.900
REMARK INTRA:                  -1.503
REMARK UNBOUND:                -1.503
REMARK SMILES CC[C@H](C)[C@@H]1NC(=O)[C@H]2CSC(=N2)[C@@H]([C@@H](C)CC)NC(=O)c2csc(n2)CNC(=O)[C@H]2N=C1O[C@@H]2C
REMARK SMILES IDX 27 1 25 2 22 3 26 4 23 5 24 6 20 7 19 8 21 9 14 11 12 12
REMARK SMILES IDX 11 13 10 14 13 15 9 16 15 18 16 19 17 20 18 21 28 22 29 23
REMARK SMILES IDX 30 24 31 26 32 27 35 28 33 29 34 30 36 31 5 32 6 33 7 34
REMARK SMILES IDX 8 35 3 38 4 39 2 40 1 41
REMARK H PARENT 19 10 28 25 6 36
REMARK Flexibility Score:   91.900
ROOT
ATOM      1  C   UNL     1      -4.988   2.301  -0.247  1.00  0.00     0.183 C 
ENDROOT
BRANCH   1   2
ATOM      2  C   UNL     1      -5.238   2.669   1.187  1.00  0.00     0.113 A 
ATOM      3  C   UNL     1      -5.509   3.942   2.996  1.00  0.00     0.139 A 
ATOM      4  N   UNL     1      -5.414   3.910   1.603  1.00  0.00    -0.234 NA
ATOM      5  C   UNL     1      -5.460   2.702   3.602  1.00  0.00     0.101 A 
ATOM      6  S   UNL     1      -5.267   1.474   2.418  1.00  0.00    -0.125 S 
BRANCH   3   7
ATOM      7  C   UNL     1      -5.608   5.226   3.695  1.00  0.00     0.271 C 
ATOM      8  N   UNL     1      -6.460   6.088   3.049  1.00  0.00    -0.341 N 
ATOM      9  O   UNL     1      -4.979   5.499   4.709  1.00  0.00    -0.267 OA
ATOM     10  H   UNL     1      -6.931   5.710   2.228  1.00  0.00     0.164 HD
BRANCH   8  11
ATOM     11  C   UNL     1      -6.619   7.491   3.395  1.00  0.00     0.140 C 
BRANCH  11  12
ATOM     12  C   UNL     1      -6.286   8.322   2.153  1.00  0.00     0.091 C 
ATOM     13  S   UNL     1      -6.805   9.987   2.033  1.00  0.00    -0.106 SA
ATOM     14  C   UNL     1      -5.746  10.227   0.591  1.00  0.00     0.113 C 
ATOM     15  N   UNL     1      -5.683   7.811   1.126  1.00  0.00    -0.267 NA
ATOM     16  C   UNL     1      -5.590   8.823   0.027  1.00  0.00     0.205 CG0
ATOM     17  G   UNL     1      -6.645   8.553  -1.058  1.00  0.00     0.000 G0
ENDBRANCH  11  12
BRANCH  11  18
ATOM     18  C   UNL     1      -7.958   7.818   4.105  1.00  0.00     0.015 C 
ATOM     19  C   UNL     1      -9.014   6.757   3.768  1.00  0.00     0.010 C 
BRANCH  18  20
ATOM     20  C   UNL     1      -7.844   8.037   5.627  1.00  0.00     0.002 C 
ATOM     21  C   UNL     1      -7.705   6.734   6.407  1.00  0.00     0.004 C 
ENDBRANCH  18  20
ENDBRANCH  11  18
ENDBRANCH   8  11
ENDBRANCH   3   7
ENDBRANCH   1   2
BRANCH   1  22
ATOM     22  N   UNL     1      -6.041   2.898  -1.037  1.00  0.00    -0.348 N 
ATOM     23  C   UNL     1      -6.027   3.006  -2.401  1.00  0.00     0.249 C 
ATOM     24  O   UNL     1      -5.146   2.524  -3.105  1.00  0.00    -0.272 OA
ATOM     25  H   UNL     1      -6.814   3.351  -0.551  1.00  0.00     0.163 HD
BRANCH  23  26
ATOM     26  C   UNL     1      -7.259   3.738  -2.954  1.00  0.00     0.238 C 
ATOM     27  N   UNL     1      -7.337   5.096  -2.348  1.00  0.00    -0.236 NA
ATOM     28  C   UNL     1      -7.161   3.966  -4.452  1.00  0.00     0.206 C 
ATOM     29  C   UNL     1      -7.073   5.883  -3.347  1.00  0.00     0.208 C 
ATOM     30  O   UNL     1      -6.836   5.351  -4.571  1.00  0.00    -0.474 OA
ATOM     31  C   UNL     1      -8.480   3.713  -5.170  1.00  0.00     0.056 C 
BRANCH  29  32
ATOM     32  C   UNL     1      -6.943   7.403  -3.291  1.00  0.00     0.171 C 
BRANCH  32  33
ATOM     33  N   UNL     1      -6.124   7.813  -2.161  1.00  0.00    -0.342 N 
ATOM     34  C   UNL     1      -6.625   8.540  -1.108  1.00  0.00     0.246 CG0
ATOM     35  O   UNL     1      -7.792   8.920  -1.051  1.00  0.00    -0.273 OA
ATOM     36  H   UNL     1      -5.131   7.604  -2.130  1.00  0.00     0.164 HD
ATOM     37  G   UNL     1      -5.610   8.820   0.013  1.00  0.00     0.000 G0
ENDBRANCH  32  33
BRANCH  32  38
ATOM     38  C   UNL     1      -6.410   7.952  -4.641  1.00  0.00     0.017 C 
ATOM     39  C   UNL     1      -7.575   8.183  -5.612  1.00  0.00     0.010 C 
BRANCH  38  40
ATOM     40  C   UNL     1      -5.546   9.223  -4.477  1.00  0.00     0.002 C 
ATOM     41  C   UNL     1      -6.362  10.490  -4.253  1.00  0.00     0.004 C 
ENDBRANCH  38  40
ENDBRANCH  32  38
ENDBRANCH  29  32
ENDBRANCH  23  26
ENDBRANCH   1  22
TORSDOF 4
ENDMDL
MODEL 2
REMARK VINA RESULT:    -4.349      2.344      4.897
REMARK INTER + INTRA:          -8.904
REMARK INTER:                  -7.687
REMARK INTRA:                  -1.217
REMARK UNBOUND:                -1.503
REMARK SMILES CC[C@H](C)[C@@H]1NC(=O)[C@H]2CSC(=N2)[C@@H]([C@@H](C)CC)NC(=O)c2csc(n2)CNC(=O)[C@H]2N=C1O[C@@H]2C
REMARK SMILES IDX 27 1 25 2 22 3 26 4 23 5 24 6 20 7 19 8 21 9 14 11 12 12
REMARK SMILES IDX 11 13 10 14 13 15 9 16 15 18 16 19 17 20 18 21 28 22 29 23
REMARK SMILES IDX 30 24 31 26 32 27 35 28 33 29 34 30 36 31 5 32 6 33 7 34
REMARK SMILES IDX 8 35 3 38 4 39 2 40 1 41
REMARK H PARENT 19 10 28 25 6 36
REMARK Flexibility Score:   91.900
ROOT
ATOM      1  C   UNL     1      -6.401   3.924  -4.016  1.00  0.00     0.183 C 
ENDROOT
BRANCH   1   2
ATOM      2  C   UNL     1      -6.549   3.039  -2.812  1.00  0.00     0.113 A 
ATOM      3  C   UNL     1      -6.122   2.149  -0.814  1.00  0.00     0.139 A 
ATOM      4  N   UNL     1      -5.843   3.187  -1.705  1.00  0.00    -0.234 NA
ATOM      5  C   UNL     1      -7.087   1.263  -1.251  1.00  0.00     0.101 A 
ATOM      6  S   UNL     1      -7.641   1.715  -2.812  1.00  0.00    -0.125 S 
BRANCH   3   7
ATOM      7  C   UNL     1      -5.382   2.046   0.446  1.00  0.00     0.271 C 
ATOM      8  N   UNL     1      -6.143   2.452   1.514  1.00  0.00    -0.341 N 
ATOM      9  O   UNL     1      -4.218   1.675   0.523  1.00  0.00    -0.267 OA
ATOM     10  H   UNL     1      -7.105   2.712   1.297  1.00  0.00     0.164 HD
BRANCH   8  11
ATOM     11  C   UNL     1      -5.628   2.640   2.861  1.00  0.00     0.140 C 
BRANCH  11  12
ATOM     12  C   UNL     1      -5.625   4.142   3.158  1.00  0.00     0.091 C 
ATOM     13  S   UNL     1      -6.162   4.741   4.710  1.00  0.00    -0.106 SA
ATOM     14  C   UNL     1      -5.506   6.377   4.320  1.00  0.00     0.113 C 
ATOM     15  N   UNL     1      -5.301   5.019   2.260  1.00  0.00    -0.267 NA
ATOM     16  C   UNL     1      -5.494   6.402   2.799  1.00  0.00     0.205 CG0
ATOM     17  G   UNL     1      -6.789   7.027   2.256  1.00  0.00     0.000 G0
ENDBRANCH  11  12
BRANCH  11  18
ATOM     18  C   UNL     1      -6.294   1.729   3.923  1.00  0.00     0.015 C 
ATOM     19  C   UNL     1      -7.708   1.333   3.477  1.00  0.00     0.010 C 
BRANCH  18  20
ATOM     20  C   UNL     1      -5.464   0.493   4.325  1.00  0.00     0.002 C 
ATOM     21  C   UNL     1      -4.118   0.856   4.942  1.00  0.00     0.004 C 
ENDBRANCH  18  20
ENDBRANCH  11  18
ENDBRANCH   8  11
ENDBRANCH   3   7
ENDBRANCH   1   2
BRANCH   1  22
ATOM     22  N   UNL     1      -6.717   5.273  -3.603  1.00  0.00    -0.348 N 
ATOM     23  C   UNL     1      -7.699   6.048  -4.157  1.00  0.00     0.249 C 
ATOM     24  O   UNL     1      -8.475   5.640  -5.013  1.00  0.00    -0.272 OA
ATOM     25  H   UNL     1      -6.117   5.721  -2.910  1.00  0.00     0.163 HD
BRANCH  23  26
ATOM     26  C   UNL     1      -7.760   7.457  -3.547  1.00  0.00     0.238 C 
ATOM     27  N   UNL     1      -8.577   7.418  -2.302  1.00  0.00    -0.236 NA
ATOM     28  C   UNL     1      -6.389   7.952  -3.119  1.00  0.00     0.206 C 
ATOM     29  C   UNL     1      -7.700   7.622  -1.365  1.00  0.00     0.208 C 
ATOM     30  O   UNL     1      -6.401   7.819  -1.699  1.00  0.00    -0.474 OA
ATOM     31  C   UNL     1      -6.161   9.417  -3.469  1.00  0.00     0.056 C 
BRANCH  29  32
ATOM     32  C   UNL     1      -7.964   7.613   0.138  1.00  0.00     0.171 C 
BRANCH  32  33
ATOM     33  N   UNL     1      -6.815   7.097   0.865  1.00  0.00    -0.342 N 
ATOM     34  C   UNL     1      -6.774   7.031   2.237  1.00  0.00     0.246 CG0
ATOM     35  O   UNL     1      -7.690   7.425   2.954  1.00  0.00    -0.273 OA
ATOM     36  H   UNL     1      -5.977   6.797   0.377  1.00  0.00     0.164 HD
ATOM     37  G   UNL     1      -5.494   6.398   2.807  1.00  0.00     0.000 G0
ENDBRANCH  32  33
BRANCH  32  38
ATOM     38  C   UNL     1      -8.388   9.025   0.623  1.00  0.00     0.017 C 
ATOM     39  C   UNL     1      -7.415  10.081   0.083  1.00  0.00     0.010 C 
BRANCH  38  40
ATOM     40  C   UNL     1      -9.854   9.368   0.270  1.00  0.00     0.002 C 
ATOM     41  C   UNL     1     -10.727   9.636   1.488  1.00  0.00     0.004 C 
ENDBRANCH  38  40
ENDBRANCH  32  38
ENDBRANCH  29  32
ENDBRANCH  23  26
ENDBRANCH   1  22
TORSDOF 4
ENDMDL
MODEL 3
REMARK VINA RESULT:    -4.261      4.207      7.302
REMARK INTER + INTRA:          -8.753
REMARK INTER:                  -7.179
REMARK INTRA:                  -1.574
REMARK UNBOUND:                -1.503
REMARK SMILES CC[C@H](C)[C@@H]1NC(=O)[C@H]2CSC(=N2)[C@@H]([C@@H](C)CC)NC(=O)c2csc(n2)CNC(=O)[C@H]2N=C1O[C@@H]2C
REMARK SMILES IDX 27 1 25 2 22 3 26 4 23 5 24 6 20 7 19 8 21 9 14 11 12 12
REMARK SMILES IDX 11 13 10 14 13 15 9 16 15 18 16 19 17 20 18 21 28 22 29 23
REMARK SMILES IDX 30 24 31 26 32 27 35 28 33 29 34 30 36 31 5 32 6 33 7 34
REMARK SMILES IDX 8 35 3 38 4 39 2 40 1 41
REMARK H PARENT 19 10 28 25 6 36
REMARK Flexibility Score:   91.900
ROOT
ATOM      1  C   UNL     1      -4.529   3.571   4.123  1.00  0.00     0.183 C 
ENDROOT
BRANCH   1   2
ATOM      2  C   UNL     1      -5.124   2.193   4.079  1.00  0.00     0.113 A 
ATOM      3  C   UNL     1      -6.616   0.576   3.723  1.00  0.00     0.139 A 
ATOM      4  N   UNL     1      -6.276   1.912   3.499  1.00  0.00    -0.234 NA
ATOM      5  C   UNL     1      -5.671  -0.144   4.428  1.00  0.00     0.101 A 
ATOM      6  S   UNL     1      -4.346   0.865   4.841  1.00  0.00    -0.125 S 
BRANCH   3   7
ATOM      7  C   UNL     1      -7.905   0.059   3.257  1.00  0.00     0.271 C 
ATOM      8  N   UNL     1      -7.745  -0.879   2.267  1.00  0.00    -0.341 N 
ATOM      9  O   UNL     1      -8.986   0.447   3.679  1.00  0.00    -0.267 OA
ATOM     10  H   UNL     1      -6.781  -1.117   2.036  1.00  0.00     0.164 HD
BRANCH   8  11
ATOM     11  C   UNL     1      -8.837  -1.431   1.481  1.00  0.00     0.140 C 
BRANCH  11  12
ATOM     12  C   UNL     1      -8.880  -0.684   0.146  1.00  0.00     0.091 C 
ATOM     13  S   UNL     1      -8.093  -1.345  -1.268  1.00  0.00    -0.106 SA
ATOM     14  C   UNL     1      -8.918  -0.127  -2.314  1.00  0.00     0.113 C 
ATOM     15  N   UNL     1      -9.429   0.485   0.030  1.00  0.00    -0.267 NA
ATOM     16  C   UNL     1      -9.226   1.013  -1.355  1.00  0.00     0.205 CG0
ATOM     17  G   UNL     1      -8.104   2.064  -1.383  1.00  0.00     0.000 G0
ENDBRANCH  11  12
BRANCH  11  18
ATOM     18  C   UNL     1      -8.837  -2.980   1.405  1.00  0.00     0.015 C 
ATOM     19  C   UNL     1      -7.752  -3.561   2.321  1.00  0.00     0.010 C 
BRANCH  18  20
ATOM     20  C   UNL     1     -10.207  -3.638   1.666  1.00  0.00     0.002 C 
ATOM     21  C   UNL     1     -11.088  -2.826   2.609  1.00  0.00     0.004 C 
ENDBRANCH  18  20
ENDBRANCH  11  18
ENDBRANCH   8  11
ENDBRANCH   3   7
ENDBRANCH   1   2
BRANCH   1  22
ATOM     22  N   UNL     1      -5.390   4.438   3.350  1.00  0.00    -0.348 N 
ATOM     23  C   UNL     1      -6.457   5.129   3.856  1.00  0.00     0.249 C 
ATOM     24  O   UNL     1      -6.743   5.147   5.048  1.00  0.00    -0.272 OA
ATOM     25  H   UNL     1      -5.255   4.481   2.341  1.00  0.00     0.163 HD
BRANCH  23  26
ATOM     26  C   UNL     1      -7.216   5.923   2.782  1.00  0.00     0.238 C 
ATOM     27  N   UNL     1      -6.617   5.640   1.448  1.00  0.00    -0.236 NA
ATOM     28  C   UNL     1      -8.668   5.491   2.675  1.00  0.00     0.206 C 
ATOM     29  C   UNL     1      -7.542   4.954   0.846  1.00  0.00     0.208 C 
ATOM     30  O   UNL     1      -8.708   4.701   1.488  1.00  0.00    -0.474 OA
ATOM     31  C   UNL     1      -9.617   6.670   2.507  1.00  0.00     0.056 C 
BRANCH  29  32
ATOM     32  C   UNL     1      -7.444   4.328  -0.543  1.00  0.00     0.171 C 
BRANCH  32  33
ATOM     33  N   UNL     1      -8.399   3.241  -0.690  1.00  0.00    -0.342 N 
ATOM     34  C   UNL     1      -8.097   2.075  -1.353  1.00  0.00     0.246 CG0
ATOM     35  O   UNL     1      -7.012   1.872  -1.892  1.00  0.00    -0.273 OA
ATOM     36  H   UNL     1      -9.345   3.323  -0.336  1.00  0.00     0.164 HD
ATOM     37  G   UNL     1      -9.223   1.029  -1.346  1.00  0.00     0.000 G0
ENDBRANCH  32  33
BRANCH  32  38
ATOM     38  C   UNL     1      -7.605   5.414  -1.640  1.00  0.00     0.017 C 
ATOM     39  C   UNL     1      -6.721   5.077  -2.848  1.00  0.00     0.010 C 
BRANCH  38  40
ATOM     40  C   UNL     1      -9.077   5.637  -2.056  1.00  0.00     0.002 C 
ATOM     41  C   UNL     1      -9.548   7.075  -1.884  1.00  0.00     0.004 C 
ENDBRANCH  38  40
ENDBRANCH  32  38
ENDBRANCH  29  32
ENDBRANCH  23  26
ENDBRANCH   1  22
TORSDOF 4
ENDMDL
MODEL 4
REMARK VINA RESULT:    -4.177      2.590      3.392
REMARK INTER + INTRA:          -8.611
REMARK INTER:                  -7.287
REMARK INTRA:                  -1.324
REMARK UNBOUND:                -1.503
REMARK SMILES CC[C@H](C)[C@@H]1NC(=O)[C@H]2CSC(=N2)[C@@H]([C@@H](C)CC)NC(=O)c2csc(n2)CNC(=O)[C@H]2N=C1O[C@@H]2C
REMARK SMILES IDX 27 1 25 2 22 3 26 4 23 5 24 6 20 7 19 8 21 9 14 11 12 12
REMARK SMILES IDX 11 13 10 14 13 15 9 16 15 18 16 19 17 20 18 21 28 22 29 23
REMARK SMILES IDX 30 24 31 26 32 27 35 28 33 29 34 30 36 31 5 32 6 33 7 34
REMARK SMILES IDX 8 35 3 38 4 39 2 40 1 41
REMARK H PARENT 19 10 28 25 6 36
REMARK Flexibility Score:   91.900
ROOT
ATOM      1  C   UNL     1      -4.527   1.179   1.649  1.00  0.00     0.183 C 
ENDROOT
BRANCH   1   2
ATOM      2  C   UNL     1      -5.376   1.674   2.785  1.00  0.00     0.113 A 
ATOM      3  C   UNL     1      -6.328   3.099   4.210  1.00  0.00     0.139 A 
ATOM      4  N   UNL     1      -5.603   2.952   3.025  1.00  0.00    -0.234 NA
ATOM      5  C   UNL     1      -6.685   1.909   4.813  1.00  0.00     0.101 A 
ATOM      6  S   UNL     1      -6.087   0.582   3.903  1.00  0.00    -0.125 S 
BRANCH   3   7
ATOM      7  C   UNL     1      -6.614   4.436   4.733  1.00  0.00     0.271 C 
ATOM      8  N   UNL     1      -7.962   4.699   4.741  1.00  0.00    -0.341 N 
ATOM      9  O   UNL     1      -5.749   5.228   5.086  1.00  0.00    -0.267 OA
ATOM     10  H   UNL     1      -8.562   3.932   4.440  1.00  0.00     0.164 HD
BRANCH   8  11
ATOM     11  C   UNL     1      -8.538   6.003   5.028  1.00  0.00     0.140 C 
BRANCH  11  12
ATOM     12  C   UNL     1      -8.664   6.762   3.704  1.00  0.00     0.091 C 
ATOM     13  S   UNL     1      -9.975   7.889   3.448  1.00  0.00    -0.106 SA
ATOM     14  C   UNL     1      -9.168   8.510   1.957  1.00  0.00     0.113 C 
ATOM     15  N   UNL     1      -7.860   6.547   2.710  1.00  0.00    -0.267 NA
ATOM     16  C   UNL     1      -8.288   7.349   1.521  1.00  0.00     0.205 CG0
ATOM     17  G   UNL     1      -9.021   6.465   0.499  1.00  0.00     0.000 G0
ENDBRANCH  11  12
BRANCH  11  18
ATOM     18  C   UNL     1      -9.809   5.948   5.914  1.00  0.00     0.015 C 
ATOM     19  C   UNL     1     -10.653   4.715   5.565  1.00  0.00     0.010 C 
BRANCH  18  20
ATOM     20  C   UNL     1      -9.541   6.037   7.431  1.00  0.00     0.002 C 
ATOM     21  C   UNL     1     -10.401   5.076   8.244  1.00  0.00     0.004 C 
ENDBRANCH  18  20
ENDBRANCH  11  18
ENDBRANCH   8  11
ENDBRANCH   3   7
ENDBRANCH   1   2
BRANCH   1  22
ATOM     22  N   UNL     1      -5.144   1.629   0.421  1.00  0.00    -0.348 N 
ATOM     23  C   UNL     1      -6.094   0.932  -0.275  1.00  0.00     0.249 C 
ATOM     24  O   UNL     1      -6.584  -0.119   0.125  1.00  0.00    -0.272 OA
ATOM     25  H   UNL     1      -4.794   2.482  -0.012  1.00  0.00     0.163 HD
BRANCH  23  26
ATOM     26  C   UNL     1      -6.520   1.637  -1.571  1.00  0.00     0.238 C 
ATOM     27  N   UNL     1      -7.870   2.236  -1.384  1.00  0.00    -0.236 NA
ATOM     28  C   UNL     1      -5.604   2.800  -1.913  1.00  0.00     0.206 C 
ATOM     29  C   UNL     1      -7.633   3.513  -1.387  1.00  0.00     0.208 C 
ATOM     30  O   UNL     1      -6.363   3.955  -1.559  1.00  0.00    -0.474 OA
ATOM     31  C   UNL     1      -5.277   2.870  -3.399  1.00  0.00     0.056 C 
BRANCH  29  32
ATOM     32  C   UNL     1      -8.655   4.624  -1.157  1.00  0.00     0.171 C 
BRANCH  32  33
ATOM     33  N   UNL     1      -8.165   5.587  -0.184  1.00  0.00    -0.342 N 
ATOM     34  C   UNL     1      -8.998   6.448   0.490  1.00  0.00     0.246 CG0
ATOM     35  O   UNL     1     -10.212   6.489   0.304  1.00  0.00    -0.273 OA
ATOM     36  H   UNL     1      -7.174   5.682   0.007  1.00  0.00     0.164 HD
ATOM     37  G   UNL     1      -8.290   7.345   1.519  1.00  0.00     0.000 G0
ENDBRANCH  32  33
BRANCH  32  38
ATOM     38  C   UNL     1      -9.047   5.287  -2.504  1.00  0.00     0.017 C 
ATOM     39  C   UNL     1      -7.969   6.291  -2.930  1.00  0.00     0.010 C 
BRANCH  38  40
ATOM     40  C   UNL     1      -9.340   4.257  -3.620  1.00  0.00     0.002 C 
ATOM     41  C   UNL     1     -10.116   4.837  -4.795  1.00  0.00     0.004 C 
ENDBRANCH  38  40
ENDBRANCH  32  38
ENDBRANCH  29  32
ENDBRANCH  23  26
ENDBRANCH   1  22
TORSDOF 4
ENDMDL
MODEL 5
REMARK VINA RESULT:    -4.153      2.360      6.799
REMARK INTER + INTRA:          -8.570
REMARK INTER:                  -7.059
REMARK INTRA:                  -1.511
REMARK UNBOUND:                -1.503
REMARK SMILES CC[C@H](C)[C@@H]1NC(=O)[C@H]2CSC(=N2)[C@@H]([C@@H](C)CC)NC(=O)c2csc(n2)CNC(=O)[C@H]2N=C1O[C@@H]2C
REMARK SMILES IDX 27 1 25 2 22 3 26 4 23 5 24 6 20 7 19 8 21 9 14 11 12 12
REMARK SMILES IDX 11 13 10 14 13 15 9 16 15 18 16 19 17 20 18 21 28 22 29 23
REMARK SMILES IDX 30 24 31 26 32 27 35 28 33 29 34 30 36 31 5 32 6 33 7 34
REMARK SMILES IDX 8 35 3 38 4 39 2 40 1 41
REMARK H PARENT 19 10 28 25 6 36
REMARK Flexibility Score:   91.900
ROOT
ATOM      1  C   UNL     1      -4.960   1.767   2.214  1.00  0.00     0.183 C 
ENDROOT
BRANCH   1   2
ATOM      2  C   UNL     1      -6.176   1.499   1.374  1.00  0.00     0.113 A 
ATOM      3  C   UNL     1      -7.652   1.703  -0.284  1.00  0.00     0.139 A 
ATOM      4  N   UNL     1      -6.389   2.057   0.197  1.00  0.00    -0.234 NA
ATOM      5  C   UNL     1      -8.347   0.827   0.527  1.00  0.00     0.101 A 
ATOM      6  S   UNL     1      -7.424   0.457   1.926  1.00  0.00    -0.125 S 
BRANCH   3   7
ATOM      7  C   UNL     1      -8.150   2.284  -1.532  1.00  0.00     0.271 C 
ATOM      8  N   UNL     1      -7.514   3.464  -1.831  1.00  0.00    -0.341 N 
ATOM      9  O   UNL     1      -9.048   1.789  -2.202  1.00  0.00    -0.267 OA
ATOM     10  H   UNL     1      -6.770   3.737  -1.190  1.00  0.00     0.164 HD
BRANCH   8  11
ATOM     11  C   UNL     1      -7.919   4.362  -2.900  1.00  0.00     0.140 C 
BRANCH  11  12
ATOM     12  C   UNL     1      -7.813   5.796  -2.373  1.00  0.00     0.091 C 
ATOM     13  S   UNL     1      -7.043   7.039  -3.331  1.00  0.00    -0.106 SA
ATOM     14  C   UNL     1      -7.672   8.309  -2.213  1.00  0.00     0.113 C 
ATOM     15  N   UNL     1      -8.217   6.123  -1.186  1.00  0.00    -0.267 NA
ATOM     16  C   UNL     1      -7.890   7.557  -0.909  1.00  0.00     0.205 CG0
ATOM     17  G   UNL     1      -6.654   7.673  -0.002  1.00  0.00     0.000 G0
ENDBRANCH  11  12
BRANCH  11  18
ATOM     18  C   UNL     1      -7.231   4.074  -4.259  1.00  0.00     0.015 C 
ATOM     19  C   UNL     1      -5.908   3.326  -4.041  1.00  0.00     0.010 C 
BRANCH  18  20
ATOM     20  C   UNL     1      -8.121   3.356  -5.293  1.00  0.00     0.002 C 
ATOM     21  C   UNL     1      -9.594   3.732  -5.174  1.00  0.00     0.004 C 
ENDBRANCH  18  20
ENDBRANCH  11  18
ENDBRANCH   8  11
ENDBRANCH   3   7
ENDBRANCH   1   2
BRANCH   1  22
ATOM     22  N   UNL     1      -5.220   2.964   2.983  1.00  0.00    -0.348 N 
ATOM     23  C   UNL     1      -5.738   2.979   4.250  1.00  0.00     0.249 C 
ATOM     24  O   UNL     1      -5.956   1.962   4.899  1.00  0.00    -0.272 OA
ATOM     25  H   UNL     1      -5.094   3.868   2.530  1.00  0.00     0.163 HD
BRANCH  23  26
ATOM     26  C   UNL     1      -5.955   4.401   4.787  1.00  0.00     0.238 C 
ATOM     27  N   UNL     1      -5.146   5.359   3.983  1.00  0.00    -0.236 NA
ATOM     28  C   UNL     1      -7.396   4.855   4.630  1.00  0.00     0.206 C 
ATOM     29  C   UNL     1      -6.044   6.033   3.330  1.00  0.00     0.208 C 
ATOM     30  O   UNL     1      -7.357   5.756   3.524  1.00  0.00    -0.474 OA
ATOM     31  C   UNL     1      -7.909   5.606   5.851  1.00  0.00     0.056 C 
BRANCH  29  32
ATOM     32  C   UNL     1      -5.782   7.115   2.286  1.00  0.00     0.171 C 
BRANCH  32  33
ATOM     33  N   UNL     1      -6.841   7.144   1.290  1.00  0.00    -0.342 N 
ATOM     34  C   UNL     1      -6.661   7.666   0.032  1.00  0.00     0.246 CG0
ATOM     35  O   UNL     1      -5.605   8.170  -0.340  1.00  0.00    -0.273 OA
ATOM     36  H   UNL     1      -7.773   6.807   1.507  1.00  0.00     0.164 HD
ATOM     37  G   UNL     1      -7.887   7.547  -0.889  1.00  0.00     0.000 G0
ENDBRANCH  32  33
BRANCH  32  38
ATOM     38  C   UNL     1      -5.572   8.491   2.971  1.00  0.00     0.017 C 
ATOM     39  C   UNL     1      -6.666   8.730   4.019  1.00  0.00     0.010 C 
BRANCH  38  40
ATOM     40  C   UNL     1      -4.159   8.654   3.577  1.00  0.00     0.002 C 
ATOM     41  C   UNL     1      -4.161   8.830   5.090  1.00  0.00     0.004 C 
ENDBRANCH  38  40
ENDBRANCH  32  38
ENDBRANCH  29  32
ENDBRANCH  23  26
ENDBRANCH   1  22
TORSDOF 4
ENDMDL
MODEL 6
REMARK VINA RESULT:    -4.132      2.150      6.795
REMARK INTER + INTRA:          -8.533
REMARK INTER:                  -7.554
REMARK INTRA:                  -0.979
REMARK UNBOUND:                -1.503
REMARK SMILES CC[C@H](C)[C@@H]1NC(=O)[C@H]2CSC(=N2)[C@@H]([C@@H](C)CC)NC(=O)c2csc(n2)CNC(=O)[C@H]2N=C1O[C@@H]2C
REMARK SMILES IDX 27 1 25 2 22 3 26 4 23 5 24 6 20 7 19 8 21 9 14 11 12 12
REMARK SMILES IDX 11 13 10 14 13 15 9 16 15 18 16 19 17 20 18 21 28 22 29 23
REMARK SMILES IDX 30 24 31 26 32 27 35 28 33 29 34 30 36 31 5 32 6 33 7 34
REMARK SMILES IDX 8 35 3 38 4 39 2 40 1 41
REMARK H PARENT 19 10 28 25 6 36
REMARK Flexibility Score:   91.900
ROOT
ATOM      1  C   UNL     1      -6.518   1.248  -1.583  1.00  0.00     0.183 C 
ENDROOT
BRANCH   1   2
ATOM      2  C   UNL     1      -6.441   2.360  -2.590  1.00  0.00     0.113 A 
ATOM      3  C   UNL     1      -6.921   4.277  -3.619  1.00  0.00     0.139 A 
ATOM      4  N   UNL     1      -7.106   3.495  -2.477  1.00  0.00    -0.234 NA
ATOM      5  C   UNL     1      -6.063   3.732  -4.553  1.00  0.00     0.101 A 
ATOM      6  S   UNL     1      -5.494   2.206  -4.013  1.00  0.00    -0.125 S 
BRANCH   3   7
ATOM      7  C   UNL     1      -7.644   5.543  -3.765  1.00  0.00     0.271 C 
ATOM      8  N   UNL     1      -6.925   6.598  -3.259  1.00  0.00    -0.341 N 
ATOM      9  O   UNL     1      -8.766   5.634  -4.248  1.00  0.00    -0.267 OA
ATOM     10  H   UNL     1      -5.995   6.370  -2.910  1.00  0.00     0.164 HD
BRANCH   8  11
ATOM     11  C   UNL     1      -7.453   7.942  -3.092  1.00  0.00     0.140 C 
BRANCH  11  12
ATOM     12  C   UNL     1      -7.755   8.147  -1.605  1.00  0.00     0.091 C 
ATOM     13  S   UNL     1      -7.690   9.744  -0.898  1.00  0.00    -0.106 SA
ATOM     14  C   UNL     1      -8.482   9.126   0.602  1.00  0.00     0.113 C 
ATOM     15  N   UNL     1      -7.994   7.152  -0.809  1.00  0.00    -0.267 NA
ATOM     16  C   UNL     1      -8.145   7.643   0.597  1.00  0.00     0.205 CG0
ATOM     17  G   UNL     1      -6.871   7.371   1.413  1.00  0.00     0.000 G0
ENDBRANCH  11  12
BRANCH  11  18
ATOM     18  C   UNL     1      -6.606   9.042  -3.781  1.00  0.00     0.015 C 
ATOM     19  C   UNL     1      -5.751   8.436  -4.902  1.00  0.00     0.010 C 
BRANCH  18  20
ATOM     20  C   UNL     1      -7.412  10.257  -4.282  1.00  0.00     0.002 C 
ATOM     21  C   UNL     1      -8.377   9.908  -5.409  1.00  0.00     0.004 C 
ENDBRANCH  18  20
ENDBRANCH  11  18
ENDBRANCH   8  11
ENDBRANCH   3   7
ENDBRANCH   1   2
BRANCH   1  22
ATOM     22  N   UNL     1      -5.752   1.657  -0.427  1.00  0.00    -0.348 N 
ATOM     23  C   UNL     1      -6.081   1.363   0.869  1.00  0.00     0.249 C 
ATOM     24  O   UNL     1      -7.023   0.642   1.177  1.00  0.00    -0.272 OA
ATOM     25  H   UNL     1      -4.958   2.280  -0.567  1.00  0.00     0.163 HD
BRANCH  23  26
ATOM     26  C   UNL     1      -5.108   1.982   1.884  1.00  0.00     0.238 C 
ATOM     27  N   UNL     1      -4.881   3.412   1.538  1.00  0.00    -0.236 NA
ATOM     28  C   UNL     1      -5.682   1.989   3.290  1.00  0.00     0.206 C 
ATOM     29  C   UNL     1      -5.470   4.049   2.506  1.00  0.00     0.208 C 
ATOM     30  O   UNL     1      -6.066   3.347   3.500  1.00  0.00    -0.474 OA
ATOM     31  C   UNL     1      -4.652   1.607   4.344  1.00  0.00     0.056 C 
BRANCH  29  32
ATOM     32  C   UNL     1      -5.619   5.563   2.634  1.00  0.00     0.171 C 
BRANCH  32  33
ATOM     33  N   UNL     1      -6.762   6.039   1.870  1.00  0.00    -0.342 N 
ATOM     34  C   UNL     1      -6.872   7.337   1.432  1.00  0.00     0.246 CG0
ATOM     35  O   UNL     1      -6.030   8.199   1.672  1.00  0.00    -0.273 OA
ATOM     36  H   UNL     1      -7.545   5.428   1.664  1.00  0.00     0.164 HD
ATOM     37  G   UNL     1      -8.128   7.621   0.592  1.00  0.00     0.000 G0
ENDBRANCH  32  33
BRANCH  32  38
ATOM     38  C   UNL     1      -5.687   5.977   4.127  1.00  0.00     0.017 C 
ATOM     39  C   UNL     1      -4.649   7.068   4.419  1.00  0.00     0.010 C 
BRANCH  38  40
ATOM     40  C   UNL     1      -7.105   6.408   4.569  1.00  0.00     0.002 C 
ATOM     41  C   UNL     1      -7.127   7.711   5.357  1.00  0.00     0.004 C 
ENDBRANCH  38  40
ENDBRANCH  32  38
ENDBRANCH  29  32
ENDBRANCH  23  26
ENDBRANCH   1  22
TORSDOF 4
ENDMDL
MODEL 7
REMARK VINA RESULT:    -4.030      4.663      7.763
REMARK INTER + INTRA:          -8.360
REMARK INTER:                  -6.778
REMARK INTRA:                  -1.582
REMARK UNBOUND:                -1.503
REMARK SMILES CC[C@H](C)[C@@H]1NC(=O)[C@H]2CSC(=N2)[C@@H]([C@@H](C)CC)NC(=O)c2csc(n2)CNC(=O)[C@H]2N=C1O[C@@H]2C
REMARK SMILES IDX 27 1 25 2 22 3 26 4 23 5 24 6 20 7 19 8 21 9 14 11 12 12
REMARK SMILES IDX 11 13 10 14 13 15 9 16 15 18 16 19 17 20 18 21 28 22 29 23
REMARK SMILES IDX 30 24 31 26 32 27 35 28 33 29 34 30 36 31 5 32 6 33 7 34
REMARK SMILES IDX 8 35 3 38 4 39 2 40 1 41
REMARK H PARENT 19 10 28 25 6 36
REMARK Flexibility Score:   91.900
ROOT
ATOM      1  C   UNL     1      -7.843   2.530  -2.943  1.00  0.00     0.183 C 
ENDROOT
BRANCH   1   2
ATOM      2  C   UNL     1      -7.580   3.754  -2.114  1.00  0.00     0.113 A 
ATOM      3  C   UNL     1      -7.457   5.072  -0.321  1.00  0.00     0.139 A 
ATOM      4  N   UNL     1      -7.635   3.770  -0.795  1.00  0.00    -0.234 NA
ATOM      5  C   UNL     1      -7.211   6.010  -1.304  1.00  0.00     0.101 A 
ATOM      6  S   UNL     1      -7.225   5.264  -2.850  1.00  0.00    -0.125 S 
BRANCH   3   7
ATOM      7  C   UNL     1      -7.578   5.352   1.111  1.00  0.00     0.271 C 
ATOM      8  N   UNL     1      -6.557   4.778   1.827  1.00  0.00    -0.341 N 
ATOM      9  O   UNL     1      -8.498   5.993   1.604  1.00  0.00    -0.267 OA
ATOM     10  H   UNL     1      -5.849   4.294   1.275  1.00  0.00     0.164 HD
BRANCH   8  11
ATOM     11  C   UNL     1      -6.507   4.723   3.279  1.00  0.00     0.140 C 
BRANCH  11  12
ATOM     12  C   UNL     1      -6.425   3.251   3.692  1.00  0.00     0.091 C 
ATOM     13  S   UNL     1      -4.888   2.531   4.110  1.00  0.00    -0.106 SA
ATOM     14  C   UNL     1      -5.733   1.074   4.761  1.00  0.00     0.113 C 
ATOM     15  N   UNL     1      -7.462   2.474   3.675  1.00  0.00    -0.267 NA
ATOM     16  C   UNL     1      -7.061   1.074   4.020  1.00  0.00     0.205 CG0
ATOM     17  G   UNL     1      -6.980   0.200   2.758  1.00  0.00     0.000 G0
ENDBRANCH  11  12
BRANCH  11  18
ATOM     18  C   UNL     1      -5.458   5.675   3.910  1.00  0.00     0.015 C 
ATOM     19  C   UNL     1      -4.919   6.652   2.856  1.00  0.00     0.010 C 
BRANCH  18  20
ATOM     20  C   UNL     1      -5.938   6.418   5.173  1.00  0.00     0.002 C 
ATOM     21  C   UNL     1      -7.297   7.086   4.990  1.00  0.00     0.004 C 
ENDBRANCH  18  20
ENDBRANCH  11  18
ENDBRANCH   8  11
ENDBRANCH   3   7
ENDBRANCH   1   2
BRANCH   1  22
ATOM     22  N   UNL     1      -8.639   1.627  -2.141  1.00  0.00    -0.348 N 
ATOM     23  C   UNL     1      -9.118   0.420  -2.570  1.00  0.00     0.249 C 
ATOM     24  O   UNL     1      -8.846  -0.061  -3.665  1.00  0.00    -0.272 OA
ATOM     25  H   UNL     1      -8.942   1.938  -1.219  1.00  0.00     0.163 HD
BRANCH  23  26
ATOM     26  C   UNL     1      -9.978  -0.289  -1.513  1.00  0.00     0.238 C 
ATOM     27  N   UNL     1      -9.174  -1.361  -0.864  1.00  0.00    -0.236 NA
ATOM     28  C   UNL     1     -10.387   0.649  -0.390  1.00  0.00     0.206 C 
ATOM     29  C   UNL     1      -8.996  -0.912   0.342  1.00  0.00     0.208 C 
ATOM     30  O   UNL     1      -9.538   0.280   0.695  1.00  0.00    -0.474 OA
ATOM     31  C   UNL     1     -11.835   0.453   0.037  1.00  0.00     0.056 C 
BRANCH  29  32
ATOM     32  C   UNL     1      -8.170  -1.573   1.442  1.00  0.00     0.171 C 
BRANCH  32  33
ATOM     33  N   UNL     1      -8.046  -0.697   2.596  1.00  0.00    -0.342 N 
ATOM     34  C   UNL     1      -7.003   0.185   2.747  1.00  0.00     0.246 CG0
ATOM     35  O   UNL     1      -6.085   0.284   1.936  1.00  0.00    -0.273 OA
ATOM     36  H   UNL     1      -8.715  -0.734   3.357  1.00  0.00     0.164 HD
ATOM     37  G   UNL     1      -7.088   1.062   4.007  1.00  0.00     0.000 G0
ENDBRANCH  32  33
BRANCH  32  38
ATOM     38  C   UNL     1      -8.765  -2.958   1.808  1.00  0.00     0.017 C 
ATOM     39  C   UNL     1      -7.802  -4.074   1.384  1.00  0.00     0.010 C 
BRANCH  38  40
ATOM     40  C   UNL     1      -9.147  -3.074   3.302  1.00  0.00     0.002 C 
ATOM     41  C   UNL     1      -9.177  -4.508   3.814  1.00  0.00     0.004 C 
ENDBRANCH  38  40
ENDBRANCH  32  38
ENDBRANCH  29  32
ENDBRANCH  23  26
ENDBRANCH   1  22
TORSDOF 4
ENDMDL
MODEL 8
REMARK VINA RESULT:    -3.908      3.574      4.353
REMARK INTER + INTRA:          -8.153
REMARK INTER:                  -6.266
REMARK INTRA:                  -1.887
REMARK UNBOUND:                -1.503
REMARK SMILES CC[C@H](C)[C@@H]1NC(=O)[C@H]2CSC(=N2)[C@@H]([C@@H](C)CC)NC(=O)c2csc(n2)CNC(=O)[C@H]2N=C1O[C@@H]2C
REMARK SMILES IDX 27 1 25 2 22 3 26 4 23 5 24 6 20 7 19 8 21 9 14 11 12 12
REMARK SMILES IDX 11 13 10 14 13 15 9 16 15 18 16 19 17 20 18 21 28 22 29 23
REMARK SMILES IDX 30 24 31 26 32 27 35 28 33 29 34 30 36 31 5 32 6 33 7 34
REMARK SMILES IDX 8 35 3 38 4 39 2 40 1 41
REMARK H PARENT 19 10 28 25 6 36
REMARK Flexibility Score:   91.900
ROOT
ATOM      1  C   UNL     1      -4.541   1.558   1.436  1.00  0.00     0.183 C 
ENDROOT
BRANCH   1   2
ATOM      2  C   UNL     1      -5.475   2.152   2.451  1.00  0.00     0.113 A 
ATOM      3  C   UNL     1      -6.655   3.691   3.549  1.00  0.00     0.139 A 
ATOM      4  N   UNL     1      -5.894   3.404   2.414  1.00  0.00    -0.234 NA
ATOM      5  C   UNL     1      -6.843   2.618   4.398  1.00  0.00     0.101 A 
ATOM      6  S   UNL     1      -6.038   1.231   3.786  1.00  0.00    -0.125 S 
BRANCH   3   7
ATOM      7  C   UNL     1      -7.145   5.052   3.778  1.00  0.00     0.271 C 
ATOM      8  N   UNL     1      -8.497   5.147   3.553  1.00  0.00    -0.341 N 
ATOM      9  O   UNL     1      -6.426   5.990   4.096  1.00  0.00    -0.267 OA
ATOM     10  H   UNL     1      -8.967   4.273   3.317  1.00  0.00     0.164 HD
BRANCH   8  11
ATOM     11  C   UNL     1      -9.233   6.399   3.517  1.00  0.00     0.140 C 
BRANCH  11  12
ATOM     12  C   UNL     1      -9.943   6.488   2.163  1.00  0.00     0.091 C 
ATOM     13  S   UNL     1     -11.683   6.636   2.082  1.00  0.00    -0.106 SA
ATOM     14  C   UNL     1     -11.580   7.027   0.322  1.00  0.00     0.113 C 
ATOM     15  N   UNL     1      -9.301   6.384   1.043  1.00  0.00    -0.267 NA
ATOM     16  C   UNL     1     -10.262   6.400  -0.105  1.00  0.00     0.205 CG0
ATOM     17  G   UNL     1     -10.487   4.981  -0.651  1.00  0.00     0.000 G0
ENDBRANCH  11  12
BRANCH  11  18
ATOM     18  C   UNL     1     -10.108   6.653   4.772  1.00  0.00     0.015 C 
ATOM     19  C   UNL     1     -10.226   5.372   5.609  1.00  0.00     0.010 C 
BRANCH  18  20
ATOM     20  C   UNL     1      -9.664   7.851   5.636  1.00  0.00     0.002 C 
ATOM     21  C   UNL     1      -8.514   8.638   5.017  1.00  0.00     0.004 C 
ENDBRANCH  18  20
ENDBRANCH  11  18
ENDBRANCH   8  11
ENDBRANCH   3   7
ENDBRANCH   1   2
BRANCH   1  22
ATOM     22  N   UNL     1      -5.129   1.767   0.132  1.00  0.00    -0.348 N 
ATOM     23  C   UNL     1      -5.795   0.810  -0.586  1.00  0.00     0.249 C 
ATOM     24  O   UNL     1      -6.034  -0.311  -0.151  1.00  0.00    -0.272 OA
ATOM     25  H   UNL     1      -4.971   2.660  -0.334  1.00  0.00     0.163 HD
BRANCH  23  26
ATOM     26  C   UNL     1      -6.259   1.313  -1.961  1.00  0.00     0.238 C 
ATOM     27  N   UNL     1      -7.747   1.306  -2.010  1.00  0.00    -0.236 NA
ATOM     28  C   UNL     1      -5.850   2.755  -2.207  1.00  0.00     0.206 C 
ATOM     29  C   UNL     1      -8.050   2.570  -2.030  1.00  0.00     0.208 C 
ATOM     30  O   UNL     1      -7.058   3.493  -2.024  1.00  0.00    -0.474 OA
ATOM     31  C   UNL     1      -5.349   2.987  -3.626  1.00  0.00     0.056 C 
BRANCH  29  32
ATOM     32  C   UNL     1      -9.456   3.163  -2.009  1.00  0.00     0.171 C 
BRANCH  32  33
ATOM     33  N   UNL     1      -9.448   4.497  -1.427  1.00  0.00    -0.342 N 
ATOM     34  C   UNL     1     -10.486   4.980  -0.668  1.00  0.00     0.246 CG0
ATOM     35  O   UNL     1     -11.509   4.337  -0.444  1.00  0.00    -0.273 OA
ATOM     36  H   UNL     1      -8.680   5.137  -1.596  1.00  0.00     0.164 HD
ATOM     37  G   UNL     1     -10.256   6.389  -0.097  1.00  0.00     0.000 G0
ENDBRANCH  32  33
BRANCH  32  38
ATOM     38  C   UNL     1     -10.078   3.138  -3.430  1.00  0.00     0.017 C 
ATOM     39  C   UNL     1      -8.980   3.308  -4.488  1.00  0.00     0.010 C 
BRANCH  38  40
ATOM     40  C   UNL     1     -10.931   1.876  -3.692  1.00  0.00     0.002 C 
ATOM     41  C   UNL     1     -11.549   1.286  -2.431  1.00  0.00     0.004 C 
ENDBRANCH  38  40
ENDBRANCH  32  38
ENDBRANCH  29  32
ENDBRANCH  23  26
ENDBRANCH   1  22
TORSDOF 4
ENDMDL
MODEL 9
REMARK VINA RESULT:    -3.858      3.085      7.229
REMARK INTER + INTRA:          -8.067
REMARK INTER:                  -7.166
REMARK INTRA:                  -0.901
REMARK UNBOUND:                -1.503
REMARK SMILES CC[C@H](C)[C@@H]1NC(=O)[C@H]2CSC(=N2)[C@@H]([C@@H](C)CC)NC(=O)c2csc(n2)CNC(=O)[C@H]2N=C1O[C@@H]2C
REMARK SMILES IDX 27 1 25 2 22 3 26 4 23 5 24 6 20 7 19 8 21 9 14 11 12 12
REMARK SMILES IDX 11 13 10 14 13 15 9 16 15 18 16 19 17 20 18 21 28 22 29 23
REMARK SMILES IDX 30 24 31 26 32 27 35 28 33 29 34 30 36 31 5 32 6 33 7 34
REMARK SMILES IDX 8 35 3 38 4 39 2 40 1 41
REMARK H PARENT 19 10 28 25 6 36
REMARK Flexibility Score:   91.900
ROOT
ATOM      1  C   UNL     1      -8.449  -0.736   2.331  1.00  0.00     0.183 C 
ENDROOT
BRANCH   1   2
ATOM      2  C   UNL     1      -8.120  -0.127   0.998  1.00  0.00     0.113 A 
ATOM      3  C   UNL     1      -7.741   1.438  -0.543  1.00  0.00     0.139 A 
ATOM      4  N   UNL     1      -7.910   1.164   0.816  1.00  0.00    -0.234 NA
ATOM      5  C   UNL     1      -7.771   0.325  -1.359  1.00  0.00     0.101 A 
ATOM      6  S   UNL     1      -8.038  -1.088  -0.422  1.00  0.00    -0.125 S 
BRANCH   3   7
ATOM      7  C   UNL     1      -7.593   2.822  -0.998  1.00  0.00     0.271 C 
ATOM      8  N   UNL     1      -8.783   3.336  -1.453  1.00  0.00    -0.341 N 
ATOM      9  O   UNL     1      -6.528   3.427  -1.001  1.00  0.00    -0.267 OA
ATOM     10  H   UNL     1      -9.590   2.720  -1.366  1.00  0.00     0.164 HD
BRANCH   8  11
ATOM     11  C   UNL     1      -8.914   4.612  -2.137  1.00  0.00     0.140 C 
BRANCH  11  12
ATOM     12  C   UNL     1      -8.478   5.712  -1.165  1.00  0.00     0.091 C 
ATOM     13  S   UNL     1      -7.294   6.905  -1.648  1.00  0.00    -0.106 SA
ATOM     14  C   UNL     1      -7.671   7.890  -0.183  1.00  0.00     0.113 C 
ATOM     15  N   UNL     1      -8.906   5.759   0.057  1.00  0.00    -0.267 NA
ATOM     16  C   UNL     1      -8.231   6.871   0.797  1.00  0.00     0.205 CG0
ATOM     17  G   UNL     1      -7.121   6.328   1.710  1.00  0.00     0.000 G0
ENDBRANCH  11  12
BRANCH  11  18
ATOM     18  C   UNL     1      -8.268   4.641  -3.546  1.00  0.00     0.015 C 
ATOM     19  C   UNL     1      -8.005   3.214  -4.044  1.00  0.00     0.010 C 
BRANCH  18  20
ATOM     20  C   UNL     1      -9.041   5.469  -4.592  1.00  0.00     0.002 C 
ATOM     21  C   UNL     1     -10.401   5.942  -4.091  1.00  0.00     0.004 C 
ENDBRANCH  18  20
ENDBRANCH  11  18
ENDBRANCH   8  11
ENDBRANCH   3   7
ENDBRANCH   1   2
BRANCH   1  22
ATOM     22  N   UNL     1      -8.383   0.319   3.317  1.00  0.00    -0.348 N 
ATOM     23  C   UNL     1      -7.248   0.695   3.982  1.00  0.00     0.249 C 
ATOM     24  O   UNL     1      -6.141   0.224   3.743  1.00  0.00    -0.272 OA
ATOM     25  H   UNL     1      -9.252   0.765   3.608  1.00  0.00     0.163 HD
BRANCH  23  26
ATOM     26  C   UNL     1      -7.501   1.808   5.011  1.00  0.00     0.238 C 
ATOM     27  N   UNL     1      -6.499   2.892   4.818  1.00  0.00    -0.236 NA
ATOM     28  C   UNL     1      -8.856   2.466   4.814  1.00  0.00     0.206 C 
ATOM     29  C   UNL     1      -7.210   3.877   4.358  1.00  0.00     0.208 C 
ATOM     30  O   UNL     1      -8.547   3.716   4.198  1.00  0.00    -0.474 OA
ATOM     31  C   UNL     1      -9.571   2.737   6.131  1.00  0.00     0.056 C 
BRANCH  29  32
ATOM     32  C   UNL     1      -6.687   5.239   3.910  1.00  0.00     0.171 C 
BRANCH  32  33
ATOM     33  N   UNL     1      -7.577   5.840   2.928  1.00  0.00    -0.342 N 
ATOM     34  C   UNL     1      -7.132   6.316   1.718  1.00  0.00     0.246 CG0
ATOM     35  O   UNL     1      -5.951   6.294   1.383  1.00  0.00    -0.273 OA
ATOM     36  H   UNL     1      -8.565   5.963   3.123  1.00  0.00     0.164 HD
ATOM     37  G   UNL     1      -8.240   6.858   0.801  1.00  0.00     0.000 G0
ENDBRANCH  32  33
BRANCH  32  38
ATOM     38  C   UNL     1      -6.446   6.159   5.135  1.00  0.00     0.017 C 
ATOM     39  C   UNL     1      -5.419   7.243   4.787  1.00  0.00     0.010 C 
BRANCH  38  40
ATOM     40  C   UNL     1      -7.751   6.770   5.696  1.00  0.00     0.002 C 
ATOM     41  C   UNL     1      -8.193   6.156   7.017  1.00  0.00     0.004 C 
ENDBRANCH  38  40
ENDBRANCH  32  38
ENDBRANCH  29  32
ENDBRANCH  23  26
ENDBRANCH   1  22
TORSDOF 4
ENDMDL
MODEL 10
REMARK VINA RESULT:    -3.673      2.237      3.042
REMARK INTER + INTRA:          -7.752
REMARK INTER:                  -7.170
REMARK INTRA:                  -0.582
REMARK UNBOUND:                -1.503
REMARK SMILES CC[C@H](C)[C@@H]1NC(=O)[C@H]2CSC(=N2)[C@@H]([C@@H](C)CC)NC(=O)c2csc(n2)CNC(=O)[C@H]2N=C1O[C@@H]2C
REMARK SMILES IDX 27 1 25 2 22 3 26 4 23 5 24 6 20 7 19 8 21 9 14 11 12 12
REMARK SMILES IDX 11 13 10 14 13 15 9 16 15 18 16 19 17 20 18 21 28 22 29 23
REMARK SMILES IDX 30 24 31 26 32 27 35 28 33 29 34 30 36 31 5 32 6 33 7 34
REMARK SMILES IDX 8 35 3 38 4 39 2 40 1 41
REMARK H PARENT 19 10 28 25 6 36
REMARK Flexibility Score:   91.900
ROOT
ATOM      1  C   UNL     1      -7.407   0.304   1.750  1.00  0.00     0.183 C 
ENDROOT
BRANCH   1   2
ATOM      2  C   UNL     1      -7.348   1.481   2.680  1.00  0.00     0.113 A 
ATOM      3  C   UNL     1      -7.308   3.604   3.357  1.00  0.00     0.139 A 
ATOM      4  N   UNL     1      -7.541   2.729   2.294  1.00  0.00    -0.234 NA
ATOM      5  C   UNL     1      -6.998   2.983   4.552  1.00  0.00     0.101 A 
ATOM      6  S   UNL     1      -6.970   1.280   4.343  1.00  0.00    -0.125 S 
BRANCH   3   7
ATOM      7  C   UNL     1      -7.365   5.051   3.141  1.00  0.00     0.271 C 
ATOM      8  N   UNL     1      -6.201   5.667   3.531  1.00  0.00    -0.341 N 
ATOM      9  O   UNL     1      -8.346   5.635   2.698  1.00  0.00    -0.267 OA
ATOM     10  H   UNL     1      -5.462   5.046   3.859  1.00  0.00     0.164 HD
BRANCH   8  11
ATOM     11  C   UNL     1      -6.026   7.108   3.612  1.00  0.00     0.140 C 
BRANCH  11  12
ATOM     12  C   UNL     1      -6.486   7.712   2.282  1.00  0.00     0.091 C 
ATOM     13  S   UNL     1      -7.737   8.933   2.248  1.00  0.00    -0.106 SA
ATOM     14  C   UNL     1      -7.366   9.282   0.515  1.00  0.00     0.113 C 
ATOM     15  N   UNL     1      -6.027   7.296   1.144  1.00  0.00    -0.267 NA
ATOM     16  C   UNL     1      -6.733   7.990   0.021  1.00  0.00     0.205 CG0
ATOM     17  G   UNL     1      -7.792   7.073  -0.612  1.00  0.00     0.000 G0
ENDBRANCH  11  12
BRANCH  11  18
ATOM     18  C   UNL     1      -6.615   7.743   4.898  1.00  0.00     0.015 C 
ATOM     19  C   UNL     1      -6.974   6.653   5.917  1.00  0.00     0.010 C 
BRANCH  18  20
ATOM     20  C   UNL     1      -5.740   8.842   5.533  1.00  0.00     0.002 C 
ATOM     21  C   UNL     1      -6.456  10.184   5.643  1.00  0.00     0.004 C 
ENDBRANCH  18  20
ENDBRANCH  11  18
ENDBRANCH   8  11
ENDBRANCH   3   7
ENDBRANCH   1   2
BRANCH   1  22
ATOM     22  N   UNL     1      -7.428   0.820   0.400  1.00  0.00    -0.348 N 
ATOM     23  C   UNL     1      -6.375   0.766  -0.472  1.00  0.00     0.249 C 
ATOM     24  O   UNL     1      -5.322   0.191  -0.220  1.00  0.00    -0.272 OA
ATOM     25  H   UNL     1      -8.250   1.339   0.092  1.00  0.00     0.163 HD
BRANCH  23  26
ATOM     26  C   UNL     1      -6.678   1.447  -1.815  1.00  0.00     0.238 C 
ATOM     27  N   UNL     1      -7.874   2.322  -1.663  1.00  0.00    -0.236 NA
ATOM     28  C   UNL     1      -5.553   2.369  -2.253  1.00  0.00     0.206 C 
ATOM     29  C   UNL     1      -7.381   3.520  -1.766  1.00  0.00     0.208 C 
ATOM     30  O   UNL     1      -6.051   3.678  -1.982  1.00  0.00    -0.474 OA
ATOM     31  C   UNL     1      -5.254   2.261  -3.742  1.00  0.00     0.056 C 
BRANCH  29  32
ATOM     32  C   UNL     1      -8.148   4.831  -1.613  1.00  0.00     0.171 C 
BRANCH  32  33
ATOM     33  N   UNL     1      -7.304   5.863  -1.034  1.00  0.00    -0.342 N 
ATOM     34  C   UNL     1      -7.797   7.076  -0.617  1.00  0.00     0.246 CG0
ATOM     35  O   UNL     1      -8.979   7.392  -0.725  1.00  0.00    -0.273 OA
ATOM     36  H   UNL     1      -6.301   5.735  -0.951  1.00  0.00     0.164 HD
ATOM     37  G   UNL     1      -6.750   8.004   0.021  1.00  0.00     0.000 G0
ENDBRANCH  32  33
BRANCH  32  38
ATOM     38  C   UNL     1      -8.765   5.259  -2.971  1.00  0.00     0.017 C 
ATOM     39  C   UNL     1      -7.732   5.096  -4.094  1.00  0.00     0.010 C 
BRANCH  38  40
ATOM     40  C   UNL     1     -10.082   4.517  -3.296  1.00  0.00     0.002 C 
ATOM     41  C   UNL     1     -10.005   3.663  -4.555  1.00  0.00     0.004 C 
ENDBRANCH  38  40
ENDBRANCH  32  38
ENDBRANCH  29  32
ENDBRANCH  23  26
ENDBRANCH   1  22
TORSDOF 4
ENDMDL
