MODEL 1
REMARK VINA RESULT:    -7.731      0.000      0.000
REMARK INTER + INTRA:         -23.612
REMARK INTER:                 -19.255
REMARK INTRA:                  -4.356
REMARK UNBOUND:                -4.356
REMARK SMILES CCCCCCC[C@H](N)[C@H](O)C(=O)N[C@H](C)C(=O)N(C)[C@H](CC(C)C)C(=O)N[C@@H](Cc1ccc(O)cc1)C(=O)N[C@@H](Cc1ccc(O)cc1)C(=O)O
REMARK SMILES IDX 18 1 17 2 15 3 16 4 14 5 12 6 13 7 10 9 11 10 8 12 9 13 7 16
REMARK SMILES IDX 6 17 5 18 4 19 3 20 2 21 1 22 19 23 20 24 21 25 22 26 23 27
REMARK SMILES IDX 24 28 25 29 26 30 27 31 28 32 29 34 30 35 31 36 32 37 37 38
REMARK SMILES IDX 33 39 36 40 34 41 35 42 38 44 39 45 40 46 41 48 42 49 43 50
REMARK SMILES IDX 44 51 49 52 45 53 48 54 46 55 47 56 50 58 51 59 52 60
REMARK H PARENT 14 8 11 11 9 14 9 15 28 33 35 43 40 47 47 57 52 61
ROOT
ATOM      1  O   UNL     1      -9.680  -0.629  -1.427  1.00  0.00    -0.272 OA
ATOM      2  C   UNL     1      -9.282   0.396  -0.855  1.00  0.00     0.245 C 
ENDROOT
BRANCH   2   3
ATOM      3  C   UNL     1     -10.292   1.543  -0.601  1.00  0.00     0.168 C 
ATOM      4  C   UNL     1     -10.388   2.459  -1.816  1.00  0.00     0.041 C 
BRANCH   3   5
ATOM      5  N   UNL     1     -11.603   1.112  -0.142  1.00  0.00    -0.342 N 
ATOM      6  C   UNL     1     -12.447   1.957   0.547  1.00  0.00     0.251 C 
ATOM      7  O   UNL     1     -12.149   3.105   0.859  1.00  0.00    -0.272 OA
ATOM      8  H   UNL     1     -11.947   0.170  -0.311  1.00  0.00     0.164 HD
BRANCH   6   9
ATOM      9  C   UNL     1     -13.829   1.335   0.805  1.00  0.00     0.219 C 
BRANCH   9  10
ATOM     10  O   UNL     1     -14.886   2.302   0.762  1.00  0.00    -0.382 OA
ATOM     11  H   UNL     1     -14.882   2.607  -0.172  1.00  0.00     0.211 HD
ENDBRANCH   9  10
BRANCH   9  12
ATOM     12  C   UNL     1     -14.142   0.136  -0.127  1.00  0.00     0.089 C 
BRANCH  12  13
ATOM     13  N   UNL     1     -13.848  -1.116   0.607  1.00  0.00    -0.325 NA
ATOM     14  H   UNL     1     -14.203  -1.911   0.072  1.00  0.00     0.119 HD
ATOM     15  H   UNL     1     -14.384  -1.121   1.479  1.00  0.00     0.119 HD
ENDBRANCH  12  13
BRANCH  12  16
ATOM     16  C   UNL     1     -15.574   0.086  -0.712  1.00  0.00     0.022 C 
BRANCH  16  17
ATOM     17  C   UNL     1     -15.919  -0.989  -1.751  1.00  0.00     0.002 C 
BRANCH  17  18
ATOM     18  C   UNL     1     -17.358  -0.954  -2.261  1.00  0.00     0.000 C 
BRANCH  18  19
ATOM     19  C   UNL     1     -17.485  -1.082  -3.784  1.00  0.00    -0.000 C 
BRANCH  19  20
ATOM     20  C   UNL     1     -17.152   0.188  -4.573  1.00  0.00    -0.000 C 
BRANCH  20  21
ATOM     21  C   UNL     1     -15.892   0.048  -5.431  1.00  0.00    -0.003 C 
ATOM     22  C   UNL     1     -14.895   1.158  -5.137  1.00  0.00     0.004 C 
ENDBRANCH  20  21
ENDBRANCH  19  20
ENDBRANCH  18  19
ENDBRANCH  17  18
ENDBRANCH  16  17
ENDBRANCH  12  16
ENDBRANCH   9  12
ENDBRANCH   6   9
ENDBRANCH   3   5
ENDBRANCH   2   3
BRANCH   2  23
ATOM     23  N   UNL     1      -7.988   0.452  -0.348  1.00  0.00    -0.332 N 
ATOM     24  C   UNL     1      -7.567  -0.150   0.908  1.00  0.00     0.147 C 
BRANCH  23  25
ATOM     25  C   UNL     1      -6.889   1.048  -1.156  1.00  0.00     0.174 C 
BRANCH  25  26
ATOM     26  C   UNL     1      -6.667   2.549  -0.856  1.00  0.00     0.038 C 
BRANCH  26  27
ATOM     27  C   UNL     1      -5.263   2.964  -0.361  1.00  0.00    -0.015 C 
ATOM     28  C   UNL     1      -5.283   3.504   1.068  1.00  0.00     0.007 C 
ATOM     29  C   UNL     1      -4.219   1.859  -0.503  1.00  0.00     0.007 C 
ENDBRANCH  26  27
ENDBRANCH  25  26
BRANCH  25  30
ATOM     30  C   UNL     1      -7.105   0.739  -2.656  1.00  0.00     0.243 C 
ATOM     31  O   UNL     1      -6.950  -0.391  -3.115  1.00  0.00    -0.273 OA
ATOM     32  N   UNL     1      -7.471   1.807  -3.434  1.00  0.00    -0.342 N 
ATOM     33  H   UNL     1      -7.717   2.679  -2.958  1.00  0.00     0.164 HD
BRANCH  32  34
ATOM     34  C   UNL     1      -7.691   1.707  -4.880  1.00  0.00     0.175 C 
BRANCH  34  35
ATOM     35  C   UNL     1      -9.033   2.335  -5.285  1.00  0.00     0.070 C 
BRANCH  35  36
ATOM     36  C   UNL     1     -10.064   1.305  -5.689  1.00  0.00    -0.045 A 
ATOM     37  C   UNL     1     -10.358   0.233  -4.832  1.00  0.00     0.007 A 
ATOM     38  C   UNL     1     -10.719   1.389  -6.924  1.00  0.00     0.007 A 
ATOM     39  C   UNL     1     -11.297  -0.730  -5.201  1.00  0.00     0.046 A 
ATOM     40  C   UNL     1     -11.659   0.424  -7.295  1.00  0.00     0.046 A 
ATOM     41  C   UNL     1     -11.940  -0.627  -6.429  1.00  0.00     0.115 A 
BRANCH  41  42
ATOM     42  O   UNL     1     -12.848  -1.591  -6.753  1.00  0.00    -0.508 OA
ATOM     43  H   UNL     1     -13.499  -1.204  -7.362  1.00  0.00     0.293 HD
ENDBRANCH  41  42
ENDBRANCH  35  36
ENDBRANCH  34  35
BRANCH  34  44
ATOM     44  C   UNL     1      -6.499   2.381  -5.594  1.00  0.00     0.243 C 
ATOM     45  O   UNL     1      -6.499   3.539  -6.003  1.00  0.00    -0.273 OA
ATOM     46  N   UNL     1      -5.455   1.518  -5.855  1.00  0.00    -0.341 N 
ATOM     47  H   UNL     1      -5.550   0.538  -5.600  1.00  0.00     0.164 HD
BRANCH  46  48
ATOM     48  C   UNL     1      -4.246   1.912  -6.581  1.00  0.00     0.196 C 
BRANCH  48  49
ATOM     49  C   UNL     1      -3.013   1.147  -6.072  1.00  0.00     0.072 C 
BRANCH  49  50
ATOM     50  C   UNL     1      -2.137   1.988  -5.171  1.00  0.00    -0.045 A 
ATOM     51  C   UNL     1      -0.886   2.428  -5.625  1.00  0.00     0.007 A 
ATOM     52  C   UNL     1      -2.548   2.321  -3.874  1.00  0.00     0.007 A 
ATOM     53  C   UNL     1      -0.064   3.193  -4.798  1.00  0.00     0.046 A 
ATOM     54  C   UNL     1      -1.724   3.087  -3.045  1.00  0.00     0.046 A 
ATOM     55  C   UNL     1      -0.488   3.517  -3.515  1.00  0.00     0.115 A 
BRANCH  55  56
ATOM     56  O   UNL     1       0.345   4.266  -2.738  1.00  0.00    -0.508 OA
ATOM     57  H   UNL     1       0.264   3.961  -1.821  1.00  0.00     0.293 HD
ENDBRANCH  55  56
ENDBRANCH  49  50
ENDBRANCH  48  49
BRANCH  48  58
ATOM     58  C   UNL     1      -4.447   1.628  -8.076  1.00  0.00     0.326 C 
ATOM     59  O   UNL     1      -3.954   0.722  -8.729  1.00  0.00    -0.250 OA
BRANCH  58  60
ATOM     60  O   UNL     1      -5.285   2.504  -8.686  1.00  0.00    -0.480 OA
ATOM     61  H   UNL     1      -5.540   2.036  -9.510  1.00  0.00     0.296 HD
ENDBRANCH  58  60
ENDBRANCH  48  58
ENDBRANCH  46  48
ENDBRANCH  34  44
ENDBRANCH  32  34
ENDBRANCH  25  30
ENDBRANCH  23  25
ENDBRANCH   2  23
TORSDOF 28
ENDMDL
MODEL 2
REMARK VINA RESULT:    -7.650      3.963      7.706
REMARK INTER + INTRA:         -23.411
REMARK INTER:                 -18.978
REMARK INTRA:                  -4.433
REMARK UNBOUND:                -4.356
REMARK SMILES CCCCCCC[C@H](N)[C@H](O)C(=O)N[C@H](C)C(=O)N(C)[C@H](CC(C)C)C(=O)N[C@@H](Cc1ccc(O)cc1)C(=O)N[C@@H](Cc1ccc(O)cc1)C(=O)O
REMARK SMILES IDX 18 1 17 2 15 3 16 4 14 5 12 6 13 7 10 9 11 10 8 12 9 13 7 16
REMARK SMILES IDX 6 17 5 18 4 19 3 20 2 21 1 22 19 23 20 24 21 25 22 26 23 27
REMARK SMILES IDX 24 28 25 29 26 30 27 31 28 32 29 34 30 35 31 36 32 37 37 38
REMARK SMILES IDX 33 39 36 40 34 41 35 42 38 44 39 45 40 46 41 48 42 49 43 50
REMARK SMILES IDX 44 51 49 52 45 53 48 54 46 55 47 56 50 58 51 59 52 60
REMARK H PARENT 14 8 11 11 9 14 9 15 28 33 35 43 40 47 47 57 52 61
ROOT
ATOM      1  O   UNL     1     -15.374   2.472  -2.553  1.00  0.00    -0.272 OA
ATOM      2  C   UNL     1     -15.903   1.367  -2.357  1.00  0.00     0.245 C 
ENDROOT
BRANCH   2   3
ATOM      3  C   UNL     1     -16.623   1.121  -1.008  1.00  0.00     0.168 C 
ATOM      4  C   UNL     1     -15.614   0.940   0.120  1.00  0.00     0.041 C 
BRANCH   3   5
ATOM      5  N   UNL     1     -17.643   2.102  -0.671  1.00  0.00    -0.342 N 
ATOM      6  C   UNL     1     -18.987   1.841  -0.834  1.00  0.00     0.251 C 
ATOM      7  O   UNL     1     -19.420   0.796  -1.307  1.00  0.00    -0.272 OA
ATOM      8  H   UNL     1     -17.403   3.020  -0.303  1.00  0.00     0.164 HD
BRANCH   6   9
ATOM      9  C   UNL     1     -19.881   2.963  -0.282  1.00  0.00     0.219 C 
BRANCH   9  10
ATOM     10  O   UNL     1     -21.162   3.014  -0.922  1.00  0.00    -0.382 OA
ATOM     11  H   UNL     1     -20.953   3.311  -1.834  1.00  0.00     0.211 HD
ENDBRANCH   9  10
BRANCH   9  12
ATOM     12  C   UNL     1     -20.038   2.913   1.260  1.00  0.00     0.089 C 
BRANCH  12  13
ATOM     13  N   UNL     1     -19.606   1.577   1.731  1.00  0.00    -0.325 NA
ATOM     14  H   UNL     1     -20.132   1.331   2.572  1.00  0.00     0.119 HD
ATOM     15  H   UNL     1     -18.630   1.632   2.033  1.00  0.00     0.119 HD
ENDBRANCH  12  13
BRANCH  12  16
ATOM     16  C   UNL     1     -19.301   4.019   2.053  1.00  0.00     0.022 C 
BRANCH  16  17
ATOM     17  C   UNL     1     -19.866   4.470   3.407  1.00  0.00     0.002 C 
BRANCH  17  18
ATOM     18  C   UNL     1     -19.673   5.951   3.725  1.00  0.00     0.000 C 
BRANCH  18  19
ATOM     19  C   UNL     1     -18.328   6.521   3.255  1.00  0.00    -0.000 C 
BRANCH  19  20
ATOM     20  C   UNL     1     -18.403   7.896   2.584  1.00  0.00    -0.000 C 
BRANCH  20  21
ATOM     21  C   UNL     1     -18.777   7.819   1.101  1.00  0.00    -0.003 C 
ATOM     22  C   UNL     1     -20.269   8.029   0.894  1.00  0.00     0.004 C 
ENDBRANCH  20  21
ENDBRANCH  19  20
ENDBRANCH  18  19
ENDBRANCH  17  18
ENDBRANCH  16  17
ENDBRANCH  12  16
ENDBRANCH   9  12
ENDBRANCH   6   9
ENDBRANCH   3   5
ENDBRANCH   2   3
BRANCH   2  23
ATOM     23  N   UNL     1     -15.947   0.425  -3.379  1.00  0.00    -0.332 N 
ATOM     24  C   UNL     1     -17.116  -0.373  -3.717  1.00  0.00     0.147 C 
BRANCH  23  25
ATOM     25  C   UNL     1     -14.791   0.265  -4.303  1.00  0.00     0.174 C 
BRANCH  25  26
ATOM     26  C   UNL     1     -15.213  -0.172  -5.726  1.00  0.00     0.038 C 
BRANCH  26  27
ATOM     27  C   UNL     1     -14.718   0.701  -6.901  1.00  0.00    -0.015 C 
ATOM     28  C   UNL     1     -15.258   0.224  -8.250  1.00  0.00     0.007 C 
ATOM     29  C   UNL     1     -14.991   2.190  -6.709  1.00  0.00     0.007 C 
ENDBRANCH  26  27
ENDBRANCH  25  26
BRANCH  25  30
ATOM     30  C   UNL     1     -13.721  -0.650  -3.664  1.00  0.00     0.243 C 
ATOM     31  O   UNL     1     -14.008  -1.481  -2.802  1.00  0.00    -0.273 OA
ATOM     32  N   UNL     1     -12.439  -0.470  -4.115  1.00  0.00    -0.342 N 
ATOM     33  H   UNL     1     -12.304   0.135  -4.929  1.00  0.00     0.164 HD
BRANCH  32  34
ATOM     34  C   UNL     1     -11.295  -1.229  -3.604  1.00  0.00     0.175 C 
BRANCH  34  35
ATOM     35  C   UNL     1     -10.284  -1.537  -4.719  1.00  0.00     0.070 C 
BRANCH  35  36
ATOM     36  C   UNL     1     -10.392  -0.580  -5.886  1.00  0.00    -0.045 A 
ATOM     37  C   UNL     1     -11.309  -0.832  -6.917  1.00  0.00     0.007 A 
ATOM     38  C   UNL     1      -9.569   0.550  -5.967  1.00  0.00     0.007 A 
ATOM     39  C   UNL     1     -11.406   0.037  -8.004  1.00  0.00     0.046 A 
ATOM     40  C   UNL     1      -9.664   1.420  -7.055  1.00  0.00     0.046 A 
ATOM     41  C   UNL     1     -10.584   1.156  -8.064  1.00  0.00     0.115 A 
BRANCH  41  42
ATOM     42  O   UNL     1     -10.708   1.978  -9.145  1.00  0.00    -0.508 OA
ATOM     43  H   UNL     1      -9.836   2.064  -9.564  1.00  0.00     0.293 HD
ENDBRANCH  41  42
ENDBRANCH  35  36
ENDBRANCH  34  35
BRANCH  34  44
ATOM     44  C   UNL     1     -10.657  -0.417  -2.454  1.00  0.00     0.243 C 
ATOM     45  O   UNL     1     -10.118  -0.914  -1.469  1.00  0.00    -0.273 OA
ATOM     46  N   UNL     1     -10.860   0.943  -2.565  1.00  0.00    -0.341 N 
ATOM     47  H   UNL     1     -11.414   1.298  -3.340  1.00  0.00     0.164 HD
BRANCH  46  48
ATOM     48  C   UNL     1     -10.407   1.909  -1.562  1.00  0.00     0.196 C 
BRANCH  48  49
ATOM     49  C   UNL     1      -9.144   2.651  -2.029  1.00  0.00     0.072 C 
BRANCH  49  50
ATOM     50  C   UNL     1      -7.884   1.840  -1.827  1.00  0.00    -0.045 A 
ATOM     51  C   UNL     1      -7.253   1.830  -0.574  1.00  0.00     0.007 A 
ATOM     52  C   UNL     1      -7.320   1.110  -2.881  1.00  0.00     0.007 A 
ATOM     53  C   UNL     1      -6.083   1.097  -0.379  1.00  0.00     0.046 A 
ATOM     54  C   UNL     1      -6.148   0.377  -2.686  1.00  0.00     0.046 A 
ATOM     55  C   UNL     1      -5.540   0.375  -1.435  1.00  0.00     0.115 A 
BRANCH  55  56
ATOM     56  O   UNL     1      -4.394  -0.327  -1.204  1.00  0.00    -0.508 OA
ATOM     57  H   UNL     1      -4.228  -0.902  -1.967  1.00  0.00     0.293 HD
ENDBRANCH  55  56
ENDBRANCH  49  50
ENDBRANCH  48  49
BRANCH  48  58
ATOM     58  C   UNL     1     -11.532   2.921  -1.300  1.00  0.00     0.326 C 
ATOM     59  O   UNL     1     -11.413   4.106  -1.035  1.00  0.00    -0.250 OA
BRANCH  58  60
ATOM     60  O   UNL     1     -12.775   2.386  -1.400  1.00  0.00    -0.480 OA
ATOM     61  H   UNL     1     -12.685   1.741  -2.134  1.00  0.00     0.296 HD
ENDBRANCH  58  60
ENDBRANCH  48  58
ENDBRANCH  46  48
ENDBRANCH  34  44
ENDBRANCH  32  34
ENDBRANCH  25  30
ENDBRANCH  23  25
ENDBRANCH   2  23
TORSDOF 28
ENDMDL
MODEL 3
REMARK VINA RESULT:    -7.565      1.693      6.585
REMARK INTER + INTRA:         -23.198
REMARK INTER:                 -19.362
REMARK INTRA:                  -3.836
REMARK UNBOUND:                -4.356
REMARK SMILES CCCCCCC[C@H](N)[C@H](O)C(=O)N[C@H](C)C(=O)N(C)[C@H](CC(C)C)C(=O)N[C@@H](Cc1ccc(O)cc1)C(=O)N[C@@H](Cc1ccc(O)cc1)C(=O)O
REMARK SMILES IDX 18 1 17 2 15 3 16 4 14 5 12 6 13 7 10 9 11 10 8 12 9 13 7 16
REMARK SMILES IDX 6 17 5 18 4 19 3 20 2 21 1 22 19 23 20 24 21 25 22 26 23 27
REMARK SMILES IDX 24 28 25 29 26 30 27 31 28 32 29 34 30 35 31 36 32 37 37 38
REMARK SMILES IDX 33 39 36 40 34 41 35 42 38 44 39 45 40 46 41 48 42 49 43 50
REMARK SMILES IDX 44 51 49 52 45 53 48 54 46 55 47 56 50 58 51 59 52 60
REMARK H PARENT 14 8 11 11 9 14 9 15 28 33 35 43 40 47 47 57 52 61
ROOT
ATOM      1  O   UNL     1      -8.153   0.463  -2.123  1.00  0.00    -0.272 OA
ATOM      2  C   UNL     1      -8.366   0.839  -0.961  1.00  0.00     0.245 C 
ENDROOT
BRANCH   2   3
ATOM      3  C   UNL     1      -9.702   1.558  -0.647  1.00  0.00     0.168 C 
ATOM      4  C   UNL     1      -9.833   2.838  -1.464  1.00  0.00     0.041 C 
BRANCH   3   5
ATOM      5  N   UNL     1     -10.886   0.721  -0.757  1.00  0.00    -0.342 N 
ATOM      6  C   UNL     1     -11.955   0.855   0.104  1.00  0.00     0.251 C 
ATOM      7  O   UNL     1     -11.974   1.647   1.040  1.00  0.00    -0.272 OA
ATOM      8  H   UNL     1     -10.971   0.003  -1.473  1.00  0.00     0.164 HD
BRANCH   6   9
ATOM      9  C   UNL     1     -13.148  -0.031  -0.287  1.00  0.00     0.219 C 
BRANCH   9  10
ATOM     10  O   UNL     1     -13.966  -0.384   0.835  1.00  0.00    -0.382 OA
ATOM     11  H   UNL     1     -14.488  -1.150   0.510  1.00  0.00     0.211 HD
ENDBRANCH   9  10
BRANCH   9  12
ATOM     12  C   UNL     1     -14.008   0.574  -1.427  1.00  0.00     0.089 C 
BRANCH  12  13
ATOM     13  N   UNL     1     -13.452   1.901  -1.778  1.00  0.00    -0.325 NA
ATOM     14  H   UNL     1     -13.363   1.970  -2.793  1.00  0.00     0.119 HD
ATOM     15  H   UNL     1     -12.496   1.964  -1.421  1.00  0.00     0.119 HD
ENDBRANCH  12  13
BRANCH  12  16
ATOM     16  C   UNL     1     -14.156  -0.294  -2.699  1.00  0.00     0.022 C 
BRANCH  16  17
ATOM     17  C   UNL     1     -15.453  -0.209  -3.516  1.00  0.00     0.002 C 
BRANCH  17  18
ATOM     18  C   UNL     1     -16.595   0.542  -2.835  1.00  0.00     0.000 C 
BRANCH  18  19
ATOM     19  C   UNL     1     -17.845  -0.313  -2.587  1.00  0.00    -0.000 C 
BRANCH  19  20
ATOM     20  C   UNL     1     -17.996  -1.526  -3.511  1.00  0.00    -0.000 C 
BRANCH  20  21
ATOM     21  C   UNL     1     -19.383  -1.623  -4.151  1.00  0.00    -0.003 C 
ATOM     22  C   UNL     1     -20.321  -0.558  -3.605  1.00  0.00     0.004 C 
ENDBRANCH  20  21
ENDBRANCH  19  20
ENDBRANCH  18  19
ENDBRANCH  17  18
ENDBRANCH  16  17
ENDBRANCH  12  16
ENDBRANCH   9  12
ENDBRANCH   6   9
ENDBRANCH   3   5
ENDBRANCH   2   3
BRANCH   2  23
ATOM     23  N   UNL     1      -7.472   0.507   0.052  1.00  0.00    -0.332 N 
ATOM     24  C   UNL     1      -7.668  -0.577   1.004  1.00  0.00     0.147 C 
BRANCH  23  25
ATOM     25  C   UNL     1      -6.152   1.189   0.143  1.00  0.00     0.174 C 
BRANCH  25  26
ATOM     26  C   UNL     1      -6.270   2.672   0.568  1.00  0.00     0.038 C 
BRANCH  26  27
ATOM     27  C   UNL     1      -5.437   3.118   1.791  1.00  0.00    -0.015 C 
ATOM     28  C   UNL     1      -5.785   2.329   3.053  1.00  0.00     0.007 C 
ATOM     29  C   UNL     1      -3.931   3.096   1.541  1.00  0.00     0.007 C 
ENDBRANCH  26  27
ENDBRANCH  25  26
BRANCH  25  30
ATOM     30  C   UNL     1      -5.353   0.979  -1.163  1.00  0.00     0.243 C 
ATOM     31  O   UNL     1      -4.858  -0.109  -1.454  1.00  0.00    -0.273 OA
ATOM     32  N   UNL     1      -5.229   2.082  -1.968  1.00  0.00    -0.342 N 
ATOM     33  H   UNL     1      -5.785   2.907  -1.729  1.00  0.00     0.164 HD
BRANCH  32  34
ATOM     34  C   UNL     1      -4.483   2.075  -3.229  1.00  0.00     0.175 C 
BRANCH  34  35
ATOM     35  C   UNL     1      -3.178   1.273  -3.102  1.00  0.00     0.070 C 
BRANCH  35  36
ATOM     36  C   UNL     1      -2.014   2.121  -2.641  1.00  0.00    -0.045 A 
ATOM     37  C   UNL     1      -1.235   2.814  -3.580  1.00  0.00     0.007 A 
ATOM     38  C   UNL     1      -1.682   2.208  -1.283  1.00  0.00     0.007 A 
ATOM     39  C   UNL     1      -0.150   3.587  -3.166  1.00  0.00     0.046 A 
ATOM     40  C   UNL     1      -0.595   2.981  -0.867  1.00  0.00     0.046 A 
ATOM     41  C   UNL     1       0.160   3.665  -1.814  1.00  0.00     0.115 A 
BRANCH  41  42
ATOM     42  O   UNL     1       1.230   4.429  -1.451  1.00  0.00    -0.508 OA
ATOM     43  H   UNL     1       1.520   4.147  -0.567  1.00  0.00     0.293 HD
ENDBRANCH  41  42
ENDBRANCH  35  36
ENDBRANCH  34  35
BRANCH  34  44
ATOM     44  C   UNL     1      -5.407   1.504  -4.328  1.00  0.00     0.243 C 
ATOM     45  O   UNL     1      -5.051   0.702  -5.187  1.00  0.00    -0.273 OA
ATOM     46  N   UNL     1      -6.660   2.079  -4.345  1.00  0.00    -0.341 N 
ATOM     47  H   UNL     1      -6.870   2.825  -3.686  1.00  0.00     0.164 HD
BRANCH  46  48
ATOM     48  C   UNL     1      -7.685   1.749  -5.338  1.00  0.00     0.196 C 
BRANCH  48  49
ATOM     49  C   UNL     1      -9.093   2.100  -4.828  1.00  0.00     0.072 C 
BRANCH  49  50
ATOM     50  C   UNL     1     -10.147   1.132  -5.316  1.00  0.00    -0.045 A 
ATOM     51  C   UNL     1     -10.387  -0.054  -4.608  1.00  0.00     0.007 A 
ATOM     52  C   UNL     1     -10.878   1.390  -6.482  1.00  0.00     0.007 A 
ATOM     53  C   UNL     1     -11.348  -0.961  -5.056  1.00  0.00     0.046 A 
ATOM     54  C   UNL     1     -11.839   0.482  -6.931  1.00  0.00     0.046 A 
ATOM     55  C   UNL     1     -12.067  -0.687  -6.213  1.00  0.00     0.115 A 
BRANCH  55  56
ATOM     56  O   UNL     1     -12.995  -1.600  -6.618  1.00  0.00    -0.508 OA
ATOM     57  H   UNL     1     -12.629  -2.097  -7.367  1.00  0.00     0.293 HD
ENDBRANCH  55  56
ENDBRANCH  49  50
ENDBRANCH  48  49
BRANCH  48  58
ATOM     58  C   UNL     1      -7.397   2.526  -6.630  1.00  0.00     0.326 C 
ATOM     59  O   UNL     1      -7.675   2.192  -7.771  1.00  0.00    -0.250 OA
BRANCH  58  60
ATOM     60  O   UNL     1      -6.776   3.714  -6.421  1.00  0.00    -0.480 OA
ATOM     61  H   UNL     1      -5.836   3.517  -6.626  1.00  0.00     0.296 HD
ENDBRANCH  58  60
ENDBRANCH  48  58
ENDBRANCH  46  48
ENDBRANCH  34  44
ENDBRANCH  32  34
ENDBRANCH  25  30
ENDBRANCH  23  25
ENDBRANCH   2  23
TORSDOF 28
ENDMDL
MODEL 4
REMARK VINA RESULT:    -7.403      4.147     10.742
REMARK INTER + INTRA:         -22.796
REMARK INTER:                 -16.606
REMARK INTRA:                  -6.190
REMARK UNBOUND:                -4.356
REMARK SMILES CCCCCCC[C@H](N)[C@H](O)C(=O)N[C@H](C)C(=O)N(C)[C@H](CC(C)C)C(=O)N[C@@H](Cc1ccc(O)cc1)C(=O)N[C@@H](Cc1ccc(O)cc1)C(=O)O
REMARK SMILES IDX 18 1 17 2 15 3 16 4 14 5 12 6 13 7 10 9 11 10 8 12 9 13 7 16
REMARK SMILES IDX 6 17 5 18 4 19 3 20 2 21 1 22 19 23 20 24 21 25 22 26 23 27
REMARK SMILES IDX 24 28 25 29 26 30 27 31 28 32 29 34 30 35 31 36 32 37 37 38
REMARK SMILES IDX 33 39 36 40 34 41 35 42 38 44 39 45 40 46 41 48 42 49 43 50
REMARK SMILES IDX 44 51 49 52 45 53 48 54 46 55 47 56 50 58 51 59 52 60
REMARK H PARENT 14 8 11 11 9 14 9 15 28 33 35 43 40 47 47 57 52 61
ROOT
ATOM      1  O   UNL     1      -9.207   2.648  -4.858  1.00  0.00    -0.272 OA
ATOM      2  C   UNL     1      -9.763   1.567  -5.101  1.00  0.00     0.245 C 
ENDROOT
BRANCH   2   3
ATOM      3  C   UNL     1     -10.131   1.237  -6.569  1.00  0.00     0.168 C 
ATOM      4  C   UNL     1      -8.947   0.609  -7.297  1.00  0.00     0.041 C 
BRANCH   3   5
ATOM      5  N   UNL     1     -11.345   0.453  -6.733  1.00  0.00    -0.342 N 
ATOM      6  C   UNL     1     -12.216   0.669  -7.781  1.00  0.00     0.251 C 
ATOM      7  O   UNL     1     -12.059   1.551  -8.619  1.00  0.00    -0.272 OA
ATOM      8  H   UNL     1     -11.600  -0.285  -6.080  1.00  0.00     0.164 HD
BRANCH   6   9
ATOM      9  C   UNL     1     -13.351  -0.366  -7.834  1.00  0.00     0.219 C 
BRANCH   9  10
ATOM     10  O   UNL     1     -13.102  -1.502  -6.996  1.00  0.00    -0.382 OA
ATOM     11  H   UNL     1     -13.809  -2.136  -7.251  1.00  0.00     0.211 HD
ENDBRANCH   9  10
BRANCH   9  12
ATOM     12  C   UNL     1     -14.745   0.244  -7.535  1.00  0.00     0.089 C 
BRANCH  12  13
ATOM     13  N   UNL     1     -14.552   1.610  -6.996  1.00  0.00    -0.325 NA
ATOM     14  H   UNL     1     -14.335   1.550  -6.000  1.00  0.00     0.119 HD
ATOM     15  H   UNL     1     -15.441   2.113  -7.046  1.00  0.00     0.119 HD
ENDBRANCH  12  13
BRANCH  12  16
ATOM     16  C   UNL     1     -15.739   0.275  -8.721  1.00  0.00     0.022 C 
BRANCH  16  17
ATOM     17  C   UNL     1     -16.039   1.614  -9.409  1.00  0.00     0.002 C 
BRANCH  17  18
ATOM     18  C   UNL     1     -17.236   1.599 -10.356  1.00  0.00     0.000 C 
BRANCH  18  19
ATOM     19  C   UNL     1     -17.274   0.386 -11.296  1.00  0.00    -0.000 C 
BRANCH  19  20
ATOM     20  C   UNL     1     -18.673  -0.153 -11.606  1.00  0.00    -0.000 C 
BRANCH  20  21
ATOM     21  C   UNL     1     -18.844  -1.627 -11.231  1.00  0.00    -0.003 C 
ATOM     22  C   UNL     1     -17.607  -2.170 -10.534  1.00  0.00     0.004 C 
ENDBRANCH  20  21
ENDBRANCH  19  20
ENDBRANCH  18  19
ENDBRANCH  17  18
ENDBRANCH  16  17
ENDBRANCH  12  16
ENDBRANCH   9  12
ENDBRANCH   6   9
ENDBRANCH   3   5
ENDBRANCH   2   3
BRANCH   2  23
ATOM     23  N   UNL     1      -9.933   0.628  -4.088  1.00  0.00    -0.332 N 
ATOM     24  C   UNL     1      -9.013  -0.465  -3.813  1.00  0.00     0.147 C 
BRANCH  23  25
ATOM     25  C   UNL     1     -11.046   0.772  -3.111  1.00  0.00     0.174 C 
BRANCH  25  26
ATOM     26  C   UNL     1     -10.564   0.756  -1.642  1.00  0.00     0.038 C 
BRANCH  26  27
ATOM     27  C   UNL     1     -10.056   2.092  -1.056  1.00  0.00    -0.015 C 
ATOM     28  C   UNL     1      -8.583   2.348  -1.374  1.00  0.00     0.007 C 
ATOM     29  C   UNL     1     -10.909   3.293  -1.457  1.00  0.00     0.007 C 
ENDBRANCH  26  27
ENDBRANCH  25  26
BRANCH  25  30
ATOM     30  C   UNL     1     -12.156  -0.261  -3.413  1.00  0.00     0.243 C 
ATOM     31  O   UNL     1     -12.041  -1.096  -4.309  1.00  0.00    -0.273 OA
ATOM     32  N   UNL     1     -13.273  -0.180  -2.622  1.00  0.00    -0.342 N 
ATOM     33  H   UNL     1     -13.235   0.444  -1.811  1.00  0.00     0.164 HD
BRANCH  32  34
ATOM     34  C   UNL     1     -14.434  -1.059  -2.782  1.00  0.00     0.175 C 
BRANCH  34  35
ATOM     35  C   UNL     1     -15.016  -1.470  -1.420  1.00  0.00     0.070 C 
BRANCH  35  36
ATOM     36  C   UNL     1     -15.150  -0.305  -0.466  1.00  0.00    -0.045 A 
ATOM     37  C   UNL     1     -14.217  -0.133   0.568  1.00  0.00     0.007 A 
ATOM     38  C   UNL     1     -16.212   0.602  -0.583  1.00  0.00     0.007 A 
ATOM     39  C   UNL     1     -14.340   0.931   1.461  1.00  0.00     0.046 A 
ATOM     40  C   UNL     1     -16.337   1.667   0.313  1.00  0.00     0.046 A 
ATOM     41  C   UNL     1     -15.397   1.822   1.327  1.00  0.00     0.115 A 
BRANCH  41  42
ATOM     42  O   UNL     1     -15.483   2.847   2.222  1.00  0.00    -0.508 OA
ATOM     43  H   UNL     1     -14.676   3.384   2.150  1.00  0.00     0.293 HD
ENDBRANCH  41  42
ENDBRANCH  35  36
ENDBRANCH  34  35
BRANCH  34  44
ATOM     44  C   UNL     1     -15.475  -0.324  -3.656  1.00  0.00     0.243 C 
ATOM     45  O   UNL     1     -15.301   0.783  -4.158  1.00  0.00    -0.273 OA
ATOM     46  N   UNL     1     -16.691  -0.970  -3.722  1.00  0.00    -0.341 N 
ATOM     47  H   UNL     1     -16.824  -1.828  -3.192  1.00  0.00     0.164 HD
BRANCH  46  48
ATOM     48  C   UNL     1     -17.852  -0.432  -4.435  1.00  0.00     0.196 C 
BRANCH  48  49
ATOM     49  C   UNL     1     -17.850  -0.861  -5.912  1.00  0.00     0.072 C 
BRANCH  49  50
ATOM     50  C   UNL     1     -18.718   0.026  -6.776  1.00  0.00    -0.045 A 
ATOM     51  C   UNL     1     -18.647   1.420  -6.640  1.00  0.00     0.007 A 
ATOM     52  C   UNL     1     -19.613  -0.524  -7.702  1.00  0.00     0.007 A 
ATOM     53  C   UNL     1     -19.452   2.248  -7.423  1.00  0.00     0.046 A 
ATOM     54  C   UNL     1     -20.420   0.305  -8.485  1.00  0.00     0.046 A 
ATOM     55  C   UNL     1     -20.332   1.685  -8.339  1.00  0.00     0.115 A 
BRANCH  55  56
ATOM     56  O   UNL     1     -21.102   2.528  -9.083  1.00  0.00    -0.508 OA
ATOM     57  H   UNL     1     -20.550   3.272  -9.373  1.00  0.00     0.293 HD
ENDBRANCH  55  56
ENDBRANCH  49  50
ENDBRANCH  48  49
BRANCH  48  58
ATOM     58  C   UNL     1     -19.133  -0.934  -3.754  1.00  0.00     0.326 C 
ATOM     59  O   UNL     1     -20.037  -0.259  -3.289  1.00  0.00    -0.250 OA
BRANCH  58  60
ATOM     60  O   UNL     1     -19.224  -2.287  -3.703  1.00  0.00    -0.480 OA
ATOM     61  H   UNL     1     -19.359  -2.540  -4.643  1.00  0.00     0.296 HD
ENDBRANCH  58  60
ENDBRANCH  48  58
ENDBRANCH  46  48
ENDBRANCH  34  44
ENDBRANCH  32  34
ENDBRANCH  25  30
ENDBRANCH  23  25
ENDBRANCH   2  23
TORSDOF 28
ENDMDL
MODEL 5
REMARK VINA RESULT:    -7.366      5.884     12.907
REMARK INTER + INTRA:         -22.704
REMARK INTER:                 -17.267
REMARK INTRA:                  -5.437
REMARK UNBOUND:                -4.356
REMARK SMILES CCCCCCC[C@H](N)[C@H](O)C(=O)N[C@H](C)C(=O)N(C)[C@H](CC(C)C)C(=O)N[C@@H](Cc1ccc(O)cc1)C(=O)N[C@@H](Cc1ccc(O)cc1)C(=O)O
REMARK SMILES IDX 18 1 17 2 15 3 16 4 14 5 12 6 13 7 10 9 11 10 8 12 9 13 7 16
REMARK SMILES IDX 6 17 5 18 4 19 3 20 2 21 1 22 19 23 20 24 21 25 22 26 23 27
REMARK SMILES IDX 24 28 25 29 26 30 27 31 28 32 29 34 30 35 31 36 32 37 37 38
REMARK SMILES IDX 33 39 36 40 34 41 35 42 38 44 39 45 40 46 41 48 42 49 43 50
REMARK SMILES IDX 44 51 49 52 45 53 48 54 46 55 47 56 50 58 51 59 52 60
REMARK H PARENT 14 8 11 11 9 14 9 15 28 33 35 43 40 47 47 57 52 61
ROOT
ATOM      1  O   UNL     1     -17.830   2.616  -7.839  1.00  0.00    -0.272 OA
ATOM      2  C   UNL     1     -18.060   1.800  -8.743  1.00  0.00     0.245 C 
ENDROOT
BRANCH   2   3
ATOM      3  C   UNL     1     -16.862   1.166  -9.493  1.00  0.00     0.168 C 
ATOM      4  C   UNL     1     -16.572   1.920 -10.786  1.00  0.00     0.041 C 
BRANCH   3   5
ATOM      5  N   UNL     1     -15.663   0.988  -8.688  1.00  0.00    -0.342 N 
ATOM      6  C   UNL     1     -15.389  -0.200  -8.044  1.00  0.00     0.251 C 
ATOM      7  O   UNL     1     -16.141  -1.169  -8.062  1.00  0.00    -0.272 OA
ATOM      8  H   UNL     1     -14.981   1.733  -8.570  1.00  0.00     0.164 HD
BRANCH   6   9
ATOM      9  C   UNL     1     -14.005  -0.207  -7.374  1.00  0.00     0.219 C 
BRANCH   9  10
ATOM     10  O   UNL     1     -13.567  -1.526  -7.025  1.00  0.00    -0.382 OA
ATOM     11  H   UNL     1     -13.660  -2.029  -7.864  1.00  0.00     0.211 HD
ENDBRANCH   9  10
BRANCH   9  12
ATOM     12  C   UNL     1     -12.923   0.531  -8.205  1.00  0.00     0.089 C 
BRANCH  12  13
ATOM     13  N   UNL     1     -13.052   1.985  -7.953  1.00  0.00    -0.325 NA
ATOM     14  H   UNL     1     -12.167   2.342  -7.588  1.00  0.00     0.119 HD
ATOM     15  H   UNL     1     -13.729   2.132  -7.202  1.00  0.00     0.119 HD
ENDBRANCH  12  13
BRANCH  12  16
ATOM     16  C   UNL     1     -11.462   0.079  -7.970  1.00  0.00     0.022 C 
BRANCH  16  17
ATOM     17  C   UNL     1     -10.664   0.700  -6.816  1.00  0.00     0.002 C 
BRANCH  17  18
ATOM     18  C   UNL     1      -9.435  -0.095  -6.380  1.00  0.00     0.000 C 
BRANCH  18  19
ATOM     19  C   UNL     1      -9.051   0.104  -4.908  1.00  0.00    -0.000 C 
BRANCH  19  20
ATOM     20  C   UNL     1      -9.831  -0.756  -3.910  1.00  0.00    -0.000 C 
BRANCH  20  21
ATOM     21  C   UNL     1     -11.283  -0.305  -3.737  1.00  0.00    -0.003 C 
ATOM     22  C   UNL     1     -12.237  -1.489  -3.750  1.00  0.00     0.004 C 
ENDBRANCH  20  21
ENDBRANCH  19  20
ENDBRANCH  18  19
ENDBRANCH  17  18
ENDBRANCH  16  17
ENDBRANCH  12  16
ENDBRANCH   9  12
ENDBRANCH   6   9
ENDBRANCH   3   5
ENDBRANCH   2   3
BRANCH   2  23
ATOM     23  N   UNL     1     -19.364   1.379  -8.985  1.00  0.00    -0.332 N 
ATOM     24  C   UNL     1     -20.556   2.116  -8.592  1.00  0.00     0.147 C 
BRANCH  23  25
ATOM     25  C   UNL     1     -19.621   0.164  -9.806  1.00  0.00     0.174 C 
BRANCH  25  26
ATOM     26  C   UNL     1     -20.586   0.427 -10.986  1.00  0.00     0.038 C 
BRANCH  26  27
ATOM     27  C   UNL     1     -20.254  -0.262 -12.328  1.00  0.00    -0.015 C 
ATOM     28  C   UNL     1     -20.767  -1.701 -12.389  1.00  0.00     0.007 C 
ATOM     29  C   UNL     1     -20.721   0.527 -13.548  1.00  0.00     0.007 C 
ENDBRANCH  26  27
ENDBRANCH  25  26
BRANCH  25  30
ATOM     30  C   UNL     1     -20.056  -1.009  -8.897  1.00  0.00     0.243 C 
ATOM     31  O   UNL     1     -21.215  -1.422  -8.878  1.00  0.00    -0.273 OA
ATOM     32  N   UNL     1     -19.069  -1.550  -8.113  1.00  0.00    -0.342 N 
ATOM     33  H   UNL     1     -18.107  -1.248  -8.288  1.00  0.00     0.164 HD
BRANCH  32  34
ATOM     34  C   UNL     1     -19.305  -2.648  -7.172  1.00  0.00     0.175 C 
BRANCH  34  35
ATOM     35  C   UNL     1     -18.441  -3.872  -7.514  1.00  0.00     0.070 C 
BRANCH  35  36
ATOM     36  C   UNL     1     -19.263  -5.072  -7.924  1.00  0.00    -0.045 A 
ATOM     37  C   UNL     1     -18.853  -6.363  -7.555  1.00  0.00     0.007 A 
ATOM     38  C   UNL     1     -20.426  -4.920  -8.691  1.00  0.00     0.007 A 
ATOM     39  C   UNL     1     -19.598  -7.478  -7.940  1.00  0.00     0.046 A 
ATOM     40  C   UNL     1     -21.171  -6.036  -9.078  1.00  0.00     0.046 A 
ATOM     41  C   UNL     1     -20.751  -7.306  -8.697  1.00  0.00     0.115 A 
BRANCH  41  42
ATOM     42  O   UNL     1     -21.448  -8.421  -9.056  1.00  0.00    -0.508 OA
ATOM     43  H   UNL     1     -20.830  -9.170  -9.089  1.00  0.00     0.293 HD
ENDBRANCH  41  42
ENDBRANCH  35  36
ENDBRANCH  34  35
BRANCH  34  44
ATOM     44  C   UNL     1     -19.025  -2.124  -5.745  1.00  0.00     0.243 C 
ATOM     45  O   UNL     1     -19.580  -2.541  -4.732  1.00  0.00    -0.273 OA
ATOM     46  N   UNL     1     -18.177  -1.038  -5.716  1.00  0.00    -0.341 N 
ATOM     47  H   UNL     1     -17.834  -0.655  -6.594  1.00  0.00     0.164 HD
BRANCH  46  48
ATOM     48  C   UNL     1     -17.819  -0.328  -4.486  1.00  0.00     0.196 C 
BRANCH  48  49
ATOM     49  C   UNL     1     -16.319   0.009  -4.451  1.00  0.00     0.072 C 
BRANCH  49  50
ATOM     50  C   UNL     1     -15.681  -0.314  -3.119  1.00  0.00    -0.045 A 
ATOM     51  C   UNL     1     -15.795  -1.606  -2.584  1.00  0.00     0.007 A 
ATOM     52  C   UNL     1     -14.991   0.665  -2.393  1.00  0.00     0.007 A 
ATOM     53  C   UNL     1     -15.223  -1.912  -1.350  1.00  0.00     0.046 A 
ATOM     54  C   UNL     1     -14.418   0.358  -1.157  1.00  0.00     0.046 A 
ATOM     55  C   UNL     1     -14.538  -0.929  -0.646  1.00  0.00     0.115 A 
BRANCH  55  56
ATOM     56  O   UNL     1     -13.995  -1.269   0.558  1.00  0.00    -0.508 OA
ATOM     57  H   UNL     1     -13.651  -0.464   0.976  1.00  0.00     0.293 HD
ENDBRANCH  55  56
ENDBRANCH  49  50
ENDBRANCH  48  49
BRANCH  48  58
ATOM     58  C   UNL     1     -18.639   0.966  -4.400  1.00  0.00     0.326 C 
ATOM     59  O   UNL     1     -18.713   1.733  -3.453  1.00  0.00    -0.250 OA
BRANCH  58  60
ATOM     60  O   UNL     1     -19.329   1.247  -5.534  1.00  0.00    -0.480 OA
ATOM     61  H   UNL     1     -20.232   0.915  -5.337  1.00  0.00     0.296 HD
ENDBRANCH  58  60
ENDBRANCH  48  58
ENDBRANCH  46  48
ENDBRANCH  34  44
ENDBRANCH  32  34
ENDBRANCH  25  30
ENDBRANCH  23  25
ENDBRANCH   2  23
TORSDOF 28
ENDMDL
MODEL 6
REMARK VINA RESULT:    -7.152      4.271     11.139
REMARK INTER + INTRA:         -22.169
REMARK INTER:                 -16.902
REMARK INTRA:                  -5.268
REMARK UNBOUND:                -4.356
REMARK SMILES CCCCCCC[C@H](N)[C@H](O)C(=O)N[C@H](C)C(=O)N(C)[C@H](CC(C)C)C(=O)N[C@@H](Cc1ccc(O)cc1)C(=O)N[C@@H](Cc1ccc(O)cc1)C(=O)O
REMARK SMILES IDX 18 1 17 2 15 3 16 4 14 5 12 6 13 7 10 9 11 10 8 12 9 13 7 16
REMARK SMILES IDX 6 17 5 18 4 19 3 20 2 21 1 22 19 23 20 24 21 25 22 26 23 27
REMARK SMILES IDX 24 28 25 29 26 30 27 31 28 32 29 34 30 35 31 36 32 37 37 38
REMARK SMILES IDX 33 39 36 40 34 41 35 42 38 44 39 45 40 46 41 48 42 49 43 50
REMARK SMILES IDX 44 51 49 52 45 53 48 54 46 55 47 56 50 58 51 59 52 60
REMARK H PARENT 14 8 11 11 9 14 9 15 28 33 35 43 40 47 47 57 52 61
ROOT
ATOM      1  O   UNL     1     -17.481   2.282  -7.913  1.00  0.00    -0.272 OA
ATOM      2  C   UNL     1     -18.134   1.377  -7.372  1.00  0.00     0.245 C 
ENDROOT
BRANCH   2   3
ATOM      3  C   UNL     1     -17.567  -0.064  -7.402  1.00  0.00     0.168 C 
ATOM      4  C   UNL     1     -18.299  -0.912  -8.437  1.00  0.00     0.041 C 
BRANCH   3   5
ATOM      5  N   UNL     1     -16.123  -0.150  -7.554  1.00  0.00    -0.342 N 
ATOM      6  C   UNL     1     -15.262   0.178  -6.528  1.00  0.00     0.251 C 
ATOM      7  O   UNL     1     -15.637   0.602  -5.440  1.00  0.00    -0.272 OA
ATOM      8  H   UNL     1     -15.693  -0.456  -8.424  1.00  0.00     0.164 HD
BRANCH   6   9
ATOM      9  C   UNL     1     -13.793  -0.125  -6.865  1.00  0.00     0.219 C 
BRANCH   9  10
ATOM     10  O   UNL     1     -13.552  -1.521  -7.078  1.00  0.00    -0.382 OA
ATOM     11  H   UNL     1     -13.960  -1.948  -6.293  1.00  0.00     0.211 HD
ENDBRANCH   9  10
BRANCH   9  12
ATOM     12  C   UNL     1     -13.255   0.715  -8.053  1.00  0.00     0.089 C 
BRANCH  12  13
ATOM     13  N   UNL     1     -14.170   1.859  -8.269  1.00  0.00    -0.325 NA
ATOM     14  H   UNL     1     -13.633   2.728  -8.250  1.00  0.00     0.119 HD
ATOM     15  H   UNL     1     -14.812   1.925  -7.475  1.00  0.00     0.119 HD
ENDBRANCH  12  13
BRANCH  12  16
ATOM     16  C   UNL     1     -11.798   1.217  -7.923  1.00  0.00     0.022 C 
BRANCH  16  17
ATOM     17  C   UNL     1     -10.647   0.206  -8.020  1.00  0.00     0.002 C 
BRANCH  17  18
ATOM     18  C   UNL     1      -9.551   0.374  -6.970  1.00  0.00     0.000 C 
BRANCH  18  19
ATOM     19  C   UNL     1      -9.929  -0.157  -5.581  1.00  0.00    -0.000 C 
BRANCH  19  20
ATOM     20  C   UNL     1      -8.975   0.241  -4.451  1.00  0.00    -0.000 C 
BRANCH  20  21
ATOM     21  C   UNL     1      -8.270   1.576  -4.705  1.00  0.00    -0.003 C 
ATOM     22  C   UNL     1      -6.776   1.474  -4.436  1.00  0.00     0.004 C 
ENDBRANCH  20  21
ENDBRANCH  19  20
ENDBRANCH  18  19
ENDBRANCH  17  18
ENDBRANCH  16  17
ENDBRANCH  12  16
ENDBRANCH   9  12
ENDBRANCH   6   9
ENDBRANCH   3   5
ENDBRANCH   2   3
BRANCH   2  23
ATOM     23  N   UNL     1     -19.283   1.684  -6.652  1.00  0.00    -0.332 N 
ATOM     24  C   UNL     1     -20.216   2.746  -6.997  1.00  0.00     0.147 C 
BRANCH  23  25
ATOM     25  C   UNL     1     -19.707   0.825  -5.512  1.00  0.00     0.174 C 
BRANCH  25  26
ATOM     26  C   UNL     1     -21.162   0.319  -5.647  1.00  0.00     0.038 C 
BRANCH  26  27
ATOM     27  C   UNL     1     -21.388  -1.205  -5.532  1.00  0.00    -0.015 C 
ATOM     28  C   UNL     1     -22.187  -1.768  -6.706  1.00  0.00     0.007 C 
ATOM     29  C   UNL     1     -20.098  -1.996  -5.330  1.00  0.00     0.007 C 
ENDBRANCH  26  27
ENDBRANCH  25  26
BRANCH  25  30
ATOM     30  C   UNL     1     -19.419   1.539  -4.172  1.00  0.00     0.243 C 
ATOM     31  O   UNL     1     -20.224   2.320  -3.665  1.00  0.00    -0.273 OA
ATOM     32  N   UNL     1     -18.210   1.250  -3.593  1.00  0.00    -0.342 N 
ATOM     33  H   UNL     1     -17.661   0.488  -3.999  1.00  0.00     0.164 HD
BRANCH  32  34
ATOM     34  C   UNL     1     -17.758   1.854  -2.337  1.00  0.00     0.175 C 
BRANCH  34  35
ATOM     35  C   UNL     1     -18.245   1.049  -1.122  1.00  0.00     0.070 C 
BRANCH  35  36
ATOM     36  C   UNL     1     -18.682   1.931   0.026  1.00  0.00    -0.045 A 
ATOM     37  C   UNL     1     -17.751   2.330   0.998  1.00  0.00     0.007 A 
ATOM     38  C   UNL     1     -20.016   2.341   0.152  1.00  0.00     0.007 A 
ATOM     39  C   UNL     1     -18.147   3.133   2.068  1.00  0.00     0.046 A 
ATOM     40  C   UNL     1     -20.413   3.143   1.224  1.00  0.00     0.046 A 
ATOM     41  C   UNL     1     -19.474   3.533   2.173  1.00  0.00     0.115 A 
BRANCH  41  42
ATOM     42  O   UNL     1     -19.820   4.314   3.236  1.00  0.00    -0.508 OA
ATOM     43  H   UNL     1     -20.571   4.871   2.972  1.00  0.00     0.293 HD
ENDBRANCH  41  42
ENDBRANCH  35  36
ENDBRANCH  34  35
BRANCH  34  44
ATOM     44  C   UNL     1     -16.216   1.954  -2.382  1.00  0.00     0.243 C 
ATOM     45  O   UNL     1     -15.595   2.976  -2.659  1.00  0.00    -0.273 OA
ATOM     46  N   UNL     1     -15.582   0.742  -2.206  1.00  0.00    -0.341 N 
ATOM     47  H   UNL     1     -16.145  -0.098  -2.095  1.00  0.00     0.164 HD
BRANCH  46  48
ATOM     48  C   UNL     1     -14.129   0.575  -2.276  1.00  0.00     0.196 C 
BRANCH  48  49
ATOM     49  C   UNL     1     -13.474   0.795  -0.902  1.00  0.00     0.072 C 
BRANCH  49  50
ATOM     50  C   UNL     1     -12.035   1.246  -1.009  1.00  0.00    -0.045 A 
ATOM     51  C   UNL     1     -11.742   2.570  -1.367  1.00  0.00     0.007 A 
ATOM     52  C   UNL     1     -10.980   0.354  -0.777  1.00  0.00     0.007 A 
ATOM     53  C   UNL     1     -10.418   2.994  -1.482  1.00  0.00     0.046 A 
ATOM     54  C   UNL     1      -9.655   0.778  -0.893  1.00  0.00     0.046 A 
ATOM     55  C   UNL     1      -9.385   2.096  -1.244  1.00  0.00     0.115 A 
BRANCH  55  56
ATOM     56  O   UNL     1      -8.105   2.550  -1.369  1.00  0.00    -0.508 OA
ATOM     57  H   UNL     1      -8.135   3.474  -1.663  1.00  0.00     0.293 HD
ENDBRANCH  55  56
ENDBRANCH  49  50
ENDBRANCH  48  49
BRANCH  48  58
ATOM     58  C   UNL     1     -13.812  -0.841  -2.776  1.00  0.00     0.326 C 
ATOM     59  O   UNL     1     -12.991  -1.160  -3.621  1.00  0.00    -0.250 OA
BRANCH  58  60
ATOM     60  O   UNL     1     -14.547  -1.807  -2.169  1.00  0.00    -0.480 OA
ATOM     61  H   UNL     1     -15.381  -1.344  -1.937  1.00  0.00     0.296 HD
ENDBRANCH  58  60
ENDBRANCH  48  58
ENDBRANCH  46  48
ENDBRANCH  34  44
ENDBRANCH  32  34
ENDBRANCH  25  30
ENDBRANCH  23  25
ENDBRANCH   2  23
TORSDOF 28
ENDMDL
MODEL 7
REMARK VINA RESULT:    -7.117      2.962     11.577
REMARK INTER + INTRA:         -22.083
REMARK INTER:                 -18.798
REMARK INTRA:                  -3.285
REMARK UNBOUND:                -4.356
REMARK SMILES CCCCCCC[C@H](N)[C@H](O)C(=O)N[C@H](C)C(=O)N(C)[C@H](CC(C)C)C(=O)N[C@@H](Cc1ccc(O)cc1)C(=O)N[C@@H](Cc1ccc(O)cc1)C(=O)O
REMARK SMILES IDX 18 1 17 2 15 3 16 4 14 5 12 6 13 7 10 9 11 10 8 12 9 13 7 16
REMARK SMILES IDX 6 17 5 18 4 19 3 20 2 21 1 22 19 23 20 24 21 25 22 26 23 27
REMARK SMILES IDX 24 28 25 29 26 30 27 31 28 32 29 34 30 35 31 36 32 37 37 38
REMARK SMILES IDX 33 39 36 40 34 41 35 42 38 44 39 45 40 46 41 48 42 49 43 50
REMARK SMILES IDX 44 51 49 52 45 53 48 54 46 55 47 56 50 58 51 59 52 60
REMARK H PARENT 14 8 11 11 9 14 9 15 28 33 35 43 40 47 47 57 52 61
ROOT
ATOM      1  O   UNL     1      -8.182   3.373  -5.925  1.00  0.00    -0.272 OA
ATOM      2  C   UNL     1      -7.674   2.448  -6.576  1.00  0.00     0.245 C 
ENDROOT
BRANCH   2   3
ATOM      3  C   UNL     1      -6.165   2.523  -6.917  1.00  0.00     0.168 C 
ATOM      4  C   UNL     1      -5.935   3.345  -8.180  1.00  0.00     0.041 C 
BRANCH   3   5
ATOM      5  N   UNL     1      -5.313   2.961  -5.822  1.00  0.00    -0.342 N 
ATOM      6  C   UNL     1      -5.055   2.155  -4.733  1.00  0.00     0.251 C 
ATOM      7  O   UNL     1      -5.548   1.042  -4.583  1.00  0.00    -0.272 OA
ATOM      8  H   UNL     1      -4.875   3.879  -5.818  1.00  0.00     0.164 HD
BRANCH   6   9
ATOM      9  C   UNL     1      -4.019   2.765  -3.775  1.00  0.00     0.219 C 
BRANCH   9  10
ATOM     10  O   UNL     1      -4.622   3.390  -2.635  1.00  0.00    -0.382 OA
ATOM     11  H   UNL     1      -5.440   3.794  -2.999  1.00  0.00     0.211 HD
ENDBRANCH   9  10
BRANCH   9  12
ATOM     12  C   UNL     1      -2.927   1.755  -3.336  1.00  0.00     0.089 C 
BRANCH  12  13
ATOM     13  N   UNL     1      -2.752   0.757  -4.416  1.00  0.00    -0.325 NA
ATOM     14  H   UNL     1      -2.745  -0.180  -4.010  1.00  0.00     0.119 HD
ATOM     15  H   UNL     1      -1.824   0.876  -4.829  1.00  0.00     0.119 HD
ENDBRANCH  12  13
BRANCH  12  16
ATOM     16  C   UNL     1      -1.558   2.363  -2.946  1.00  0.00     0.022 C 
BRANCH  16  17
ATOM     17  C   UNL     1      -1.197   3.769  -3.444  1.00  0.00     0.002 C 
BRANCH  17  18
ATOM     18  C   UNL     1       0.002   3.831  -4.387  1.00  0.00     0.000 C 
BRANCH  18  19
ATOM     19  C   UNL     1       0.097   2.645  -5.355  1.00  0.00    -0.000 C 
BRANCH  19  20
ATOM     20  C   UNL     1       1.510   2.097  -5.575  1.00  0.00    -0.000 C 
BRANCH  20  21
ATOM     21  C   UNL     1       2.296   1.924  -4.273  1.00  0.00    -0.003 C 
ATOM     22  C   UNL     1       3.418   0.911  -4.433  1.00  0.00     0.004 C 
ENDBRANCH  20  21
ENDBRANCH  19  20
ENDBRANCH  18  19
ENDBRANCH  17  18
ENDBRANCH  16  17
ENDBRANCH  12  16
ENDBRANCH   9  12
ENDBRANCH   6   9
ENDBRANCH   3   5
ENDBRANCH   2   3
BRANCH   2  23
ATOM     23  N   UNL     1      -8.425   1.317  -6.881  1.00  0.00    -0.332 N 
ATOM     24  C   UNL     1      -8.138   0.406  -7.979  1.00  0.00     0.147 C 
BRANCH  23  25
ATOM     25  C   UNL     1      -9.536   0.890  -5.986  1.00  0.00     0.174 C 
BRANCH  25  26
ATOM     26  C   UNL     1      -9.427  -0.592  -5.556  1.00  0.00     0.038 C 
BRANCH  26  27
ATOM     27  C   UNL     1      -9.460  -0.884  -4.039  1.00  0.00    -0.015 C 
ATOM     28  C   UNL     1      -9.463   0.392  -3.198  1.00  0.00     0.007 C 
ATOM     29  C   UNL     1     -10.604  -1.805  -3.623  1.00  0.00     0.007 C 
ENDBRANCH  26  27
ENDBRANCH  25  26
BRANCH  25  30
ATOM     30  C   UNL     1     -10.899   1.255  -6.619  1.00  0.00     0.243 C 
ATOM     31  O   UNL     1     -10.979   1.925  -7.647  1.00  0.00    -0.273 OA
ATOM     32  N   UNL     1     -12.004   0.788  -5.956  1.00  0.00    -0.342 N 
ATOM     33  H   UNL     1     -11.854   0.123  -5.193  1.00  0.00     0.164 HD
BRANCH  32  34
ATOM     34  C   UNL     1     -13.376   1.059  -6.394  1.00  0.00     0.175 C 
BRANCH  34  35
ATOM     35  C   UNL     1     -13.849   0.022  -7.425  1.00  0.00     0.070 C 
BRANCH  35  36
ATOM     36  C   UNL     1     -14.910   0.563  -8.355  1.00  0.00    -0.045 A 
ATOM     37  C   UNL     1     -14.749   1.827  -8.944  1.00  0.00     0.007 A 
ATOM     38  C   UNL     1     -16.072  -0.171  -8.625  1.00  0.00     0.007 A 
ATOM     39  C   UNL     1     -15.729   2.341  -9.793  1.00  0.00     0.046 A 
ATOM     40  C   UNL     1     -17.055   0.344  -9.475  1.00  0.00     0.046 A 
ATOM     41  C   UNL     1     -16.873   1.596 -10.052  1.00  0.00     0.115 A 
BRANCH  41  42
ATOM     42  O   UNL     1     -17.808   2.135 -10.885  1.00  0.00    -0.508 OA
ATOM     43  H   UNL     1     -18.211   2.898 -10.438  1.00  0.00     0.293 HD
ENDBRANCH  41  42
ENDBRANCH  35  36
ENDBRANCH  34  35
BRANCH  34  44
ATOM     44  C   UNL     1     -14.283   1.085  -5.143  1.00  0.00     0.243 C 
ATOM     45  O   UNL     1     -15.426   1.532  -5.124  1.00  0.00    -0.273 OA
ATOM     46  N   UNL     1     -13.643   0.673  -3.993  1.00  0.00    -0.341 N 
ATOM     47  H   UNL     1     -12.658   0.422  -4.039  1.00  0.00     0.164 HD
BRANCH  46  48
ATOM     48  C   UNL     1     -14.277   0.675  -2.673  1.00  0.00     0.196 C 
BRANCH  48  49
ATOM     49  C   UNL     1     -15.023  -0.643  -2.408  1.00  0.00     0.072 C 
BRANCH  49  50
ATOM     50  C   UNL     1     -16.525  -0.491  -2.500  1.00  0.00    -0.045 A 
ATOM     51  C   UNL     1     -17.265  -1.346  -3.329  1.00  0.00     0.007 A 
ATOM     52  C   UNL     1     -17.193   0.510  -1.783  1.00  0.00     0.007 A 
ATOM     53  C   UNL     1     -18.649  -1.206  -3.432  1.00  0.00     0.046 A 
ATOM     54  C   UNL     1     -18.578   0.651  -1.887  1.00  0.00     0.046 A 
ATOM     55  C   UNL     1     -19.295  -0.210  -2.711  1.00  0.00     0.115 A 
BRANCH  55  56
ATOM     56  O   UNL     1     -20.648  -0.106  -2.840  1.00  0.00    -0.508 OA
ATOM     57  H   UNL     1     -21.034  -0.006  -1.955  1.00  0.00     0.293 HD
ENDBRANCH  55  56
ENDBRANCH  49  50
ENDBRANCH  48  49
BRANCH  48  58
ATOM     58  C   UNL     1     -13.198   0.881  -1.601  1.00  0.00     0.326 C 
ATOM     59  O   UNL     1     -12.690   0.028  -0.891  1.00  0.00    -0.250 OA
BRANCH  58  60
ATOM     60  O   UNL     1     -12.792   2.170  -1.482  1.00  0.00    -0.480 OA
ATOM     61  H   UNL     1     -11.951   2.190  -1.989  1.00  0.00     0.296 HD
ENDBRANCH  58  60
ENDBRANCH  48  58
ENDBRANCH  46  48
ENDBRANCH  34  44
ENDBRANCH  32  34
ENDBRANCH  25  30
ENDBRANCH  23  25
ENDBRANCH   2  23
TORSDOF 28
ENDMDL
MODEL 8
REMARK VINA RESULT:    -7.063      5.360     10.418
REMARK INTER + INTRA:         -21.949
REMARK INTER:                 -18.988
REMARK INTRA:                  -2.961
REMARK UNBOUND:                -4.356
REMARK SMILES CCCCCCC[C@H](N)[C@H](O)C(=O)N[C@H](C)C(=O)N(C)[C@H](CC(C)C)C(=O)N[C@@H](Cc1ccc(O)cc1)C(=O)N[C@@H](Cc1ccc(O)cc1)C(=O)O
REMARK SMILES IDX 18 1 17 2 15 3 16 4 14 5 12 6 13 7 10 9 11 10 8 12 9 13 7 16
REMARK SMILES IDX 6 17 5 18 4 19 3 20 2 21 1 22 19 23 20 24 21 25 22 26 23 27
REMARK SMILES IDX 24 28 25 29 26 30 27 31 28 32 29 34 30 35 31 36 32 37 37 38
REMARK SMILES IDX 33 39 36 40 34 41 35 42 38 44 39 45 40 46 41 48 42 49 43 50
REMARK SMILES IDX 44 51 49 52 45 53 48 54 46 55 47 56 50 58 51 59 52 60
REMARK H PARENT 14 8 11 11 9 14 9 15 28 33 35 43 40 47 47 57 52 61
ROOT
ATOM      1  O   UNL     1      -9.050   2.945  -5.653  1.00  0.00    -0.272 OA
ATOM      2  C   UNL     1      -8.440   2.050  -6.256  1.00  0.00     0.245 C 
ENDROOT
BRANCH   2   3
ATOM      3  C   UNL     1      -6.891   2.047  -6.209  1.00  0.00     0.168 C 
ATOM      4  C   UNL     1      -6.320   3.134  -7.113  1.00  0.00     0.041 C 
BRANCH   3   5
ATOM      5  N   UNL     1      -6.321   2.099  -4.872  1.00  0.00    -0.342 N 
ATOM      6  C   UNL     1      -5.096   1.536  -4.580  1.00  0.00     0.251 C 
ATOM      7  O   UNL     1      -4.423   0.920  -5.400  1.00  0.00    -0.272 OA
ATOM      8  H   UNL     1      -6.803   2.554  -4.100  1.00  0.00     0.164 HD
BRANCH   6   9
ATOM      9  C   UNL     1      -4.630   1.836  -3.147  1.00  0.00     0.219 C 
BRANCH   9  10
ATOM     10  O   UNL     1      -4.649   3.235  -2.841  1.00  0.00    -0.382 OA
ATOM     11  H   UNL     1      -3.703   3.452  -2.690  1.00  0.00     0.211 HD
ENDBRANCH   9  10
BRANCH   9  12
ATOM     12  C   UNL     1      -5.403   1.027  -2.073  1.00  0.00     0.089 C 
BRANCH  12  13
ATOM     13  N   UNL     1      -4.480   0.030  -1.484  1.00  0.00    -0.325 NA
ATOM     14  H   UNL     1      -4.637  -0.018  -0.476  1.00  0.00     0.119 HD
ATOM     15  H   UNL     1      -3.520   0.365  -1.589  1.00  0.00     0.119 HD
ENDBRANCH  12  13
BRANCH  12  16
ATOM     16  C   UNL     1      -6.075   1.857  -0.952  1.00  0.00     0.022 C 
BRANCH  16  17
ATOM     17  C   UNL     1      -5.450   1.862   0.450  1.00  0.00     0.002 C 
BRANCH  17  18
ATOM     18  C   UNL     1      -4.909   3.214   0.910  1.00  0.00     0.000 C 
BRANCH  18  19
ATOM     19  C   UNL     1      -3.378   3.286   0.972  1.00  0.00    -0.000 C 
BRANCH  19  20
ATOM     20  C   UNL     1      -2.661   1.934   0.926  1.00  0.00    -0.000 C 
BRANCH  20  21
ATOM     21  C   UNL     1      -1.624   1.842  -0.197  1.00  0.00    -0.003 C 
ATOM     22  C   UNL     1      -1.602   3.110  -1.035  1.00  0.00     0.004 C 
ENDBRANCH  20  21
ENDBRANCH  19  20
ENDBRANCH  18  19
ENDBRANCH  17  18
ENDBRANCH  16  17
ENDBRANCH  12  16
ENDBRANCH   9  12
ENDBRANCH   6   9
ENDBRANCH   3   5
ENDBRANCH   2   3
BRANCH   2  23
ATOM     23  N   UNL     1      -9.143   1.009  -6.852  1.00  0.00    -0.332 N 
ATOM     24  C   UNL     1      -9.360  -0.296  -6.245  1.00  0.00     0.147 C 
BRANCH  23  25
ATOM     25  C   UNL     1      -9.849   1.223  -8.145  1.00  0.00     0.174 C 
BRANCH  25  26
ATOM     26  C   UNL     1     -11.179   0.440  -8.242  1.00  0.00     0.038 C 
BRANCH  26  27
ATOM     27  C   UNL     1     -12.475   1.273  -8.367  1.00  0.00    -0.015 C 
ATOM     28  C   UNL     1     -13.196   1.436  -7.029  1.00  0.00     0.007 C 
ATOM     29  C   UNL     1     -12.262   2.631  -9.031  1.00  0.00     0.007 C 
ENDBRANCH  26  27
ENDBRANCH  25  26
BRANCH  25  30
ATOM     30  C   UNL     1      -8.887   0.962  -9.327  1.00  0.00     0.243 C 
ATOM     31  O   UNL     1      -7.802   0.404  -9.170  1.00  0.00    -0.273 OA
ATOM     32  N   UNL     1      -9.319   1.399 -10.552  1.00  0.00    -0.342 N 
ATOM     33  H   UNL     1     -10.287   1.724 -10.625  1.00  0.00     0.164 HD
BRANCH  32  34
ATOM     34  C   UNL     1      -8.528   1.261 -11.778  1.00  0.00     0.175 C 
BRANCH  34  35
ATOM     35  C   UNL     1      -9.086   0.151 -12.681  1.00  0.00     0.070 C 
BRANCH  35  36
ATOM     36  C   UNL     1      -8.022  -0.821 -13.139  1.00  0.00    -0.045 A 
ATOM     37  C   UNL     1      -8.155  -1.479 -14.371  1.00  0.00     0.007 A 
ATOM     38  C   UNL     1      -6.906  -1.095 -12.338  1.00  0.00     0.007 A 
ATOM     39  C   UNL     1      -7.185  -2.387 -14.796  1.00  0.00     0.046 A 
ATOM     40  C   UNL     1      -5.935  -2.005 -12.762  1.00  0.00     0.046 A 
ATOM     41  C   UNL     1      -6.083  -2.643 -13.989  1.00  0.00     0.115 A 
BRANCH  41  42
ATOM     42  O   UNL     1      -5.160  -3.539 -14.439  1.00  0.00    -0.508 OA
ATOM     43  H   UNL     1      -4.520  -3.702 -13.726  1.00  0.00     0.293 HD
ENDBRANCH  41  42
ENDBRANCH  35  36
ENDBRANCH  34  35
BRANCH  34  44
ATOM     44  C   UNL     1      -8.509   2.631 -12.492  1.00  0.00     0.243 C 
ATOM     45  O   UNL     1      -7.522   3.357 -12.574  1.00  0.00    -0.273 OA
ATOM     46  N   UNL     1      -9.752   3.040 -12.928  1.00  0.00    -0.341 N 
ATOM     47  H   UNL     1     -10.561   2.456 -12.733  1.00  0.00     0.164 HD
BRANCH  46  48
ATOM     48  C   UNL     1      -9.994   4.333 -13.572  1.00  0.00     0.196 C 
BRANCH  48  49
ATOM     49  C   UNL     1      -9.722   5.499 -12.607  1.00  0.00     0.072 C 
BRANCH  49  50
ATOM     50  C   UNL     1     -10.980   6.248 -12.230  1.00  0.00    -0.045 A 
ATOM     51  C   UNL     1     -12.219   5.592 -12.260  1.00  0.00     0.007 A 
ATOM     52  C   UNL     1     -10.933   7.600 -11.867  1.00  0.00     0.007 A 
ATOM     53  C   UNL     1     -13.389   6.275 -11.927  1.00  0.00     0.046 A 
ATOM     54  C   UNL     1     -12.104   8.285 -11.534  1.00  0.00     0.046 A 
ATOM     55  C   UNL     1     -13.323   7.615 -11.565  1.00  0.00     0.115 A 
BRANCH  55  56
ATOM     56  O   UNL     1     -14.488   8.248 -11.248  1.00  0.00    -0.508 OA
ATOM     57  H   UNL     1     -15.200   7.589 -11.236  1.00  0.00     0.293 HD
ENDBRANCH  55  56
ENDBRANCH  49  50
ENDBRANCH  48  49
BRANCH  48  58
ATOM     58  C   UNL     1      -9.082   4.458 -14.801  1.00  0.00     0.326 C 
ATOM     59  O   UNL     1      -9.147   3.817 -15.837  1.00  0.00    -0.250 OA
BRANCH  58  60
ATOM     60  O   UNL     1      -8.124   5.410 -14.669  1.00  0.00    -0.480 OA
ATOM     61  H   UNL     1      -8.489   6.168 -15.175  1.00  0.00     0.296 HD
ENDBRANCH  58  60
ENDBRANCH  48  58
ENDBRANCH  46  48
ENDBRANCH  34  44
ENDBRANCH  32  34
ENDBRANCH  25  30
ENDBRANCH  23  25
ENDBRANCH   2  23
TORSDOF 28
ENDMDL
MODEL 9
REMARK VINA RESULT:    -6.919      4.363      9.955
REMARK INTER + INTRA:         -21.589
REMARK INTER:                 -16.272
REMARK INTRA:                  -5.317
REMARK UNBOUND:                -4.356
REMARK SMILES CCCCCCC[C@H](N)[C@H](O)C(=O)N[C@H](C)C(=O)N(C)[C@H](CC(C)C)C(=O)N[C@@H](Cc1ccc(O)cc1)C(=O)N[C@@H](Cc1ccc(O)cc1)C(=O)O
REMARK SMILES IDX 18 1 17 2 15 3 16 4 14 5 12 6 13 7 10 9 11 10 8 12 9 13 7 16
REMARK SMILES IDX 6 17 5 18 4 19 3 20 2 21 1 22 19 23 20 24 21 25 22 26 23 27
REMARK SMILES IDX 24 28 25 29 26 30 27 31 28 32 29 34 30 35 31 36 32 37 37 38
REMARK SMILES IDX 33 39 36 40 34 41 35 42 38 44 39 45 40 46 41 48 42 49 43 50
REMARK SMILES IDX 44 51 49 52 45 53 48 54 46 55 47 56 50 58 51 59 52 60
REMARK H PARENT 14 8 11 11 9 14 9 15 28 33 35 43 40 47 47 57 52 61
ROOT
ATOM      1  O   UNL     1     -19.089   1.512  -5.531  1.00  0.00    -0.272 OA
ATOM      2  C   UNL     1     -18.988   0.354  -5.100  1.00  0.00     0.245 C 
ENDROOT
BRANCH   2   3
ATOM      3  C   UNL     1     -18.282  -0.706  -5.982  1.00  0.00     0.168 C 
ATOM      4  C   UNL     1     -19.298  -1.657  -6.604  1.00  0.00     0.041 C 
BRANCH   3   5
ATOM      5  N   UNL     1     -17.368  -0.164  -6.975  1.00  0.00    -0.342 N 
ATOM      6  C   UNL     1     -16.019  -0.027  -6.726  1.00  0.00     0.251 C 
ATOM      7  O   UNL     1     -15.498  -0.306  -5.651  1.00  0.00    -0.272 OA
ATOM      8  H   UNL     1     -17.690   0.135  -7.893  1.00  0.00     0.164 HD
BRANCH   6   9
ATOM      9  C   UNL     1     -15.229   0.431  -7.963  1.00  0.00     0.219 C 
BRANCH   9  10
ATOM     10  O   UNL     1     -15.988   0.325  -9.173  1.00  0.00    -0.382 OA
ATOM     11  H   UNL     1     -15.736   1.131  -9.675  1.00  0.00     0.211 HD
ENDBRANCH   9  10
BRANCH   9  12
ATOM     12  C   UNL     1     -14.630   1.853  -7.811  1.00  0.00     0.089 C 
BRANCH  12  13
ATOM     13  N   UNL     1     -15.349   2.549  -6.719  1.00  0.00    -0.325 NA
ATOM     14  H   UNL     1     -15.091   2.126  -5.825  1.00  0.00     0.119 HD
ATOM     15  H   UNL     1     -16.351   2.373  -6.817  1.00  0.00     0.119 HD
ENDBRANCH  12  13
BRANCH  12  16
ATOM     16  C   UNL     1     -13.103   1.924  -7.572  1.00  0.00     0.022 C 
BRANCH  16  17
ATOM     17  C   UNL     1     -12.164   1.151  -8.508  1.00  0.00     0.002 C 
BRANCH  17  18
ATOM     18  C   UNL     1     -10.696   1.563  -8.433  1.00  0.00     0.000 C 
BRANCH  18  19
ATOM     19  C   UNL     1      -9.760   0.452  -7.938  1.00  0.00    -0.000 C 
BRANCH  19  20
ATOM     20  C   UNL     1      -8.448   0.937  -7.314  1.00  0.00    -0.000 C 
BRANCH  20  21
ATOM     21  C   UNL     1      -8.576   1.256  -5.822  1.00  0.00    -0.003 C 
ATOM     22  C   UNL     1      -8.627   2.757  -5.579  1.00  0.00     0.004 C 
ENDBRANCH  20  21
ENDBRANCH  19  20
ENDBRANCH  18  19
ENDBRANCH  17  18
ENDBRANCH  16  17
ENDBRANCH  12  16
ENDBRANCH   9  12
ENDBRANCH   6   9
ENDBRANCH   3   5
ENDBRANCH   2   3
BRANCH   2  23
ATOM     23  N   UNL     1     -19.392   0.057  -3.803  1.00  0.00    -0.332 N 
ATOM     24  C   UNL     1     -20.493  -0.833  -3.464  1.00  0.00     0.147 C 
BRANCH  23  25
ATOM     25  C   UNL     1     -18.608   0.555  -2.639  1.00  0.00     0.174 C 
BRANCH  25  26
ATOM     26  C   UNL     1     -18.485   2.096  -2.612  1.00  0.00     0.038 C 
BRANCH  26  27
ATOM     27  C   UNL     1     -19.255   2.841  -1.499  1.00  0.00    -0.015 C 
ATOM     28  C   UNL     1     -20.306   3.800  -2.056  1.00  0.00     0.007 C 
ATOM     29  C   UNL     1     -19.876   1.908  -0.462  1.00  0.00     0.007 C 
ENDBRANCH  26  27
ENDBRANCH  25  26
BRANCH  25  30
ATOM     30  C   UNL     1     -17.250  -0.179  -2.559  1.00  0.00     0.243 C 
ATOM     31  O   UNL     1     -17.159  -1.396  -2.712  1.00  0.00    -0.273 OA
ATOM     32  N   UNL     1     -16.162   0.614  -2.301  1.00  0.00    -0.342 N 
ATOM     33  H   UNL     1     -16.297   1.628  -2.327  1.00  0.00     0.164 HD
BRANCH  32  34
ATOM     34  C   UNL     1     -14.801   0.088  -2.164  1.00  0.00     0.175 C 
BRANCH  34  35
ATOM     35  C   UNL     1     -13.800   0.902  -2.998  1.00  0.00     0.070 C 
BRANCH  35  36
ATOM     36  C   UNL     1     -12.626   0.076  -3.472  1.00  0.00    -0.045 A 
ATOM     37  C   UNL     1     -11.588  -0.244  -2.583  1.00  0.00     0.007 A 
ATOM     38  C   UNL     1     -12.543  -0.360  -4.801  1.00  0.00     0.007 A 
ATOM     39  C   UNL     1     -10.494  -0.994  -3.014  1.00  0.00     0.046 A 
ATOM     40  C   UNL     1     -11.446  -1.109  -5.234  1.00  0.00     0.046 A 
ATOM     41  C   UNL     1     -10.432  -1.421  -4.335  1.00  0.00     0.115 A 
BRANCH  41  42
ATOM     42  O   UNL     1      -9.344  -2.149  -4.718  1.00  0.00    -0.508 OA
ATOM     43  H   UNL     1      -8.545  -1.673  -4.436  1.00  0.00     0.293 HD
ENDBRANCH  41  42
ENDBRANCH  35  36
ENDBRANCH  34  35
BRANCH  34  44
ATOM     44  C   UNL     1     -14.436   0.089  -0.662  1.00  0.00     0.243 C 
ATOM     45  O   UNL     1     -14.635  -0.852   0.101  1.00  0.00    -0.273 OA
ATOM     46  N   UNL     1     -13.977   1.308  -0.210  1.00  0.00    -0.341 N 
ATOM     47  H   UNL     1     -13.940   2.092  -0.856  1.00  0.00     0.164 HD
BRANCH  46  48
ATOM     48  C   UNL     1     -13.634   1.571   1.190  1.00  0.00     0.196 C 
BRANCH  48  49
ATOM     49  C   UNL     1     -12.592   2.696   1.309  1.00  0.00     0.072 C 
BRANCH  49  50
ATOM     50  C   UNL     1     -11.400   2.483   0.403  1.00  0.00    -0.045 A 
ATOM     51  C   UNL     1     -11.270   3.238  -0.771  1.00  0.00     0.007 A 
ATOM     52  C   UNL     1     -10.426   1.523   0.708  1.00  0.00     0.007 A 
ATOM     53  C   UNL     1     -10.182   3.041  -1.621  1.00  0.00     0.046 A 
ATOM     54  C   UNL     1      -9.336   1.325  -0.144  1.00  0.00     0.046 A 
ATOM     55  C   UNL     1      -9.223   2.088  -1.301  1.00  0.00     0.115 A 
BRANCH  55  56
ATOM     56  O   UNL     1      -8.176   1.925  -2.159  1.00  0.00    -0.508 OA
ATOM     57  H   UNL     1      -8.518   1.577  -2.998  1.00  0.00     0.293 HD
ENDBRANCH  55  56
ENDBRANCH  49  50
ENDBRANCH  48  49
BRANCH  48  58
ATOM     58  C   UNL     1     -14.907   1.966   1.951  1.00  0.00     0.326 C 
ATOM     59  O   UNL     1     -15.257   1.583   3.055  1.00  0.00    -0.250 OA
BRANCH  58  60
ATOM     60  O   UNL     1     -15.686   2.851   1.279  1.00  0.00    -0.480 OA
ATOM     61  H   UNL     1     -16.597   2.528   1.453  1.00  0.00     0.296 HD
ENDBRANCH  58  60
ENDBRANCH  48  58
ENDBRANCH  46  48
ENDBRANCH  34  44
ENDBRANCH  32  34
ENDBRANCH  25  30
ENDBRANCH  23  25
ENDBRANCH   2  23
TORSDOF 28
ENDMDL
MODEL 10
REMARK VINA RESULT:    -6.693     12.506     15.857
REMARK INTER + INTRA:         -21.027
REMARK INTER:                 -17.319
REMARK INTRA:                  -3.707
REMARK UNBOUND:                -4.356
REMARK SMILES CCCCCCC[C@H](N)[C@H](O)C(=O)N[C@H](C)C(=O)N(C)[C@H](CC(C)C)C(=O)N[C@@H](Cc1ccc(O)cc1)C(=O)N[C@@H](Cc1ccc(O)cc1)C(=O)O
REMARK SMILES IDX 18 1 17 2 15 3 16 4 14 5 12 6 13 7 10 9 11 10 8 12 9 13 7 16
REMARK SMILES IDX 6 17 5 18 4 19 3 20 2 21 1 22 19 23 20 24 21 25 22 26 23 27
REMARK SMILES IDX 24 28 25 29 26 30 27 31 28 32 29 34 30 35 31 36 32 37 37 38
REMARK SMILES IDX 33 39 36 40 34 41 35 42 38 44 39 45 40 46 41 48 42 49 43 50
REMARK SMILES IDX 44 51 49 52 45 53 48 54 46 55 47 56 50 58 51 59 52 60
REMARK H PARENT 14 8 11 11 9 14 9 15 28 33 35 43 40 47 47 57 52 61
ROOT
ATOM      1  O   UNL     1     -18.396   1.237   9.521  1.00  0.00    -0.272 OA
ATOM      2  C   UNL     1     -19.219   0.552   8.894  1.00  0.00     0.245 C 
ENDROOT
BRANCH   2   3
ATOM      3  C   UNL     1     -20.314   1.277   8.074  1.00  0.00     0.168 C 
ATOM      4  C   UNL     1     -21.679   0.639   8.311  1.00  0.00     0.041 C 
BRANCH   3   5
ATOM      5  N   UNL     1     -20.353   2.721   8.247  1.00  0.00    -0.342 N 
ATOM      6  C   UNL     1     -20.621   3.573   7.197  1.00  0.00     0.251 C 
ATOM      7  O   UNL     1     -20.803   3.192   6.046  1.00  0.00    -0.272 OA
ATOM      8  H   UNL     1     -20.183   3.157   9.151  1.00  0.00     0.164 HD
BRANCH   6   9
ATOM      9  C   UNL     1     -20.752   5.039   7.641  1.00  0.00     0.219 C 
BRANCH   9  10
ATOM     10  O   UNL     1     -20.802   5.184   9.065  1.00  0.00    -0.382 OA
ATOM     11  H   UNL     1     -21.585   4.649   9.324  1.00  0.00     0.211 HD
ENDBRANCH   9  10
BRANCH   9  12
ATOM     12  C   UNL     1     -19.662   5.959   7.032  1.00  0.00     0.089 C 
BRANCH  12  13
ATOM     13  N   UNL     1     -19.474   7.121   7.931  1.00  0.00    -0.325 NA
ATOM     14  H   UNL     1     -20.368   7.355   8.368  1.00  0.00     0.119 HD
ATOM     15  H   UNL     1     -19.229   7.939   7.369  1.00  0.00     0.119 HD
ENDBRANCH  12  13
BRANCH  12  16
ATOM     16  C   UNL     1     -18.298   5.290   6.737  1.00  0.00     0.022 C 
BRANCH  16  17
ATOM     17  C   UNL     1     -17.928   4.956   5.285  1.00  0.00     0.002 C 
BRANCH  17  18
ATOM     18  C   UNL     1     -18.542   5.879   4.235  1.00  0.00     0.000 C 
BRANCH  18  19
ATOM     19  C   UNL     1     -17.665   7.086   3.875  1.00  0.00    -0.000 C 
BRANCH  19  20
ATOM     20  C   UNL     1     -18.424   8.311   3.358  1.00  0.00    -0.000 C 
BRANCH  20  21
ATOM     21  C   UNL     1     -19.911   8.294   3.726  1.00  0.00    -0.003 C 
ATOM     22  C   UNL     1     -20.182   9.112   4.979  1.00  0.00     0.004 C 
ENDBRANCH  20  21
ENDBRANCH  19  20
ENDBRANCH  18  19
ENDBRANCH  17  18
ENDBRANCH  16  17
ENDBRANCH  12  16
ENDBRANCH   9  12
ENDBRANCH   6   9
ENDBRANCH   3   5
ENDBRANCH   2   3
BRANCH   2  23
ATOM     23  N   UNL     1     -19.074  -0.830   8.838  1.00  0.00    -0.332 N 
ATOM     24  C   UNL     1     -19.514  -1.750   9.877  1.00  0.00     0.147 C 
BRANCH  23  25
ATOM     25  C   UNL     1     -18.552  -1.481   7.605  1.00  0.00     0.174 C 
BRANCH  25  26
ATOM     26  C   UNL     1     -18.890  -2.988   7.531  1.00  0.00     0.038 C 
BRANCH  26  27
ATOM     27  C   UNL     1     -19.909  -3.424   6.454  1.00  0.00    -0.015 C 
ATOM     28  C   UNL     1     -19.760  -4.896   6.071  1.00  0.00     0.007 C 
ATOM     29  C   UNL     1     -21.356  -3.110   6.825  1.00  0.00     0.007 C 
ENDBRANCH  26  27
ENDBRANCH  25  26
BRANCH  25  30
ATOM     30  C   UNL     1     -17.046  -1.173   7.438  1.00  0.00     0.243 C 
ATOM     31  O   UNL     1     -16.516  -1.105   6.330  1.00  0.00    -0.273 OA
ATOM     32  N   UNL     1     -16.345  -0.989   8.602  1.00  0.00    -0.342 N 
ATOM     33  H   UNL     1     -16.880  -0.921   9.471  1.00  0.00     0.164 HD
BRANCH  32  34
ATOM     34  C   UNL     1     -14.906  -0.716   8.636  1.00  0.00     0.175 C 
BRANCH  34  35
ATOM     35  C   UNL     1     -14.172  -1.443   7.499  1.00  0.00     0.070 C 
BRANCH  35  36
ATOM     36  C   UNL     1     -12.720  -1.717   7.821  1.00  0.00    -0.045 A 
ATOM     37  C   UNL     1     -12.386  -2.604   8.855  1.00  0.00     0.007 A 
ATOM     38  C   UNL     1     -11.694  -1.077   7.114  1.00  0.00     0.007 A 
ATOM     39  C   UNL     1     -11.049  -2.853   9.169  1.00  0.00     0.046 A 
ATOM     40  C   UNL     1     -10.355  -1.325   7.428  1.00  0.00     0.046 A 
ATOM     41  C   UNL     1     -10.045  -2.212   8.453  1.00  0.00     0.115 A 
BRANCH  41  42
ATOM     42  O   UNL     1      -8.752  -2.481   8.793  1.00  0.00    -0.508 OA
ATOM     43  H   UNL     1      -8.258  -2.675   7.979  1.00  0.00     0.293 HD
ENDBRANCH  41  42
ENDBRANCH  35  36
ENDBRANCH  34  35
BRANCH  34  44
ATOM     44  C   UNL     1     -14.707   0.815   8.567  1.00  0.00     0.243 C 
ATOM     45  O   UNL     1     -15.172   1.535   7.688  1.00  0.00    -0.273 OA
ATOM     46  N   UNL     1     -13.838   1.299   9.521  1.00  0.00    -0.341 N 
ATOM     47  H   UNL     1     -13.386   0.645  10.155  1.00  0.00     0.164 HD
BRANCH  46  48
ATOM     48  C   UNL     1     -13.442   2.707   9.610  1.00  0.00     0.196 C 
BRANCH  48  49
ATOM     49  C   UNL     1     -13.833   3.314  10.968  1.00  0.00     0.072 C 
BRANCH  49  50
ATOM     50  C   UNL     1     -15.173   4.012  10.928  1.00  0.00    -0.045 A 
ATOM     51  C   UNL     1     -15.507   4.824   9.834  1.00  0.00     0.007 A 
ATOM     52  C   UNL     1     -16.087   3.880  11.982  1.00  0.00     0.007 A 
ATOM     53  C   UNL     1     -16.735   5.484   9.792  1.00  0.00     0.046 A 
ATOM     54  C   UNL     1     -17.316   4.542  11.941  1.00  0.00     0.046 A 
ATOM     55  C   UNL     1     -17.630   5.338  10.845  1.00  0.00     0.115 A 
BRANCH  55  56
ATOM     56  O   UNL     1     -18.819   6.002  10.767  1.00  0.00    -0.508 OA
ATOM     57  H   UNL     1     -18.722   6.728  10.130  1.00  0.00     0.293 HD
ENDBRANCH  55  56
ENDBRANCH  49  50
ENDBRANCH  48  49
BRANCH  48  58
ATOM     58  C   UNL     1     -11.923   2.811   9.418  1.00  0.00     0.326 C 
ATOM     59  O   UNL     1     -11.199   3.741   9.737  1.00  0.00    -0.250 OA
BRANCH  58  60
ATOM     60  O   UNL     1     -11.374   1.714   8.838  1.00  0.00    -0.480 OA
ATOM     61  H   UNL     1     -11.292   1.974   7.895  1.00  0.00     0.296 HD
ENDBRANCH  58  60
ENDBRANCH  48  58
ENDBRANCH  46  48
ENDBRANCH  34  44
ENDBRANCH  32  34
ENDBRANCH  25  30
ENDBRANCH  23  25
ENDBRANCH   2  23
TORSDOF 28
ENDMDL
