MODEL 1
REMARK VINA RESULT:    -8.074      0.000      0.000
REMARK INTER + INTRA:         -19.746
REMARK INTER:                 -16.333
REMARK INTRA:                  -3.413
REMARK UNBOUND:                -3.413
REMARK SMILES CC[C@@H](C)[C@@H](NC(=O)[C@@H](O)Cc1ccc(O)c(Cl)c1)C(=O)N1[C@H](C(=O)NCCCCN=C(N)N)C[C@H]2CC[C@H](OS(=O)(=O)O)C[C@@H]21
REMARK SMILES IDX 22 1 36 2 46 3 35 4 23 5 45 6 37 7 39 8 38 9 20 10 21 11
REMARK SMILES IDX 5 12 6 13 7 14 8 15 9 17 11 18 12 19 17 20 19 21 15 22 14 23
REMARK SMILES IDX 13 24 18 25 16 26 10 28 3 30 4 31 2 32 1 33 24 34 25 35
REMARK SMILES IDX 26 36 27 38 28 39 29 40 30 41 31 42 32 43 33 44 34 45 40 50
REMARK SMILES IDX 41 51 42 52 43 53 44 54
REMARK H PARENT 6 16 16 27 10 29 26 37 33 46 33 47 34 48 34 49 44 55
ROOT
ATOM      1  N   UNL     1       1.333   9.630   1.866  1.00  0.00    -0.326 N 
ATOM      2  C   UNL     1      -0.679   9.239   3.024  1.00  0.00     0.014 C 
ATOM      3  C   UNL     1       0.477  10.234   2.891  1.00  0.00     0.091 C 
ATOM      4  C   UNL     1       0.004   7.899   2.797  1.00  0.00     0.041 C 
ATOM      5  C   UNL     1       0.884   8.245   1.581  1.00  0.00     0.175 C 
ATOM      6  C   UNL     1      -0.107  11.620   2.624  1.00  0.00     0.059 C 
ATOM      7  C   UNL     1      -1.450   9.472   4.308  1.00  0.00     0.008 C 
ATOM      8  C   UNL     1      -1.482  11.854   3.286  1.00  0.00     0.143 C 
ATOM      9  C   UNL     1      -1.676  10.981   4.542  1.00  0.00     0.034 C 
ENDROOT
BRANCH   1  10
ATOM     10  C   UNL     1       2.536  10.071   1.342  1.00  0.00     0.246 C 
ATOM     11  O   UNL     1       2.593  10.387   0.149  1.00  0.00    -0.272 OA
BRANCH  10  12
ATOM     12  C   UNL     1       3.777  10.198   2.273  1.00  0.00     0.174 C 
BRANCH  12  13
ATOM     13  N   UNL     1       4.066   8.908   2.898  1.00  0.00    -0.342 N 
ATOM     14  C   UNL     1       5.327   8.413   3.141  1.00  0.00     0.249 C 
ATOM     15  O   UNL     1       6.360   9.018   2.881  1.00  0.00    -0.272 OA
ATOM     16  H   UNL     1       3.318   8.231   3.025  1.00  0.00     0.164 HD
BRANCH  14  17
ATOM     17  C   UNL     1       5.302   7.016   3.797  1.00  0.00     0.207 C 
BRANCH  17  18
ATOM     18  C   UNL     1       6.666   6.690   4.416  1.00  0.00     0.077 C 
BRANCH  18  19
ATOM     19  C   UNL     1       6.554   5.646   5.503  1.00  0.00    -0.043 A 
ATOM     20  C   UNL     1       5.210   4.108   6.812  1.00  0.00     0.083 A 
ATOM     21  C   UNL     1       5.320   5.035   5.775  1.00  0.00     0.028 A 
ATOM     22  C   UNL     1       6.328   3.787   7.583  1.00  0.00     0.134 A 
ATOM     23  C   UNL     1       7.556   4.384   7.325  1.00  0.00     0.048 A 
ATOM     24  C   UNL     1       7.669   5.314   6.289  1.00  0.00     0.008 A 
ATOM     25  Cl  UNL     1       3.685   3.368   7.130  1.00  0.00    -0.080 Cl
BRANCH  22  26
ATOM     26  O   UNL     1       6.266   2.892   8.617  1.00  0.00    -0.506 OA
ATOM     27  H   UNL     1       5.734   2.137   8.303  1.00  0.00     0.293 HD
ENDBRANCH  22  26
ENDBRANCH  18  19
ENDBRANCH  17  18
BRANCH  17  28
ATOM     28  O   UNL     1       4.959   6.001   2.840  1.00  0.00    -0.383 OA
ATOM     29  H   UNL     1       5.718   5.375   2.823  1.00  0.00     0.211 HD
ENDBRANCH  17  28
ENDBRANCH  14  17
ENDBRANCH  12  13
BRANCH  12  30
ATOM     30  C   UNL     1       3.631  11.341   3.313  1.00  0.00     0.018 C 
ATOM     31  C   UNL     1       4.794  12.340   3.194  1.00  0.00     0.010 C 
BRANCH  30  32
ATOM     32  C   UNL     1       3.507  10.841   4.773  1.00  0.00     0.002 C 
ATOM     33  C   UNL     1       4.110  11.758   5.829  1.00  0.00     0.004 C 
ENDBRANCH  30  32
ENDBRANCH  12  30
ENDBRANCH  10  12
ENDBRANCH   1  10
BRANCH   5  34
ATOM     34  C   UNL     1       0.076   8.190   0.257  1.00  0.00     0.242 C 
ATOM     35  O   UNL     1      -1.153   8.129   0.238  1.00  0.00    -0.273 OA
ATOM     36  N   UNL     1       0.836   8.159  -0.891  1.00  0.00    -0.354 N 
ATOM     37  H   UNL     1       1.851   8.090  -0.807  1.00  0.00     0.163 HD
BRANCH  36  38
ATOM     38  C   UNL     1       0.255   8.323  -2.208  1.00  0.00     0.116 C 
BRANCH  38  39
ATOM     39  C   UNL     1       1.167   9.189  -3.073  1.00  0.00     0.023 C 
BRANCH  39  40
ATOM     40  C   UNL     1       0.385  10.130  -3.984  1.00  0.00     0.026 C 
BRANCH  40  41
ATOM     41  C   UNL     1      -0.896  10.607  -3.299  1.00  0.00     0.146 C 
BRANCH  41  42
ATOM     42  N   UNL     1      -0.621  11.810  -2.525  1.00  0.00    -0.254 NA
ATOM     43  C   UNL     1      -1.059  11.905  -1.326  1.00  0.00     0.185 C 
ATOM     44  N   UNL     1      -1.778  11.033  -0.596  1.00  0.00    -0.370 N 
ATOM     45  N   UNL     1      -0.799  13.025  -0.631  1.00  0.00    -0.370 N 
ATOM     46  H   UNL     1      -2.259  11.334   0.235  1.00  0.00     0.159 HD
ATOM     47  H   UNL     1      -2.051  10.127  -0.964  1.00  0.00     0.159 HD
ATOM     48  H   UNL     1      -0.254  13.731  -1.105  1.00  0.00     0.159 HD
ATOM     49  H   UNL     1      -0.896  13.080   0.368  1.00  0.00     0.159 HD
ENDBRANCH  41  42
ENDBRANCH  40  41
ENDBRANCH  39  40
ENDBRANCH  38  39
ENDBRANCH  36  38
ENDBRANCH   5  34
BRANCH   8  50
ATOM     50  O   UNL     1      -2.528  11.556   2.361  1.00  0.00    -0.245 OA
BRANCH  50  51
ATOM     51  S   UNL     1      -3.699  12.653   2.093  1.00  0.00     0.397 S 
ATOM     52  O   UNL     1      -3.462  13.252   0.799  1.00  0.00    -0.169 OA
ATOM     53  O   UNL     1      -3.890  13.460   3.280  1.00  0.00    -0.169 OA
BRANCH  51  54
ATOM     54  O   UNL     1      -4.997  11.721   1.913  1.00  0.00    -0.264 OA
ATOM     55  H   UNL     1      -5.761  12.195   2.301  1.00  0.00     0.236 HD
ENDBRANCH  51  54
ENDBRANCH  50  51
ENDBRANCH   8  50
TORSDOF 19
ENDMDL
MODEL 2
REMARK VINA RESULT:    -8.067      4.276      6.994
REMARK INTER + INTRA:         -19.733
REMARK INTER:                 -15.206
REMARK INTRA:                  -4.528
REMARK UNBOUND:                -3.413
REMARK SMILES CC[C@@H](C)[C@@H](NC(=O)[C@@H](O)Cc1ccc(O)c(Cl)c1)C(=O)N1[C@H](C(=O)NCCCCN=C(N)N)C[C@H]2CC[C@H](OS(=O)(=O)O)C[C@@H]21
REMARK SMILES IDX 22 1 36 2 46 3 35 4 23 5 45 6 37 7 39 8 38 9 20 10 21 11
REMARK SMILES IDX 5 12 6 13 7 14 8 15 9 17 11 18 12 19 17 20 19 21 15 22 14 23
REMARK SMILES IDX 13 24 18 25 16 26 10 28 3 30 4 31 2 32 1 33 24 34 25 35
REMARK SMILES IDX 26 36 27 38 28 39 29 40 30 41 31 42 32 43 33 44 34 45 40 50
REMARK SMILES IDX 41 51 42 52 43 53 44 54
REMARK H PARENT 6 16 16 27 10 29 26 37 33 46 33 47 34 48 34 49 44 55
ROOT
ATOM      1  N   UNL     1       0.970   9.738   2.199  1.00  0.00    -0.326 N 
ATOM      2  C   UNL     1      -0.681   9.458   3.854  1.00  0.00     0.014 C 
ATOM      3  C   UNL     1       0.490  10.353   3.440  1.00  0.00     0.091 C 
ATOM      4  C   UNL     1      -0.224   8.079   3.403  1.00  0.00     0.041 C 
ATOM      5  C   UNL     1       0.323   8.417   2.004  1.00  0.00     0.175 C 
ATOM      6  C   UNL     1      -0.001  11.798   3.389  1.00  0.00     0.059 C 
ATOM      7  C   UNL     1      -1.047   9.681   5.308  1.00  0.00     0.008 C 
ATOM      8  C   UNL     1      -1.114  12.113   4.412  1.00  0.00     0.143 C 
ATOM      9  C   UNL     1      -1.047  11.187   5.644  1.00  0.00     0.034 C 
ENDROOT
BRANCH   1  10
ATOM     10  C   UNL     1       2.024  10.101   1.378  1.00  0.00     0.246 C 
ATOM     11  O   UNL     1       2.344   9.356   0.445  1.00  0.00    -0.272 OA
BRANCH  10  12
ATOM     12  C   UNL     1       2.754  11.453   1.620  1.00  0.00     0.174 C 
BRANCH  12  13
ATOM     13  N   UNL     1       2.659  12.292   0.426  1.00  0.00    -0.342 N 
ATOM     14  C   UNL     1       1.644  13.186   0.167  1.00  0.00     0.249 C 
ATOM     15  O   UNL     1       0.711  13.399   0.932  1.00  0.00    -0.272 OA
ATOM     16  H   UNL     1       3.272  12.113  -0.366  1.00  0.00     0.164 HD
BRANCH  14  17
ATOM     17  C   UNL     1       1.817  13.909  -1.186  1.00  0.00     0.207 C 
BRANCH  17  18
ATOM     18  C   UNL     1       3.013  13.333  -1.952  1.00  0.00     0.077 C 
BRANCH  18  19
ATOM     19  C   UNL     1       2.594  12.723  -3.270  1.00  0.00    -0.043 A 
ATOM     20  C   UNL     1       2.495  10.817  -4.769  1.00  0.00     0.083 A 
ATOM     21  C   UNL     1       2.838  11.365  -3.532  1.00  0.00     0.028 A 
ATOM     22  C   UNL     1       1.911  11.619  -5.750  1.00  0.00     0.134 A 
ATOM     23  C   UNL     1       1.664  12.965  -5.504  1.00  0.00     0.048 A 
ATOM     24  C   UNL     1       2.008  13.517  -4.268  1.00  0.00     0.008 A 
ATOM     25  Cl  UNL     1       2.802   9.148  -5.071  1.00  0.00    -0.080 Cl
BRANCH  22  26
ATOM     26  O   UNL     1       1.568  11.129  -6.981  1.00  0.00    -0.506 OA
ATOM     27  H   UNL     1       2.300  11.352  -7.585  1.00  0.00     0.293 HD
ENDBRANCH  22  26
ENDBRANCH  18  19
ENDBRANCH  17  18
BRANCH  17  28
ATOM     28  O   UNL     1       2.007  15.320  -0.998  1.00  0.00    -0.383 OA
ATOM     29  H   UNL     1       1.467  15.565  -0.212  1.00  0.00     0.211 HD
ENDBRANCH  17  28
ENDBRANCH  14  17
ENDBRANCH  12  13
BRANCH  12  30
ATOM     30  C   UNL     1       4.220  11.267   2.097  1.00  0.00     0.018 C 
ATOM     31  C   UNL     1       4.513  12.151   3.320  1.00  0.00     0.010 C 
BRANCH  30  32
ATOM     32  C   UNL     1       5.271  11.525   0.990  1.00  0.00     0.002 C 
ATOM     33  C   UNL     1       6.427  10.534   0.947  1.00  0.00     0.004 C 
ENDBRANCH  30  32
ENDBRANCH  12  30
ENDBRANCH  10  12
ENDBRANCH   1  10
BRANCH   5  34
ATOM     34  C   UNL     1      -0.815   8.512   0.952  1.00  0.00     0.242 C 
ATOM     35  O   UNL     1      -1.986   8.722   1.268  1.00  0.00    -0.273 OA
ATOM     36  N   UNL     1      -0.429   8.290  -0.350  1.00  0.00    -0.354 N 
ATOM     37  H   UNL     1       0.533   8.001  -0.536  1.00  0.00     0.163 HD
BRANCH  36  38
ATOM     38  C   UNL     1      -1.307   8.549  -1.472  1.00  0.00     0.116 C 
BRANCH  38  39
ATOM     39  C   UNL     1      -0.495   9.066  -2.658  1.00  0.00     0.023 C 
BRANCH  39  40
ATOM     40  C   UNL     1      -0.827  10.513  -3.005  1.00  0.00     0.026 C 
BRANCH  40  41
ATOM     41  C   UNL     1      -0.591  11.427  -1.803  1.00  0.00     0.146 C 
BRANCH  41  42
ATOM     42  N   UNL     1      -1.774  12.243  -1.564  1.00  0.00    -0.254 NA
ATOM     43  C   UNL     1      -2.301  12.268  -0.398  1.00  0.00     0.185 C 
ATOM     44  N   UNL     1      -1.937  11.633   0.730  1.00  0.00    -0.370 N 
ATOM     45  N   UNL     1      -3.394  13.023  -0.200  1.00  0.00    -0.370 N 
ATOM     46  H   UNL     1      -2.576  11.550   1.502  1.00  0.00     0.159 HD
ATOM     47  H   UNL     1      -1.121  11.029   0.762  1.00  0.00     0.159 HD
ATOM     48  H   UNL     1      -3.731  13.543  -1.000  1.00  0.00     0.159 HD
ATOM     49  H   UNL     1      -3.719  13.281   0.715  1.00  0.00     0.159 HD
ENDBRANCH  41  42
ENDBRANCH  40  41
ENDBRANCH  39  40
ENDBRANCH  38  39
ENDBRANCH  36  38
ENDBRANCH   5  34
BRANCH   8  50
ATOM     50  O   UNL     1      -2.396  11.964   3.803  1.00  0.00    -0.245 OA
BRANCH  50  51
ATOM     51  S   UNL     1      -3.387  13.249   3.693  1.00  0.00     0.397 S 
ATOM     52  O   UNL     1      -4.242  13.057   2.543  1.00  0.00    -0.169 OA
ATOM     53  O   UNL     1      -2.626  14.467   3.878  1.00  0.00    -0.169 OA
BRANCH  51  54
ATOM     54  O   UNL     1      -4.333  13.055   4.979  1.00  0.00    -0.264 OA
ATOM     55  H   UNL     1      -5.231  12.834   4.659  1.00  0.00     0.236 HD
ENDBRANCH  51  54
ENDBRANCH  50  51
ENDBRANCH   8  50
TORSDOF 19
ENDMDL
MODEL 3
REMARK VINA RESULT:    -8.036      3.715      6.721
REMARK INTER + INTRA:         -19.670
REMARK INTER:                 -14.380
REMARK INTRA:                  -5.289
REMARK UNBOUND:                -3.413
REMARK SMILES CC[C@@H](C)[C@@H](NC(=O)[C@@H](O)Cc1ccc(O)c(Cl)c1)C(=O)N1[C@H](C(=O)NCCCCN=C(N)N)C[C@H]2CC[C@H](OS(=O)(=O)O)C[C@@H]21
REMARK SMILES IDX 22 1 36 2 46 3 35 4 23 5 45 6 37 7 39 8 38 9 20 10 21 11
REMARK SMILES IDX 5 12 6 13 7 14 8 15 9 17 11 18 12 19 17 20 19 21 15 22 14 23
REMARK SMILES IDX 13 24 18 25 16 26 10 28 3 30 4 31 2 32 1 33 24 34 25 35
REMARK SMILES IDX 26 36 27 38 28 39 29 40 30 41 31 42 32 43 33 44 34 45 40 50
REMARK SMILES IDX 41 51 42 52 43 53 44 54
REMARK H PARENT 6 16 16 27 10 29 26 37 33 46 33 47 34 48 34 49 44 55
ROOT
ATOM      1  N   UNL     1       1.964   8.934   3.225  1.00  0.00    -0.326 N 
ATOM      2  C   UNL     1      -0.332   9.328   3.563  1.00  0.00     0.014 C 
ATOM      3  C   UNL     1       1.058   9.690   4.094  1.00  0.00     0.091 C 
ATOM      4  C   UNL     1      -0.160   7.880   3.132  1.00  0.00     0.041 C 
ATOM      5  C   UNL     1       1.191   7.973   2.399  1.00  0.00     0.175 C 
ATOM      6  C   UNL     1       1.183  11.213   4.121  1.00  0.00     0.059 C 
ATOM      7  C   UNL     1      -1.407   9.680   4.573  1.00  0.00     0.008 C 
ATOM      8  C   UNL     1      -0.151  11.941   4.394  1.00  0.00     0.143 C 
ATOM      9  C   UNL     1      -1.136  11.066   5.196  1.00  0.00     0.034 C 
ENDROOT
BRANCH   1  10
ATOM     10  C   UNL     1       3.346   8.851   3.241  1.00  0.00     0.246 C 
ATOM     11  O   UNL     1       3.880   7.772   3.514  1.00  0.00    -0.272 OA
BRANCH  10  12
ATOM     12  C   UNL     1       4.193  10.104   2.873  1.00  0.00     0.174 C 
BRANCH  12  13
ATOM     13  N   UNL     1       3.521  10.870   1.824  1.00  0.00    -0.342 N 
ATOM     14  C   UNL     1       3.520  12.244   1.726  1.00  0.00     0.249 C 
ATOM     15  O   UNL     1       4.114  12.983   2.501  1.00  0.00    -0.272 OA
ATOM     16  H   UNL     1       2.862  10.406   1.204  1.00  0.00     0.164 HD
BRANCH  14  17
ATOM     17  C   UNL     1       2.706  12.754   0.518  1.00  0.00     0.207 C 
BRANCH  17  18
ATOM     18  C   UNL     1       3.467  13.868  -0.208  1.00  0.00     0.077 C 
BRANCH  18  19
ATOM     19  C   UNL     1       3.540  13.619  -1.698  1.00  0.00    -0.043 A 
ATOM     20  C   UNL     1       4.785  12.897  -3.651  1.00  0.00     0.083 A 
ATOM     21  C   UNL     1       4.702  13.079  -2.270  1.00  0.00     0.028 A 
ATOM     22  C   UNL     1       3.711  13.254  -4.468  1.00  0.00     0.134 A 
ATOM     23  C   UNL     1       2.554  13.790  -3.914  1.00  0.00     0.048 A 
ATOM     24  C   UNL     1       2.469  13.975  -2.532  1.00  0.00     0.008 A 
ATOM     25  Cl  UNL     1       6.221  12.232  -4.335  1.00  0.00    -0.080 Cl
BRANCH  22  26
ATOM     26  O   UNL     1       3.749  13.104  -5.827  1.00  0.00    -0.506 OA
ATOM     27  H   UNL     1       3.160  13.786  -6.201  1.00  0.00     0.293 HD
ENDBRANCH  22  26
ENDBRANCH  18  19
ENDBRANCH  17  18
BRANCH  17  28
ATOM     28  O   UNL     1       1.421  13.246   0.931  1.00  0.00    -0.383 OA
ATOM     29  H   UNL     1       1.393  14.192   0.661  1.00  0.00     0.211 HD
ENDBRANCH  17  28
ENDBRANCH  14  17
ENDBRANCH  12  13
BRANCH  12  30
ATOM     30  C   UNL     1       5.658   9.749   2.501  1.00  0.00     0.018 C 
ATOM     31  C   UNL     1       6.637  10.307   3.545  1.00  0.00     0.010 C 
BRANCH  30  32
ATOM     32  C   UNL     1       6.069  10.215   1.083  1.00  0.00     0.002 C 
ATOM     33  C   UNL     1       7.107  11.329   1.040  1.00  0.00     0.004 C 
ENDBRANCH  30  32
ENDBRANCH  12  30
ENDBRANCH  10  12
ENDBRANCH   1  10
BRANCH   5  34
ATOM     34  C   UNL     1       1.021   8.506   0.951  1.00  0.00     0.242 C 
ATOM     35  O   UNL     1       1.328   9.654   0.632  1.00  0.00    -0.273 OA
ATOM     36  N   UNL     1       0.450   7.620   0.065  1.00  0.00    -0.354 N 
ATOM     37  H   UNL     1       0.106   6.725   0.417  1.00  0.00     0.163 HD
BRANCH  36  38
ATOM     38  C   UNL     1       0.415   7.868  -1.362  1.00  0.00     0.116 C 
BRANCH  38  39
ATOM     39  C   UNL     1      -0.965   8.382  -1.764  1.00  0.00     0.023 C 
BRANCH  39  40
ATOM     40  C   UNL     1      -0.896   9.442  -2.858  1.00  0.00     0.026 C 
BRANCH  40  41
ATOM     41  C   UNL     1      -0.439  10.783  -2.284  1.00  0.00     0.146 C 
BRANCH  41  42
ATOM     42  N   UNL     1      -1.594  11.541  -1.821  1.00  0.00    -0.254 NA
ATOM     43  C   UNL     1      -1.743  11.765  -0.569  1.00  0.00     0.185 C 
ATOM     44  N   UNL     1      -0.972  11.404   0.473  1.00  0.00    -0.370 N 
ATOM     45  N   UNL     1      -2.817  12.461  -0.162  1.00  0.00    -0.370 N 
ATOM     46  H   UNL     1      -1.332  11.433   1.411  1.00  0.00     0.159 HD
ATOM     47  H   UNL     1      -0.111  10.881   0.343  1.00  0.00     0.159 HD
ATOM     48  H   UNL     1      -3.446  12.779  -0.887  1.00  0.00     0.159 HD
ATOM     49  H   UNL     1      -2.883  12.876   0.750  1.00  0.00     0.159 HD
ENDBRANCH  41  42
ENDBRANCH  40  41
ENDBRANCH  39  40
ENDBRANCH  38  39
ENDBRANCH  36  38
ENDBRANCH   5  34
BRANCH   8  50
ATOM     50  O   UNL     1      -0.771  12.307   3.161  1.00  0.00    -0.245 OA
BRANCH  50  51
ATOM     51  S   UNL     1      -1.655  13.670   3.080  1.00  0.00     0.397 S 
ATOM     52  O   UNL     1      -1.148  14.590   4.074  1.00  0.00    -0.169 OA
ATOM     53  O   UNL     1      -3.061  13.334   3.004  1.00  0.00    -0.169 OA
BRANCH  51  54
ATOM     54  O   UNL     1      -1.211  14.274   1.657  1.00  0.00    -0.264 OA
ATOM     55  H   UNL     1      -1.885  14.932   1.390  1.00  0.00     0.236 HD
ENDBRANCH  51  54
ENDBRANCH  50  51
ENDBRANCH   8  50
TORSDOF 19
ENDMDL
MODEL 4
REMARK VINA RESULT:    -7.830      7.787     12.162
REMARK INTER + INTRA:         -19.252
REMARK INTER:                 -15.629
REMARK INTRA:                  -3.624
REMARK UNBOUND:                -3.413
REMARK SMILES CC[C@@H](C)[C@@H](NC(=O)[C@@H](O)Cc1ccc(O)c(Cl)c1)C(=O)N1[C@H](C(=O)NCCCCN=C(N)N)C[C@H]2CC[C@H](OS(=O)(=O)O)C[C@@H]21
REMARK SMILES IDX 22 1 36 2 46 3 35 4 23 5 45 6 37 7 39 8 38 9 20 10 21 11
REMARK SMILES IDX 5 12 6 13 7 14 8 15 9 17 11 18 12 19 17 20 19 21 15 22 14 23
REMARK SMILES IDX 13 24 18 25 16 26 10 28 3 30 4 31 2 32 1 33 24 34 25 35
REMARK SMILES IDX 26 36 27 38 28 39 29 40 30 41 31 42 32 43 33 44 34 45 40 50
REMARK SMILES IDX 41 51 42 52 43 53 44 54
REMARK H PARENT 6 16 16 27 10 29 26 37 33 46 33 47 34 48 34 49 44 55
ROOT
ATOM      1  N   UNL     1       1.843   3.073  10.812  1.00  0.00    -0.326 N 
ATOM      2  C   UNL     1      -0.341   3.125   9.934  1.00  0.00     0.014 C 
ATOM      3  C   UNL     1       0.960   2.316   9.921  1.00  0.00     0.091 C 
ATOM      4  C   UNL     1       0.158   4.558  10.049  1.00  0.00     0.041 C 
ATOM      5  C   UNL     1       1.233   4.386  11.137  1.00  0.00     0.175 C 
ATOM      6  C   UNL     1       0.632   0.869  10.284  1.00  0.00     0.059 C 
ATOM      7  C   UNL     1      -1.232   2.739   8.770  1.00  0.00     0.008 C 
ATOM      8  C   UNL     1      -0.768   0.414   9.819  1.00  0.00     0.143 C 
ATOM      9  C   UNL     1      -1.257   1.206   8.590  1.00  0.00     0.034 C 
ENDROOT
BRANCH   1  10
ATOM     10  C   UNL     1       3.158   2.833  11.172  1.00  0.00     0.246 C 
ATOM     11  O   UNL     1       3.396   2.306  12.264  1.00  0.00    -0.272 OA
BRANCH  10  12
ATOM     12  C   UNL     1       4.303   3.190  10.180  1.00  0.00     0.174 C 
BRANCH  12  13
ATOM     13  N   UNL     1       3.993   4.442   9.490  1.00  0.00    -0.342 N 
ATOM     14  C   UNL     1       4.321   5.698   9.947  1.00  0.00     0.249 C 
ATOM     15  O   UNL     1       4.941   5.907  10.982  1.00  0.00    -0.272 OA
ATOM     16  H   UNL     1       3.348   4.437   8.703  1.00  0.00     0.164 HD
BRANCH  14  17
ATOM     17  C   UNL     1       3.840   6.820   9.002  1.00  0.00     0.207 C 
BRANCH  17  18
ATOM     18  C   UNL     1       5.034   7.492   8.317  1.00  0.00     0.077 C 
BRANCH  18  19
ATOM     19  C   UNL     1       5.077   7.186   6.837  1.00  0.00    -0.043 A 
ATOM     20  C   UNL     1       4.487   7.757   4.554  1.00  0.00     0.083 A 
ATOM     21  C   UNL     1       4.489   8.066   5.915  1.00  0.00     0.028 A 
ATOM     22  C   UNL     1       5.070   6.571   4.107  1.00  0.00     0.134 A 
ATOM     23  C   UNL     1       5.657   5.691   5.009  1.00  0.00     0.048 A 
ATOM     24  C   UNL     1       5.658   5.996   6.372  1.00  0.00     0.008 A 
ATOM     25  Cl  UNL     1       3.758   8.850   3.437  1.00  0.00    -0.080 Cl
BRANCH  22  26
ATOM     26  O   UNL     1       5.083   6.220   2.784  1.00  0.00    -0.506 OA
ATOM     27  H   UNL     1       5.980   6.412   2.452  1.00  0.00     0.293 HD
ENDBRANCH  22  26
ENDBRANCH  18  19
ENDBRANCH  17  18
BRANCH  17  28
ATOM     28  O   UNL     1       3.082   7.809   9.717  1.00  0.00    -0.383 OA
ATOM     29  H   UNL     1       3.690   8.179  10.397  1.00  0.00     0.211 HD
ENDBRANCH  17  28
ENDBRANCH  14  17
ENDBRANCH  12  13
BRANCH  12  30
ATOM     30  C   UNL     1       4.625   2.034   9.194  1.00  0.00     0.018 C 
ATOM     31  C   UNL     1       5.254   0.844   9.935  1.00  0.00     0.010 C 
BRANCH  30  32
ATOM     32  C   UNL     1       5.526   2.461   8.010  1.00  0.00     0.002 C 
ATOM     33  C   UNL     1       6.908   2.972   8.394  1.00  0.00     0.004 C 
ENDBRANCH  30  32
ENDBRANCH  12  30
ENDBRANCH  10  12
ENDBRANCH   1  10
BRANCH   5  34
ATOM     34  C   UNL     1       0.610   4.366  12.559  1.00  0.00     0.242 C 
ATOM     35  O   UNL     1       0.634   3.364  13.274  1.00  0.00    -0.273 OA
ATOM     36  N   UNL     1      -0.018   5.531  12.939  1.00  0.00    -0.354 N 
ATOM     37  H   UNL     1      -0.109   6.285  12.258  1.00  0.00     0.163 HD
BRANCH  36  38
ATOM     38  C   UNL     1      -0.460   5.762  14.299  1.00  0.00     0.116 C 
BRANCH  38  39
ATOM     39  C   UNL     1      -1.979   5.920  14.330  1.00  0.00     0.023 C 
BRANCH  39  40
ATOM     40  C   UNL     1      -2.607   5.788  12.947  1.00  0.00     0.026 C 
BRANCH  40  41
ATOM     41  C   UNL     1      -3.499   4.549  12.872  1.00  0.00     0.146 C 
BRANCH  41  42
ATOM     42  N   UNL     1      -2.675   3.348  12.880  1.00  0.00    -0.254 NA
ATOM     43  C   UNL     1      -2.688   2.578  13.903  1.00  0.00     0.185 C 
ATOM     44  N   UNL     1      -3.374   2.682  15.056  1.00  0.00    -0.370 N 
ATOM     45  N   UNL     1      -1.917   1.478  13.892  1.00  0.00    -0.370 N 
ATOM     46  H   UNL     1      -3.105   2.145  15.863  1.00  0.00     0.159 HD
ATOM     47  H   UNL     1      -4.016   3.450  15.226  1.00  0.00     0.159 HD
ATOM     48  H   UNL     1      -1.374   1.319  13.055  1.00  0.00     0.159 HD
ATOM     49  H   UNL     1      -2.047   0.717  14.535  1.00  0.00     0.159 HD
ENDBRANCH  41  42
ENDBRANCH  40  41
ENDBRANCH  39  40
ENDBRANCH  38  39
ENDBRANCH  36  38
ENDBRANCH   5  34
BRANCH   8  50
ATOM     50  O   UNL     1      -1.715   0.584  10.874  1.00  0.00    -0.245 OA
BRANCH  50  51
ATOM     51  S   UNL     1      -2.704  -0.644  11.272  1.00  0.00     0.397 S 
ATOM     52  O   UNL     1      -3.727  -0.126  12.152  1.00  0.00    -0.169 OA
ATOM     53  O   UNL     1      -1.917  -1.807  11.625  1.00  0.00    -0.169 OA
BRANCH  51  54
ATOM     54  O   UNL     1      -3.440  -0.948   9.876  1.00  0.00    -0.264 OA
ATOM     55  H   UNL     1      -4.336  -1.287  10.078  1.00  0.00     0.236 HD
ENDBRANCH  51  54
ENDBRANCH  50  51
ENDBRANCH   8  50
TORSDOF 19
ENDMDL
MODEL 5
REMARK VINA RESULT:    -7.349     10.072     12.774
REMARK INTER + INTRA:         -18.280
REMARK INTER:                 -14.766
REMARK INTRA:                  -3.513
REMARK UNBOUND:                -3.413
REMARK SMILES CC[C@@H](C)[C@@H](NC(=O)[C@@H](O)Cc1ccc(O)c(Cl)c1)C(=O)N1[C@H](C(=O)NCCCCN=C(N)N)C[C@H]2CC[C@H](OS(=O)(=O)O)C[C@@H]21
REMARK SMILES IDX 22 1 36 2 46 3 35 4 23 5 45 6 37 7 39 8 38 9 20 10 21 11
REMARK SMILES IDX 5 12 6 13 7 14 8 15 9 17 11 18 12 19 17 20 19 21 15 22 14 23
REMARK SMILES IDX 13 24 18 25 16 26 10 28 3 30 4 31 2 32 1 33 24 34 25 35
REMARK SMILES IDX 26 36 27 38 28 39 29 40 30 41 31 42 32 43 33 44 34 45 40 50
REMARK SMILES IDX 41 51 42 52 43 53 44 54
REMARK H PARENT 6 16 16 27 10 29 26 37 33 46 33 47 34 48 34 49 44 55
ROOT
ATOM      1  N   UNL     1       1.373   3.258  10.070  1.00  0.00    -0.326 N 
ATOM      2  C   UNL     1      -0.870   2.661   9.680  1.00  0.00     0.014 C 
ATOM      3  C   UNL     1       0.563   2.125   9.614  1.00  0.00     0.091 C 
ATOM      4  C   UNL     1      -0.698   4.125   9.305  1.00  0.00     0.041 C 
ATOM      5  C   UNL     1       0.536   4.480  10.155  1.00  0.00     0.175 C 
ATOM      6  C   UNL     1       0.628   0.821  10.407  1.00  0.00     0.059 C 
ATOM      7  C   UNL     1      -1.812   1.792   8.869  1.00  0.00     0.008 C 
ATOM      8  C   UNL     1      -0.685   0.010  10.378  1.00  0.00     0.143 C 
ATOM      9  C   UNL     1      -1.515   0.297   9.111  1.00  0.00     0.034 C 
ENDROOT
BRANCH   1  10
ATOM     10  C   UNL     1       2.747   3.371  10.203  1.00  0.00     0.246 C 
ATOM     11  O   UNL     1       3.208   4.197  10.997  1.00  0.00    -0.272 OA
BRANCH  10  12
ATOM     12  C   UNL     1       3.676   2.429   9.383  1.00  0.00     0.174 C 
BRANCH  12  13
ATOM     13  N   UNL     1       4.359   1.498  10.280  1.00  0.00    -0.342 N 
ATOM     14  C   UNL     1       4.272   0.125  10.210  1.00  0.00     0.249 C 
ATOM     15  O   UNL     1       3.627  -0.474   9.359  1.00  0.00    -0.272 OA
ATOM     16  H   UNL     1       4.801   1.847  11.127  1.00  0.00     0.164 HD
BRANCH  14  17
ATOM     17  C   UNL     1       5.095  -0.581  11.308  1.00  0.00     0.207 C 
BRANCH  17  18
ATOM     18  C   UNL     1       6.481   0.058  11.433  1.00  0.00     0.077 C 
BRANCH  18  19
ATOM     19  C   UNL     1       7.538  -0.747  10.711  1.00  0.00    -0.043 A 
ATOM     20  C   UNL     1       9.395  -2.307  10.765  1.00  0.00     0.083 A 
ATOM     21  C   UNL     1       8.389  -1.603  11.428  1.00  0.00     0.028 A 
ATOM     22  C   UNL     1       9.559  -2.160   9.388  1.00  0.00     0.134 A 
ATOM     23  C   UNL     1       8.724  -1.315   8.666  1.00  0.00     0.048 A 
ATOM     24  C   UNL     1       7.717  -0.608   9.326  1.00  0.00     0.008 A 
ATOM     25  Cl  UNL     1      10.430  -3.354  11.663  1.00  0.00    -0.080 Cl
BRANCH  22  26
ATOM     26  O   UNL     1      10.538  -2.821   8.696  1.00  0.00    -0.506 OA
ATOM     27  H   UNL     1      10.609  -2.386   7.826  1.00  0.00     0.293 HD
ENDBRANCH  22  26
ENDBRANCH  18  19
ENDBRANCH  17  18
BRANCH  17  28
ATOM     28  O   UNL     1       5.239  -1.982  11.026  1.00  0.00    -0.383 OA
ATOM     29  H   UNL     1       4.574  -2.442  11.586  1.00  0.00     0.211 HD
ENDBRANCH  17  28
ENDBRANCH  14  17
ENDBRANCH  12  13
BRANCH  12  30
ATOM     30  C   UNL     1       4.664   3.206   8.472  1.00  0.00     0.018 C 
ATOM     31  C   UNL     1       3.983   3.627   7.161  1.00  0.00     0.010 C 
BRANCH  30  32
ATOM     32  C   UNL     1       5.970   2.431   8.169  1.00  0.00     0.002 C 
ATOM     33  C   UNL     1       7.244   3.062   8.715  1.00  0.00     0.004 C 
ENDBRANCH  30  32
ENDBRANCH  12  30
ENDBRANCH  10  12
ENDBRANCH   1  10
BRANCH   5  34
ATOM     34  C   UNL     1       0.149   4.782  11.627  1.00  0.00     0.242 C 
ATOM     35  O   UNL     1       0.679   4.207  12.578  1.00  0.00    -0.273 OA
ATOM     36  N   UNL     1      -0.865   5.698  11.790  1.00  0.00    -0.354 N 
ATOM     37  H   UNL     1      -1.347   6.051  10.962  1.00  0.00     0.163 HD
BRANCH  36  38
ATOM     38  C   UNL     1      -1.204   6.255  13.083  1.00  0.00     0.116 C 
BRANCH  38  39
ATOM     39  C   UNL     1      -2.455   5.571  13.631  1.00  0.00     0.023 C 
BRANCH  39  40
ATOM     40  C   UNL     1      -3.092   4.625  12.619  1.00  0.00     0.026 C 
BRANCH  40  41
ATOM     41  C   UNL     1      -3.067   3.186  13.132  1.00  0.00     0.146 C 
BRANCH  41  42
ATOM     42  N   UNL     1      -2.514   3.153  14.480  1.00  0.00    -0.254 NA
ATOM     43  C   UNL     1      -1.435   2.502  14.706  1.00  0.00     0.185 C 
ATOM     44  N   UNL     1      -0.661   1.792  13.865  1.00  0.00    -0.370 N 
ATOM     45  N   UNL     1      -0.944   2.481  15.956  1.00  0.00    -0.370 N 
ATOM     46  H   UNL     1       0.014   1.136  14.220  1.00  0.00     0.159 HD
ATOM     47  H   UNL     1      -0.879   1.714  12.877  1.00  0.00     0.159 HD
ATOM     48  H   UNL     1      -1.463   3.000  16.650  1.00  0.00     0.159 HD
ATOM     49  H   UNL     1      -0.001   2.203  16.165  1.00  0.00     0.159 HD
ENDBRANCH  41  42
ENDBRANCH  40  41
ENDBRANCH  39  40
ENDBRANCH  38  39
ENDBRANCH  36  38
ENDBRANCH   5  34
BRANCH   8  50
ATOM     50  O   UNL     1      -1.481   0.324  11.522  1.00  0.00    -0.245 OA
BRANCH  50  51
ATOM     51  S   UNL     1      -2.522  -0.782  12.103  1.00  0.00     0.397 S 
ATOM     52  O   UNL     1      -2.276  -2.031  11.418  1.00  0.00    -0.169 OA
ATOM     53  O   UNL     1      -3.849  -0.207  12.180  1.00  0.00    -0.169 OA
BRANCH  51  54
ATOM     54  O   UNL     1      -1.985  -0.992  13.604  1.00  0.00    -0.264 OA
ATOM     55  H   UNL     1      -1.084  -1.370  13.548  1.00  0.00     0.236 HD
ENDBRANCH  51  54
ENDBRANCH  50  51
ENDBRANCH   8  50
TORSDOF 19
ENDMDL
MODEL 6
REMARK VINA RESULT:    -7.230      1.647      2.269
REMARK INTER + INTRA:         -18.039
REMARK INTER:                 -14.734
REMARK INTRA:                  -3.305
REMARK UNBOUND:                -3.413
REMARK SMILES CC[C@@H](C)[C@@H](NC(=O)[C@@H](O)Cc1ccc(O)c(Cl)c1)C(=O)N1[C@H](C(=O)NCCCCN=C(N)N)C[C@H]2CC[C@H](OS(=O)(=O)O)C[C@@H]21
REMARK SMILES IDX 22 1 36 2 46 3 35 4 23 5 45 6 37 7 39 8 38 9 20 10 21 11
REMARK SMILES IDX 5 12 6 13 7 14 8 15 9 17 11 18 12 19 17 20 19 21 15 22 14 23
REMARK SMILES IDX 13 24 18 25 16 26 10 28 3 30 4 31 2 32 1 33 24 34 25 35
REMARK SMILES IDX 26 36 27 38 28 39 29 40 30 41 31 42 32 43 33 44 34 45 40 50
REMARK SMILES IDX 41 51 42 52 43 53 44 54
REMARK H PARENT 6 16 16 27 10 29 26 37 33 46 33 47 34 48 34 49 44 55
ROOT
ATOM      1  N   UNL     1       2.330   9.576   3.569  1.00  0.00    -0.326 N 
ATOM      2  C   UNL     1      -0.001   9.246   3.552  1.00  0.00     0.014 C 
ATOM      3  C   UNL     1       1.142   9.822   4.392  1.00  0.00     0.091 C 
ATOM      4  C   UNL     1       0.651   8.051   2.873  1.00  0.00     0.041 C 
ATOM      5  C   UNL     1       1.986   8.682   2.436  1.00  0.00     0.175 C 
ATOM      6  C   UNL     1       0.797  11.265   4.753  1.00  0.00     0.059 C 
ATOM      7  C   UNL     1      -1.242   9.035   4.396  1.00  0.00     0.008 C 
ATOM      8  C   UNL     1      -0.717  11.519   4.919  1.00  0.00     0.143 C 
ATOM      9  C   UNL     1      -1.478  10.242   5.329  1.00  0.00     0.034 C 
ENDROOT
BRANCH   1  10
ATOM     10  C   UNL     1       3.660   9.864   3.822  1.00  0.00     0.246 C 
ATOM     11  O   UNL     1       3.954  10.502   4.839  1.00  0.00    -0.272 OA
BRANCH  10  12
ATOM     12  C   UNL     1       4.756   9.344   2.848  1.00  0.00     0.174 C 
BRANCH  12  13
ATOM     13  N   UNL     1       5.585   8.342   3.518  1.00  0.00    -0.342 N 
ATOM     14  C   UNL     1       5.335   6.988   3.528  1.00  0.00     0.249 C 
ATOM     15  O   UNL     1       4.393   6.464   2.946  1.00  0.00    -0.272 OA
ATOM     16  H   UNL     1       6.307   8.640   4.169  1.00  0.00     0.164 HD
BRANCH  14  17
ATOM     17  C   UNL     1       6.383   6.195   4.337  1.00  0.00     0.207 C 
BRANCH  17  18
ATOM     18  C   UNL     1       6.216   6.462   5.837  1.00  0.00     0.077 C 
BRANCH  18  19
ATOM     19  C   UNL     1       5.976   5.186   6.612  1.00  0.00    -0.043 A 
ATOM     20  C   UNL     1       4.458   3.494   7.459  1.00  0.00     0.083 A 
ATOM     21  C   UNL     1       4.684   4.644   6.702  1.00  0.00     0.028 A 
ATOM     22  C   UNL     1       5.517   2.880   8.129  1.00  0.00     0.134 A 
ATOM     23  C   UNL     1       6.801   3.406   8.048  1.00  0.00     0.048 A 
ATOM     24  C   UNL     1       7.030   4.558   7.293  1.00  0.00     0.008 A 
ATOM     25  Cl  UNL     1       2.864   2.844   7.558  1.00  0.00    -0.080 Cl
BRANCH  22  26
ATOM     26  O   UNL     1       5.342   1.757   8.892  1.00  0.00    -0.506 OA
ATOM     27  H   UNL     1       4.717   1.185   8.409  1.00  0.00     0.293 HD
ENDBRANCH  22  26
ENDBRANCH  18  19
ENDBRANCH  17  18
BRANCH  17  28
ATOM     28  O   UNL     1       7.718   6.544   3.937  1.00  0.00    -0.383 OA
ATOM     29  H   UNL     1       8.037   5.799   3.378  1.00  0.00     0.211 HD
ENDBRANCH  17  28
ENDBRANCH  14  17
ENDBRANCH  12  13
BRANCH  12  30
ATOM     30  C   UNL     1       5.599  10.490   2.226  1.00  0.00     0.018 C 
ATOM     31  C   UNL     1       4.693  11.624   1.722  1.00  0.00     0.010 C 
BRANCH  30  32
ATOM     32  C   UNL     1       6.545  10.021   1.093  1.00  0.00     0.002 C 
ATOM     33  C   UNL     1       8.011  10.393   1.273  1.00  0.00     0.004 C 
ENDBRANCH  30  32
ENDBRANCH  12  30
ENDBRANCH  10  12
ENDBRANCH   1  10
BRANCH   5  34
ATOM     34  C   UNL     1       1.833   9.493   1.122  1.00  0.00     0.242 C 
ATOM     35  O   UNL     1       1.825  10.724   1.105  1.00  0.00    -0.273 OA
ATOM     36  N   UNL     1       1.653   8.737  -0.015  1.00  0.00    -0.354 N 
ATOM     37  H   UNL     1       1.549   7.726   0.078  1.00  0.00     0.163 HD
BRANCH  36  38
ATOM     38  C   UNL     1       1.709   9.313  -1.343  1.00  0.00     0.116 C 
BRANCH  38  39
ATOM     39  C   UNL     1       0.520   8.828  -2.169  1.00  0.00     0.023 C 
BRANCH  39  40
ATOM     40  C   UNL     1      -0.314   9.979  -2.721  1.00  0.00     0.026 C 
BRANCH  40  41
ATOM     41  C   UNL     1      -0.044  11.267  -1.942  1.00  0.00     0.146 C 
BRANCH  41  42
ATOM     42  N   UNL     1      -1.302  11.947  -1.664  1.00  0.00    -0.254 NA
ATOM     43  C   UNL     1      -1.750  11.984  -0.465  1.00  0.00     0.185 C 
ATOM     44  N   UNL     1      -1.234  11.473   0.668  1.00  0.00    -0.370 N 
ATOM     45  N   UNL     1      -2.913  12.612  -0.230  1.00  0.00    -0.370 N 
ATOM     46  H   UNL     1      -1.805  11.364   1.488  1.00  0.00     0.159 HD
ATOM     47  H   UNL     1      -0.348  10.977   0.674  1.00  0.00     0.159 HD
ATOM     48  H   UNL     1      -3.365  13.033  -1.031  1.00  0.00     0.159 HD
ATOM     49  H   UNL     1      -3.207  12.888   0.690  1.00  0.00     0.159 HD
ENDBRANCH  41  42
ENDBRANCH  40  41
ENDBRANCH  39  40
ENDBRANCH  38  39
ENDBRANCH  36  38
ENDBRANCH   5  34
BRANCH   8  50
ATOM     50  O   UNL     1      -1.270  12.002   3.694  1.00  0.00    -0.245 OA
BRANCH  50  51
ATOM     51  S   UNL     1      -2.172  13.356   3.699  1.00  0.00     0.397 S 
ATOM     52  O   UNL     1      -2.020  13.998   2.413  1.00  0.00    -0.169 OA
ATOM     53  O   UNL     1      -1.962  14.076   4.937  1.00  0.00    -0.169 OA
BRANCH  51  54
ATOM     54  O   UNL     1      -3.667  12.762   3.717  1.00  0.00    -0.264 OA
ATOM     55  H   UNL     1      -3.685  11.980   3.129  1.00  0.00     0.236 HD
ENDBRANCH  51  54
ENDBRANCH  50  51
ENDBRANCH   8  50
TORSDOF 19
ENDMDL
MODEL 7
REMARK VINA RESULT:    -7.039      7.482     12.182
REMARK INTER + INTRA:         -17.652
REMARK INTER:                 -13.979
REMARK INTRA:                  -3.673
REMARK UNBOUND:                -3.413
REMARK SMILES CC[C@@H](C)[C@@H](NC(=O)[C@@H](O)Cc1ccc(O)c(Cl)c1)C(=O)N1[C@H](C(=O)NCCCCN=C(N)N)C[C@H]2CC[C@H](OS(=O)(=O)O)C[C@@H]21
REMARK SMILES IDX 22 1 36 2 46 3 35 4 23 5 45 6 37 7 39 8 38 9 20 10 21 11
REMARK SMILES IDX 5 12 6 13 7 14 8 15 9 17 11 18 12 19 17 20 19 21 15 22 14 23
REMARK SMILES IDX 13 24 18 25 16 26 10 28 3 30 4 31 2 32 1 33 24 34 25 35
REMARK SMILES IDX 26 36 27 38 28 39 29 40 30 41 31 42 32 43 33 44 34 45 40 50
REMARK SMILES IDX 41 51 42 52 43 53 44 54
REMARK H PARENT 6 16 16 27 10 29 26 37 33 46 33 47 34 48 34 49 44 55
ROOT
ATOM      1  N   UNL     1       2.082   2.993   9.343  1.00  0.00    -0.326 N 
ATOM      2  C   UNL     1       3.816   3.117  10.930  1.00  0.00     0.014 C 
ATOM      3  C   UNL     1       2.878   2.134  10.224  1.00  0.00     0.091 C 
ATOM      4  C   UNL     1       2.951   4.359  11.076  1.00  0.00     0.041 C 
ATOM      5  C   UNL     1       2.321   4.419   9.672  1.00  0.00     0.175 C 
ATOM      6  C   UNL     1       3.723   1.030   9.591  1.00  0.00     0.059 C 
ATOM      7  C   UNL     1       4.430   2.489  12.165  1.00  0.00     0.008 C 
ATOM      8  C   UNL     1       5.013   0.707  10.375  1.00  0.00     0.143 C 
ATOM      9  C   UNL     1       4.878   1.041  11.875  1.00  0.00     0.034 C 
ENDROOT
BRANCH   1  10
ATOM     10  C   UNL     1       1.056   2.663   8.473  1.00  0.00     0.246 C 
ATOM     11  O   UNL     1       1.324   2.426   7.290  1.00  0.00    -0.272 OA
BRANCH  10  12
ATOM     12  C   UNL     1      -0.401   2.559   9.010  1.00  0.00     0.174 C 
BRANCH  12  13
ATOM     13  N   UNL     1      -0.651   3.620   9.984  1.00  0.00    -0.342 N 
ATOM     14  C   UNL     1      -1.461   4.713   9.772  1.00  0.00     0.249 C 
ATOM     15  O   UNL     1      -2.092   4.904   8.740  1.00  0.00    -0.272 OA
ATOM     16  H   UNL     1      -0.078   3.679  10.822  1.00  0.00     0.164 HD
BRANCH  14  17
ATOM     17  C   UNL     1      -1.508   5.665  10.986  1.00  0.00     0.207 C 
BRANCH  17  18
ATOM     18  C   UNL     1      -2.541   5.179  12.008  1.00  0.00     0.077 C 
BRANCH  18  19
ATOM     19  C   UNL     1      -1.911   4.312  13.075  1.00  0.00    -0.043 A 
ATOM     20  C   UNL     1       0.047   3.581  14.306  1.00  0.00     0.083 A 
ATOM     21  C   UNL     1      -0.540   4.417  13.355  1.00  0.00     0.028 A 
ATOM     22  C   UNL     1      -0.728   2.636  14.979  1.00  0.00     0.134 A 
ATOM     23  C   UNL     1      -2.087   2.522  14.711  1.00  0.00     0.048 A 
ATOM     24  C   UNL     1      -2.678   3.356  13.759  1.00  0.00     0.008 A 
ATOM     25  Cl  UNL     1       1.734   3.725  14.636  1.00  0.00    -0.080 Cl
BRANCH  22  26
ATOM     26  O   UNL     1      -0.195   1.788  15.911  1.00  0.00    -0.506 OA
ATOM     27  H   UNL     1      -0.351   0.881  15.586  1.00  0.00     0.293 HD
ENDBRANCH  22  26
ENDBRANCH  18  19
ENDBRANCH  17  18
BRANCH  17  28
ATOM     28  O   UNL     1      -1.831   7.005  10.581  1.00  0.00    -0.383 OA
ATOM     29  H   UNL     1      -2.262   7.427  11.359  1.00  0.00     0.211 HD
ENDBRANCH  17  28
ENDBRANCH  14  17
ENDBRANCH  12  13
BRANCH  12  30
ATOM     30  C   UNL     1      -0.734   1.150   9.570  1.00  0.00     0.018 C 
ATOM     31  C   UNL     1      -1.859   0.490   8.757  1.00  0.00     0.010 C 
BRANCH  30  32
ATOM     32  C   UNL     1      -1.095   1.149  11.076  1.00  0.00     0.002 C 
ATOM     33  C   UNL     1      -0.014   0.609  12.004  1.00  0.00     0.004 C 
ENDBRANCH  30  32
ENDBRANCH  12  30
ENDBRANCH  10  12
ENDBRANCH   1  10
BRANCH   5  34
ATOM     34  C   UNL     1       3.282   5.069   8.641  1.00  0.00     0.242 C 
ATOM     35  O   UNL     1       3.594   6.258   8.691  1.00  0.00    -0.273 OA
ATOM     36  N   UNL     1       3.716   4.232   7.637  1.00  0.00    -0.354 N 
ATOM     37  H   UNL     1       3.328   3.289   7.581  1.00  0.00     0.163 HD
BRANCH  36  38
ATOM     38  C   UNL     1       4.776   4.605   6.723  1.00  0.00     0.116 C 
BRANCH  38  39
ATOM     39  C   UNL     1       6.120   4.122   7.263  1.00  0.00     0.023 C 
BRANCH  39  40
ATOM     40  C   UNL     1       7.284   4.979   6.778  1.00  0.00     0.026 C 
BRANCH  40  41
ATOM     41  C   UNL     1       7.092   5.378   5.315  1.00  0.00     0.146 C 
BRANCH  41  42
ATOM     42  N   UNL     1       6.920   6.821   5.217  1.00  0.00    -0.254 NA
ATOM     43  C   UNL     1       6.301   7.318   4.213  1.00  0.00     0.185 C 
ATOM     44  N   UNL     1       5.738   6.707   3.154  1.00  0.00    -0.370 N 
ATOM     45  N   UNL     1       6.157   8.651   4.138  1.00  0.00    -0.370 N 
ATOM     46  H   UNL     1       5.504   7.228   2.326  1.00  0.00     0.159 HD
ATOM     47  H   UNL     1       5.744   5.696   3.057  1.00  0.00     0.159 HD
ATOM     48  H   UNL     1       6.546   9.188   4.902  1.00  0.00     0.159 HD
ATOM     49  H   UNL     1       5.495   9.094   3.526  1.00  0.00     0.159 HD
ENDBRANCH  41  42
ENDBRANCH  40  41
ENDBRANCH  39  40
ENDBRANCH  38  39
ENDBRANCH  36  38
ENDBRANCH   5  34
BRANCH   8  50
ATOM     50  O   UNL     1       6.110   1.449   9.842  1.00  0.00    -0.245 OA
BRANCH  50  51
ATOM     51  S   UNL     1       7.531   0.703   9.579  1.00  0.00     0.397 S 
ATOM     52  O   UNL     1       7.319  -0.324   8.585  1.00  0.00    -0.169 OA
ATOM     53  O   UNL     1       8.170   0.413  10.846  1.00  0.00    -0.169 OA
BRANCH  51  54
ATOM     54  O   UNL     1       8.383   1.853   8.846  1.00  0.00    -0.264 OA
ATOM     55  H   UNL     1       8.032   2.718   9.141  1.00  0.00     0.236 HD
ENDBRANCH  51  54
ENDBRANCH  50  51
ENDBRANCH   8  50
TORSDOF 19
ENDMDL
MODEL 8
REMARK VINA RESULT:    -6.893      1.974      2.306
REMARK INTER + INTRA:         -17.357
REMARK INTER:                 -14.156
REMARK INTRA:                  -3.201
REMARK UNBOUND:                -3.413
REMARK SMILES CC[C@@H](C)[C@@H](NC(=O)[C@@H](O)Cc1ccc(O)c(Cl)c1)C(=O)N1[C@H](C(=O)NCCCCN=C(N)N)C[C@H]2CC[C@H](OS(=O)(=O)O)C[C@@H]21
REMARK SMILES IDX 22 1 36 2 46 3 35 4 23 5 45 6 37 7 39 8 38 9 20 10 21 11
REMARK SMILES IDX 5 12 6 13 7 14 8 15 9 17 11 18 12 19 17 20 19 21 15 22 14 23
REMARK SMILES IDX 13 24 18 25 16 26 10 28 3 30 4 31 2 32 1 33 24 34 25 35
REMARK SMILES IDX 26 36 27 38 28 39 29 40 30 41 31 42 32 43 33 44 34 45 40 50
REMARK SMILES IDX 41 51 42 52 43 53 44 54
REMARK H PARENT 6 16 16 27 10 29 26 37 33 46 33 47 34 48 34 49 44 55
ROOT
ATOM      1  N   UNL     1       1.521   9.893   1.476  1.00  0.00    -0.326 N 
ATOM      2  C   UNL     1      -0.442   9.075   2.486  1.00  0.00     0.014 C 
ATOM      3  C   UNL     1       0.622  10.171   2.600  1.00  0.00     0.091 C 
ATOM      4  C   UNL     1       0.356   7.887   1.971  1.00  0.00     0.041 C 
ATOM      5  C   UNL     1       1.195   8.575   0.878  1.00  0.00     0.175 C 
ATOM      6  C   UNL     1      -0.084  11.525   2.645  1.00  0.00     0.059 C 
ATOM      7  C   UNL     1      -1.223   8.941   3.778  1.00  0.00     0.008 C 
ATOM      8  C   UNL     1      -1.471  11.481   3.322  1.00  0.00     0.143 C 
ATOM      9  C   UNL     1      -1.580  10.332   4.345  1.00  0.00     0.034 C 
ENDROOT
BRANCH   1  10
ATOM     10  C   UNL     1       2.678  10.544   1.084  1.00  0.00     0.246 C 
ATOM     11  O   UNL     1       2.702  11.123  -0.007  1.00  0.00    -0.272 OA
BRANCH  10  12
ATOM     12  C   UNL     1       3.906  10.570   2.040  1.00  0.00     0.174 C 
BRANCH  12  13
ATOM     13  N   UNL     1       4.007   9.299   2.756  1.00  0.00    -0.342 N 
ATOM     14  C   UNL     1       5.176   8.604   2.974  1.00  0.00     0.249 C 
ATOM     15  O   UNL     1       6.278   8.994   2.610  1.00  0.00    -0.272 OA
ATOM     16  H   UNL     1       3.162   8.777   2.978  1.00  0.00     0.164 HD
BRANCH  14  17
ATOM     17  C   UNL     1       4.951   7.287   3.746  1.00  0.00     0.207 C 
BRANCH  17  18
ATOM     18  C   UNL     1       5.928   7.183   4.922  1.00  0.00     0.077 C 
BRANCH  18  19
ATOM     19  C   UNL     1       5.227   7.354   6.251  1.00  0.00    -0.043 A 
ATOM     20  C   UNL     1       4.036   6.403   8.138  1.00  0.00     0.083 A 
ATOM     21  C   UNL     1       4.725   6.237   6.937  1.00  0.00     0.028 A 
ATOM     22  C   UNL     1       3.843   7.682   8.661  1.00  0.00     0.134 A 
ATOM     23  C   UNL     1       4.335   8.798   7.993  1.00  0.00     0.048 A 
ATOM     24  C   UNL     1       5.024   8.634   6.789  1.00  0.00     0.008 A 
ATOM     25  Cl  UNL     1       3.426   5.018   8.966  1.00  0.00    -0.080 Cl
BRANCH  22  26
ATOM     26  O   UNL     1       3.164   7.896   9.830  1.00  0.00    -0.506 OA
ATOM     27  H   UNL     1       3.474   7.220  10.462  1.00  0.00     0.293 HD
ENDBRANCH  22  26
ENDBRANCH  18  19
ENDBRANCH  17  18
BRANCH  17  28
ATOM     28  O   UNL     1       5.117   6.148   2.886  1.00  0.00    -0.383 OA
ATOM     29  H   UNL     1       5.845   5.614   3.280  1.00  0.00     0.211 HD
ENDBRANCH  17  28
ENDBRANCH  14  17
ENDBRANCH  12  13
BRANCH  12  30
ATOM     30  C   UNL     1       3.895  11.791   2.999  1.00  0.00     0.018 C 
ATOM     31  C   UNL     1       5.224  12.558   2.922  1.00  0.00     0.010 C 
BRANCH  30  32
ATOM     32  C   UNL     1       3.576  11.424   4.469  1.00  0.00     0.002 C 
ATOM     33  C   UNL     1       4.448  12.107   5.514  1.00  0.00     0.004 C 
ENDBRANCH  30  32
ENDBRANCH  12  30
ENDBRANCH  10  12
ENDBRANCH   1  10
BRANCH   5  34
ATOM     34  C   UNL     1       0.388   8.752  -0.436  1.00  0.00     0.242 C 
ATOM     35  O   UNL     1      -0.789   8.408  -0.537  1.00  0.00    -0.273 OA
ATOM     36  N   UNL     1       1.100   9.271  -1.495  1.00  0.00    -0.354 N 
ATOM     37  H   UNL     1       2.103   9.424  -1.384  1.00  0.00     0.163 HD
BRANCH  36  38
ATOM     38  C   UNL     1       0.459   9.701  -2.720  1.00  0.00     0.116 C 
BRANCH  38  39
ATOM     39  C   UNL     1       1.196   9.116  -3.923  1.00  0.00     0.023 C 
BRANCH  39  40
ATOM     40  C   UNL     1       1.457  10.155  -5.008  1.00  0.00     0.026 C 
BRANCH  40  41
ATOM     41  C   UNL     1       2.773  10.889  -4.750  1.00  0.00     0.146 C 
BRANCH  41  42
ATOM     42  N   UNL     1       2.561  12.328  -4.838  1.00  0.00    -0.254 NA
ATOM     43  C   UNL     1       2.486  13.024  -3.766  1.00  0.00     0.185 C 
ATOM     44  N   UNL     1       2.576  12.643  -2.479  1.00  0.00    -0.370 N 
ATOM     45  N   UNL     1       2.285  14.348  -3.869  1.00  0.00    -0.370 N 
ATOM     46  H   UNL     1       2.258  13.248  -1.742  1.00  0.00     0.159 HD
ATOM     47  H   UNL     1       2.742  11.675  -2.220  1.00  0.00     0.159 HD
ATOM     48  H   UNL     1       2.215  14.719  -4.807  1.00  0.00     0.159 HD
ATOM     49  H   UNL     1       2.451  14.984  -3.110  1.00  0.00     0.159 HD
ENDBRANCH  41  42
ENDBRANCH  40  41
ENDBRANCH  39  40
ENDBRANCH  38  39
ENDBRANCH  36  38
ENDBRANCH   5  34
BRANCH   8  50
ATOM     50  O   UNL     1      -2.492  11.312   2.339  1.00  0.00    -0.245 OA
BRANCH  50  51
ATOM     51  S   UNL     1      -3.536  12.524   2.048  1.00  0.00     0.397 S 
ATOM     52  O   UNL     1      -3.184  13.123   0.780  1.00  0.00    -0.169 OA
ATOM     53  O   UNL     1      -3.700  13.322   3.245  1.00  0.00    -0.169 OA
BRANCH  51  54
ATOM     54  O   UNL     1      -4.910  11.729   1.790  1.00  0.00    -0.264 OA
ATOM     55  H   UNL     1      -5.411  12.214   1.103  1.00  0.00     0.236 HD
ENDBRANCH  51  54
ENDBRANCH  50  51
ENDBRANCH   8  50
TORSDOF 19
ENDMDL
MODEL 9
REMARK VINA RESULT:    -6.819      8.160     12.777
REMARK INTER + INTRA:         -17.208
REMARK INTER:                 -14.374
REMARK INTRA:                  -2.834
REMARK UNBOUND:                -3.413
REMARK SMILES CC[C@@H](C)[C@@H](NC(=O)[C@@H](O)Cc1ccc(O)c(Cl)c1)C(=O)N1[C@H](C(=O)NCCCCN=C(N)N)C[C@H]2CC[C@H](OS(=O)(=O)O)C[C@@H]21
REMARK SMILES IDX 22 1 36 2 46 3 35 4 23 5 45 6 37 7 39 8 38 9 20 10 21 11
REMARK SMILES IDX 5 12 6 13 7 14 8 15 9 17 11 18 12 19 17 20 19 21 15 22 14 23
REMARK SMILES IDX 13 24 18 25 16 26 10 28 3 30 4 31 2 32 1 33 24 34 25 35
REMARK SMILES IDX 26 36 27 38 28 39 29 40 30 41 31 42 32 43 33 44 34 45 40 50
REMARK SMILES IDX 41 51 42 52 43 53 44 54
REMARK H PARENT 6 16 16 27 10 29 26 37 33 46 33 47 34 48 34 49 44 55
ROOT
ATOM      1  N   UNL     1       3.150   2.788  10.252  1.00  0.00    -0.326 N 
ATOM      2  C   UNL     1       5.039   2.258  11.553  1.00  0.00     0.014 C 
ATOM      3  C   UNL     1       3.856   1.631  10.810  1.00  0.00     0.091 C 
ATOM      4  C   UNL     1       4.453   3.560  12.078  1.00  0.00     0.041 C 
ATOM      5  C   UNL     1       3.696   4.042  10.826  1.00  0.00     0.175 C 
ATOM      6  C   UNL     1       4.396   0.576   9.846  1.00  0.00     0.059 C 
ATOM      7  C   UNL     1       5.651   1.273  12.529  1.00  0.00     0.008 C 
ATOM      8  C   UNL     1       5.676  -0.126  10.346  1.00  0.00     0.143 C 
ATOM      9  C   UNL     1       5.774  -0.125  11.885  1.00  0.00     0.034 C 
ENDROOT
BRANCH   1  10
ATOM     10  C   UNL     1       1.991   2.840   9.497  1.00  0.00     0.246 C 
ATOM     11  O   UNL     1       2.004   2.396   8.343  1.00  0.00    -0.272 OA
BRANCH  10  12
ATOM     12  C   UNL     1       0.690   3.415  10.128  1.00  0.00     0.174 C 
BRANCH  12  13
ATOM     13  N   UNL     1       0.473   2.825  11.448  1.00  0.00    -0.342 N 
ATOM     14  C   UNL     1       0.228   3.537  12.601  1.00  0.00     0.249 C 
ATOM     15  O   UNL     1       0.134   4.758  12.642  1.00  0.00    -0.272 OA
ATOM     16  H   UNL     1       0.675   1.840  11.599  1.00  0.00     0.164 HD
BRANCH  14  17
ATOM     17  C   UNL     1       0.060   2.629  13.838  1.00  0.00     0.207 C 
BRANCH  17  18
ATOM     18  C   UNL     1      -1.423   2.358  14.107  1.00  0.00     0.077 C 
BRANCH  18  19
ATOM     19  C   UNL     1      -1.974   1.288  13.191  1.00  0.00    -0.043 A 
ATOM     20  C   UNL     1      -1.736  -0.855  12.079  1.00  0.00     0.083 A 
ATOM     21  C   UNL     1      -1.248   0.108  12.963  1.00  0.00     0.028 A 
ATOM     22  C   UNL     1      -2.947  -0.646  11.418  1.00  0.00     0.134 A 
ATOM     23  C   UNL     1      -3.676   0.517  11.634  1.00  0.00     0.048 A 
ATOM     24  C   UNL     1      -3.189   1.484  12.517  1.00  0.00     0.008 A 
ATOM     25  Cl  UNL     1      -0.830  -2.298  11.812  1.00  0.00    -0.080 Cl
BRANCH  22  26
ATOM     26  O   UNL     1      -3.460  -1.557  10.534  1.00  0.00    -0.506 OA
ATOM     27  H   UNL     1      -2.773  -2.237  10.402  1.00  0.00     0.293 HD
ENDBRANCH  22  26
ENDBRANCH  18  19
ENDBRANCH  17  18
BRANCH  17  28
ATOM     28  O   UNL     1       0.654   3.226  15.002  1.00  0.00    -0.383 OA
ATOM     29  H   UNL     1       0.223   2.799  15.777  1.00  0.00     0.211 HD
ENDBRANCH  17  28
ENDBRANCH  14  17
ENDBRANCH  12  13
BRANCH  12  30
ATOM     30  C   UNL     1      -0.546   3.260   9.200  1.00  0.00     0.018 C 
ATOM     31  C   UNL     1      -1.450   4.500   9.283  1.00  0.00     0.010 C 
BRANCH  30  32
ATOM     32  C   UNL     1      -1.372   1.979   9.475  1.00  0.00     0.002 C 
ATOM     33  C   UNL     1      -1.298   0.912   8.391  1.00  0.00     0.004 C 
ENDBRANCH  30  32
ENDBRANCH  12  30
ENDBRANCH  10  12
ENDBRANCH   1  10
BRANCH   5  34
ATOM     34  C   UNL     1       4.646   4.741   9.817  1.00  0.00     0.242 C 
ATOM     35  O   UNL     1       5.867   4.770   9.974  1.00  0.00    -0.273 OA
ATOM     36  N   UNL     1       4.022   5.371   8.764  1.00  0.00    -0.354 N 
ATOM     37  H   UNL     1       3.002   5.415   8.753  1.00  0.00     0.163 HD
BRANCH  36  38
ATOM     38  C   UNL     1       4.754   5.883   7.624  1.00  0.00     0.116 C 
BRANCH  38  39
ATOM     39  C   UNL     1       4.937   4.777   6.587  1.00  0.00     0.023 C 
BRANCH  39  40
ATOM     40  C   UNL     1       5.707   5.252   5.359  1.00  0.00     0.026 C 
BRANCH  40  41
ATOM     41  C   UNL     1       5.920   6.765   5.405  1.00  0.00     0.146 C 
BRANCH  41  42
ATOM     42  N   UNL     1       7.204   7.099   4.801  1.00  0.00    -0.254 NA
ATOM     43  C   UNL     1       7.240   7.566   3.610  1.00  0.00     0.185 C 
ATOM     44  N   UNL     1       6.238   7.823   2.750  1.00  0.00    -0.370 N 
ATOM     45  N   UNL     1       8.434   7.864   3.070  1.00  0.00    -0.370 N 
ATOM     46  H   UNL     1       6.424   7.953   1.770  1.00  0.00     0.159 HD
ATOM     47  H   UNL     1       5.267   7.668   3.001  1.00  0.00     0.159 HD
ATOM     48  H   UNL     1       9.243   7.707   3.656  1.00  0.00     0.159 HD
ATOM     49  H   UNL     1       8.533   8.443   2.255  1.00  0.00     0.159 HD
ENDBRANCH  41  42
ENDBRANCH  40  41
ENDBRANCH  39  40
ENDBRANCH  38  39
ENDBRANCH  36  38
ENDBRANCH   5  34
BRANCH   8  50
ATOM     50  O   UNL     1       6.832   0.525   9.818  1.00  0.00    -0.245 OA
BRANCH  50  51
ATOM     51  S   UNL     1       8.060  -0.367   9.234  1.00  0.00     0.397 S 
ATOM     52  O   UNL     1       7.625  -0.969   7.994  1.00  0.00    -0.169 OA
ATOM     53  O   UNL     1       8.637  -1.158  10.301  1.00  0.00    -0.169 OA
BRANCH  51  54
ATOM     54  O   UNL     1       9.128   0.762   8.822  1.00  0.00    -0.264 OA
ATOM     55  H   UNL     1       8.898   1.582   9.305  1.00  0.00     0.236 HD
ENDBRANCH  51  54
ENDBRANCH  50  51
ENDBRANCH   8  50
TORSDOF 19
ENDMDL
MODEL 10
REMARK VINA RESULT:    -6.787      7.888     12.017
REMARK INTER + INTRA:         -17.144
REMARK INTER:                 -13.497
REMARK INTRA:                  -3.647
REMARK UNBOUND:                -3.413
REMARK SMILES CC[C@@H](C)[C@@H](NC(=O)[C@@H](O)Cc1ccc(O)c(Cl)c1)C(=O)N1[C@H](C(=O)NCCCCN=C(N)N)C[C@H]2CC[C@H](OS(=O)(=O)O)C[C@@H]21
REMARK SMILES IDX 22 1 36 2 46 3 35 4 23 5 45 6 37 7 39 8 38 9 20 10 21 11
REMARK SMILES IDX 5 12 6 13 7 14 8 15 9 17 11 18 12 19 17 20 19 21 15 22 14 23
REMARK SMILES IDX 13 24 18 25 16 26 10 28 3 30 4 31 2 32 1 33 24 34 25 35
REMARK SMILES IDX 26 36 27 38 28 39 29 40 30 41 31 42 32 43 33 44 34 45 40 50
REMARK SMILES IDX 41 51 42 52 43 53 44 54
REMARK H PARENT 6 16 16 27 10 29 26 37 33 46 33 47 34 48 34 49 44 55
ROOT
ATOM      1  N   UNL     1       0.910   3.012   8.933  1.00  0.00    -0.326 N 
ATOM      2  C   UNL     1      -1.354   2.538   9.370  1.00  0.00     0.014 C 
ATOM      3  C   UNL     1      -0.056   1.912   8.853  1.00  0.00     0.091 C 
ATOM      4  C   UNL     1      -1.259   3.970   8.867  1.00  0.00     0.041 C 
ATOM      5  C   UNL     1       0.206   4.286   9.220  1.00  0.00     0.175 C 
ATOM      6  C   UNL     1       0.223   0.643   9.657  1.00  0.00     0.059 C 
ATOM      7  C   UNL     1      -2.553   1.693   8.986  1.00  0.00     0.008 C 
ATOM      8  C   UNL     1      -1.054  -0.086  10.130  1.00  0.00     0.143 C 
ATOM      9  C   UNL     1      -2.256   0.195   9.206  1.00  0.00     0.034 C 
ENDROOT
BRANCH   1  10
ATOM     10  C   UNL     1       2.249   3.045   8.581  1.00  0.00     0.246 C 
ATOM     11  O   UNL     1       2.590   2.617   7.473  1.00  0.00    -0.272 OA
BRANCH  10  12
ATOM     12  C   UNL     1       3.286   3.658   9.566  1.00  0.00     0.174 C 
BRANCH  12  13
ATOM     13  N   UNL     1       3.987   4.769   8.925  1.00  0.00    -0.342 N 
ATOM     14  C   UNL     1       3.915   6.085   9.324  1.00  0.00     0.249 C 
ATOM     15  O   UNL     1       3.269   6.470  10.290  1.00  0.00    -0.272 OA
ATOM     16  H   UNL     1       4.434   4.628   8.022  1.00  0.00     0.164 HD
BRANCH  14  17
ATOM     17  C   UNL     1       4.756   7.024   8.433  1.00  0.00     0.207 C 
BRANCH  17  18
ATOM     18  C   UNL     1       5.904   6.252   7.775  1.00  0.00     0.077 C 
BRANCH  18  19
ATOM     19  C   UNL     1       6.121   6.681   6.341  1.00  0.00    -0.043 A 
ATOM     20  C   UNL     1       7.253   8.077   4.712  1.00  0.00     0.083 A 
ATOM     21  C   UNL     1       7.090   7.648   6.030  1.00  0.00     0.028 A 
ATOM     22  C   UNL     1       6.451   7.547   3.701  1.00  0.00     0.134 A 
ATOM     23  C   UNL     1       5.488   6.589   3.995  1.00  0.00     0.048 A 
ATOM     24  C   UNL     1       5.321   6.158   5.313  1.00  0.00     0.008 A 
ATOM     25  Cl  UNL     1       8.448   9.266   4.349  1.00  0.00    -0.080 Cl
BRANCH  22  26
ATOM     26  O   UNL     1       6.567   7.945   2.396  1.00  0.00    -0.506 OA
ATOM     27  H   UNL     1       5.999   8.730   2.291  1.00  0.00     0.293 HD
ENDBRANCH  22  26
ENDBRANCH  18  19
ENDBRANCH  17  18
BRANCH  17  28
ATOM     28  O   UNL     1       5.292   8.117   9.195  1.00  0.00    -0.383 OA
ATOM     29  H   UNL     1       4.530   8.511   9.679  1.00  0.00     0.211 HD
ENDBRANCH  17  28
ENDBRANCH  14  17
ENDBRANCH  12  13
BRANCH  12  30
ATOM     30  C   UNL     1       4.260   2.598  10.147  1.00  0.00     0.018 C 
ATOM     31  C   UNL     1       5.362   2.254   9.132  1.00  0.00     0.010 C 
BRANCH  30  32
ATOM     32  C   UNL     1       3.558   1.305  10.628  1.00  0.00     0.002 C 
ATOM     33  C   UNL     1       3.968   0.032   9.899  1.00  0.00     0.004 C 
ENDBRANCH  30  32
ENDBRANCH  12  30
ENDBRANCH  10  12
ENDBRANCH   1  10
BRANCH   5  34
ATOM     34  C   UNL     1       0.363   4.677  10.714  1.00  0.00     0.242 C 
ATOM     35  O   UNL     1       0.518   3.837  11.601  1.00  0.00    -0.273 OA
ATOM     36  N   UNL     1       0.262   6.024  10.980  1.00  0.00    -0.354 N 
ATOM     37  H   UNL     1       0.014   6.658  10.220  1.00  0.00     0.163 HD
BRANCH  36  38
ATOM     38  C   UNL     1       0.596   6.583  12.274  1.00  0.00     0.116 C 
BRANCH  38  39
ATOM     39  C   UNL     1      -0.615   7.314  12.850  1.00  0.00     0.023 C 
BRANCH  39  40
ATOM     40  C   UNL     1      -1.653   6.358  13.426  1.00  0.00     0.026 C 
BRANCH  40  41
ATOM     41  C   UNL     1      -0.990   5.318  14.330  1.00  0.00     0.146 C 
BRANCH  41  42
ATOM     42  N   UNL     1      -2.007   4.452  14.911  1.00  0.00    -0.254 NA
ATOM     43  C   UNL     1      -2.331   3.367  14.314  1.00  0.00     0.185 C 
ATOM     44  N   UNL     1      -1.871   2.841  13.164  1.00  0.00    -0.370 N 
ATOM     45  N   UNL     1      -3.274   2.584  14.864  1.00  0.00    -0.370 N 
ATOM     46  H   UNL     1      -2.382   2.116  12.690  1.00  0.00     0.159 HD
ATOM     47  H   UNL     1      -1.143   3.298  12.623  1.00  0.00     0.159 HD
ATOM     48  H   UNL     1      -3.667   2.903  15.739  1.00  0.00     0.159 HD
ATOM     49  H   UNL     1      -3.411   1.626  14.594  1.00  0.00     0.159 HD
ENDBRANCH  41  42
ENDBRANCH  40  41
ENDBRANCH  39  40
ENDBRANCH  38  39
ENDBRANCH  36  38
ENDBRANCH   5  34
BRANCH   8  50
ATOM     50  O   UNL     1      -1.393   0.328  11.454  1.00  0.00    -0.245 OA
BRANCH  50  51
ATOM     51  S   UNL     1      -1.193  -0.706  12.694  1.00  0.00     0.397 S 
ATOM     52  O   UNL     1      -2.390  -1.508  12.804  1.00  0.00    -0.169 OA
ATOM     53  O   UNL     1      -0.644   0.001  13.832  1.00  0.00    -0.169 OA
BRANCH  51  54
ATOM     54  O   UNL     1      -0.056  -1.692  12.128  1.00  0.00    -0.264 OA
ATOM     55  H   UNL     1      -0.178  -1.764  11.160  1.00  0.00     0.236 HD
ENDBRANCH  51  54
ENDBRANCH  50  51
ENDBRANCH   8  50
TORSDOF 19
ENDMDL
