MODEL 1
REMARK VINA RESULT:    -6.616      0.000      0.000
REMARK INTER + INTRA:         -26.638
REMARK INTER:                 -18.994
REMARK INTRA:                  -7.644
REMARK UNBOUND:                -7.644
REMARK SMILES CCCCCC(=O)N[C@H](CC(=O)O)C(=O)N[C@H]1C(=O)N[C@H](CCCN=C(N)N)C(=O)N[C@@H]2CC[C@H](O)N(C2=O)[C@@H](CC(C)C)C(=O)N(C)[C@@H](Cc2ccccc2)C(=O)N[C@H](C(C)C)C(=O)O[C@@H]1C
REMARK SMILES IDX 30 1 31 2 29 3 32 5 35 6 37 7 34 8 38 9 33 10 39 11 36 12
REMARK SMILES IDX 40 14 41 15 42 16 43 17 44 18 45 19 46 20 47 21 48 22 49 23
REMARK SMILES IDX 50 24 51 25 52 26 56 27 53 28 55 29 54 30 57 31 58 32 59 33
REMARK SMILES IDX 60 35 61 36 62 37 63 38 64 39 65 40 66 41 67 42 68 43 21 45
REMARK SMILES IDX 20 46 18 47 19 48 17 50 16 52 14 53 15 54 9 56 8 57 6 58
REMARK SMILES IDX 7 59 5 61 4 62 3 63 2 64 1 65 10 66 11 67 12 68 13 69 22 71
REMARK SMILES IDX 23 72 24 73 25 74 26 75 27 76 28 77
REMARK H PARENT 31 4 36 13 59 34 20 49 16 55 8 60 13 70 27 78 27 79 28 80
REMARK H PARENT 28 81
REMARK Flexibility Score:  259.900
ROOT
ATOM      1  O   UNL     1      -5.144   0.717   7.993  1.00  0.00    -0.273 OA
ATOM      2  N   UNL     1      -6.571   2.501   7.879  1.00  0.00    -0.343 N 
ATOM      3  C   UNL     1      -6.145   1.301   8.409  1.00  0.00     0.243 C 
ATOM      4  H   UNL     1      -7.390   2.961   8.257  1.00  0.00     0.164 HD
ENDROOT
BRANCH   2   5
ATOM      5  C   UNL     1      -5.911   3.073   6.711  1.00  0.00     0.171 C 
ATOM      6  C   UNL     1      -3.698   2.173   5.068  1.00  0.00     0.214 C 
ATOM      7  N   UNL     1      -3.437   3.020   6.209  1.00  0.00    -0.303 N 
ATOM      8  C   UNL     1      -5.060   2.415   4.438  1.00  0.00     0.057 C 
ATOM      9  C   UNL     1      -4.442   3.444   7.064  1.00  0.00     0.247 C 
ATOM     10  C   UNL     1      -6.147   2.212   5.471  1.00  0.00     0.040 C 
ATOM     11  O   UNL     1      -4.200   4.097   8.088  1.00  0.00    -0.272 OA
BRANCH   6  12
ATOM     12  O   UNL     1      -3.582   0.834   5.491  1.00  0.00    -0.373 OA
ATOM     13  H   UNL     1      -4.272   0.687   6.172  1.00  0.00     0.213 HD
ENDBRANCH   6  12
BRANCH   7  14
ATOM     14  C   UNL     1      -2.021   3.305   6.522  1.00  0.00     0.177 C 
BRANCH  14  15
ATOM     15  C   UNL     1      -1.622   4.793   6.462  1.00  0.00     0.038 C 
BRANCH  15  16
ATOM     16  C   UNL     1      -0.152   5.197   6.706  1.00  0.00    -0.015 C 
ATOM     17  C   UNL     1       0.125   5.532   8.175  1.00  0.00     0.007 C 
ATOM     18  C   UNL     1       0.196   6.427   5.859  1.00  0.00     0.007 C 
ENDBRANCH  15  16
ENDBRANCH  14  15
BRANCH  14  19
ATOM     19  C   UNL     1      -1.472   2.260   7.554  1.00  0.00     0.245 C 
ATOM     20  O   UNL     1      -1.548   2.567   8.755  1.00  0.00    -0.272 OA
BRANCH  19  21
ATOM     21  N   UNL     1      -0.820   1.094   7.197  1.00  0.00    -0.332 N 
ATOM     22  C   UNL     1       0.445   1.018   6.486  1.00  0.00     0.147 C 
BRANCH  21  23
ATOM     23  C   UNL     1      -1.463  -0.201   7.555  1.00  0.00     0.178 C 
BRANCH  23  24
ATOM     24  C   UNL     1      -1.199  -1.350   6.560  1.00  0.00     0.070 C 
BRANCH  24  25
ATOM     25  C   UNL     1      -2.320  -2.339   6.338  1.00  0.00    -0.045 A 
ATOM     26  C   UNL     1      -3.649  -1.990   6.610  1.00  0.00     0.004 A 
ATOM     27  C   UNL     1      -2.042  -3.627   5.858  1.00  0.00     0.004 A 
ATOM     28  C   UNL     1      -4.677  -2.915   6.418  1.00  0.00     0.000 A 
ATOM     29  C   UNL     1      -3.070  -4.551   5.666  1.00  0.00     0.000 A 
ATOM     30  C   UNL     1      -4.387  -4.195   5.949  1.00  0.00     0.000 A 
ENDBRANCH  24  25
ENDBRANCH  23  24
BRANCH  23  31
ATOM     31  C   UNL     1      -1.279  -0.574   9.045  1.00  0.00     0.243 C 
ATOM     32  O   UNL     1      -0.249  -1.056   9.510  1.00  0.00    -0.273 OA
ATOM     33  N   UNL     1      -2.447  -0.492   9.784  1.00  0.00    -0.341 N 
ATOM     34  H   UNL     1      -3.275  -0.087   9.340  1.00  0.00     0.164 HD
BRANCH  33  35
ATOM     35  C   UNL     1      -2.537  -0.910  11.185  1.00  0.00     0.194 C 
BRANCH  35  36
ATOM     36  C   UNL     1      -3.196  -2.303  11.391  1.00  0.00     0.017 C 
ATOM     37  C   UNL     1      -2.136  -3.411  11.516  1.00  0.00     0.010 C 
ATOM     38  C   UNL     1      -4.142  -2.698  10.250  1.00  0.00     0.010 C 
ENDBRANCH  35  36
BRANCH  35  39
ATOM     39  C   UNL     1      -3.178   0.176  12.094  1.00  0.00     0.329 C 
ATOM     40  O   UNL     1      -2.628   1.227  12.399  1.00  0.00    -0.250 OA
BRANCH  39  41
ATOM     41  O   UNL     1      -4.463  -0.133  12.445  1.00  0.00    -0.458 OA
BRANCH  41  42
ATOM     42  C   UNL     1      -4.987   0.539  13.615  1.00  0.00     0.205 CG0
ATOM     43  C   UNL     1      -5.636  -0.525  14.498  1.00  0.00     0.056 C 
ATOM     44  G   UNL     1      -5.991   1.616  13.155  1.00  0.00     0.000 G0
ENDBRANCH  41  42
ENDBRANCH  39  41
ENDBRANCH  35  39
ENDBRANCH  33  35
ENDBRANCH  23  31
ENDBRANCH  21  23
ENDBRANCH  19  21
ENDBRANCH  14  19
ENDBRANCH   7  14
ENDBRANCH   2   5
BRANCH   3  45
ATOM     45  C   UNL     1      -6.993   0.756   9.566  1.00  0.00     0.171 C 
BRANCH  45  46
ATOM     46  N   UNL     1      -6.285   1.132  10.783  1.00  0.00    -0.342 N 
ATOM     47  C   UNL     1      -6.872   1.076  12.022  1.00  0.00     0.247 C 
ATOM     48  O   UNL     1      -8.008   0.637  12.205  1.00  0.00    -0.273 OA
ATOM     49  H   UNL     1      -5.323   1.449  10.683  1.00  0.00     0.164 HD
BRANCH  47  50
ATOM     50  C   UNL     1      -6.017   1.628  13.172  1.00  0.00     0.212 CG0
ATOM     51  G   UNL     1      -5.009   0.533  13.572  1.00  0.00     0.000 G0
BRANCH  50  52
ATOM     52  N   UNL     1      -5.381   2.832  12.641  1.00  0.00    -0.339 N 
ATOM     53  C   UNL     1      -5.817   4.103  12.923  1.00  0.00     0.243 C 
ATOM     54  O   UNL     1      -6.814   4.326  13.605  1.00  0.00    -0.273 OA
ATOM     55  H   UNL     1      -4.618   2.710  11.979  1.00  0.00     0.164 HD
BRANCH  53  56
ATOM     56  C   UNL     1      -5.043   5.211  12.180  1.00  0.00     0.182 C 
BRANCH  56  57
ATOM     57  N   UNL     1      -5.937   5.988  11.314  1.00  0.00    -0.344 N 
ATOM     58  C   UNL     1      -6.768   5.396  10.395  1.00  0.00     0.220 C 
ATOM     59  O   UNL     1      -6.769   4.188  10.182  1.00  0.00    -0.275 OA
ATOM     60  H   UNL     1      -6.040   6.976  11.528  1.00  0.00     0.164 HD
BRANCH  58  61
ATOM     61  C   UNL     1      -7.646   6.387   9.652  1.00  0.00     0.100 C 
BRANCH  61  62
ATOM     62  C   UNL     1      -6.871   7.548   9.027  1.00  0.00     0.010 C 
BRANCH  62  63
ATOM     63  C   UNL     1      -7.699   8.407   8.063  1.00  0.00     0.000 C 
BRANCH  63  64
ATOM     64  C   UNL     1      -6.915   8.934   6.863  1.00  0.00    -0.003 C 
ATOM     65  C   UNL     1      -5.532   9.419   7.272  1.00  0.00     0.004 C 
ENDBRANCH  63  64
ENDBRANCH  62  63
ENDBRANCH  61  62
ENDBRANCH  58  61
ENDBRANCH  56  57
BRANCH  56  66
ATOM     66  C   UNL     1      -3.849   4.643  11.414  1.00  0.00     0.157 C 
BRANCH  66  67
ATOM     67  C   UNL     1      -2.942   5.738  10.932  1.00  0.00     0.305 C 
ATOM     68  O   UNL     1      -1.897   6.104  11.447  1.00  0.00    -0.252 OA
BRANCH  67  69
ATOM     69  O   UNL     1      -3.373   6.291   9.782  1.00  0.00    -0.481 OA
ATOM     70  H   UNL     1      -3.733   7.165  10.044  1.00  0.00     0.296 HD
ENDBRANCH  67  69
ENDBRANCH  66  67
ENDBRANCH  56  66
ENDBRANCH  53  56
ENDBRANCH  50  52
ENDBRANCH  47  50
ENDBRANCH  45  46
BRANCH  45  71
ATOM     71  C   UNL     1      -7.144  -0.764   9.447  1.00  0.00     0.037 C 
BRANCH  71  72
ATOM     72  C   UNL     1      -8.325  -1.157   8.556  1.00  0.00     0.026 C 
BRANCH  72  73
ATOM     73  C   UNL     1      -9.471  -1.749   9.375  1.00  0.00     0.146 C 
BRANCH  73  74
ATOM     74  N   UNL     1     -10.601  -0.827   9.293  1.00  0.00    -0.254 NA
ATOM     75  C   UNL     1     -11.071  -0.358  10.389  1.00  0.00     0.185 C 
ATOM     76  N   UNL     1     -12.109   0.493  10.347  1.00  0.00    -0.370 N 
ATOM     77  N   UNL     1     -10.669  -0.593  11.651  1.00  0.00    -0.370 N 
ATOM     78  H   UNL     1     -12.479   0.718   9.434  1.00  0.00     0.159 HD
ATOM     79  H   UNL     1     -12.619   0.786  11.162  1.00  0.00     0.159 HD
ATOM     80  H   UNL     1      -9.893  -1.211  11.836  1.00  0.00     0.159 HD
ATOM     81  H   UNL     1     -11.042  -0.075  12.429  1.00  0.00     0.159 HD
ENDBRANCH  73  74
ENDBRANCH  72  73
ENDBRANCH  71  72
ENDBRANCH  45  71
ENDBRANCH   3  45
TORSDOF 20
ENDMDL
MODEL 2
REMARK VINA RESULT:    -6.571      2.473      8.330
REMARK INTER + INTRA:         -26.506
REMARK INTER:                 -20.350
REMARK INTRA:                  -6.156
REMARK UNBOUND:                -7.644
REMARK SMILES CCCCCC(=O)N[C@H](CC(=O)O)C(=O)N[C@H]1C(=O)N[C@H](CCCN=C(N)N)C(=O)N[C@@H]2CC[C@H](O)N(C2=O)[C@@H](CC(C)C)C(=O)N(C)[C@@H](Cc2ccccc2)C(=O)N[C@H](C(C)C)C(=O)O[C@@H]1C
REMARK SMILES IDX 30 1 31 2 29 3 32 5 35 6 37 7 34 8 38 9 33 10 39 11 36 12
REMARK SMILES IDX 40 14 41 15 42 16 43 17 44 18 45 19 46 20 47 21 48 22 49 23
REMARK SMILES IDX 50 24 51 25 52 26 56 27 53 28 55 29 54 30 57 31 58 32 59 33
REMARK SMILES IDX 60 35 61 36 62 37 63 38 64 39 65 40 66 41 67 42 68 43 21 45
REMARK SMILES IDX 20 46 18 47 19 48 17 50 16 52 14 53 15 54 9 56 8 57 6 58
REMARK SMILES IDX 7 59 5 61 4 62 3 63 2 64 1 65 10 66 11 67 12 68 13 69 22 71
REMARK SMILES IDX 23 72 24 73 25 74 26 75 27 76 28 77
REMARK H PARENT 31 4 36 13 59 34 20 49 16 55 8 60 13 70 27 78 27 79 28 80
REMARK H PARENT 28 81
REMARK Flexibility Score:  259.900
ROOT
ATOM      1  O   UNL     1      -2.578  -1.479  13.401  1.00  0.00    -0.273 OA
ATOM      2  N   UNL     1      -4.390  -0.773  12.197  1.00  0.00    -0.343 N 
ATOM      3  C   UNL     1      -3.155  -1.373  12.318  1.00  0.00     0.243 C 
ATOM      4  H   UNL     1      -4.842  -0.717  11.293  1.00  0.00     0.164 HD
ENDROOT
BRANCH   2   5
ATOM      5  C   UNL     1      -5.015  -0.123  13.344  1.00  0.00     0.171 C 
ATOM      6  C   UNL     1      -7.374   1.541  13.615  1.00  0.00     0.214 C 
ATOM      7  N   UNL     1      -6.091   2.160  13.374  1.00  0.00    -0.303 N 
ATOM      8  C   UNL     1      -7.276   0.234  14.386  1.00  0.00     0.057 C 
ATOM      9  C   UNL     1      -4.934   1.422  13.185  1.00  0.00     0.247 C 
ATOM     10  C   UNL     1      -6.383  -0.735  13.642  1.00  0.00     0.040 C 
ATOM     11  O   UNL     1      -3.856   1.956  12.893  1.00  0.00    -0.272 OA
BRANCH   6  12
ATOM     12  O   UNL     1      -7.991   1.330  12.366  1.00  0.00    -0.373 OA
ATOM     13  H   UNL     1      -8.140   0.364  12.278  1.00  0.00     0.213 HD
ENDBRANCH   6  12
BRANCH   7  14
ATOM     14  C   UNL     1      -6.079   3.626  13.188  1.00  0.00     0.177 C 
BRANCH  14  15
ATOM     15  C   UNL     1      -5.726   4.444  14.446  1.00  0.00     0.038 C 
BRANCH  15  16
ATOM     16  C   UNL     1      -6.760   5.435  15.025  1.00  0.00    -0.015 C 
ATOM     17  C   UNL     1      -7.097   6.565  14.048  1.00  0.00     0.007 C 
ATOM     18  C   UNL     1      -6.212   6.062  16.314  1.00  0.00     0.007 C 
ENDBRANCH  15  16
ENDBRANCH  14  15
BRANCH  14  19
ATOM     19  C   UNL     1      -5.652   3.985  11.724  1.00  0.00     0.245 C 
ATOM     20  O   UNL     1      -6.198   3.346  10.809  1.00  0.00    -0.272 OA
BRANCH  19  21
ATOM     21  N   UNL     1      -4.641   4.877  11.412  1.00  0.00    -0.332 N 
ATOM     22  C   UNL     1      -3.974   5.758  12.354  1.00  0.00     0.147 C 
BRANCH  21  23
ATOM     23  C   UNL     1      -4.198   4.958   9.992  1.00  0.00     0.178 C 
BRANCH  23  24
ATOM     24  C   UNL     1      -4.244   6.373   9.381  1.00  0.00     0.070 C 
BRANCH  24  25
ATOM     25  C   UNL     1      -5.607   6.941   9.060  1.00  0.00    -0.045 A 
ATOM     26  C   UNL     1      -6.772   6.315   9.523  1.00  0.00     0.004 A 
ATOM     27  C   UNL     1      -5.724   8.105   8.287  1.00  0.00     0.004 A 
ATOM     28  C   UNL     1      -8.028   6.836   9.207  1.00  0.00     0.000 A 
ATOM     29  C   UNL     1      -6.981   8.626   7.973  1.00  0.00     0.000 A 
ATOM     30  C   UNL     1      -8.132   7.989   8.431  1.00  0.00     0.000 A 
ENDBRANCH  24  25
ENDBRANCH  23  24
BRANCH  23  31
ATOM     31  C   UNL     1      -2.892   4.173   9.722  1.00  0.00     0.243 C 
ATOM     32  O   UNL     1      -2.376   3.401  10.526  1.00  0.00    -0.273 OA
ATOM     33  N   UNL     1      -2.247   4.557   8.559  1.00  0.00    -0.341 N 
ATOM     34  H   UNL     1      -2.725   5.209   7.931  1.00  0.00     0.164 HD
BRANCH  33  35
ATOM     35  C   UNL     1      -0.936   4.035   8.162  1.00  0.00     0.194 C 
BRANCH  35  36
ATOM     36  C   UNL     1      -0.003   5.092   7.507  1.00  0.00     0.017 C 
ATOM     37  C   UNL     1       0.162   6.328   8.408  1.00  0.00     0.010 C 
ATOM     38  C   UNL     1      -0.509   5.582   6.145  1.00  0.00     0.010 C 
ENDBRANCH  35  36
BRANCH  35  39
ATOM     39  C   UNL     1      -1.042   2.743   7.305  1.00  0.00     0.329 C 
ATOM     40  O   UNL     1      -0.079   2.070   6.956  1.00  0.00    -0.250 OA
BRANCH  39  41
ATOM     41  O   UNL     1      -2.339   2.389   7.055  1.00  0.00    -0.458 OA
BRANCH  41  42
ATOM     42  C   UNL     1      -2.630   0.971   7.061  1.00  0.00     0.205 CG0
ATOM     43  C   UNL     1      -3.359   0.651   5.758  1.00  0.00     0.056 C 
ATOM     44  G   UNL     1      -3.479   0.650   8.307  1.00  0.00     0.000 G0
ENDBRANCH  41  42
ENDBRANCH  39  41
ENDBRANCH  35  39
ENDBRANCH  33  35
ENDBRANCH  23  31
ENDBRANCH  21  23
ENDBRANCH  19  21
ENDBRANCH  14  19
ENDBRANCH   7  14
ENDBRANCH   2   5
BRANCH   3  45
ATOM     45  C   UNL     1      -2.560  -1.921  11.014  1.00  0.00     0.171 C 
BRANCH  45  46
ATOM     46  N   UNL     1      -3.210  -1.179   9.943  1.00  0.00    -0.342 N 
ATOM     47  C   UNL     1      -2.623  -0.096   9.337  1.00  0.00     0.247 C 
ATOM     48  O   UNL     1      -1.481   0.280   9.601  1.00  0.00    -0.273 OA
ATOM     49  H   UNL     1      -4.135  -1.492   9.653  1.00  0.00     0.164 HD
BRANCH  47  50
ATOM     50  C   UNL     1      -3.507   0.636   8.317  1.00  0.00     0.212 CG0
ATOM     51  G   UNL     1      -2.635   0.953   7.085  1.00  0.00     0.000 G0
BRANCH  50  52
ATOM     52  N   UNL     1      -4.606  -0.281   8.025  1.00  0.00    -0.339 N 
ATOM     53  C   UNL     1      -5.924   0.105   7.993  1.00  0.00     0.243 C 
ATOM     54  O   UNL     1      -6.286   1.248   8.261  1.00  0.00    -0.273 OA
ATOM     55  H   UNL     1      -4.380  -1.266   7.903  1.00  0.00     0.164 HD
BRANCH  53  56
ATOM     56  C   UNL     1      -6.912  -1.053   7.749  1.00  0.00     0.182 C 
BRANCH  56  57
ATOM     57  N   UNL     1      -8.109  -0.909   8.583  1.00  0.00    -0.344 N 
ATOM     58  C   UNL     1      -9.366  -1.224   8.128  1.00  0.00     0.220 C 
ATOM     59  O   UNL     1      -9.584  -1.578   6.974  1.00  0.00    -0.275 OA
ATOM     60  H   UNL     1      -7.962  -0.718   9.571  1.00  0.00     0.164 HD
BRANCH  58  61
ATOM     61  C   UNL     1     -10.447  -1.053   9.179  1.00  0.00     0.100 C 
BRANCH  61  62
ATOM     62  C   UNL     1     -10.769   0.406   9.500  1.00  0.00     0.010 C 
BRANCH  62  63
ATOM     63  C   UNL     1     -11.772   0.591  10.645  1.00  0.00     0.000 C 
BRANCH  63  64
ATOM     64  C   UNL     1     -11.455   1.761  11.575  1.00  0.00    -0.003 C 
ATOM     65  C   UNL     1     -11.691   1.392  13.032  1.00  0.00     0.004 C 
ENDBRANCH  63  64
ENDBRANCH  62  63
ENDBRANCH  61  62
ENDBRANCH  58  61
ENDBRANCH  56  57
BRANCH  56  66
ATOM     66  C   UNL     1      -6.239  -2.412   7.937  1.00  0.00     0.157 C 
BRANCH  66  67
ATOM     67  C   UNL     1      -6.566  -3.000   9.279  1.00  0.00     0.305 C 
ATOM     68  O   UNL     1      -6.096  -2.672  10.358  1.00  0.00    -0.252 OA
BRANCH  67  69
ATOM     69  O   UNL     1      -7.520  -3.948   9.204  1.00  0.00    -0.481 OA
ATOM     70  H   UNL     1      -8.268  -3.593   9.729  1.00  0.00     0.296 HD
ENDBRANCH  67  69
ENDBRANCH  66  67
ENDBRANCH  56  66
ENDBRANCH  53  56
ENDBRANCH  50  52
ENDBRANCH  47  50
ENDBRANCH  45  46
BRANCH  45  71
ATOM     71  C   UNL     1      -2.823  -3.427  10.899  1.00  0.00     0.037 C 
BRANCH  71  72
ATOM     72  C   UNL     1      -2.083  -4.052   9.714  1.00  0.00     0.026 C 
BRANCH  72  73
ATOM     73  C   UNL     1      -3.054  -4.559   8.650  1.00  0.00     0.146 C 
BRANCH  73  74
ATOM     74  N   UNL     1      -2.277  -4.911   7.466  1.00  0.00    -0.254 NA
ATOM     75  C   UNL     1      -2.424  -4.189   6.417  1.00  0.00     0.185 C 
ATOM     76  N   UNL     1      -1.721  -4.487   5.312  1.00  0.00    -0.370 N 
ATOM     77  N   UNL     1      -3.215  -3.118   6.232  1.00  0.00    -0.370 N 
ATOM     78  H   UNL     1      -1.106  -5.286   5.363  1.00  0.00     0.159 HD
ATOM     79  H   UNL     1      -1.890  -4.062   4.417  1.00  0.00     0.159 HD
ATOM     80  H   UNL     1      -3.799  -2.775   6.980  1.00  0.00     0.159 HD
ATOM     81  H   UNL     1      -3.160  -2.559   5.397  1.00  0.00     0.159 HD
ENDBRANCH  73  74
ENDBRANCH  72  73
ENDBRANCH  71  72
ENDBRANCH  45  71
ENDBRANCH   3  45
TORSDOF 20
ENDMDL
MODEL 3
REMARK VINA RESULT:    -6.468      2.208      5.318
REMARK INTER + INTRA:         -26.212
REMARK INTER:                 -20.331
REMARK INTRA:                  -5.881
REMARK UNBOUND:                -7.644
REMARK SMILES CCCCCC(=O)N[C@H](CC(=O)O)C(=O)N[C@H]1C(=O)N[C@H](CCCN=C(N)N)C(=O)N[C@@H]2CC[C@H](O)N(C2=O)[C@@H](CC(C)C)C(=O)N(C)[C@@H](Cc2ccccc2)C(=O)N[C@H](C(C)C)C(=O)O[C@@H]1C
REMARK SMILES IDX 30 1 31 2 29 3 32 5 35 6 37 7 34 8 38 9 33 10 39 11 36 12
REMARK SMILES IDX 40 14 41 15 42 16 43 17 44 18 45 19 46 20 47 21 48 22 49 23
REMARK SMILES IDX 50 24 51 25 52 26 56 27 53 28 55 29 54 30 57 31 58 32 59 33
REMARK SMILES IDX 60 35 61 36 62 37 63 38 64 39 65 40 66 41 67 42 68 43 21 45
REMARK SMILES IDX 20 46 18 47 19 48 17 50 16 52 14 53 15 54 9 56 8 57 6 58
REMARK SMILES IDX 7 59 5 61 4 62 3 63 2 64 1 65 10 66 11 67 12 68 13 69 22 71
REMARK SMILES IDX 23 72 24 73 25 74 26 75 27 76 28 77
REMARK H PARENT 31 4 36 13 59 34 20 49 16 55 8 60 13 70 27 78 27 79 28 80
REMARK H PARENT 28 81
REMARK Flexibility Score:  259.900
ROOT
ATOM      1  O   UNL     1      -4.822   6.279  14.094  1.00  0.00    -0.273 OA
ATOM      2  N   UNL     1      -5.755   5.200  12.306  1.00  0.00    -0.343 N 
ATOM      3  C   UNL     1      -5.577   5.410  13.657  1.00  0.00     0.243 C 
ATOM      4  H   UNL     1      -6.396   4.485  11.983  1.00  0.00     0.164 HD
ENDROOT
BRANCH   2   5
ATOM      5  C   UNL     1      -4.954   5.930  11.330  1.00  0.00     0.171 C 
ATOM      6  C   UNL     1      -4.250   5.390   8.570  1.00  0.00     0.214 C 
ATOM      7  N   UNL     1      -3.382   4.928   9.628  1.00  0.00    -0.303 N 
ATOM      8  C   UNL     1      -5.007   6.660   8.924  1.00  0.00     0.057 C 
ATOM      9  C   UNL     1      -3.685   5.107  10.968  1.00  0.00     0.247 C 
ATOM     10  C   UNL     1      -5.822   6.438  10.179  1.00  0.00     0.040 C 
ATOM     11  O   UNL     1      -2.980   4.633  11.868  1.00  0.00    -0.272 OA
BRANCH   6  12
ATOM     12  O   UNL     1      -5.150   4.350   8.266  1.00  0.00    -0.373 OA
ATOM     13  H   UNL     1      -5.309   3.855   9.098  1.00  0.00     0.213 HD
ENDBRANCH   6  12
BRANCH   7  14
ATOM     14  C   UNL     1      -2.214   4.115   9.229  1.00  0.00     0.177 C 
BRANCH  14  15
ATOM     15  C   UNL     1      -0.874   4.536   9.864  1.00  0.00     0.038 C 
BRANCH  15  16
ATOM     16  C   UNL     1      -0.011   5.615   9.173  1.00  0.00    -0.015 C 
ATOM     17  C   UNL     1      -0.029   6.948   9.926  1.00  0.00     0.007 C 
ATOM     18  C   UNL     1      -0.527   5.860   7.750  1.00  0.00     0.007 C 
ENDBRANCH  15  16
ENDBRANCH  14  15
BRANCH  14  19
ATOM     19  C   UNL     1      -2.653   2.639   8.933  1.00  0.00     0.245 C 
ATOM     20  O   UNL     1      -3.622   2.204   9.578  1.00  0.00    -0.272 OA
BRANCH  19  21
ATOM     21  N   UNL     1      -1.963   1.783   8.094  1.00  0.00    -0.332 N 
ATOM     22  C   UNL     1      -0.858   2.158   7.231  1.00  0.00     0.147 C 
BRANCH  21  23
ATOM     23  C   UNL     1      -2.386   0.356   8.056  1.00  0.00     0.178 C 
BRANCH  23  24
ATOM     24  C   UNL     1      -2.310  -0.303   6.663  1.00  0.00     0.070 C 
BRANCH  24  25
ATOM     25  C   UNL     1      -2.719  -1.754   6.565  1.00  0.00    -0.045 A 
ATOM     26  C   UNL     1      -4.068  -2.113   6.445  1.00  0.00     0.004 A 
ATOM     27  C   UNL     1      -1.749  -2.767   6.598  1.00  0.00     0.004 A 
ATOM     28  C   UNL     1      -4.439  -3.457   6.372  1.00  0.00     0.000 A 
ATOM     29  C   UNL     1      -2.122  -4.110   6.523  1.00  0.00     0.000 A 
ATOM     30  C   UNL     1      -3.467  -4.454   6.414  1.00  0.00     0.000 A 
ENDBRANCH  24  25
ENDBRANCH  23  24
BRANCH  23  31
ATOM     31  C   UNL     1      -1.783  -0.484   9.207  1.00  0.00     0.243 C 
ATOM     32  O   UNL     1      -0.614  -0.859   9.245  1.00  0.00    -0.273 OA
ATOM     33  N   UNL     1      -2.727  -0.940  10.112  1.00  0.00    -0.341 N 
ATOM     34  H   UNL     1      -3.687  -0.597  10.026  1.00  0.00     0.164 HD
BRANCH  33  35
ATOM     35  C   UNL     1      -2.402  -1.849  11.215  1.00  0.00     0.194 C 
BRANCH  35  36
ATOM     36  C   UNL     1      -2.878  -3.312  10.992  1.00  0.00     0.017 C 
ATOM     37  C   UNL     1      -1.754  -4.182  10.404  1.00  0.00     0.010 C 
ATOM     38  C   UNL     1      -4.083  -3.419  10.050  1.00  0.00     0.010 C 
ENDBRANCH  35  36
BRANCH  35  39
ATOM     39  C   UNL     1      -2.851  -1.297  12.597  1.00  0.00     0.329 C 
ATOM     40  O   UNL     1      -2.100  -1.148  13.553  1.00  0.00    -0.250 OA
BRANCH  39  41
ATOM     41  O   UNL     1      -4.164  -0.912  12.602  1.00  0.00    -0.458 OA
BRANCH  41  42
ATOM     42  C   UNL     1      -4.544   0.056  13.608  1.00  0.00     0.205 CG0
ATOM     43  C   UNL     1      -5.295  -0.698  14.703  1.00  0.00     0.056 C 
ATOM     44  G   UNL     1      -5.410   1.144  12.941  1.00  0.00     0.000 G0
ENDBRANCH  41  42
ENDBRANCH  39  41
ENDBRANCH  35  39
ENDBRANCH  33  35
ENDBRANCH  23  31
ENDBRANCH  21  23
ENDBRANCH  19  21
ENDBRANCH  14  19
ENDBRANCH   7  14
ENDBRANCH   2   5
BRANCH   3  45
ATOM     45  C   UNL     1      -6.402   4.501  14.578  1.00  0.00     0.171 C 
BRANCH  45  46
ATOM     46  N   UNL     1      -6.400   3.190  13.942  1.00  0.00    -0.342 N 
ATOM     47  C   UNL     1      -5.248   2.471  13.740  1.00  0.00     0.247 C 
ATOM     48  O   UNL     1      -4.147   2.846  14.146  1.00  0.00    -0.273 OA
ATOM     49  H   UNL     1      -7.298   2.817  13.641  1.00  0.00     0.164 HD
BRANCH  47  50
ATOM     50  C   UNL     1      -5.424   1.171  12.944  1.00  0.00     0.212 CG0
ATOM     51  G   UNL     1      -4.531   0.098  13.598  1.00  0.00     0.000 G0
BRANCH  50  52
ATOM     52  N   UNL     1      -6.849   0.859  13.018  1.00  0.00    -0.339 N 
ATOM     53  C   UNL     1      -7.572   0.373  11.956  1.00  0.00     0.243 C 
ATOM     54  O   UNL     1      -7.084   0.213  10.840  1.00  0.00    -0.273 OA
ATOM     55  H   UNL     1      -7.336   1.075  13.885  1.00  0.00     0.164 HD
BRANCH  53  56
ATOM     56  C   UNL     1      -9.077   0.202  12.247  1.00  0.00     0.182 C 
BRANCH  56  57
ATOM     57  N   UNL     1      -9.833  -0.005  11.008  1.00  0.00    -0.344 N 
ATOM     58  C   UNL     1     -10.263  -1.246  10.606  1.00  0.00     0.220 C 
ATOM     59  O   UNL     1      -9.984  -2.274  11.214  1.00  0.00    -0.275 OA
ATOM     60  H   UNL     1     -10.171   0.827  10.531  1.00  0.00     0.164 HD
BRANCH  58  61
ATOM     61  C   UNL     1     -11.076  -1.215   9.325  1.00  0.00     0.100 C 
BRANCH  61  62
ATOM     62  C   UNL     1     -10.264  -1.542   8.071  1.00  0.00     0.010 C 
BRANCH  62  63
ATOM     63  C   UNL     1      -9.305  -0.427   7.636  1.00  0.00     0.000 C 
BRANCH  63  64
ATOM     64  C   UNL     1      -7.841  -0.855   7.555  1.00  0.00    -0.003 C 
ATOM     65  C   UNL     1      -7.512  -1.451   6.194  1.00  0.00     0.004 C 
ENDBRANCH  63  64
ENDBRANCH  62  63
ENDBRANCH  61  62
ENDBRANCH  58  61
ENDBRANCH  56  57
BRANCH  56  66
ATOM     66  C   UNL     1      -9.625   1.367  13.069  1.00  0.00     0.157 C 
BRANCH  66  67
ATOM     67  C   UNL     1      -9.969   2.537  12.193  1.00  0.00     0.305 C 
ATOM     68  O   UNL     1     -11.067   2.809  11.732  1.00  0.00    -0.252 OA
BRANCH  67  69
ATOM     69  O   UNL     1      -8.913   3.344  11.979  1.00  0.00    -0.481 OA
ATOM     70  H   UNL     1      -8.740   3.280  11.016  1.00  0.00     0.296 HD
ENDBRANCH  67  69
ENDBRANCH  66  67
ENDBRANCH  56  66
ENDBRANCH  53  56
ENDBRANCH  50  52
ENDBRANCH  47  50
ENDBRANCH  45  46
BRANCH  45  71
ATOM     71  C   UNL     1      -7.824   5.050  14.736  1.00  0.00     0.037 C 
BRANCH  71  72
ATOM     72  C   UNL     1      -8.033   6.343  13.945  1.00  0.00     0.026 C 
BRANCH  72  73
ATOM     73  C   UNL     1      -9.144   7.198  14.551  1.00  0.00     0.146 C 
BRANCH  73  74
ATOM     74  N   UNL     1      -9.842   7.866  13.457  1.00  0.00    -0.254 NA
ATOM     75  C   UNL     1     -10.618   7.159  12.721  1.00  0.00     0.185 C 
ATOM     76  N   UNL     1     -11.275   7.746  11.708  1.00  0.00    -0.370 N 
ATOM     77  N   UNL     1     -10.898   5.847  12.805  1.00  0.00    -0.370 N 
ATOM     78  H   UNL     1     -11.115   8.734  11.569  1.00  0.00     0.159 HD
ATOM     79  H   UNL     1     -11.781   7.235  11.006  1.00  0.00     0.159 HD
ATOM     80  H   UNL     1     -10.478   5.277  13.524  1.00  0.00     0.159 HD
ATOM     81  H   UNL     1     -11.615   5.423  12.240  1.00  0.00     0.159 HD
ENDBRANCH  73  74
ENDBRANCH  72  73
ENDBRANCH  71  72
ENDBRANCH  45  71
ENDBRANCH   3  45
TORSDOF 20
ENDMDL
MODEL 4
REMARK VINA RESULT:    -6.425      3.188      8.745
REMARK INTER + INTRA:         -26.089
REMARK INTER:                 -19.753
REMARK INTRA:                  -6.336
REMARK UNBOUND:                -7.644
REMARK SMILES CCCCCC(=O)N[C@H](CC(=O)O)C(=O)N[C@H]1C(=O)N[C@H](CCCN=C(N)N)C(=O)N[C@@H]2CC[C@H](O)N(C2=O)[C@@H](CC(C)C)C(=O)N(C)[C@@H](Cc2ccccc2)C(=O)N[C@H](C(C)C)C(=O)O[C@@H]1C
REMARK SMILES IDX 30 1 31 2 29 3 32 5 35 6 37 7 34 8 38 9 33 10 39 11 36 12
REMARK SMILES IDX 40 14 41 15 42 16 43 17 44 18 45 19 46 20 47 21 48 22 49 23
REMARK SMILES IDX 50 24 51 25 52 26 56 27 53 28 55 29 54 30 57 31 58 32 59 33
REMARK SMILES IDX 60 35 61 36 62 37 63 38 64 39 65 40 66 41 67 42 68 43 21 45
REMARK SMILES IDX 20 46 18 47 19 48 17 50 16 52 14 53 15 54 9 56 8 57 6 58
REMARK SMILES IDX 7 59 5 61 4 62 3 63 2 64 1 65 10 66 11 67 12 68 13 69 22 71
REMARK SMILES IDX 23 72 24 73 25 74 26 75 27 76 28 77
REMARK H PARENT 31 4 36 13 59 34 20 49 16 55 8 60 13 70 27 78 27 79 28 80
REMARK H PARENT 28 81
REMARK Flexibility Score:  259.900
ROOT
ATOM      1  O   UNL     1      -1.753   0.736  11.827  1.00  0.00    -0.273 OA
ATOM      2  N   UNL     1      -3.937   1.252  12.272  1.00  0.00    -0.343 N 
ATOM      3  C   UNL     1      -2.945   0.427  11.787  1.00  0.00     0.243 C 
ATOM      4  H   UNL     1      -4.905   0.958  12.236  1.00  0.00     0.164 HD
ENDROOT
BRANCH   2   5
ATOM      5  C   UNL     1      -3.619   2.592  12.752  1.00  0.00     0.171 C 
ATOM      6  C   UNL     1      -5.223   4.669  13.984  1.00  0.00     0.214 C 
ATOM      7  N   UNL     1      -5.076   4.644  12.548  1.00  0.00    -0.303 N 
ATOM      8  C   UNL     1      -4.021   4.102  14.723  1.00  0.00     0.057 C 
ATOM      9  C   UNL     1      -4.366   3.651  11.892  1.00  0.00     0.247 C 
ATOM     10  C   UNL     1      -3.766   2.680  14.271  1.00  0.00     0.040 C 
ATOM     11  O   UNL     1      -4.316   3.588  10.656  1.00  0.00    -0.272 OA
BRANCH   6  12
ATOM     12  O   UNL     1      -6.388   3.946  14.310  1.00  0.00    -0.373 OA
ATOM     13  H   UNL     1      -6.955   4.541  14.846  1.00  0.00     0.213 HD
ENDBRANCH   6  12
BRANCH   7  14
ATOM     14  C   UNL     1      -5.841   5.647  11.778  1.00  0.00     0.177 C 
BRANCH  14  15
ATOM     15  C   UNL     1      -5.053   6.356  10.659  1.00  0.00     0.038 C 
BRANCH  15  16
ATOM     16  C   UNL     1      -5.640   6.408   9.230  1.00  0.00    -0.015 C 
ATOM     17  C   UNL     1      -4.554   6.379   8.151  1.00  0.00     0.007 C 
ATOM     18  C   UNL     1      -6.460   7.692   9.053  1.00  0.00     0.007 C 
ENDBRANCH  15  16
ENDBRANCH  14  15
BRANCH  14  19
ATOM     19  C   UNL     1      -7.352   5.238  11.704  1.00  0.00     0.245 C 
ATOM     20  O   UNL     1      -7.632   4.256  10.996  1.00  0.00    -0.272 OA
BRANCH  19  21
ATOM     21  N   UNL     1      -8.378   5.966  12.281  1.00  0.00    -0.332 N 
ATOM     22  C   UNL     1      -8.924   7.208  11.764  1.00  0.00     0.147 C 
BRANCH  21  23
ATOM     23  C   UNL     1      -8.972   5.450  13.545  1.00  0.00     0.178 C 
BRANCH  23  24
ATOM     24  C   UNL     1      -9.810   6.478  14.331  1.00  0.00     0.070 C 
BRANCH  24  25
ATOM     25  C   UNL     1      -9.304   6.878  15.698  1.00  0.00    -0.045 A 
ATOM     26  C   UNL     1      -8.883   5.910  16.619  1.00  0.00     0.004 A 
ATOM     27  C   UNL     1      -9.253   8.231  16.066  1.00  0.00     0.004 A 
ATOM     28  C   UNL     1      -8.432   6.286  17.886  1.00  0.00     0.000 A 
ATOM     29  C   UNL     1      -8.801   8.606  17.332  1.00  0.00     0.000 A 
ATOM     30  C   UNL     1      -8.394   7.633  18.242  1.00  0.00     0.000 A 
ENDBRANCH  24  25
ENDBRANCH  23  24
BRANCH  23  31
ATOM     31  C   UNL     1      -9.634   4.061  13.377  1.00  0.00     0.243 C 
ATOM     32  O   UNL     1     -10.517   3.815  12.559  1.00  0.00    -0.273 OA
ATOM     33  N   UNL     1      -9.276   3.156  14.361  1.00  0.00    -0.341 N 
ATOM     34  H   UNL     1      -8.538   3.420  15.019  1.00  0.00     0.164 HD
BRANCH  33  35
ATOM     35  C   UNL     1      -9.869   1.820  14.472  1.00  0.00     0.194 C 
BRANCH  35  36
ATOM     36  C   UNL     1     -10.931   1.688  15.599  1.00  0.00     0.017 C 
ATOM     37  C   UNL     1     -12.347   1.977  15.071  1.00  0.00     0.010 C 
ATOM     38  C   UNL     1     -10.680   2.634  16.780  1.00  0.00     0.010 C 
ENDBRANCH  35  36
BRANCH  35  39
ATOM     39  C   UNL     1      -8.799   0.695  14.548  1.00  0.00     0.329 C 
ATOM     40  O   UNL     1      -8.208   0.379  15.574  1.00  0.00    -0.250 OA
BRANCH  39  41
ATOM     41  O   UNL     1      -8.651   0.037  13.359  1.00  0.00    -0.458 OA
BRANCH  41  42
ATOM     42  C   UNL     1      -7.355   0.146  12.723  1.00  0.00     0.205 CG0
ATOM     43  C   UNL     1      -7.280   1.528  12.078  1.00  0.00     0.056 C 
ATOM     44  G   UNL     1      -7.215  -0.994  11.694  1.00  0.00     0.000 G0
ENDBRANCH  41  42
ENDBRANCH  39  41
ENDBRANCH  35  39
ENDBRANCH  33  35
ENDBRANCH  23  31
ENDBRANCH  21  23
ENDBRANCH  19  21
ENDBRANCH  14  19
ENDBRANCH   7  14
ENDBRANCH   2   5
BRANCH   3  45
ATOM     45  C   UNL     1      -3.426  -0.911  11.212  1.00  0.00     0.171 C 
BRANCH  45  46
ATOM     46  N   UNL     1      -4.783  -1.089  11.711  1.00  0.00    -0.342 N 
ATOM     47  C   UNL     1      -5.890  -0.848  10.937  1.00  0.00     0.247 C 
ATOM     48  O   UNL     1      -5.819  -0.536   9.747  1.00  0.00    -0.273 OA
ATOM     49  H   UNL     1      -4.888  -1.401  12.675  1.00  0.00     0.164 HD
BRANCH  47  50
ATOM     50  C   UNL     1      -7.234  -0.968  11.669  1.00  0.00     0.212 CG0
ATOM     51  G   UNL     1      -7.299   0.162  12.715  1.00  0.00     0.000 G0
BRANCH  50  52
ATOM     52  N   UNL     1      -8.255  -0.853  10.631  1.00  0.00    -0.339 N 
ATOM     53  C   UNL     1      -9.304  -1.731  10.502  1.00  0.00     0.243 C 
ATOM     54  O   UNL     1      -9.435  -2.716  11.223  1.00  0.00    -0.273 OA
ATOM     55  H   UNL     1      -8.140  -0.121   9.933  1.00  0.00     0.164 HD
BRANCH  53  56
ATOM     56  C   UNL     1     -10.204  -1.458   9.280  1.00  0.00     0.182 C 
BRANCH  56  57
ATOM     57  N   UNL     1      -9.658  -0.375   8.456  1.00  0.00    -0.344 N 
ATOM     58  C   UNL     1      -8.800  -0.607   7.409  1.00  0.00     0.220 C 
ATOM     59  O   UNL     1      -8.373  -1.724   7.137  1.00  0.00    -0.275 OA
ATOM     60  H   UNL     1     -10.064   0.549   8.582  1.00  0.00     0.164 HD
BRANCH  58  61
ATOM     61  C   UNL     1      -8.409   0.654   6.660  1.00  0.00     0.100 C 
BRANCH  61  62
ATOM     62  C   UNL     1      -6.909   0.948   6.688  1.00  0.00     0.010 C 
BRANCH  62  63
ATOM     63  C   UNL     1      -6.560   2.396   7.053  1.00  0.00     0.000 C 
BRANCH  63  64
ATOM     64  C   UNL     1      -5.071   2.642   7.289  1.00  0.00    -0.003 C 
ATOM     65  C   UNL     1      -4.379   3.121   6.021  1.00  0.00     0.004 C 
ENDBRANCH  63  64
ENDBRANCH  62  63
ENDBRANCH  61  62
ENDBRANCH  58  61
ENDBRANCH  56  57
BRANCH  56  66
ATOM     66  C   UNL     1     -11.650  -1.193   9.697  1.00  0.00     0.157 C 
BRANCH  66  67
ATOM     67  C   UNL     1     -11.742  -0.014  10.623  1.00  0.00     0.305 C 
ATOM     68  O   UNL     1     -11.903  -0.044  11.833  1.00  0.00    -0.252 OA
BRANCH  67  69
ATOM     69  O   UNL     1     -11.572   1.156   9.979  1.00  0.00    -0.481 OA
ATOM     70  H   UNL     1     -12.469   1.406   9.673  1.00  0.00     0.296 HD
ENDBRANCH  67  69
ENDBRANCH  66  67
ENDBRANCH  56  66
ENDBRANCH  53  56
ENDBRANCH  50  52
ENDBRANCH  47  50
ENDBRANCH  45  46
BRANCH  45  71
ATOM     71  C   UNL     1      -2.504  -2.049  11.663  1.00  0.00     0.037 C 
BRANCH  71  72
ATOM     72  C   UNL     1      -1.904  -2.809  10.478  1.00  0.00     0.026 C 
BRANCH  72  73
ATOM     73  C   UNL     1      -2.745  -4.031  10.112  1.00  0.00     0.146 C 
BRANCH  73  74
ATOM     74  N   UNL     1      -3.642  -3.647   9.027  1.00  0.00    -0.254 NA
ATOM     75  C   UNL     1      -4.903  -3.778   9.218  1.00  0.00     0.185 C 
ATOM     76  N   UNL     1      -5.754  -3.432   8.238  1.00  0.00    -0.370 N 
ATOM     77  N   UNL     1      -5.551  -4.232  10.305  1.00  0.00    -0.370 N 
ATOM     78  H   UNL     1      -5.348  -3.087   7.380  1.00  0.00     0.159 HD
ATOM     79  H   UNL     1      -6.737  -3.641   8.260  1.00  0.00     0.159 HD
ATOM     80  H   UNL     1      -5.038  -4.525  11.123  1.00  0.00     0.159 HD
ATOM     81  H   UNL     1      -6.553  -4.181  10.383  1.00  0.00     0.159 HD
ENDBRANCH  73  74
ENDBRANCH  72  73
ENDBRANCH  71  72
ENDBRANCH  45  71
ENDBRANCH   3  45
TORSDOF 20
ENDMDL
MODEL 5
REMARK VINA RESULT:    -6.410      2.534      8.390
REMARK INTER + INTRA:         -26.045
REMARK INTER:                 -18.585
REMARK INTRA:                  -7.459
REMARK UNBOUND:                -7.644
REMARK SMILES CCCCCC(=O)N[C@H](CC(=O)O)C(=O)N[C@H]1C(=O)N[C@H](CCCN=C(N)N)C(=O)N[C@@H]2CC[C@H](O)N(C2=O)[C@@H](CC(C)C)C(=O)N(C)[C@@H](Cc2ccccc2)C(=O)N[C@H](C(C)C)C(=O)O[C@@H]1C
REMARK SMILES IDX 30 1 31 2 29 3 32 5 35 6 37 7 34 8 38 9 33 10 39 11 36 12
REMARK SMILES IDX 40 14 41 15 42 16 43 17 44 18 45 19 46 20 47 21 48 22 49 23
REMARK SMILES IDX 50 24 51 25 52 26 56 27 53 28 55 29 54 30 57 31 58 32 59 33
REMARK SMILES IDX 60 35 61 36 62 37 63 38 64 39 65 40 66 41 67 42 68 43 21 45
REMARK SMILES IDX 20 46 18 47 19 48 17 50 16 52 14 53 15 54 9 56 8 57 6 58
REMARK SMILES IDX 7 59 5 61 4 62 3 63 2 64 1 65 10 66 11 67 12 68 13 69 22 71
REMARK SMILES IDX 23 72 24 73 25 74 26 75 27 76 28 77
REMARK H PARENT 31 4 36 13 59 34 20 49 16 55 8 60 13 70 27 78 27 79 28 80
REMARK H PARENT 28 81
REMARK Flexibility Score:  259.900
ROOT
ATOM      1  O   UNL     1      -8.636  -2.557  12.659  1.00  0.00    -0.273 OA
ATOM      2  N   UNL     1      -8.892  -0.591  11.518  1.00  0.00    -0.343 N 
ATOM      3  C   UNL     1      -8.433  -1.884  11.647  1.00  0.00     0.243 C 
ATOM      4  H   UNL     1      -8.719  -0.073  10.666  1.00  0.00     0.164 HD
ENDROOT
BRANCH   2   5
ATOM      5  C   UNL     1      -9.543   0.081  12.638  1.00  0.00     0.171 C 
ATOM      6  C   UNL     1     -11.175   2.470  12.815  1.00  0.00     0.214 C 
ATOM      7  N   UNL     1      -9.744   2.574  12.980  1.00  0.00    -0.303 N 
ATOM      8  C   UNL     1     -11.738   1.133  13.269  1.00  0.00     0.057 C 
ATOM      9  C   UNL     1      -8.901   1.481  12.858  1.00  0.00     0.247 C 
ATOM     10  C   UNL     1     -11.064   0.009  12.512  1.00  0.00     0.040 C 
ATOM     11  O   UNL     1      -7.670   1.593  12.915  1.00  0.00    -0.272 OA
BRANCH   6  12
ATOM     12  O   UNL     1     -11.469   2.692  11.455  1.00  0.00    -0.373 OA
ATOM     13  H   UNL     1     -10.734   3.228  11.086  1.00  0.00     0.213 HD
ENDBRANCH   6  12
BRANCH   7  14
ATOM     14  C   UNL     1      -9.185   3.933  13.143  1.00  0.00     0.177 C 
BRANCH  14  15
ATOM     15  C   UNL     1     -10.005   5.062  12.491  1.00  0.00     0.038 C 
BRANCH  15  16
ATOM     16  C   UNL     1     -10.844   6.006  13.382  1.00  0.00    -0.015 C 
ATOM     17  C   UNL     1     -11.913   6.763  12.588  1.00  0.00     0.007 C 
ATOM     18  C   UNL     1      -9.926   7.035  14.055  1.00  0.00     0.007 C 
ENDBRANCH  15  16
ENDBRANCH  14  15
BRANCH  14  19
ATOM     19  C   UNL     1      -8.410   4.042  14.502  1.00  0.00     0.245 C 
ATOM     20  O   UNL     1      -8.979   3.586  15.508  1.00  0.00    -0.272 OA
BRANCH  19  21
ATOM     21  N   UNL     1      -7.206   4.706  14.651  1.00  0.00    -0.332 N 
ATOM     22  C   UNL     1      -6.690   5.246  15.896  1.00  0.00     0.147 C 
BRANCH  21  23
ATOM     23  C   UNL     1      -6.362   4.898  13.439  1.00  0.00     0.178 C 
BRANCH  23  24
ATOM     24  C   UNL     1      -6.323   6.344  12.903  1.00  0.00     0.070 C 
BRANCH  24  25
ATOM     25  C   UNL     1      -6.907   6.586  11.531  1.00  0.00    -0.045 A 
ATOM     26  C   UNL     1      -6.608   5.730  10.463  1.00  0.00     0.004 A 
ATOM     27  C   UNL     1      -7.758   7.679  11.306  1.00  0.00     0.004 A 
ATOM     28  C   UNL     1      -7.138   5.970   9.193  1.00  0.00     0.000 A 
ATOM     29  C   UNL     1      -8.288   7.916  10.037  1.00  0.00     0.000 A 
ATOM     30  C   UNL     1      -7.975   7.063   8.981  1.00  0.00     0.000 A 
ENDBRANCH  24  25
ENDBRANCH  23  24
BRANCH  23  31
ATOM     31  C   UNL     1      -4.983   4.206  13.547  1.00  0.00     0.243 C 
ATOM     32  O   UNL     1      -4.004   4.707  14.094  1.00  0.00    -0.273 OA
ATOM     33  N   UNL     1      -4.890   3.040  12.806  1.00  0.00    -0.341 N 
ATOM     34  H   UNL     1      -5.739   2.675  12.368  1.00  0.00     0.164 HD
BRANCH  33  35
ATOM     35  C   UNL     1      -3.644   2.281  12.665  1.00  0.00     0.194 C 
BRANCH  35  36
ATOM     36  C   UNL     1      -2.916   2.503  11.309  1.00  0.00     0.017 C 
ATOM     37  C   UNL     1      -1.704   3.436  11.472  1.00  0.00     0.010 C 
ATOM     38  C   UNL     1      -3.820   3.109  10.229  1.00  0.00     0.010 C 
ENDBRANCH  35  36
BRANCH  35  39
ATOM     39  C   UNL     1      -3.825   0.770  12.986  1.00  0.00     0.329 C 
ATOM     40  O   UNL     1      -4.719   0.322  13.693  1.00  0.00    -0.250 OA
BRANCH  39  41
ATOM     41  O   UNL     1      -2.925  -0.014  12.319  1.00  0.00    -0.458 OA
BRANCH  41  42
ATOM     42  C   UNL     1      -3.371  -1.346  11.969  1.00  0.00     0.205 CG0
ATOM     43  C   UNL     1      -2.152  -2.264  12.031  1.00  0.00     0.056 C 
ATOM     44  G   UNL     1      -4.003  -1.300  10.564  1.00  0.00     0.000 G0
ENDBRANCH  41  42
ENDBRANCH  39  41
ENDBRANCH  35  39
ENDBRANCH  33  35
ENDBRANCH  23  31
ENDBRANCH  21  23
ENDBRANCH  19  21
ENDBRANCH  14  19
ENDBRANCH   7  14
ENDBRANCH   2   5
BRANCH   3  45
ATOM     45  C   UNL     1      -7.671  -2.435  10.435  1.00  0.00     0.171 C 
BRANCH  45  46
ATOM     46  N   UNL     1      -6.429  -1.676  10.372  1.00  0.00    -0.342 N 
ATOM     47  C   UNL     1      -5.199  -2.261  10.542  1.00  0.00     0.247 C 
ATOM     48  O   UNL     1      -5.051  -3.475  10.685  1.00  0.00    -0.273 OA
ATOM     49  H   UNL     1      -6.503  -0.675  10.199  1.00  0.00     0.164 HD
BRANCH  47  50
ATOM     50  C   UNL     1      -4.014  -1.286  10.568  1.00  0.00     0.212 CG0
ATOM     51  G   UNL     1      -3.375  -1.364  11.969  1.00  0.00     0.000 G0
BRANCH  50  52
ATOM     52  N   UNL     1      -3.121  -1.729   9.501  1.00  0.00    -0.339 N 
ATOM     53  C   UNL     1      -3.355  -1.486   8.169  1.00  0.00     0.243 C 
ATOM     54  O   UNL     1      -4.368  -0.918   7.768  1.00  0.00    -0.273 OA
ATOM     55  H   UNL     1      -2.320  -2.302   9.762  1.00  0.00     0.164 HD
BRANCH  53  56
ATOM     56  C   UNL     1      -2.320  -2.126   7.223  1.00  0.00     0.182 C 
BRANCH  56  57
ATOM     57  N   UNL     1      -1.484  -1.102   6.587  1.00  0.00    -0.344 N 
ATOM     58  C   UNL     1      -0.412  -0.527   7.224  1.00  0.00     0.220 C 
ATOM     59  O   UNL     1      -0.122  -0.774   8.390  1.00  0.00    -0.275 OA
ATOM     60  H   UNL     1      -1.626  -0.944   5.593  1.00  0.00     0.164 HD
BRANCH  58  61
ATOM     61  C   UNL     1       0.344   0.463   6.357  1.00  0.00     0.100 C 
BRANCH  61  62
ATOM     62  C   UNL     1      -0.444   1.736   6.046  1.00  0.00     0.010 C 
BRANCH  62  63
ATOM     63  C   UNL     1      -0.075   2.934   6.929  1.00  0.00     0.000 C 
BRANCH  63  64
ATOM     64  C   UNL     1      -0.214   4.289   6.238  1.00  0.00    -0.003 C 
ATOM     65  C   UNL     1       0.864   4.487   5.182  1.00  0.00     0.004 C 
ENDBRANCH  63  64
ENDBRANCH  62  63
ENDBRANCH  61  62
ENDBRANCH  58  61
ENDBRANCH  56  57
BRANCH  56  66
ATOM     66  C   UNL     1      -2.988  -3.042   6.199  1.00  0.00     0.157 C 
BRANCH  66  67
ATOM     67  C   UNL     1      -2.784  -4.488   6.549  1.00  0.00     0.305 C 
ATOM     68  O   UNL     1      -2.582  -4.951   7.661  1.00  0.00    -0.252 OA
BRANCH  67  69
ATOM     69  O   UNL     1      -2.898  -5.295   5.477  1.00  0.00    -0.481 OA
ATOM     70  H   UNL     1      -2.086  -5.844   5.490  1.00  0.00     0.296 HD
ENDBRANCH  67  69
ENDBRANCH  66  67
ENDBRANCH  56  66
ENDBRANCH  53  56
ENDBRANCH  50  52
ENDBRANCH  47  50
ENDBRANCH  45  46
BRANCH  45  71
ATOM     71  C   UNL     1      -8.503  -2.264   9.159  1.00  0.00     0.037 C 
BRANCH  71  72
ATOM     72  C   UNL     1      -7.683  -1.664   8.013  1.00  0.00     0.026 C 
BRANCH  72  73
ATOM     73  C   UNL     1      -8.254  -0.322   7.560  1.00  0.00     0.146 C 
BRANCH  73  74
ATOM     74  N   UNL     1      -8.253   0.576   8.711  1.00  0.00    -0.254 NA
ATOM     75  C   UNL     1      -7.270   1.391   8.834  1.00  0.00     0.185 C 
ATOM     76  N   UNL     1      -7.242   2.230   9.882  1.00  0.00    -0.370 N 
ATOM     77  N   UNL     1      -6.200   1.551   8.036  1.00  0.00    -0.370 N 
ATOM     78  H   UNL     1      -8.008   2.170  10.537  1.00  0.00     0.159 HD
ATOM     79  H   UNL     1      -6.442   2.789  10.122  1.00  0.00     0.159 HD
ATOM     80  H   UNL     1      -6.090   0.989   7.206  1.00  0.00     0.159 HD
ATOM     81  H   UNL     1      -5.548   2.306   8.172  1.00  0.00     0.159 HD
ENDBRANCH  73  74
ENDBRANCH  72  73
ENDBRANCH  71  72
ENDBRANCH  45  71
ENDBRANCH   3  45
TORSDOF 20
ENDMDL
MODEL 6
REMARK VINA RESULT:    -6.403      2.584      5.057
REMARK INTER + INTRA:         -26.026
REMARK INTER:                 -19.252
REMARK INTRA:                  -6.774
REMARK UNBOUND:                -7.644
REMARK SMILES CCCCCC(=O)N[C@H](CC(=O)O)C(=O)N[C@H]1C(=O)N[C@H](CCCN=C(N)N)C(=O)N[C@@H]2CC[C@H](O)N(C2=O)[C@@H](CC(C)C)C(=O)N(C)[C@@H](Cc2ccccc2)C(=O)N[C@H](C(C)C)C(=O)O[C@@H]1C
REMARK SMILES IDX 30 1 31 2 29 3 32 5 35 6 37 7 34 8 38 9 33 10 39 11 36 12
REMARK SMILES IDX 40 14 41 15 42 16 43 17 44 18 45 19 46 20 47 21 48 22 49 23
REMARK SMILES IDX 50 24 51 25 52 26 56 27 53 28 55 29 54 30 57 31 58 32 59 33
REMARK SMILES IDX 60 35 61 36 62 37 63 38 64 39 65 40 66 41 67 42 68 43 21 45
REMARK SMILES IDX 20 46 18 47 19 48 17 50 16 52 14 53 15 54 9 56 8 57 6 58
REMARK SMILES IDX 7 59 5 61 4 62 3 63 2 64 1 65 10 66 11 67 12 68 13 69 22 71
REMARK SMILES IDX 23 72 24 73 25 74 26 75 27 76 28 77
REMARK H PARENT 31 4 36 13 59 34 20 49 16 55 8 60 13 70 27 78 27 79 28 80
REMARK H PARENT 28 81
REMARK Flexibility Score:  259.900
ROOT
ATOM      1  O   UNL     1      -2.694   3.670  12.110  1.00  0.00    -0.273 OA
ATOM      2  N   UNL     1      -4.065   3.061  10.384  1.00  0.00    -0.343 N 
ATOM      3  C   UNL     1      -3.605   2.963  11.680  1.00  0.00     0.243 C 
ATOM      4  H   UNL     1      -4.827   2.473  10.069  1.00  0.00     0.164 HD
ENDROOT
BRANCH   2   5
ATOM      5  C   UNL     1      -3.402   3.938   9.425  1.00  0.00     0.171 C 
ATOM      6  C   UNL     1      -3.317   3.973   6.527  1.00  0.00     0.214 C 
ATOM      7  N   UNL     1      -2.311   3.239   7.258  1.00  0.00    -0.303 N 
ATOM      8  C   UNL     1      -3.852   5.178   7.285  1.00  0.00     0.057 C 
ATOM      9  C   UNL     1      -2.322   3.139   8.640  1.00  0.00     0.247 C 
ATOM     10  C   UNL     1      -4.422   4.736   8.615  1.00  0.00     0.040 C 
ATOM     11  O   UNL     1      -1.507   2.438   9.254  1.00  0.00    -0.272 OA
BRANCH   6  12
ATOM     12  O   UNL     1      -4.364   3.080   6.221  1.00  0.00    -0.373 OA
ATOM     13  H   UNL     1      -4.425   2.444   6.965  1.00  0.00     0.213 HD
ENDBRANCH   6  12
BRANCH   7  14
ATOM     14  C   UNL     1      -1.336   2.464   6.462  1.00  0.00     0.177 C 
BRANCH  14  15
ATOM     15  C   UNL     1       0.145   2.733   6.795  1.00  0.00     0.038 C 
BRANCH  15  16
ATOM     16  C   UNL     1       0.814   4.032   6.294  1.00  0.00    -0.015 C 
ATOM     17  C   UNL     1       0.139   5.290   6.849  1.00  0.00     0.007 C 
ATOM     18  C   UNL     1       0.751   4.090   4.762  1.00  0.00     0.007 C 
ENDBRANCH  15  16
ENDBRANCH  14  15
BRANCH  14  19
ATOM     19  C   UNL     1      -1.938   1.071   6.070  1.00  0.00     0.245 C 
ATOM     20  O   UNL     1      -2.649   1.036   5.052  1.00  0.00    -0.272 OA
BRANCH  19  21
ATOM     21  N   UNL     1      -1.814  -0.068   6.845  1.00  0.00    -0.332 N 
ATOM     22  C   UNL     1      -0.620  -0.472   7.565  1.00  0.00     0.147 C 
BRANCH  21  23
ATOM     23  C   UNL     1      -2.995  -0.970   6.949  1.00  0.00     0.178 C 
BRANCH  23  24
ATOM     24  C   UNL     1      -2.712  -2.446   6.599  1.00  0.00     0.070 C 
BRANCH  24  25
ATOM     25  C   UNL     1      -3.659  -3.117   5.632  1.00  0.00    -0.045 A 
ATOM     26  C   UNL     1      -4.826  -2.470   5.205  1.00  0.00     0.004 A 
ATOM     27  C   UNL     1      -3.383  -4.405   5.150  1.00  0.00     0.004 A 
ATOM     28  C   UNL     1      -5.705  -3.104   4.324  1.00  0.00     0.000 A 
ATOM     29  C   UNL     1      -4.262  -5.037   4.269  1.00  0.00     0.000 A 
ATOM     30  C   UNL     1      -5.424  -4.387   3.859  1.00  0.00     0.000 A 
ENDBRANCH  24  25
ENDBRANCH  23  24
BRANCH  23  31
ATOM     31  C   UNL     1      -3.808  -0.753   8.248  1.00  0.00     0.243 C 
ATOM     32  O   UNL     1      -4.237   0.338   8.615  1.00  0.00    -0.273 OA
ATOM     33  N   UNL     1      -3.854  -1.870   9.064  1.00  0.00    -0.341 N 
ATOM     34  H   UNL     1      -3.474  -2.750   8.706  1.00  0.00     0.164 HD
BRANCH  33  35
ATOM     35  C   UNL     1      -4.467  -1.861  10.396  1.00  0.00     0.194 C 
BRANCH  35  36
ATOM     36  C   UNL     1      -3.574  -2.476  11.510  1.00  0.00     0.017 C 
ATOM     37  C   UNL     1      -2.766  -1.391  12.242  1.00  0.00     0.010 C 
ATOM     38  C   UNL     1      -2.575  -3.513  10.980  1.00  0.00     0.010 C 
ENDBRANCH  35  36
BRANCH  35  39
ATOM     39  C   UNL     1      -5.898  -2.467  10.399  1.00  0.00     0.329 C 
ATOM     40  O   UNL     1      -6.152  -3.626  10.706  1.00  0.00    -0.250 OA
BRANCH  39  41
ATOM     41  O   UNL     1      -6.857  -1.537  10.105  1.00  0.00    -0.458 OA
BRANCH  41  42
ATOM     42  C   UNL     1      -7.738  -1.159  11.190  1.00  0.00     0.205 CG0
ATOM     43  C   UNL     1      -9.141  -1.640  10.824  1.00  0.00     0.056 C 
ATOM     44  G   UNL     1      -7.667   0.370  11.370  1.00  0.00     0.000 G0
ENDBRANCH  41  42
ENDBRANCH  39  41
ENDBRANCH  35  39
ENDBRANCH  33  35
ENDBRANCH  23  31
ENDBRANCH  21  23
ENDBRANCH  19  21
ENDBRANCH  14  19
ENDBRANCH   7  14
ENDBRANCH   2   5
BRANCH   3  45
ATOM     45  C   UNL     1      -4.321   1.925  12.554  1.00  0.00     0.171 C 
BRANCH  45  46
ATOM     46  N   UNL     1      -5.570   1.625  11.866  1.00  0.00    -0.342 N 
ATOM     47  C   UNL     1      -6.433   0.650  12.299  1.00  0.00     0.247 C 
ATOM     48  O   UNL     1      -6.253   0.010  13.335  1.00  0.00    -0.273 OA
ATOM     49  H   UNL     1      -5.786   2.171  11.034  1.00  0.00     0.164 HD
BRANCH  47  50
ATOM     50  C   UNL     1      -7.635   0.390  11.379  1.00  0.00     0.212 CG0
ATOM     51  G   UNL     1      -7.742  -1.133  11.168  1.00  0.00     0.000 G0
BRANCH  50  52
ATOM     52  N   UNL     1      -8.787   0.959  12.074  1.00  0.00    -0.339 N 
ATOM     53  C   UNL     1      -9.416   2.113  11.674  1.00  0.00     0.243 C 
ATOM     54  O   UNL     1      -9.022   2.788  10.726  1.00  0.00    -0.273 OA
ATOM     55  H   UNL     1      -9.092   0.506  12.933  1.00  0.00     0.164 HD
BRANCH  53  56
ATOM     56  C   UNL     1     -10.553   2.565  12.612  1.00  0.00     0.182 C 
BRANCH  56  57
ATOM     57  N   UNL     1     -10.018   3.099  13.869  1.00  0.00    -0.344 N 
ATOM     58  C   UNL     1     -10.138   4.422  14.217  1.00  0.00     0.220 C 
ATOM     59  O   UNL     1     -10.634   5.261  13.473  1.00  0.00    -0.275 OA
ATOM     60  H   UNL     1      -9.692   2.423  14.555  1.00  0.00     0.164 HD
BRANCH  58  61
ATOM     61  C   UNL     1      -9.564   4.739  15.585  1.00  0.00     0.100 C 
BRANCH  61  62
ATOM     62  C   UNL     1      -9.285   6.226  15.807  1.00  0.00     0.010 C 
BRANCH  62  63
ATOM     63  C   UNL     1      -8.201   6.512  16.855  1.00  0.00     0.000 C 
BRANCH  63  64
ATOM     64  C   UNL     1      -7.233   7.628  16.466  1.00  0.00    -0.003 C 
ATOM     65  C   UNL     1      -5.793   7.134  16.455  1.00  0.00     0.004 C 
ENDBRANCH  63  64
ENDBRANCH  62  63
ENDBRANCH  61  62
ENDBRANCH  58  61
ENDBRANCH  56  57
BRANCH  56  66
ATOM     66  C   UNL     1     -11.565   1.445  12.847  1.00  0.00     0.157 C 
BRANCH  66  67
ATOM     67  C   UNL     1     -11.441   0.881  14.233  1.00  0.00     0.305 C 
ATOM     68  O   UNL     1     -10.625   0.059  14.620  1.00  0.00    -0.252 OA
BRANCH  67  69
ATOM     69  O   UNL     1     -12.328   1.426  15.088  1.00  0.00    -0.481 OA
ATOM     70  H   UNL     1     -12.218   2.395  14.978  1.00  0.00     0.296 HD
ENDBRANCH  67  69
ENDBRANCH  66  67
ENDBRANCH  56  66
ENDBRANCH  53  56
ENDBRANCH  50  52
ENDBRANCH  47  50
ENDBRANCH  45  46
BRANCH  45  71
ATOM     71  C   UNL     1      -4.570   2.490  13.957  1.00  0.00     0.037 C 
BRANCH  71  72
ATOM     72  C   UNL     1      -4.844   3.996  13.931  1.00  0.00     0.026 C 
BRANCH  72  73
ATOM     73  C   UNL     1      -6.328   4.299  14.127  1.00  0.00     0.146 C 
BRANCH  73  74
ATOM     74  N   UNL     1      -6.961   4.302  12.812  1.00  0.00    -0.254 NA
ATOM     75  C   UNL     1      -7.335   5.429  12.329  1.00  0.00     0.185 C 
ATOM     76  N   UNL     1      -7.920   5.463  11.121  1.00  0.00    -0.370 N 
ATOM     77  N   UNL     1      -7.232   6.655  12.870  1.00  0.00    -0.370 N 
ATOM     78  H   UNL     1      -8.043   4.580  10.647  1.00  0.00     0.159 HD
ATOM     79  H   UNL     1      -8.366   6.281  10.745  1.00  0.00     0.159 HD
ATOM     80  H   UNL     1      -6.809   6.783  13.776  1.00  0.00     0.159 HD
ATOM     81  H   UNL     1      -7.458   7.484  12.345  1.00  0.00     0.159 HD
ENDBRANCH  73  74
ENDBRANCH  72  73
ENDBRANCH  71  72
ENDBRANCH  45  71
ENDBRANCH   3  45
TORSDOF 20
ENDMDL
MODEL 7
REMARK VINA RESULT:    -6.402      2.786      7.701
REMARK INTER + INTRA:         -26.021
REMARK INTER:                 -20.810
REMARK INTRA:                  -5.211
REMARK UNBOUND:                -7.644
REMARK SMILES CCCCCC(=O)N[C@H](CC(=O)O)C(=O)N[C@H]1C(=O)N[C@H](CCCN=C(N)N)C(=O)N[C@@H]2CC[C@H](O)N(C2=O)[C@@H](CC(C)C)C(=O)N(C)[C@@H](Cc2ccccc2)C(=O)N[C@H](C(C)C)C(=O)O[C@@H]1C
REMARK SMILES IDX 30 1 31 2 29 3 32 5 35 6 37 7 34 8 38 9 33 10 39 11 36 12
REMARK SMILES IDX 40 14 41 15 42 16 43 17 44 18 45 19 46 20 47 21 48 22 49 23
REMARK SMILES IDX 50 24 51 25 52 26 56 27 53 28 55 29 54 30 57 31 58 32 59 33
REMARK SMILES IDX 60 35 61 36 62 37 63 38 64 39 65 40 66 41 67 42 68 43 21 45
REMARK SMILES IDX 20 46 18 47 19 48 17 50 16 52 14 53 15 54 9 56 8 57 6 58
REMARK SMILES IDX 7 59 5 61 4 62 3 63 2 64 1 65 10 66 11 67 12 68 13 69 22 71
REMARK SMILES IDX 23 72 24 73 25 74 26 75 27 76 28 77
REMARK H PARENT 31 4 36 13 59 34 20 49 16 55 8 60 13 70 27 78 27 79 28 80
REMARK H PARENT 28 81
REMARK Flexibility Score:  259.900
ROOT
ATOM      1  O   UNL     1      -7.219   1.987   5.995  1.00  0.00    -0.273 OA
ATOM      2  N   UNL     1      -5.086   1.929   6.819  1.00  0.00    -0.343 N 
ATOM      3  C   UNL     1      -6.319   1.368   6.563  1.00  0.00     0.243 C 
ATOM      4  H   UNL     1      -4.365   1.384   7.276  1.00  0.00     0.164 HD
ENDROOT
BRANCH   2   5
ATOM      5  C   UNL     1      -4.835   3.336   6.527  1.00  0.00     0.171 C 
ATOM      6  C   UNL     1      -2.938   5.254   7.587  1.00  0.00     0.214 C 
ATOM      7  N   UNL     1      -4.241   5.132   8.198  1.00  0.00    -0.303 N 
ATOM      8  C   UNL     1      -2.936   4.928   6.102  1.00  0.00     0.057 C 
ATOM      9  C   UNL     1      -5.176   4.202   7.774  1.00  0.00     0.247 C 
ATOM     10  C   UNL     1      -3.462   3.526   5.884  1.00  0.00     0.040 C 
ATOM     11  O   UNL     1      -6.256   4.045   8.357  1.00  0.00    -0.272 OA
BRANCH   6  12
ATOM     12  O   UNL     1      -2.057   4.400   8.279  1.00  0.00    -0.373 OA
ATOM     13  H   UNL     1      -2.118   4.633   9.230  1.00  0.00     0.213 HD
ENDBRANCH   6  12
BRANCH   7  14
ATOM     14  C   UNL     1      -4.495   5.948   9.404  1.00  0.00     0.177 C 
BRANCH  14  15
ATOM     15  C   UNL     1      -5.952   6.415   9.586  1.00  0.00     0.038 C 
BRANCH  15  16
ATOM     16  C   UNL     1      -6.394   7.774   8.998  1.00  0.00    -0.015 C 
ATOM     17  C   UNL     1      -7.790   7.713   8.370  1.00  0.00     0.007 C 
ATOM     18  C   UNL     1      -5.400   8.220   7.918  1.00  0.00     0.007 C 
ENDBRANCH  15  16
ENDBRANCH  14  15
BRANCH  14  19
ATOM     19  C   UNL     1      -3.528   5.520  10.562  1.00  0.00     0.245 C 
ATOM     20  O   UNL     1      -2.482   6.177  10.689  1.00  0.00    -0.272 OA
BRANCH  19  21
ATOM     21  N   UNL     1      -3.724   4.406  11.358  1.00  0.00    -0.332 N 
ATOM     22  C   UNL     1      -3.040   3.133  11.210  1.00  0.00     0.147 C 
BRANCH  21  23
ATOM     23  C   UNL     1      -4.726   4.502  12.456  1.00  0.00     0.178 C 
BRANCH  23  24
ATOM     24  C   UNL     1      -5.264   5.923  12.716  1.00  0.00     0.070 C 
BRANCH  24  25
ATOM     25  C   UNL     1      -5.558   6.296  14.151  1.00  0.00    -0.045 A 
ATOM     26  C   UNL     1      -4.728   5.858  15.191  1.00  0.00     0.004 A 
ATOM     27  C   UNL     1      -6.675   7.086  14.462  1.00  0.00     0.004 A 
ATOM     28  C   UNL     1      -5.016   6.192  16.515  1.00  0.00     0.000 A 
ATOM     29  C   UNL     1      -6.960   7.421  15.787  1.00  0.00     0.000 A 
ATOM     30  C   UNL     1      -6.132   6.971  16.813  1.00  0.00     0.000 A 
ENDBRANCH  24  25
ENDBRANCH  23  24
BRANCH  23  31
ATOM     31  C   UNL     1      -5.808   3.398  12.384  1.00  0.00     0.243 C 
ATOM     32  O   UNL     1      -6.499   3.177  11.392  1.00  0.00    -0.273 OA
ATOM     33  N   UNL     1      -6.065   2.795  13.603  1.00  0.00    -0.341 N 
ATOM     34  H   UNL     1      -5.459   3.024  14.395  1.00  0.00     0.164 HD
BRANCH  33  35
ATOM     35  C   UNL     1      -7.131   1.808  13.798  1.00  0.00     0.194 C 
BRANCH  35  36
ATOM     36  C   UNL     1      -8.217   2.239  14.823  1.00  0.00     0.017 C 
ATOM     37  C   UNL     1      -9.632   1.953  14.292  1.00  0.00     0.010 C 
ATOM     38  C   UNL     1      -8.153   3.729  15.180  1.00  0.00     0.010 C 
ENDBRANCH  35  36
BRANCH  35  39
ATOM     39  C   UNL     1      -6.580   0.385  14.099  1.00  0.00     0.329 C 
ATOM     40  O   UNL     1      -6.918  -0.290  15.064  1.00  0.00    -0.250 OA
BRANCH  39  41
ATOM     41  O   UNL     1      -5.741  -0.066  13.119  1.00  0.00    -0.458 OA
BRANCH  41  42
ATOM     42  C   UNL     1      -6.370  -0.672  11.964  1.00  0.00     0.205 CG0
ATOM     43  C   UNL     1      -6.524  -2.162  12.261  1.00  0.00     0.056 C 
ATOM     44  G   UNL     1      -5.490  -0.405  10.727  1.00  0.00     0.000 G0
ENDBRANCH  41  42
ENDBRANCH  39  41
ENDBRANCH  35  39
ENDBRANCH  33  35
ENDBRANCH  23  31
ENDBRANCH  21  23
ENDBRANCH  19  21
ENDBRANCH  14  19
ENDBRANCH   7  14
ENDBRANCH   2   5
BRANCH   3  45
ATOM     45  C   UNL     1      -6.486  -0.088   7.018  1.00  0.00     0.171 C 
BRANCH  45  46
ATOM     46  N   UNL     1      -5.760  -0.193   8.277  1.00  0.00    -0.342 N 
ATOM     47  C   UNL     1      -6.385  -0.475   9.465  1.00  0.00     0.247 C 
ATOM     48  O   UNL     1      -7.587  -0.730   9.545  1.00  0.00    -0.273 OA
ATOM     49  H   UNL     1      -4.753  -0.045   8.247  1.00  0.00     0.164 HD
BRANCH  47  50
ATOM     50  C   UNL     1      -5.479  -0.422  10.704  1.00  0.00     0.212 CG0
ATOM     51  G   UNL     1      -6.365  -0.671  11.941  1.00  0.00     0.000 G0
BRANCH  50  52
ATOM     52  N   UNL     1      -4.473  -1.460  10.496  1.00  0.00    -0.339 N 
ATOM     53  C   UNL     1      -3.131  -1.267  10.716  1.00  0.00     0.243 C 
ATOM     54  O   UNL     1      -2.665  -0.183  11.056  1.00  0.00    -0.273 OA
ATOM     55  H   UNL     1      -4.784  -2.349  10.108  1.00  0.00     0.164 HD
BRANCH  53  56
ATOM     56  C   UNL     1      -2.254  -2.480  10.345  1.00  0.00     0.182 C 
BRANCH  56  57
ATOM     57  N   UNL     1      -1.347  -2.155   9.239  1.00  0.00    -0.344 N 
ATOM     58  C   UNL     1      -1.769  -1.491   8.112  1.00  0.00     0.220 C 
ATOM     59  O   UNL     1      -2.942  -1.190   7.920  1.00  0.00    -0.275 OA
ATOM     60  H   UNL     1      -0.354  -2.295   9.402  1.00  0.00     0.164 HD
BRANCH  58  61
ATOM     61  C   UNL     1      -0.650  -1.210   7.126  1.00  0.00     0.100 C 
BRANCH  61  62
ATOM     62  C   UNL     1       0.132   0.068   7.430  1.00  0.00     0.010 C 
BRANCH  62  63
ATOM     63  C   UNL     1      -0.283   1.275   6.580  1.00  0.00     0.000 C 
BRANCH  63  64
ATOM     64  C   UNL     1       0.873   1.948   5.841  1.00  0.00    -0.003 C 
ATOM     65  C   UNL     1       0.784   3.465   5.936  1.00  0.00     0.004 C 
ENDBRANCH  63  64
ENDBRANCH  62  63
ENDBRANCH  61  62
ENDBRANCH  58  61
ENDBRANCH  56  57
BRANCH  56  66
ATOM     66  C   UNL     1      -3.102  -3.716  10.051  1.00  0.00     0.157 C 
BRANCH  66  67
ATOM     67  C   UNL     1      -2.355  -4.697   9.194  1.00  0.00     0.305 C 
ATOM     68  O   UNL     1      -2.535  -4.917   8.006  1.00  0.00    -0.252 OA
BRANCH  67  69
ATOM     69  O   UNL     1      -1.372  -5.322   9.869  1.00  0.00    -0.481 OA
ATOM     70  H   UNL     1      -1.756  -5.510  10.752  1.00  0.00     0.296 HD
ENDBRANCH  67  69
ENDBRANCH  66  67
ENDBRANCH  56  66
ENDBRANCH  53  56
ENDBRANCH  50  52
ENDBRANCH  47  50
ENDBRANCH  45  46
BRANCH  45  71
ATOM     71  C   UNL     1      -5.925  -1.045   5.960  1.00  0.00     0.037 C 
BRANCH  71  72
ATOM     72  C   UNL     1      -5.727  -2.459   6.510  1.00  0.00     0.026 C 
BRANCH  72  73
ATOM     73  C   UNL     1      -4.835  -3.297   5.595  1.00  0.00     0.146 C 
BRANCH  73  74
ATOM     74  N   UNL     1      -5.381  -3.217   4.244  1.00  0.00    -0.254 NA
ATOM     75  C   UNL     1      -5.150  -4.193   3.446  1.00  0.00     0.185 C 
ATOM     76  N   UNL     1      -5.640  -4.149   2.196  1.00  0.00    -0.370 N 
ATOM     77  N   UNL     1      -4.456  -5.322   3.671  1.00  0.00    -0.370 N 
ATOM     78  H   UNL     1      -6.170  -3.328   1.942  1.00  0.00     0.159 HD
ATOM     79  H   UNL     1      -5.382  -4.801   1.477  1.00  0.00     0.159 HD
ATOM     80  H   UNL     1      -4.032  -5.494   4.570  1.00  0.00     0.159 HD
ATOM     81  H   UNL     1      -4.439  -6.074   3.001  1.00  0.00     0.159 HD
ENDBRANCH  73  74
ENDBRANCH  72  73
ENDBRANCH  71  72
ENDBRANCH  45  71
ENDBRANCH   3  45
TORSDOF 20
ENDMDL
MODEL 8
REMARK VINA RESULT:    -6.368      2.502      7.814
REMARK INTER + INTRA:         -25.925
REMARK INTER:                 -19.905
REMARK INTRA:                  -6.020
REMARK UNBOUND:                -7.644
REMARK SMILES CCCCCC(=O)N[C@H](CC(=O)O)C(=O)N[C@H]1C(=O)N[C@H](CCCN=C(N)N)C(=O)N[C@@H]2CC[C@H](O)N(C2=O)[C@@H](CC(C)C)C(=O)N(C)[C@@H](Cc2ccccc2)C(=O)N[C@H](C(C)C)C(=O)O[C@@H]1C
REMARK SMILES IDX 30 1 31 2 29 3 32 5 35 6 37 7 34 8 38 9 33 10 39 11 36 12
REMARK SMILES IDX 40 14 41 15 42 16 43 17 44 18 45 19 46 20 47 21 48 22 49 23
REMARK SMILES IDX 50 24 51 25 52 26 56 27 53 28 55 29 54 30 57 31 58 32 59 33
REMARK SMILES IDX 60 35 61 36 62 37 63 38 64 39 65 40 66 41 67 42 68 43 21 45
REMARK SMILES IDX 20 46 18 47 19 48 17 50 16 52 14 53 15 54 9 56 8 57 6 58
REMARK SMILES IDX 7 59 5 61 4 62 3 63 2 64 1 65 10 66 11 67 12 68 13 69 22 71
REMARK SMILES IDX 23 72 24 73 25 74 26 75 27 76 28 77
REMARK H PARENT 31 4 36 13 59 34 20 49 16 55 8 60 13 70 27 78 27 79 28 80
REMARK H PARENT 28 81
REMARK Flexibility Score:  259.900
ROOT
ATOM      1  O   UNL     1      -5.038   0.282  11.202  1.00  0.00    -0.273 OA
ATOM      2  N   UNL     1      -3.596   0.179  12.974  1.00  0.00    -0.343 N 
ATOM      3  C   UNL     1      -4.002  -0.160  11.701  1.00  0.00     0.243 C 
ATOM      4  H   UNL     1      -2.731  -0.192  13.347  1.00  0.00     0.164 HD
ENDROOT
BRANCH   2   5
ATOM      5  C   UNL     1      -4.449   0.991  13.835  1.00  0.00     0.171 C 
ATOM      6  C   UNL     1      -6.946   2.390  13.369  1.00  0.00     0.214 C 
ATOM      7  N   UNL     1      -5.695   3.083  13.169  1.00  0.00    -0.303 N 
ATOM      8  C   UNL     1      -6.870   1.309  14.436  1.00  0.00     0.057 C 
ATOM      9  C   UNL     1      -4.467   2.460  13.324  1.00  0.00     0.247 C 
ATOM     10  C   UNL     1      -5.794   0.308  14.076  1.00  0.00     0.040 C 
ATOM     11  O   UNL     1      -3.402   3.036  13.067  1.00  0.00    -0.272 OA
BRANCH   6  12
ATOM     12  O   UNL     1      -7.333   1.835  12.133  1.00  0.00    -0.373 OA
ATOM     13  H   UNL     1      -7.944   1.093  12.330  1.00  0.00     0.213 HD
ENDBRANCH   6  12
BRANCH   7  14
ATOM     14  C   UNL     1      -5.770   4.463  12.642  1.00  0.00     0.177 C 
BRANCH  14  15
ATOM     15  C   UNL     1      -5.246   5.557  13.593  1.00  0.00     0.038 C 
BRANCH  15  16
ATOM     16  C   UNL     1      -6.167   6.738  13.974  1.00  0.00    -0.015 C 
ATOM     17  C   UNL     1      -6.170   7.013  15.480  1.00  0.00     0.007 C 
ATOM     18  C   UNL     1      -7.606   6.436  13.537  1.00  0.00     0.007 C 
ENDBRANCH  15  16
ENDBRANCH  14  15
BRANCH  14  19
ATOM     19  C   UNL     1      -5.604   4.459  11.084  1.00  0.00     0.245 C 
ATOM     20  O   UNL     1      -6.554   4.010  10.421  1.00  0.00    -0.272 OA
BRANCH  19  21
ATOM     21  N   UNL     1      -4.437   4.817  10.432  1.00  0.00    -0.332 N 
ATOM     22  C   UNL     1      -3.595   5.950  10.772  1.00  0.00     0.147 C 
BRANCH  21  23
ATOM     23  C   UNL     1      -4.002   3.985   9.276  1.00  0.00     0.178 C 
BRANCH  23  24
ATOM     24  C   UNL     1      -4.539   4.450   7.907  1.00  0.00     0.070 C 
BRANCH  24  25
ATOM     25  C   UNL     1      -4.752   3.388   6.854  1.00  0.00    -0.045 A 
ATOM     26  C   UNL     1      -5.650   2.334   7.069  1.00  0.00     0.004 A 
ATOM     27  C   UNL     1      -4.047   3.440   5.643  1.00  0.00     0.004 A 
ATOM     28  C   UNL     1      -5.829   1.347   6.098  1.00  0.00     0.000 A 
ATOM     29  C   UNL     1      -4.227   2.453   4.673  1.00  0.00     0.000 A 
ATOM     30  C   UNL     1      -5.117   1.406   4.902  1.00  0.00     0.000 A 
ENDBRANCH  24  25
ENDBRANCH  23  24
BRANCH  23  31
ATOM     31  C   UNL     1      -2.491   3.654   9.305  1.00  0.00     0.243 C 
ATOM     32  O   UNL     1      -1.915   3.156  10.269  1.00  0.00    -0.273 OA
ATOM     33  N   UNL     1      -1.797   4.140   8.210  1.00  0.00    -0.341 N 
ATOM     34  H   UNL     1      -2.332   4.551   7.440  1.00  0.00     0.164 HD
BRANCH  33  35
ATOM     35  C   UNL     1      -0.340   4.049   8.082  1.00  0.00     0.194 C 
BRANCH  35  36
ATOM     36  C   UNL     1       0.381   5.425   8.034  1.00  0.00     0.017 C 
ATOM     37  C   UNL     1       0.039   6.280   9.267  1.00  0.00     0.010 C 
ATOM     38  C   UNL     1       0.025   6.250   6.791  1.00  0.00     0.010 C 
ENDBRANCH  35  36
BRANCH  35  39
ATOM     39  C   UNL     1       0.101   3.122   6.915  1.00  0.00     0.329 C 
ATOM     40  O   UNL     1       1.230   3.107   6.439  1.00  0.00    -0.250 OA
BRANCH  39  41
ATOM     41  O   UNL     1      -0.890   2.259   6.534  1.00  0.00    -0.458 OA
BRANCH  41  42
ATOM     42  C   UNL     1      -0.762   0.893   6.993  1.00  0.00     0.205 CG0
ATOM     43  C   UNL     1      -0.280   0.058   5.809  1.00  0.00     0.056 C 
ATOM     44  G   UNL     1      -2.131   0.423   7.526  1.00  0.00     0.000 G0
ENDBRANCH  41  42
ENDBRANCH  39  41
ENDBRANCH  35  39
ENDBRANCH  33  35
ENDBRANCH  23  31
ENDBRANCH  21  23
ENDBRANCH  19  21
ENDBRANCH  14  19
ENDBRANCH   7  14
ENDBRANCH   2   5
BRANCH   3  45
ATOM     45  C   UNL     1      -3.064  -1.107  10.942  1.00  0.00     0.171 C 
BRANCH  45  46
ATOM     46  N   UNL     1      -3.053  -0.631   9.565  1.00  0.00    -0.342 N 
ATOM     47  C   UNL     1      -1.934  -0.095   8.981  1.00  0.00     0.247 C 
ATOM     48  O   UNL     1      -0.842  -0.043   9.549  1.00  0.00    -0.273 OA
ATOM     49  H   UNL     1      -3.922  -0.708   9.039  1.00  0.00     0.164 HD
BRANCH  47  50
ATOM     50  C   UNL     1      -2.144   0.467   7.568  1.00  0.00     0.212 CG0
ATOM     51  G   UNL     1      -0.758   0.830   6.998  1.00  0.00     0.000 G0
BRANCH  50  52
ATOM     52  N   UNL     1      -2.814  -0.596   6.822  1.00  0.00    -0.339 N 
ATOM     53  C   UNL     1      -2.537  -1.930   6.995  1.00  0.00     0.243 C 
ATOM     54  O   UNL     1      -1.662  -2.332   7.756  1.00  0.00    -0.273 OA
ATOM     55  H   UNL     1      -3.472  -0.321   6.095  1.00  0.00     0.164 HD
BRANCH  53  56
ATOM     56  C   UNL     1      -3.308  -2.860   6.035  1.00  0.00     0.182 C 
BRANCH  56  57
ATOM     57  N   UNL     1      -4.756  -2.669   6.167  1.00  0.00    -0.344 N 
ATOM     58  C   UNL     1      -5.561  -2.381   5.092  1.00  0.00     0.220 C 
ATOM     59  O   UNL     1      -5.120  -2.192   3.964  1.00  0.00    -0.275 OA
ATOM     60  H   UNL     1      -5.173  -2.916   7.061  1.00  0.00     0.164 HD
BRANCH  58  61
ATOM     61  C   UNL     1      -7.032  -2.285   5.452  1.00  0.00     0.100 C 
BRANCH  61  62
ATOM     62  C   UNL     1      -7.290  -1.701   6.841  1.00  0.00     0.010 C 
BRANCH  62  63
ATOM     63  C   UNL     1      -8.731  -1.874   7.338  1.00  0.00     0.000 C 
BRANCH  63  64
ATOM     64  C   UNL     1      -9.404  -0.575   7.776  1.00  0.00    -0.003 C 
ATOM     65  C   UNL     1      -8.418   0.354   8.472  1.00  0.00     0.004 C 
ENDBRANCH  63  64
ENDBRANCH  62  63
ENDBRANCH  61  62
ENDBRANCH  58  61
ENDBRANCH  56  57
BRANCH  56  66
ATOM     66  C   UNL     1      -2.899  -4.320   6.222  1.00  0.00     0.157 C 
BRANCH  66  67
ATOM     67  C   UNL     1      -2.529  -4.952   4.911  1.00  0.00     0.305 C 
ATOM     68  O   UNL     1      -1.503  -5.565   4.657  1.00  0.00    -0.252 OA
BRANCH  67  69
ATOM     69  O   UNL     1      -3.502  -4.826   3.989  1.00  0.00    -0.481 OA
ATOM     70  H   UNL     1      -3.040  -4.531   3.176  1.00  0.00     0.296 HD
ENDBRANCH  67  69
ENDBRANCH  66  67
ENDBRANCH  56  66
ENDBRANCH  53  56
ENDBRANCH  50  52
ENDBRANCH  47  50
ENDBRANCH  45  46
BRANCH  45  71
ATOM     71  C   UNL     1      -3.572  -2.550  11.038  1.00  0.00     0.037 C 
BRANCH  71  72
ATOM     72  C   UNL     1      -4.592  -2.876   9.944  1.00  0.00     0.026 C 
BRANCH  72  73
ATOM     73  C   UNL     1      -5.905  -3.383  10.535  1.00  0.00     0.146 C 
BRANCH  73  74
ATOM     74  N   UNL     1      -6.856  -2.275  10.530  1.00  0.00    -0.254 NA
ATOM     75  C   UNL     1      -7.507  -2.040  11.608  1.00  0.00     0.185 C 
ATOM     76  N   UNL     1      -8.387  -1.026  11.635  1.00  0.00    -0.370 N 
ATOM     77  N   UNL     1      -7.448  -2.681  12.788  1.00  0.00    -0.370 N 
ATOM     78  H   UNL     1      -8.499  -0.495  10.783  1.00  0.00     0.159 HD
ATOM     79  H   UNL     1      -9.033  -0.874  12.389  1.00  0.00     0.159 HD
ATOM     80  H   UNL     1      -6.824  -3.464  12.917  1.00  0.00     0.159 HD
ATOM     81  H   UNL     1      -7.924  -2.333  13.604  1.00  0.00     0.159 HD
ENDBRANCH  73  74
ENDBRANCH  72  73
ENDBRANCH  71  72
ENDBRANCH  45  71
ENDBRANCH   3  45
TORSDOF 20
ENDMDL
MODEL 9
REMARK VINA RESULT:    -6.297      2.853      7.416
REMARK INTER + INTRA:         -25.721
REMARK INTER:                 -20.552
REMARK INTRA:                  -5.169
REMARK UNBOUND:                -7.644
REMARK SMILES CCCCCC(=O)N[C@H](CC(=O)O)C(=O)N[C@H]1C(=O)N[C@H](CCCN=C(N)N)C(=O)N[C@@H]2CC[C@H](O)N(C2=O)[C@@H](CC(C)C)C(=O)N(C)[C@@H](Cc2ccccc2)C(=O)N[C@H](C(C)C)C(=O)O[C@@H]1C
REMARK SMILES IDX 30 1 31 2 29 3 32 5 35 6 37 7 34 8 38 9 33 10 39 11 36 12
REMARK SMILES IDX 40 14 41 15 42 16 43 17 44 18 45 19 46 20 47 21 48 22 49 23
REMARK SMILES IDX 50 24 51 25 52 26 56 27 53 28 55 29 54 30 57 31 58 32 59 33
REMARK SMILES IDX 60 35 61 36 62 37 63 38 64 39 65 40 66 41 67 42 68 43 21 45
REMARK SMILES IDX 20 46 18 47 19 48 17 50 16 52 14 53 15 54 9 56 8 57 6 58
REMARK SMILES IDX 7 59 5 61 4 62 3 63 2 64 1 65 10 66 11 67 12 68 13 69 22 71
REMARK SMILES IDX 23 72 24 73 25 74 26 75 27 76 28 77
REMARK H PARENT 31 4 36 13 59 34 20 49 16 55 8 60 13 70 27 78 27 79 28 80
REMARK H PARENT 28 81
REMARK Flexibility Score:  259.900
ROOT
ATOM      1  O   UNL     1       0.346   4.398   8.367  1.00  0.00    -0.273 OA
ATOM      2  N   UNL     1      -1.556   3.249   7.825  1.00  0.00    -0.343 N 
ATOM      3  C   UNL     1      -0.868   4.396   8.159  1.00  0.00     0.243 C 
ATOM      4  H   UNL     1      -2.552   3.287   7.647  1.00  0.00     0.164 HD
ENDROOT
BRANCH   2   5
ATOM      5  C   UNL     1      -0.883   1.954   7.822  1.00  0.00     0.171 C 
ATOM      6  C   UNL     1      -1.518  -0.585   6.575  1.00  0.00     0.214 C 
ATOM      7  N   UNL     1      -1.991  -0.312   7.912  1.00  0.00    -0.303 N 
ATOM      8  C   UNL     1      -0.209   0.115   6.245  1.00  0.00     0.057 C 
ATOM      9  C   UNL     1      -1.767   0.899   8.546  1.00  0.00     0.247 C 
ATOM     10  C   UNL     1      -0.367   1.609   6.426  1.00  0.00     0.040 C 
ATOM     11  O   UNL     1      -2.249   1.157   9.657  1.00  0.00    -0.272 OA
BRANCH   6  12
ATOM     12  O   UNL     1      -2.527  -0.192   5.673  1.00  0.00    -0.373 OA
ATOM     13  H   UNL     1      -2.510  -0.830   4.928  1.00  0.00     0.213 HD
ENDBRANCH   6  12
BRANCH   7  14
ATOM     14  C   UNL     1      -2.861  -1.331   8.536  1.00  0.00     0.177 C 
BRANCH  14  15
ATOM     15  C   UNL     1      -2.278  -2.014   9.788  1.00  0.00     0.038 C 
BRANCH  15  16
ATOM     16  C   UNL     1      -2.663  -3.476  10.106  1.00  0.00    -0.015 C 
ATOM     17  C   UNL     1      -2.106  -3.947  11.453  1.00  0.00     0.007 C 
ATOM     18  C   UNL     1      -2.122  -4.405   9.012  1.00  0.00     0.007 C 
ENDBRANCH  15  16
ENDBRANCH  14  15
BRANCH  14  19
ATOM     19  C   UNL     1      -4.370  -0.961   8.325  1.00  0.00     0.245 C 
ATOM     20  O   UNL     1      -4.607   0.132   7.782  1.00  0.00    -0.272 OA
BRANCH  19  21
ATOM     21  N   UNL     1      -5.424  -1.718   8.803  1.00  0.00    -0.332 N 
ATOM     22  C   UNL     1      -5.817  -3.025   8.305  1.00  0.00     0.147 C 
BRANCH  21  23
ATOM     23  C   UNL     1      -6.240  -1.153   9.913  1.00  0.00     0.178 C 
BRANCH  23  24
ATOM     24  C   UNL     1      -7.588  -1.866  10.151  1.00  0.00     0.070 C 
BRANCH  24  25
ATOM     25  C   UNL     1      -8.834  -1.012  10.112  1.00  0.00    -0.045 A 
ATOM     26  C   UNL     1     -10.080  -1.575   9.807  1.00  0.00     0.004 A 
ATOM     27  C   UNL     1      -8.757   0.364  10.376  1.00  0.00     0.004 A 
ATOM     28  C   UNL     1     -11.224  -0.776   9.756  1.00  0.00     0.000 A 
ATOM     29  C   UNL     1      -9.902   1.161  10.326  1.00  0.00     0.000 A 
ATOM     30  C   UNL     1     -11.134   0.591  10.013  1.00  0.00     0.000 A 
ENDBRANCH  24  25
ENDBRANCH  23  24
BRANCH  23  31
ATOM     31  C   UNL     1      -5.413  -0.880  11.192  1.00  0.00     0.243 C 
ATOM     32  O   UNL     1      -4.962  -1.761  11.919  1.00  0.00    -0.273 OA
ATOM     33  N   UNL     1      -5.379   0.456  11.553  1.00  0.00    -0.341 N 
ATOM     34  H   UNL     1      -5.777   1.143  10.909  1.00  0.00     0.164 HD
BRANCH  33  35
ATOM     35  C   UNL     1      -4.755   0.933  12.791  1.00  0.00     0.194 C 
BRANCH  35  36
ATOM     36  C   UNL     1      -5.707   0.940  14.020  1.00  0.00     0.017 C 
ATOM     37  C   UNL     1      -5.705  -0.421  14.737  1.00  0.00     0.010 C 
ATOM     38  C   UNL     1      -7.161   1.265  13.656  1.00  0.00     0.010 C 
ENDBRANCH  35  36
BRANCH  35  39
ATOM     39  C   UNL     1      -4.032   2.297  12.609  1.00  0.00     0.329 C 
ATOM     40  O   UNL     1      -3.077   2.662  13.284  1.00  0.00    -0.250 OA
BRANCH  39  41
ATOM     41  O   UNL     1      -4.525   3.009  11.551  1.00  0.00    -0.458 OA
BRANCH  41  42
ATOM     42  C   UNL     1      -4.645   4.439  11.741  1.00  0.00     0.205 CG0
ATOM     43  C   UNL     1      -5.811   4.673  12.700  1.00  0.00     0.056 C 
ATOM     44  G   UNL     1      -4.869   5.101  10.367  1.00  0.00     0.000 G0
ENDBRANCH  41  42
ENDBRANCH  39  41
ENDBRANCH  35  39
ENDBRANCH  33  35
ENDBRANCH  23  31
ENDBRANCH  21  23
ENDBRANCH  19  21
ENDBRANCH  14  19
ENDBRANCH   7  14
ENDBRANCH   2   5
BRANCH   3  45
ATOM     45  C   UNL     1      -1.715   5.673   8.232  1.00  0.00     0.171 C 
BRANCH  45  46
ATOM     46  N   UNL     1      -3.015   5.254   8.740  1.00  0.00    -0.342 N 
ATOM     47  C   UNL     1      -3.538   5.738   9.913  1.00  0.00     0.247 C 
ATOM     48  O   UNL     1      -2.983   6.610  10.582  1.00  0.00    -0.273 OA
ATOM     49  H   UNL     1      -3.534   4.574   8.187  1.00  0.00     0.164 HD
BRANCH  47  50
ATOM     50  C   UNL     1      -4.859   5.090  10.351  1.00  0.00     0.212 CG0
ATOM     51  G   UNL     1      -4.632   4.459  11.739  1.00  0.00     0.000 G0
BRANCH  50  52
ATOM     52  N   UNL     1      -5.838   6.173  10.363  1.00  0.00    -0.339 N 
ATOM     53  C   UNL     1      -7.003   6.146   9.635  1.00  0.00     0.243 C 
ATOM     54  O   UNL     1      -7.287   5.226   8.873  1.00  0.00    -0.273 OA
ATOM     55  H   UNL     1      -5.608   7.013  10.890  1.00  0.00     0.164 HD
BRANCH  53  56
ATOM     56  C   UNL     1      -7.838   7.439   9.739  1.00  0.00     0.182 C 
BRANCH  56  57
ATOM     57  N   UNL     1      -8.812   7.350  10.832  1.00  0.00    -0.344 N 
ATOM     58  C   UNL     1      -8.515   7.738  12.116  1.00  0.00     0.220 C 
ATOM     59  O   UNL     1      -7.398   8.115  12.453  1.00  0.00    -0.275 OA
ATOM     60  H   UNL     1      -9.773   7.141  10.576  1.00  0.00     0.164 HD
BRANCH  58  61
ATOM     61  C   UNL     1      -9.690   7.615  13.069  1.00  0.00     0.100 C 
BRANCH  61  62
ATOM     62  C   UNL     1      -9.388   8.103  14.485  1.00  0.00     0.010 C 
BRANCH  62  63
ATOM     63  C   UNL     1      -8.681   7.068  15.369  1.00  0.00     0.000 C 
BRANCH  63  64
ATOM     64  C   UNL     1      -9.622   6.058  16.026  1.00  0.00    -0.003 C 
ATOM     65  C   UNL     1      -9.041   5.525  17.328  1.00  0.00     0.004 C 
ENDBRANCH  63  64
ENDBRANCH  62  63
ENDBRANCH  61  62
ENDBRANCH  58  61
ENDBRANCH  56  57
BRANCH  56  66
ATOM     66  C   UNL     1      -8.497   7.788   8.406  1.00  0.00     0.157 C 
BRANCH  66  67
ATOM     67  C   UNL     1      -9.835   8.438   8.615  1.00  0.00     0.305 C 
ATOM     68  O   UNL     1     -10.871   7.888   8.957  1.00  0.00    -0.252 OA
BRANCH  67  69
ATOM     69  O   UNL     1      -9.791   9.771   8.431  1.00  0.00    -0.481 OA
ATOM     70  H   UNL     1      -9.207  10.103   9.146  1.00  0.00     0.296 HD
ENDBRANCH  67  69
ENDBRANCH  66  67
ENDBRANCH  56  66
ENDBRANCH  53  56
ENDBRANCH  50  52
ENDBRANCH  47  50
ENDBRANCH  45  46
BRANCH  45  71
ATOM     71  C   UNL     1      -1.830   6.317   6.846  1.00  0.00     0.037 C 
BRANCH  71  72
ATOM     72  C   UNL     1      -0.465   6.722   6.284  1.00  0.00     0.026 C 
BRANCH  72  73
ATOM     73  C   UNL     1      -0.310   6.294   4.826  1.00  0.00     0.146 C 
BRANCH  73  74
ATOM     74  N   UNL     1       0.329   7.390   4.104  1.00  0.00    -0.254 NA
ATOM     75  C   UNL     1      -0.428   8.252   3.532  1.00  0.00     0.185 C 
ATOM     76  N   UNL     1       0.131   9.273   2.861  1.00  0.00    -0.370 N 
ATOM     77  N   UNL     1      -1.771   8.304   3.492  1.00  0.00    -0.370 N 
ATOM     78  H   UNL     1       1.140   9.305   2.835  1.00  0.00     0.159 HD
ATOM     79  H   UNL     1      -0.389   9.898   2.271  1.00  0.00     0.159 HD
ATOM     80  H   UNL     1      -2.326   7.601   3.957  1.00  0.00     0.159 HD
ATOM     81  H   UNL     1      -2.258   9.096   3.107  1.00  0.00     0.159 HD
ENDBRANCH  73  74
ENDBRANCH  72  73
ENDBRANCH  71  72
ENDBRANCH  45  71
ENDBRANCH   3  45
TORSDOF 20
ENDMDL
MODEL 10
REMARK VINA RESULT:    -6.264      2.598      8.802
REMARK INTER + INTRA:         -25.627
REMARK INTER:                 -18.878
REMARK INTRA:                  -6.749
REMARK UNBOUND:                -7.644
REMARK SMILES CCCCCC(=O)N[C@H](CC(=O)O)C(=O)N[C@H]1C(=O)N[C@H](CCCN=C(N)N)C(=O)N[C@@H]2CC[C@H](O)N(C2=O)[C@@H](CC(C)C)C(=O)N(C)[C@@H](Cc2ccccc2)C(=O)N[C@H](C(C)C)C(=O)O[C@@H]1C
REMARK SMILES IDX 30 1 31 2 29 3 32 5 35 6 37 7 34 8 38 9 33 10 39 11 36 12
REMARK SMILES IDX 40 14 41 15 42 16 43 17 44 18 45 19 46 20 47 21 48 22 49 23
REMARK SMILES IDX 50 24 51 25 52 26 56 27 53 28 55 29 54 30 57 31 58 32 59 33
REMARK SMILES IDX 60 35 61 36 62 37 63 38 64 39 65 40 66 41 67 42 68 43 21 45
REMARK SMILES IDX 20 46 18 47 19 48 17 50 16 52 14 53 15 54 9 56 8 57 6 58
REMARK SMILES IDX 7 59 5 61 4 62 3 63 2 64 1 65 10 66 11 67 12 68 13 69 22 71
REMARK SMILES IDX 23 72 24 73 25 74 26 75 27 76 28 77
REMARK H PARENT 31 4 36 13 59 34 20 49 16 55 8 60 13 70 27 78 27 79 28 80
REMARK H PARENT 28 81
REMARK Flexibility Score:  259.900
ROOT
ATOM      1  O   UNL     1      -3.111   4.715   6.059  1.00  0.00    -0.273 OA
ATOM      2  N   UNL     1      -3.365   3.569   8.022  1.00  0.00    -0.343 N 
ATOM      3  C   UNL     1      -3.212   3.642   6.654  1.00  0.00     0.243 C 
ATOM      4  H   UNL     1      -3.430   2.668   8.479  1.00  0.00     0.164 HD
ENDROOT
BRANCH   2   5
ATOM      5  C   UNL     1      -3.533   4.782   8.815  1.00  0.00     0.171 C 
ATOM      6  C   UNL     1      -3.350   5.308  11.660  1.00  0.00     0.214 C 
ATOM      7  N   UNL     1      -4.625   4.950  11.085  1.00  0.00    -0.303 N 
ATOM      8  C   UNL     1      -2.439   6.048  10.693  1.00  0.00     0.057 C 
ATOM      9  C   UNL     1      -4.773   4.637   9.744  1.00  0.00     0.247 C 
ATOM     10  C   UNL     1      -2.213   5.205   9.457  1.00  0.00     0.040 C 
ATOM     11  O   UNL     1      -5.851   4.247   9.276  1.00  0.00    -0.272 OA
BRANCH   6  12
ATOM     12  O   UNL     1      -2.733   4.124  12.110  1.00  0.00    -0.373 OA
ATOM     13  H   UNL     1      -1.794   4.164  11.825  1.00  0.00     0.213 HD
ENDBRANCH   6  12
BRANCH   7  14
ATOM     14  C   UNL     1      -5.759   4.785  12.019  1.00  0.00     0.177 C 
BRANCH  14  15
ATOM     15  C   UNL     1      -7.039   5.555  11.640  1.00  0.00     0.038 C 
BRANCH  15  16
ATOM     16  C   UNL     1      -7.556   6.676  12.568  1.00  0.00    -0.015 C 
ATOM     17  C   UNL     1      -7.389   6.330  14.051  1.00  0.00     0.007 C 
ATOM     18  C   UNL     1      -9.045   6.927  12.299  1.00  0.00     0.007 C 
ENDBRANCH  15  16
ENDBRANCH  14  15
BRANCH  14  19
ATOM     19  C   UNL     1      -5.718   3.363  12.678  1.00  0.00     0.245 C 
ATOM     20  O   UNL     1      -5.196   3.283  13.803  1.00  0.00    -0.272 OA
BRANCH  19  21
ATOM     21  N   UNL     1      -6.120   2.205  12.038  1.00  0.00    -0.332 N 
ATOM     22  C   UNL     1      -5.311   1.426  11.118  1.00  0.00     0.147 C 
BRANCH  21  23
ATOM     23  C   UNL     1      -7.501   1.710  12.297  1.00  0.00     0.178 C 
BRANCH  23  24
ATOM     24  C   UNL     1      -8.132   2.217  13.610  1.00  0.00     0.070 C 
BRANCH  24  25
ATOM     25  C   UNL     1      -9.638   2.340  13.646  1.00  0.00    -0.045 A 
ATOM     26  C   UNL     1     -10.265   3.561  13.366  1.00  0.00     0.004 A 
ATOM     27  C   UNL     1     -10.431   1.229  13.967  1.00  0.00     0.004 A 
ATOM     28  C   UNL     1     -11.656   3.671  13.419  1.00  0.00     0.000 A 
ATOM     29  C   UNL     1     -11.822   1.339  14.018  1.00  0.00     0.000 A 
ATOM     30  C   UNL     1     -12.433   2.562  13.747  1.00  0.00     0.000 A 
ENDBRANCH  24  25
ENDBRANCH  23  24
BRANCH  23  31
ATOM     31  C   UNL     1      -8.418   1.801  11.055  1.00  0.00     0.243 C 
ATOM     32  O   UNL     1      -8.803   2.858  10.561  1.00  0.00    -0.273 OA
ATOM     33  N   UNL     1      -8.925   0.578  10.650  1.00  0.00    -0.341 N 
ATOM     34  H   UNL     1      -8.570  -0.268  11.104  1.00  0.00     0.164 HD
BRANCH  33  35
ATOM     35  C   UNL     1      -9.906   0.437   9.571  1.00  0.00     0.194 C 
BRANCH  35  36
ATOM     36  C   UNL     1     -11.148  -0.418   9.950  1.00  0.00     0.017 C 
ATOM     37  C   UNL     1     -12.229   0.437  10.634  1.00  0.00     0.010 C 
ATOM     38  C   UNL     1     -10.817  -1.580  10.894  1.00  0.00     0.010 C 
ENDBRANCH  35  36
BRANCH  35  39
ATOM     39  C   UNL     1      -9.264  -0.033   8.236  1.00  0.00     0.329 C 
ATOM     40  O   UNL     1      -9.808   0.061   7.142  1.00  0.00    -0.250 OA
BRANCH  39  41
ATOM     41  O   UNL     1      -7.984  -0.483   8.405  1.00  0.00    -0.458 OA
BRANCH  41  42
ATOM     42  C   UNL     1      -7.119  -0.408   7.247  1.00  0.00     0.205 CG0
ATOM     43  C   UNL     1      -7.109  -1.789   6.597  1.00  0.00     0.056 C 
ATOM     44  G   UNL     1      -5.717   0.037   7.708  1.00  0.00     0.000 G0
ENDBRANCH  41  42
ENDBRANCH  39  41
ENDBRANCH  35  39
ENDBRANCH  33  35
ENDBRANCH  23  31
ENDBRANCH  21  23
ENDBRANCH  19  21
ENDBRANCH  14  19
ENDBRANCH   7  14
ENDBRANCH   2   5
BRANCH   3  45
ATOM     45  C   UNL     1      -3.156   2.292   5.926  1.00  0.00     0.171 C 
BRANCH  45  46
ATOM     46  N   UNL     1      -3.831   1.344   6.803  1.00  0.00    -0.342 N 
ATOM     47  C   UNL     1      -5.125   0.940   6.593  1.00  0.00     0.247 C 
ATOM     48  O   UNL     1      -5.784   1.290   5.613  1.00  0.00    -0.273 OA
ATOM     49  H   UNL     1      -3.302   0.985   7.596  1.00  0.00     0.164 HD
BRANCH  47  50
ATOM     50  C   UNL     1      -5.710   0.036   7.687  1.00  0.00     0.212 CG0
ATOM     51  G   UNL     1      -7.130  -0.372   7.248  1.00  0.00     0.000 G0
BRANCH  50  52
ATOM     52  N   UNL     1      -4.791  -1.094   7.791  1.00  0.00    -0.339 N 
ATOM     53  C   UNL     1      -4.547  -1.765   8.965  1.00  0.00     0.243 C 
ATOM     54  O   UNL     1      -5.047  -1.430  10.035  1.00  0.00    -0.273 OA
ATOM     55  H   UNL     1      -4.260  -1.350   6.961  1.00  0.00     0.164 HD
BRANCH  53  56
ATOM     56  C   UNL     1      -3.474  -2.867   8.847  1.00  0.00     0.182 C 
BRANCH  56  57
ATOM     57  N   UNL     1      -3.500  -3.487   7.519  1.00  0.00    -0.344 N 
ATOM     58  C   UNL     1      -2.390  -3.548   6.713  1.00  0.00     0.220 C 
ATOM     59  O   UNL     1      -1.322  -3.026   7.014  1.00  0.00    -0.275 OA
ATOM     60  H   UNL     1      -4.332  -4.018   7.275  1.00  0.00     0.164 HD
BRANCH  58  61
ATOM     61  C   UNL     1      -2.632  -4.286   5.409  1.00  0.00     0.100 C 
BRANCH  61  62
ATOM     62  C   UNL     1      -4.111  -4.527   5.104  1.00  0.00     0.010 C 
BRANCH  62  63
ATOM     63  C   UNL     1      -4.631  -3.766   3.878  1.00  0.00     0.000 C 
BRANCH  63  64
ATOM     64  C   UNL     1      -5.619  -4.556   3.022  1.00  0.00    -0.003 C 
ATOM     65  C   UNL     1      -7.000  -3.916   3.036  1.00  0.00     0.004 C 
ENDBRANCH  63  64
ENDBRANCH  62  63
ENDBRANCH  61  62
ENDBRANCH  58  61
ENDBRANCH  56  57
BRANCH  56  66
ATOM     66  C   UNL     1      -3.604  -3.897   9.967  1.00  0.00     0.157 C 
BRANCH  66  67
ATOM     67  C   UNL     1      -2.460  -3.796  10.935  1.00  0.00     0.305 C 
ATOM     68  O   UNL     1      -2.212  -2.861  11.680  1.00  0.00    -0.252 OA
BRANCH  67  69
ATOM     69  O   UNL     1      -1.706  -4.911  10.954  1.00  0.00    -0.481 OA
ATOM     70  H   UNL     1      -1.976  -5.410  10.154  1.00  0.00     0.296 HD
ENDBRANCH  67  69
ENDBRANCH  66  67
ENDBRANCH  56  66
ENDBRANCH  53  56
ENDBRANCH  50  52
ENDBRANCH  47  50
ENDBRANCH  45  46
BRANCH  45  71
ATOM     71  C   UNL     1      -1.701   1.886   5.667  1.00  0.00     0.037 C 
BRANCH  71  72
ATOM     72  C   UNL     1      -1.427   0.436   6.075  1.00  0.00     0.026 C 
BRANCH  72  73
ATOM     73  C   UNL     1      -0.391   0.355   7.194  1.00  0.00     0.146 C 
BRANCH  73  74
ATOM     74  N   UNL     1      -1.082   0.582   8.460  1.00  0.00    -0.254 NA
ATOM     75  C   UNL     1      -1.013  -0.335   9.353  1.00  0.00     0.185 C 
ATOM     76  N   UNL     1      -1.637  -0.154  10.528  1.00  0.00    -0.370 N 
ATOM     77  N   UNL     1      -0.380  -1.519   9.300  1.00  0.00    -0.370 N 
ATOM     78  H   UNL     1      -2.146   0.711  10.648  1.00  0.00     0.159 HD
ATOM     79  H   UNL     1      -1.749  -0.880  11.213  1.00  0.00     0.159 HD
ATOM     80  H   UNL     1       0.137  -1.790   8.477  1.00  0.00     0.159 HD
ATOM     81  H   UNL     1      -0.299  -2.111  10.111  1.00  0.00     0.159 HD
ENDBRANCH  73  74
ENDBRANCH  72  73
ENDBRANCH  71  72
ENDBRANCH  45  71
ENDBRANCH   3  45
TORSDOF 20
ENDMDL
MODEL 11
REMARK VINA RESULT:    -6.207      3.796      7.516
REMARK INTER + INTRA:         -25.462
REMARK INTER:                 -20.301
REMARK INTRA:                  -5.160
REMARK UNBOUND:                -7.644
REMARK SMILES CCCCCC(=O)N[C@H](CC(=O)O)C(=O)N[C@H]1C(=O)N[C@H](CCCN=C(N)N)C(=O)N[C@@H]2CC[C@H](O)N(C2=O)[C@@H](CC(C)C)C(=O)N(C)[C@@H](Cc2ccccc2)C(=O)N[C@H](C(C)C)C(=O)O[C@@H]1C
REMARK SMILES IDX 30 1 31 2 29 3 32 5 35 6 37 7 34 8 38 9 33 10 39 11 36 12
REMARK SMILES IDX 40 14 41 15 42 16 43 17 44 18 45 19 46 20 47 21 48 22 49 23
REMARK SMILES IDX 50 24 51 25 52 26 56 27 53 28 55 29 54 30 57 31 58 32 59 33
REMARK SMILES IDX 60 35 61 36 62 37 63 38 64 39 65 40 66 41 67 42 68 43 21 45
REMARK SMILES IDX 20 46 18 47 19 48 17 50 16 52 14 53 15 54 9 56 8 57 6 58
REMARK SMILES IDX 7 59 5 61 4 62 3 63 2 64 1 65 10 66 11 67 12 68 13 69 22 71
REMARK SMILES IDX 23 72 24 73 25 74 26 75 27 76 28 77
REMARK H PARENT 31 4 36 13 59 34 20 49 16 55 8 60 13 70 27 78 27 79 28 80
REMARK H PARENT 28 81
REMARK Flexibility Score:  259.900
ROOT
ATOM      1  O   UNL     1      -3.778   4.194  15.111  1.00  0.00    -0.273 OA
ATOM      2  N   UNL     1      -4.899   4.457  13.135  1.00  0.00    -0.343 N 
ATOM      3  C   UNL     1      -4.829   4.423  14.511  1.00  0.00     0.243 C 
ATOM      4  H   UNL     1      -5.777   4.663  12.676  1.00  0.00     0.164 HD
ENDROOT
BRANCH   2   5
ATOM      5  C   UNL     1      -3.739   4.103  12.324  1.00  0.00     0.171 C 
ATOM      6  C   UNL     1      -3.468   3.120   9.610  1.00  0.00     0.214 C 
ATOM      7  N   UNL     1      -3.576   2.178  10.699  1.00  0.00    -0.303 N 
ATOM      8  C   UNL     1      -2.808   4.430  10.011  1.00  0.00     0.057 C 
ATOM      9  C   UNL     1      -3.759   2.579  12.013  1.00  0.00     0.247 C 
ATOM     10  C   UNL     1      -3.579   5.065  11.147  1.00  0.00     0.040 C 
ATOM     11  O   UNL     1      -3.938   1.765  12.928  1.00  0.00    -0.272 OA
BRANCH   6  12
ATOM     12  O   UNL     1      -4.765   3.354   9.112  1.00  0.00    -0.373 OA
ATOM     13  H   UNL     1      -5.092   4.175   9.539  1.00  0.00     0.213 HD
ENDBRANCH   6  12
BRANCH   7  14
ATOM     14  C   UNL     1      -3.633   0.744  10.342  1.00  0.00     0.177 C 
BRANCH  14  15
ATOM     15  C   UNL     1      -2.332  -0.045  10.589  1.00  0.00     0.038 C 
BRANCH  15  16
ATOM     16  C   UNL     1      -1.399  -0.364   9.400  1.00  0.00    -0.015 C 
ATOM     17  C   UNL     1      -2.061  -0.088   8.047  1.00  0.00     0.007 C 
ATOM     18  C   UNL     1      -0.992  -1.843   9.442  1.00  0.00     0.007 C 
ENDBRANCH  15  16
ENDBRANCH  14  15
BRANCH  14  19
ATOM     19  C   UNL     1      -5.084   0.189  10.551  1.00  0.00     0.245 C 
ATOM     20  O   UNL     1      -6.019   0.912  10.169  1.00  0.00    -0.272 OA
BRANCH  19  21
ATOM     21  N   UNL     1      -5.371  -0.985  11.225  1.00  0.00    -0.332 N 
ATOM     22  C   UNL     1      -4.785  -1.396  12.489  1.00  0.00     0.147 C 
BRANCH  21  23
ATOM     23  C   UNL     1      -6.353  -1.919  10.608  1.00  0.00     0.178 C 
BRANCH  23  24
ATOM     24  C   UNL     1      -5.813  -3.339  10.342  1.00  0.00     0.070 C 
BRANCH  24  25
ATOM     25  C   UNL     1      -4.843  -3.503   9.195  1.00  0.00    -0.045 A 
ATOM     26  C   UNL     1      -5.125  -2.963   7.934  1.00  0.00     0.004 A 
ATOM     27  C   UNL     1      -3.643  -4.206   9.378  1.00  0.00     0.004 A 
ATOM     28  C   UNL     1      -4.231  -3.133   6.874  1.00  0.00     0.000 A 
ATOM     29  C   UNL     1      -2.750  -4.375   8.319  1.00  0.00     0.000 A 
ATOM     30  C   UNL     1      -3.047  -3.840   7.067  1.00  0.00     0.000 A 
ENDBRANCH  24  25
ENDBRANCH  23  24
BRANCH  23  31
ATOM     31  C   UNL     1      -7.743  -1.867  11.285  1.00  0.00     0.243 C 
ATOM     32  O   UNL     1      -8.152  -2.708  12.081  1.00  0.00    -0.273 OA
ATOM     33  N   UNL     1      -8.571  -0.881  10.773  1.00  0.00    -0.341 N 
ATOM     34  H   UNL     1      -8.175  -0.213  10.108  1.00  0.00     0.164 HD
BRANCH  33  35
ATOM     35  C   UNL     1      -9.970  -0.723  11.179  1.00  0.00     0.194 C 
BRANCH  35  36
ATOM     36  C   UNL     1     -10.932  -0.360  10.013  1.00  0.00     0.017 C 
ATOM     37  C   UNL     1     -12.248   0.238  10.540  1.00  0.00     0.010 C 
ATOM     38  C   UNL     1     -11.294  -1.561   9.131  1.00  0.00     0.010 C 
ENDBRANCH  35  36
BRANCH  35  39
ATOM     39  C   UNL     1     -10.136   0.237  12.390  1.00  0.00     0.329 C 
ATOM     40  O   UNL     1     -10.553  -0.109  13.489  1.00  0.00    -0.250 OA
BRANCH  39  41
ATOM     41  O   UNL     1      -9.683   1.499  12.118  1.00  0.00    -0.458 OA
BRANCH  41  42
ATOM     42  C   UNL     1     -10.055   2.531  13.063  1.00  0.00     0.205 CG0
ATOM     43  C   UNL     1     -11.477   2.970  12.720  1.00  0.00     0.056 C 
ATOM     44  G   UNL     1      -9.039   3.685  12.956  1.00  0.00     0.000 G0
ENDBRANCH  41  42
ENDBRANCH  39  41
ENDBRANCH  35  39
ENDBRANCH  33  35
ENDBRANCH  23  31
ENDBRANCH  21  23
ENDBRANCH  19  21
ENDBRANCH  14  19
ENDBRANCH   7  14
ENDBRANCH   2   5
BRANCH   3  45
ATOM     45  C   UNL     1      -6.146   4.709  15.243  1.00  0.00     0.171 C 
BRANCH  45  46
ATOM     46  N   UNL     1      -7.184   4.656  14.222  1.00  0.00    -0.342 N 
ATOM     47  C   UNL     1      -8.096   3.633  14.152  1.00  0.00     0.247 C 
ATOM     48  O   UNL     1      -8.151   2.728  14.986  1.00  0.00    -0.273 OA
ATOM     49  H   UNL     1      -7.210   5.416  13.545  1.00  0.00     0.164 HD
BRANCH  47  50
ATOM     50  C   UNL     1      -9.034   3.680  12.938  1.00  0.00     0.212 CG0
ATOM     51  G   UNL     1     -10.021   2.503  13.063  1.00  0.00     0.000 G0
BRANCH  50  52
ATOM     52  N   UNL     1      -9.683   4.987  12.997  1.00  0.00    -0.339 N 
ATOM     53  C   UNL     1      -9.205   6.099  12.347  1.00  0.00     0.243 C 
ATOM     54  O   UNL     1      -8.158   6.091  11.705  1.00  0.00    -0.273 OA
ATOM     55  H   UNL     1     -10.494   5.085  13.604  1.00  0.00     0.164 HD
BRANCH  53  56
ATOM     56  C   UNL     1     -10.009   7.384  12.628  1.00  0.00     0.182 C 
BRANCH  56  57
ATOM     57  N   UNL     1      -9.369   8.188  13.675  1.00  0.00    -0.344 N 
ATOM     58  C   UNL     1      -9.196   7.724  14.956  1.00  0.00     0.220 C 
ATOM     59  O   UNL     1      -9.628   6.640  15.333  1.00  0.00    -0.275 OA
ATOM     60  H   UNL     1      -8.909   9.045  13.380  1.00  0.00     0.164 HD
BRANCH  58  61
ATOM     61  C   UNL     1      -8.459   8.700  15.854  1.00  0.00     0.100 C 
BRANCH  61  62
ATOM     62  C   UNL     1      -9.286   9.189  17.044  1.00  0.00     0.010 C 
BRANCH  62  63
ATOM     63  C   UNL     1      -8.506   9.260  18.363  1.00  0.00     0.000 C 
BRANCH  63  64
ATOM     64  C   UNL     1      -7.010   8.988  18.222  1.00  0.00    -0.003 C 
ATOM     65  C   UNL     1      -6.575   7.814  19.087  1.00  0.00     0.004 C 
ENDBRANCH  63  64
ENDBRANCH  62  63
ENDBRANCH  61  62
ENDBRANCH  58  61
ENDBRANCH  56  57
BRANCH  56  66
ATOM     66  C   UNL     1     -11.469   7.072  12.952  1.00  0.00     0.157 C 
BRANCH  66  67
ATOM     67  C   UNL     1     -12.368   7.419  11.801  1.00  0.00     0.305 C 
ATOM     68  O   UNL     1     -12.025   7.806  10.694  1.00  0.00    -0.252 OA
BRANCH  67  69
ATOM     69  O   UNL     1     -13.668   7.212  12.087  1.00  0.00    -0.481 OA
ATOM     70  H   UNL     1     -13.665   6.777  12.965  1.00  0.00     0.296 HD
ENDBRANCH  67  69
ENDBRANCH  66  67
ENDBRANCH  56  66
ENDBRANCH  53  56
ENDBRANCH  50  52
ENDBRANCH  47  50
ENDBRANCH  45  46
BRANCH  45  71
ATOM     71  C   UNL     1      -6.092   6.082  15.923  1.00  0.00     0.037 C 
BRANCH  71  72
ATOM     72  C   UNL     1      -5.041   6.997  15.289  1.00  0.00     0.026 C 
BRANCH  72  73
ATOM     73  C   UNL     1      -4.089   7.569  16.338  1.00  0.00     0.146 C 
BRANCH  73  74
ATOM     74  N   UNL     1      -3.228   8.544  15.676  1.00  0.00    -0.254 NA
ATOM     75  C   UNL     1      -2.098   8.811  16.219  1.00  0.00     0.185 C 
ATOM     76  N   UNL     1      -1.283   9.703  15.633  1.00  0.00    -0.370 N 
ATOM     77  N   UNL     1      -1.563   8.311  17.346  1.00  0.00    -0.370 N 
ATOM     78  H   UNL     1      -1.613  10.134  14.781  1.00  0.00     0.159 HD
ATOM     79  H   UNL     1      -0.455  10.067  16.070  1.00  0.00     0.159 HD
ATOM     80  H   UNL     1      -2.063   7.625  17.892  1.00  0.00     0.159 HD
ATOM     81  H   UNL     1      -0.613   8.511  17.614  1.00  0.00     0.159 HD
ENDBRANCH  73  74
ENDBRANCH  72  73
ENDBRANCH  71  72
ENDBRANCH  45  71
ENDBRANCH   3  45
TORSDOF 20
ENDMDL
MODEL 12
REMARK VINA RESULT:    -6.198      2.629      8.566
REMARK INTER + INTRA:         -25.436
REMARK INTER:                 -21.012
REMARK INTRA:                  -4.424
REMARK UNBOUND:                -7.644
REMARK SMILES CCCCCC(=O)N[C@H](CC(=O)O)C(=O)N[C@H]1C(=O)N[C@H](CCCN=C(N)N)C(=O)N[C@@H]2CC[C@H](O)N(C2=O)[C@@H](CC(C)C)C(=O)N(C)[C@@H](Cc2ccccc2)C(=O)N[C@H](C(C)C)C(=O)O[C@@H]1C
REMARK SMILES IDX 30 1 31 2 29 3 32 5 35 6 37 7 34 8 38 9 33 10 39 11 36 12
REMARK SMILES IDX 40 14 41 15 42 16 43 17 44 18 45 19 46 20 47 21 48 22 49 23
REMARK SMILES IDX 50 24 51 25 52 26 56 27 53 28 55 29 54 30 57 31 58 32 59 33
REMARK SMILES IDX 60 35 61 36 62 37 63 38 64 39 65 40 66 41 67 42 68 43 21 45
REMARK SMILES IDX 20 46 18 47 19 48 17 50 16 52 14 53 15 54 9 56 8 57 6 58
REMARK SMILES IDX 7 59 5 61 4 62 3 63 2 64 1 65 10 66 11 67 12 68 13 69 22 71
REMARK SMILES IDX 23 72 24 73 25 74 26 75 27 76 28 77
REMARK H PARENT 31 4 36 13 59 34 20 49 16 55 8 60 13 70 27 78 27 79 28 80
REMARK H PARENT 28 81
REMARK Flexibility Score:  259.900
ROOT
ATOM      1  O   UNL     1      -5.108  -2.053  11.239  1.00  0.00    -0.273 OA
ATOM      2  N   UNL     1      -3.221  -0.989  11.974  1.00  0.00    -0.343 N 
ATOM      3  C   UNL     1      -3.902  -1.835  11.124  1.00  0.00     0.243 C 
ATOM      4  H   UNL     1      -2.232  -0.822  11.840  1.00  0.00     0.164 HD
ENDROOT
BRANCH   2   5
ATOM      5  C   UNL     1      -3.890  -0.405  13.131  1.00  0.00     0.171 C 
ATOM      6  C   UNL     1      -6.367   1.072  13.430  1.00  0.00     0.214 C 
ATOM      7  N   UNL     1      -5.136   1.790  13.194  1.00  0.00    -0.303 N 
ATOM      8  C   UNL     1      -6.167  -0.233  14.184  1.00  0.00     0.057 C 
ATOM      9  C   UNL     1      -3.927   1.144  12.992  1.00  0.00     0.247 C 
ATOM     10  C   UNL     1      -5.206  -1.122  13.425  1.00  0.00     0.040 C 
ATOM     11  O   UNL     1      -2.893   1.762  12.704  1.00  0.00    -0.272 OA
BRANCH   6  12
ATOM     12  O   UNL     1      -6.971   0.831  12.181  1.00  0.00    -0.373 OA
ATOM     13  H   UNL     1      -6.407   0.182  11.709  1.00  0.00     0.213 HD
ENDBRANCH   6  12
BRANCH   7  14
ATOM     14  C   UNL     1      -5.236   3.255  13.028  1.00  0.00     0.177 C 
BRANCH  14  15
ATOM     15  C   UNL     1      -4.699   4.088  14.208  1.00  0.00     0.038 C 
BRANCH  15  16
ATOM     16  C   UNL     1      -5.617   5.130  14.884  1.00  0.00    -0.015 C 
ATOM     17  C   UNL     1      -6.220   6.117  13.880  1.00  0.00     0.007 C 
ATOM     18  C   UNL     1      -4.819   5.928  15.923  1.00  0.00     0.007 C 
ENDBRANCH  15  16
ENDBRANCH  14  15
BRANCH  14  19
ATOM     19  C   UNL     1      -5.108   3.641  11.514  1.00  0.00     0.245 C 
ATOM     20  O   UNL     1      -5.818   3.009  10.714  1.00  0.00    -0.272 OA
BRANCH  19  21
ATOM     21  N   UNL     1      -4.183   4.546  11.024  1.00  0.00    -0.332 N 
ATOM     22  C   UNL     1      -3.218   5.280  11.823  1.00  0.00     0.147 C 
BRANCH  21  23
ATOM     23  C   UNL     1      -4.175   4.809   9.558  1.00  0.00     0.178 C 
BRANCH  23  24
ATOM     24  C   UNL     1      -4.156   6.301   9.170  1.00  0.00     0.070 C 
BRANCH  24  25
ATOM     25  C   UNL     1      -5.487   6.951   8.871  1.00  0.00    -0.045 A 
ATOM     26  C   UNL     1      -6.685   6.365   9.301  1.00  0.00     0.004 A 
ATOM     27  C   UNL     1      -5.542   8.154   8.151  1.00  0.00     0.004 A 
ATOM     28  C   UNL     1      -7.912   6.963   9.006  1.00  0.00     0.000 A 
ATOM     29  C   UNL     1      -6.769   8.751   7.858  1.00  0.00     0.000 A 
ATOM     30  C   UNL     1      -7.953   8.153   8.283  1.00  0.00     0.000 A 
ENDBRANCH  24  25
ENDBRANCH  23  24
BRANCH  23  31
ATOM     31  C   UNL     1      -3.163   3.923   8.792  1.00  0.00     0.243 C 
ATOM     32  O   UNL     1      -2.296   3.244   9.336  1.00  0.00    -0.273 OA
ATOM     33  N   UNL     1      -3.198   4.105   7.420  1.00  0.00    -0.341 N 
ATOM     34  H   UNL     1      -3.940   4.687   7.026  1.00  0.00     0.164 HD
BRANCH  33  35
ATOM     35  C   UNL     1      -2.251   3.461   6.505  1.00  0.00     0.194 C 
BRANCH  35  36
ATOM     36  C   UNL     1      -1.230   4.438   5.857  1.00  0.00     0.017 C 
ATOM     37  C   UNL     1       0.218   3.993   6.124  1.00  0.00     0.010 C 
ATOM     38  C   UNL     1      -1.368   5.879   6.362  1.00  0.00     0.010 C 
ENDBRANCH  35  36
BRANCH  35  39
ATOM     39  C   UNL     1      -2.956   2.570   5.445  1.00  0.00     0.329 C 
ATOM     40  O   UNL     1      -3.879   2.949   4.734  1.00  0.00    -0.250 OA
BRANCH  39  41
ATOM     41  O   UNL     1      -2.373   1.338   5.330  1.00  0.00    -0.458 OA
BRANCH  41  42
ATOM     42  C   UNL     1      -1.948   0.713   6.564  1.00  0.00     0.205 CG0
ATOM     43  C   UNL     1      -1.138  -0.527   6.190  1.00  0.00     0.056 C 
ATOM     44  G   UNL     1      -3.198   0.370   7.398  1.00  0.00     0.000 G0
ENDBRANCH  41  42
ENDBRANCH  39  41
ENDBRANCH  35  39
ENDBRANCH  33  35
ENDBRANCH  23  31
ENDBRANCH  21  23
ENDBRANCH  19  21
ENDBRANCH  14  19
ENDBRANCH   7  14
ENDBRANCH   2   5
BRANCH   3  45
ATOM     45  C   UNL     1      -3.056  -2.468  10.012  1.00  0.00     0.171 C 
BRANCH  45  46
ATOM     46  N   UNL     1      -3.291  -1.655   8.826  1.00  0.00    -0.342 N 
ATOM     47  C   UNL     1      -2.750  -0.403   8.672  1.00  0.00     0.247 C 
ATOM     48  O   UNL     1      -1.971   0.093   9.487  1.00  0.00    -0.273 OA
ATOM     49  H   UNL     1      -3.886  -2.051   8.100  1.00  0.00     0.164 HD
BRANCH  47  50
ATOM     50  C   UNL     1      -3.209   0.353   7.418  1.00  0.00     0.212 CG0
ATOM     51  G   UNL     1      -1.955   0.669   6.578  1.00  0.00     0.000 G0
BRANCH  50  52
ATOM     52  N   UNL     1      -4.145  -0.542   6.743  1.00  0.00    -0.339 N 
ATOM     53  C   UNL     1      -5.387  -0.148   6.308  1.00  0.00     0.243 C 
ATOM     54  O   UNL     1      -5.829   0.981   6.502  1.00  0.00    -0.273 OA
ATOM     55  H   UNL     1      -3.880  -1.521   6.652  1.00  0.00     0.164 HD
BRANCH  53  56
ATOM     56  C   UNL     1      -6.230  -1.289   5.702  1.00  0.00     0.182 C 
BRANCH  56  57
ATOM     57  N   UNL     1      -7.381  -1.602   6.555  1.00  0.00    -0.344 N 
ATOM     58  C   UNL     1      -7.243  -1.984   7.867  1.00  0.00     0.220 C 
ATOM     59  O   UNL     1      -6.150  -2.161   8.395  1.00  0.00    -0.275 OA
ATOM     60  H   UNL     1      -8.302  -1.371   6.190  1.00  0.00     0.164 HD
BRANCH  58  61
ATOM     61  C   UNL     1      -8.569  -2.201   8.574  1.00  0.00     0.100 C 
BRANCH  61  62
ATOM     62  C   UNL     1      -8.800  -1.255   9.752  1.00  0.00     0.010 C 
BRANCH  62  63
ATOM     63  C   UNL     1      -9.735  -0.079   9.439  1.00  0.00     0.000 C 
BRANCH  63  64
ATOM     64  C   UNL     1     -11.175  -0.282   9.908  1.00  0.00    -0.003 C 
ATOM     65  C   UNL     1     -11.826   1.040  10.290  1.00  0.00     0.004 C 
ENDBRANCH  63  64
ENDBRANCH  62  63
ENDBRANCH  61  62
ENDBRANCH  58  61
ENDBRANCH  56  57
BRANCH  56  66
ATOM     66  C   UNL     1      -5.377  -2.522   5.410  1.00  0.00     0.157 C 
BRANCH  66  67
ATOM     67  C   UNL     1      -5.764  -3.153   4.103  1.00  0.00     0.305 C 
ATOM     68  O   UNL     1      -5.015  -3.460   3.188  1.00  0.00    -0.252 OA
BRANCH  67  69
ATOM     69  O   UNL     1      -7.082  -3.416   4.032  1.00  0.00    -0.481 OA
ATOM     70  H   UNL     1      -7.254  -4.035   4.773  1.00  0.00     0.296 HD
ENDBRANCH  67  69
ENDBRANCH  66  67
ENDBRANCH  56  66
ENDBRANCH  53  56
ENDBRANCH  50  52
ENDBRANCH  47  50
ENDBRANCH  45  46
BRANCH  45  71
ATOM     71  C   UNL     1      -3.472  -3.927   9.789  1.00  0.00     0.037 C 
BRANCH  71  72
ATOM     72  C   UNL     1      -2.588  -4.626   8.753  1.00  0.00     0.026 C 
BRANCH  72  73
ATOM     73  C   UNL     1      -3.199  -4.555   7.355  1.00  0.00     0.146 C 
BRANCH  73  74
ATOM     74  N   UNL     1      -2.105  -4.482   6.392  1.00  0.00    -0.254 NA
ATOM     75  C   UNL     1      -2.298  -4.981   5.227  1.00  0.00     0.185 C 
ATOM     76  N   UNL     1      -1.310  -4.928   4.319  1.00  0.00    -0.370 N 
ATOM     77  N   UNL     1      -3.395  -5.584   4.738  1.00  0.00    -0.370 N 
ATOM     78  H   UNL     1      -0.445  -4.496   4.609  1.00  0.00     0.159 HD
ATOM     79  H   UNL     1      -1.336  -5.421   3.444  1.00  0.00     0.159 HD
ATOM     80  H   UNL     1      -4.220  -5.692   5.309  1.00  0.00     0.159 HD
ATOM     81  H   UNL     1      -3.471  -5.835   3.766  1.00  0.00     0.159 HD
ENDBRANCH  73  74
ENDBRANCH  72  73
ENDBRANCH  71  72
ENDBRANCH  45  71
ENDBRANCH   3  45
TORSDOF 20
ENDMDL
MODEL 13
REMARK VINA RESULT:    -6.190      2.613      7.001
REMARK INTER + INTRA:         -25.414
REMARK INTER:                 -20.291
REMARK INTRA:                  -5.123
REMARK UNBOUND:                -7.644
REMARK SMILES CCCCCC(=O)N[C@H](CC(=O)O)C(=O)N[C@H]1C(=O)N[C@H](CCCN=C(N)N)C(=O)N[C@@H]2CC[C@H](O)N(C2=O)[C@@H](CC(C)C)C(=O)N(C)[C@@H](Cc2ccccc2)C(=O)N[C@H](C(C)C)C(=O)O[C@@H]1C
REMARK SMILES IDX 30 1 31 2 29 3 32 5 35 6 37 7 34 8 38 9 33 10 39 11 36 12
REMARK SMILES IDX 40 14 41 15 42 16 43 17 44 18 45 19 46 20 47 21 48 22 49 23
REMARK SMILES IDX 50 24 51 25 52 26 56 27 53 28 55 29 54 30 57 31 58 32 59 33
REMARK SMILES IDX 60 35 61 36 62 37 63 38 64 39 65 40 66 41 67 42 68 43 21 45
REMARK SMILES IDX 20 46 18 47 19 48 17 50 16 52 14 53 15 54 9 56 8 57 6 58
REMARK SMILES IDX 7 59 5 61 4 62 3 63 2 64 1 65 10 66 11 67 12 68 13 69 22 71
REMARK SMILES IDX 23 72 24 73 25 74 26 75 27 76 28 77
REMARK H PARENT 31 4 36 13 59 34 20 49 16 55 8 60 13 70 27 78 27 79 28 80
REMARK H PARENT 28 81
REMARK Flexibility Score:  259.900
ROOT
ATOM      1  O   UNL     1      -0.177   4.943   8.814  1.00  0.00    -0.273 OA
ATOM      2  N   UNL     1      -1.589   3.660   7.553  1.00  0.00    -0.343 N 
ATOM      3  C   UNL     1      -1.221   4.837   8.170  1.00  0.00     0.243 C 
ATOM      4  H   UNL     1      -2.448   3.613   7.019  1.00  0.00     0.164 HD
ENDROOT
BRANCH   2   5
ATOM      5  C   UNL     1      -0.804   2.445   7.743  1.00  0.00     0.171 C 
ATOM      6  C   UNL     1      -0.943  -0.191   6.544  1.00  0.00     0.214 C 
ATOM      7  N   UNL     1      -1.680   0.078   7.756  1.00  0.00    -0.303 N 
ATOM      8  C   UNL     1       0.329   0.633   6.418  1.00  0.00     0.057 C 
ATOM      9  C   UNL     1      -1.698   1.328   8.353  1.00  0.00     0.247 C 
ATOM     10  C   UNL     1      -0.006   2.107   6.485  1.00  0.00     0.040 C 
ATOM     11  O   UNL     1      -2.401   1.573   9.342  1.00  0.00    -0.272 OA
BRANCH   6  12
ATOM     12  O   UNL     1      -1.801   0.059   5.454  1.00  0.00    -0.373 OA
ATOM     13  H   UNL     1      -1.685  -0.682   4.822  1.00  0.00     0.213 HD
ENDBRANCH   6  12
BRANCH   7  14
ATOM     14  C   UNL     1      -2.547  -1.005   8.268  1.00  0.00     0.177 C 
BRANCH  14  15
ATOM     15  C   UNL     1      -2.178  -1.535   9.667  1.00  0.00     0.038 C 
BRANCH  15  16
ATOM     16  C   UNL     1      -2.496  -3.002  10.033  1.00  0.00    -0.015 C 
ATOM     17  C   UNL     1      -2.164  -3.324  11.493  1.00  0.00     0.007 C 
ATOM     18  C   UNL     1      -1.687  -3.948   9.137  1.00  0.00     0.007 C 
ENDBRANCH  15  16
ENDBRANCH  14  15
BRANCH  14  19
ATOM     19  C   UNL     1      -4.005  -0.841   7.716  1.00  0.00     0.245 C 
ATOM     20  O   UNL     1      -4.250   0.200   7.084  1.00  0.00    -0.272 OA
BRANCH  19  21
ATOM     21  N   UNL     1      -5.036  -1.723   7.988  1.00  0.00    -0.332 N 
ATOM     22  C   UNL     1      -5.127  -3.088   7.502  1.00  0.00     0.147 C 
BRANCH  21  23
ATOM     23  C   UNL     1      -6.158  -1.240   8.840  1.00  0.00     0.178 C 
BRANCH  23  24
ATOM     24  C   UNL     1      -7.486  -2.001   8.650  1.00  0.00     0.070 C 
BRANCH  24  25
ATOM     25  C   UNL     1      -8.747  -1.310   9.114  1.00  0.00    -0.045 A 
ATOM     26  C   UNL     1      -9.645  -1.957   9.973  1.00  0.00     0.004 A 
ATOM     27  C   UNL     1      -9.040  -0.007   8.684  1.00  0.00     0.004 A 
ATOM     28  C   UNL     1     -10.817  -1.318  10.384  1.00  0.00     0.000 A 
ATOM     29  C   UNL     1     -10.211   0.631   9.096  1.00  0.00     0.000 A 
ATOM     30  C   UNL     1     -11.100  -0.027   9.944  1.00  0.00     0.000 A 
ENDBRANCH  24  25
ENDBRANCH  23  24
BRANCH  23  31
ATOM     31  C   UNL     1      -5.743  -1.011  10.312  1.00  0.00     0.243 C 
ATOM     32  O   UNL     1      -5.484  -1.916  11.102  1.00  0.00    -0.273 OA
ATOM     33  N   UNL     1      -5.867   0.305  10.724  1.00  0.00    -0.341 N 
ATOM     34  H   UNL     1      -6.091   1.014  10.022  1.00  0.00     0.164 HD
BRANCH  33  35
ATOM     35  C   UNL     1      -5.643   0.734  12.108  1.00  0.00     0.194 C 
BRANCH  35  36
ATOM     36  C   UNL     1      -6.923   0.729  12.989  1.00  0.00     0.017 C 
ATOM     37  C   UNL     1      -8.195   0.839  12.130  1.00  0.00     0.010 C 
ATOM     38  C   UNL     1      -6.959   1.872  14.010  1.00  0.00     0.010 C 
ENDBRANCH  35  36
BRANCH  35  39
ATOM     39  C   UNL     1      -4.881   2.086  12.199  1.00  0.00     0.329 C 
ATOM     40  O   UNL     1      -3.813   2.234  12.780  1.00  0.00    -0.250 OA
BRANCH  39  41
ATOM     41  O   UNL     1      -5.493   3.076  11.481  1.00  0.00    -0.458 OA
BRANCH  41  42
ATOM     42  C   UNL     1      -4.912   4.398  11.589  1.00  0.00     0.205 CG0
ATOM     43  C   UNL     1      -5.562   5.083  12.790  1.00  0.00     0.056 C 
ATOM     44  G   UNL     1      -5.165   5.155  10.270  1.00  0.00     0.000 G0
ENDBRANCH  41  42
ENDBRANCH  39  41
ENDBRANCH  35  39
ENDBRANCH  33  35
ENDBRANCH  23  31
ENDBRANCH  21  23
ENDBRANCH  19  21
ENDBRANCH  14  19
ENDBRANCH   7  14
ENDBRANCH   2   5
BRANCH   3  45
ATOM     45  C   UNL     1      -2.191   6.010   7.979  1.00  0.00     0.171 C 
BRANCH  45  46
ATOM     46  N   UNL     1      -3.464   5.562   8.530  1.00  0.00    -0.342 N 
ATOM     47  C   UNL     1      -3.848   5.842   9.817  1.00  0.00     0.247 C 
ATOM     48  O   UNL     1      -3.183   6.550  10.574  1.00  0.00    -0.273 OA
ATOM     49  H   UNL     1      -4.071   5.020   7.918  1.00  0.00     0.164 HD
BRANCH  47  50
ATOM     50  C   UNL     1      -5.162   5.184  10.261  1.00  0.00     0.212 CG0
ATOM     51  G   UNL     1      -4.885   4.429  11.576  1.00  0.00     0.000 G0
BRANCH  50  52
ATOM     52  N   UNL     1      -6.115   6.280  10.413  1.00  0.00    -0.339 N 
ATOM     53  C   UNL     1      -7.193   6.465   9.583  1.00  0.00     0.243 C 
ATOM     54  O   UNL     1      -7.410   5.748   8.609  1.00  0.00    -0.273 OA
ATOM     55  H   UNL     1      -5.927   6.973  11.135  1.00  0.00     0.164 HD
BRANCH  53  56
ATOM     56  C   UNL     1      -8.008   7.739   9.886  1.00  0.00     0.182 C 
BRANCH  56  57
ATOM     57  N   UNL     1      -7.719   8.793   8.909  1.00  0.00    -0.344 N 
ATOM     58  C   UNL     1      -8.687   9.324   8.092  1.00  0.00     0.220 C 
ATOM     59  O   UNL     1      -9.839   8.905   8.069  1.00  0.00    -0.275 OA
ATOM     60  H   UNL     1      -6.806   9.237   8.966  1.00  0.00     0.164 HD
BRANCH  58  61
ATOM     61  C   UNL     1      -8.176  10.443   7.202  1.00  0.00     0.100 C 
BRANCH  61  62
ATOM     62  C   UNL     1      -7.347   9.955   6.014  1.00  0.00     0.010 C 
BRANCH  62  63
ATOM     63  C   UNL     1      -8.159   9.217   4.943  1.00  0.00     0.000 C 
BRANCH  63  64
ATOM     64  C   UNL     1      -8.120   9.873   3.564  1.00  0.00    -0.003 C 
ATOM     65  C   UNL     1      -9.174  10.965   3.439  1.00  0.00     0.004 C 
ENDBRANCH  63  64
ENDBRANCH  62  63
ENDBRANCH  61  62
ENDBRANCH  58  61
ENDBRANCH  56  57
BRANCH  56  66
ATOM     66  C   UNL     1      -7.795   8.210  11.324  1.00  0.00     0.157 C 
BRANCH  66  67
ATOM     67  C   UNL     1      -8.589   7.380  12.291  1.00  0.00     0.305 C 
ATOM     68  O   UNL     1      -8.305   7.140  13.455  1.00  0.00    -0.252 OA
BRANCH  67  69
ATOM     69  O   UNL     1      -9.740   6.931  11.756  1.00  0.00    -0.481 OA
ATOM     70  H   UNL     1      -9.760   7.310  10.852  1.00  0.00     0.296 HD
ENDBRANCH  67  69
ENDBRANCH  66  67
ENDBRANCH  56  66
ENDBRANCH  53  56
ENDBRANCH  50  52
ENDBRANCH  47  50
ENDBRANCH  45  46
BRANCH  45  71
ATOM     71  C   UNL     1      -2.312   6.366   6.493  1.00  0.00     0.037 C 
BRANCH  71  72
ATOM     72  C   UNL     1      -0.960   6.735   5.877  1.00  0.00     0.026 C 
BRANCH  72  73
ATOM     73  C   UNL     1      -1.089   7.043   4.387  1.00  0.00     0.146 C 
BRANCH  73  74
ATOM     74  N   UNL     1      -1.965   8.202   4.244  1.00  0.00    -0.254 NA
ATOM     75  C   UNL     1      -1.812   8.944   3.210  1.00  0.00     0.185 C 
ATOM     76  N   UNL     1      -2.604  10.016   3.049  1.00  0.00    -0.370 N 
ATOM     77  N   UNL     1      -0.935   8.815   2.199  1.00  0.00    -0.370 N 
ATOM     78  H   UNL     1      -3.289  10.191   3.771  1.00  0.00     0.159 HD
ATOM     79  H   UNL     1      -2.450  10.719   2.348  1.00  0.00     0.159 HD
ATOM     80  H   UNL     1      -0.277   8.050   2.184  1.00  0.00     0.159 HD
ATOM     81  H   UNL     1      -0.985   9.396   1.379  1.00  0.00     0.159 HD
ENDBRANCH  73  74
ENDBRANCH  72  73
ENDBRANCH  71  72
ENDBRANCH  45  71
ENDBRANCH   3  45
TORSDOF 20
ENDMDL
MODEL 14
REMARK VINA RESULT:    -6.134      2.584      5.631
REMARK INTER + INTRA:         -25.253
REMARK INTER:                 -18.918
REMARK INTRA:                  -6.336
REMARK UNBOUND:                -7.644
REMARK SMILES CCCCCC(=O)N[C@H](CC(=O)O)C(=O)N[C@H]1C(=O)N[C@H](CCCN=C(N)N)C(=O)N[C@@H]2CC[C@H](O)N(C2=O)[C@@H](CC(C)C)C(=O)N(C)[C@@H](Cc2ccccc2)C(=O)N[C@H](C(C)C)C(=O)O[C@@H]1C
REMARK SMILES IDX 30 1 31 2 29 3 32 5 35 6 37 7 34 8 38 9 33 10 39 11 36 12
REMARK SMILES IDX 40 14 41 15 42 16 43 17 44 18 45 19 46 20 47 21 48 22 49 23
REMARK SMILES IDX 50 24 51 25 52 26 56 27 53 28 55 29 54 30 57 31 58 32 59 33
REMARK SMILES IDX 60 35 61 36 62 37 63 38 64 39 65 40 66 41 67 42 68 43 21 45
REMARK SMILES IDX 20 46 18 47 19 48 17 50 16 52 14 53 15 54 9 56 8 57 6 58
REMARK SMILES IDX 7 59 5 61 4 62 3 63 2 64 1 65 10 66 11 67 12 68 13 69 22 71
REMARK SMILES IDX 23 72 24 73 25 74 26 75 27 76 28 77
REMARK H PARENT 31 4 36 13 59 34 20 49 16 55 8 60 13 70 27 78 27 79 28 80
REMARK H PARENT 28 81
REMARK Flexibility Score:  259.900
ROOT
ATOM      1  O   UNL     1     -10.871   0.780   9.636  1.00  0.00    -0.273 OA
ATOM      2  N   UNL     1      -8.690   0.463  10.248  1.00  0.00    -0.343 N 
ATOM      3  C   UNL     1     -10.004   0.784  10.511  1.00  0.00     0.243 C 
ATOM      4  H   UNL     1      -8.007   0.463  10.995  1.00  0.00     0.164 HD
ENDROOT
BRANCH   2   5
ATOM      5  C   UNL     1      -8.245   0.217   8.880  1.00  0.00     0.171 C 
ATOM      6  C   UNL     1      -6.776  -1.961   7.655  1.00  0.00     0.214 C 
ATOM      7  N   UNL     1      -6.055  -0.825   8.179  1.00  0.00    -0.303 N 
ATOM      8  C   UNL     1      -8.170  -1.612   7.156  1.00  0.00     0.057 C 
ATOM      9  C   UNL     1      -6.690   0.225   8.822  1.00  0.00     0.247 C 
ATOM     10  C   UNL     1      -8.971  -0.984   8.275  1.00  0.00     0.040 C 
ATOM     11  O   UNL     1      -6.059   1.153   9.345  1.00  0.00    -0.272 OA
BRANCH   6  12
ATOM     12  O   UNL     1      -6.846  -2.934   8.672  1.00  0.00    -0.373 OA
ATOM     13  H   UNL     1      -6.962  -2.454   9.520  1.00  0.00     0.213 HD
ENDBRANCH   6  12
BRANCH   7  14
ATOM     14  C   UNL     1      -4.579  -0.890   8.136  1.00  0.00     0.177 C 
BRANCH  14  15
ATOM     15  C   UNL     1      -3.957  -2.130   8.805  1.00  0.00     0.038 C 
BRANCH  15  16
ATOM     16  C   UNL     1      -2.681  -1.974   9.661  1.00  0.00    -0.015 C 
ATOM     17  C   UNL     1      -2.689  -2.883  10.894  1.00  0.00     0.007 C 
ATOM     18  C   UNL     1      -2.551  -0.521  10.137  1.00  0.00     0.007 C 
ENDBRANCH  15  16
ENDBRANCH  14  15
BRANCH  14  19
ATOM     19  C   UNL     1      -4.042  -0.194   6.837  1.00  0.00     0.245 C 
ATOM     20  O   UNL     1      -3.314  -0.876   6.098  1.00  0.00    -0.272 OA
BRANCH  19  21
ATOM     21  N   UNL     1      -4.242   1.142   6.539  1.00  0.00    -0.332 N 
ATOM     22  C   UNL     1      -5.344   1.676   5.758  1.00  0.00     0.147 C 
BRANCH  21  23
ATOM     23  C   UNL     1      -3.245   2.125   7.047  1.00  0.00     0.178 C 
BRANCH  23  24
ATOM     24  C   UNL     1      -2.388   2.797   5.955  1.00  0.00     0.070 C 
BRANCH  24  25
ATOM     25  C   UNL     1      -1.500   3.941   6.385  1.00  0.00    -0.045 A 
ATOM     26  C   UNL     1      -0.327   3.705   7.114  1.00  0.00     0.004 A 
ATOM     27  C   UNL     1      -1.842   5.263   6.063  1.00  0.00     0.004 A 
ATOM     28  C   UNL     1       0.480   4.769   7.522  1.00  0.00     0.000 A 
ATOM     29  C   UNL     1      -1.034   6.326   6.471  1.00  0.00     0.000 A 
ATOM     30  C   UNL     1       0.125   6.078   7.203  1.00  0.00     0.000 A 
ENDBRANCH  24  25
ENDBRANCH  23  24
BRANCH  23  31
ATOM     31  C   UNL     1      -3.834   3.092   8.101  1.00  0.00     0.243 C 
ATOM     32  O   UNL     1      -4.589   4.024   7.833  1.00  0.00    -0.273 OA
ATOM     33  N   UNL     1      -3.288   2.934   9.364  1.00  0.00    -0.341 N 
ATOM     34  H   UNL     1      -2.660   2.143   9.525  1.00  0.00     0.164 HD
BRANCH  33  35
ATOM     35  C   UNL     1      -3.608   3.817  10.489  1.00  0.00     0.194 C 
BRANCH  35  36
ATOM     36  C   UNL     1      -2.455   4.782  10.886  1.00  0.00     0.017 C 
ATOM     37  C   UNL     1      -2.439   6.033   9.991  1.00  0.00     0.010 C 
ATOM     38  C   UNL     1      -1.067   4.135  10.796  1.00  0.00     0.010 C 
ENDBRANCH  35  36
BRANCH  35  39
ATOM     39  C   UNL     1      -4.166   3.043  11.716  1.00  0.00     0.329 C 
ATOM     40  O   UNL     1      -3.673   2.012  12.159  1.00  0.00    -0.250 OA
BRANCH  39  41
ATOM     41  O   UNL     1      -5.220   3.688  12.302  1.00  0.00    -0.458 OA
BRANCH  41  42
ATOM     42  C   UNL     1      -6.540   3.291  11.860  1.00  0.00     0.205 CG0
ATOM     43  C   UNL     1      -6.835   4.053  10.569  1.00  0.00     0.056 C 
ATOM     44  G   UNL     1      -7.550   3.613  12.979  1.00  0.00     0.000 G0
ENDBRANCH  41  42
ENDBRANCH  39  41
ENDBRANCH  35  39
ENDBRANCH  33  35
ENDBRANCH  23  31
ENDBRANCH  21  23
ENDBRANCH  19  21
ENDBRANCH  14  19
ENDBRANCH   7  14
ENDBRANCH   2   5
BRANCH   3  45
ATOM     45  C   UNL     1     -10.317   1.126  11.974  1.00  0.00     0.171 C 
BRANCH  45  46
ATOM     46  N   UNL     1      -9.111   1.756  12.497  1.00  0.00    -0.342 N 
ATOM     47  C   UNL     1      -8.944   3.117  12.524  1.00  0.00     0.247 C 
ATOM     48  O   UNL     1      -9.824   3.906  12.178  1.00  0.00    -0.273 OA
ATOM     49  H   UNL     1      -8.379   1.140  12.847  1.00  0.00     0.164 HD
BRANCH  47  50
ATOM     50  C   UNL     1      -7.562   3.593  12.993  1.00  0.00     0.212 CG0
ATOM     51  G   UNL     1      -6.556   3.298  11.862  1.00  0.00     0.000 G0
BRANCH  50  52
ATOM     52  N   UNL     1      -7.714   5.018  13.272  1.00  0.00    -0.339 N 
ATOM     53  C   UNL     1      -7.934   5.523  14.531  1.00  0.00     0.243 C 
ATOM     54  O   UNL     1      -8.072   4.805  15.517  1.00  0.00    -0.273 OA
ATOM     55  H   UNL     1      -7.720   5.657  12.480  1.00  0.00     0.164 HD
BRANCH  53  56
ATOM     56  C   UNL     1      -8.149   7.050  14.566  1.00  0.00     0.182 C 
BRANCH  56  57
ATOM     57  N   UNL     1      -7.802   7.660  13.279  1.00  0.00    -0.344 N 
ATOM     58  C   UNL     1      -8.723   7.839  12.276  1.00  0.00     0.220 C 
ATOM     59  O   UNL     1      -9.879   7.437  12.358  1.00  0.00    -0.275 OA
ATOM     60  H   UNL     1      -6.886   8.097  13.208  1.00  0.00     0.164 HD
BRANCH  58  61
ATOM     61  C   UNL     1      -8.157   8.543  11.057  1.00  0.00     0.100 C 
BRANCH  61  62
ATOM     62  C   UNL     1      -7.339   7.630  10.143  1.00  0.00     0.010 C 
BRANCH  62  63
ATOM     63  C   UNL     1      -8.125   7.065   8.954  1.00  0.00     0.000 C 
BRANCH  63  64
ATOM     64  C   UNL     1      -8.683   8.128   8.009  1.00  0.00    -0.003 C 
ATOM     65  C   UNL     1      -9.594   7.512   6.956  1.00  0.00     0.004 C 
ENDBRANCH  63  64
ENDBRANCH  62  63
ENDBRANCH  61  62
ENDBRANCH  58  61
ENDBRANCH  56  57
BRANCH  56  66
ATOM     66  C   UNL     1      -7.399   7.694  15.731  1.00  0.00     0.157 C 
BRANCH  66  67
ATOM     67  C   UNL     1      -8.345   8.118  16.818  1.00  0.00     0.305 C 
ATOM     68  O   UNL     1      -8.786   9.241  17.008  1.00  0.00    -0.252 OA
BRANCH  67  69
ATOM     69  O   UNL     1      -8.734   7.085  17.589  1.00  0.00    -0.481 OA
ATOM     70  H   UNL     1      -9.054   7.499  18.419  1.00  0.00     0.296 HD
ENDBRANCH  67  69
ENDBRANCH  66  67
ENDBRANCH  56  66
ENDBRANCH  53  56
ENDBRANCH  50  52
ENDBRANCH  47  50
ENDBRANCH  45  46
BRANCH  45  71
ATOM     71  C   UNL     1     -10.676  -0.143  12.754  1.00  0.00     0.037 C 
BRANCH  71  72
ATOM     72  C   UNL     1     -10.400  -1.413  11.946  1.00  0.00     0.026 C 
BRANCH  72  73
ATOM     73  C   UNL     1      -9.361  -2.298  12.631  1.00  0.00     0.146 C 
BRANCH  73  74
ATOM     74  N   UNL     1      -8.164  -2.311  11.796  1.00  0.00    -0.254 NA
ATOM     75  C   UNL     1      -7.090  -1.805  12.279  1.00  0.00     0.185 C 
ATOM     76  N   UNL     1      -5.973  -1.804  11.535  1.00  0.00    -0.370 N 
ATOM     77  N   UNL     1      -6.889  -1.242  13.483  1.00  0.00    -0.370 N 
ATOM     78  H   UNL     1      -6.039  -2.203  10.609  1.00  0.00     0.159 HD
ATOM     79  H   UNL     1      -5.140  -1.301  11.787  1.00  0.00     0.159 HD
ATOM     80  H   UNL     1      -7.642  -1.177  14.152  1.00  0.00     0.159 HD
ATOM     81  H   UNL     1      -5.969  -0.982  13.798  1.00  0.00     0.159 HD
ENDBRANCH  73  74
ENDBRANCH  72  73
ENDBRANCH  71  72
ENDBRANCH  45  71
ENDBRANCH   3  45
TORSDOF 20
ENDMDL
MODEL 15
REMARK VINA RESULT:    -6.089      2.592      5.369
REMARK INTER + INTRA:         -25.122
REMARK INTER:                 -19.351
REMARK INTRA:                  -5.771
REMARK UNBOUND:                -7.644
REMARK SMILES CCCCCC(=O)N[C@H](CC(=O)O)C(=O)N[C@H]1C(=O)N[C@H](CCCN=C(N)N)C(=O)N[C@@H]2CC[C@H](O)N(C2=O)[C@@H](CC(C)C)C(=O)N(C)[C@@H](Cc2ccccc2)C(=O)N[C@H](C(C)C)C(=O)O[C@@H]1C
REMARK SMILES IDX 30 1 31 2 29 3 32 5 35 6 37 7 34 8 38 9 33 10 39 11 36 12
REMARK SMILES IDX 40 14 41 15 42 16 43 17 44 18 45 19 46 20 47 21 48 22 49 23
REMARK SMILES IDX 50 24 51 25 52 26 56 27 53 28 55 29 54 30 57 31 58 32 59 33
REMARK SMILES IDX 60 35 61 36 62 37 63 38 64 39 65 40 66 41 67 42 68 43 21 45
REMARK SMILES IDX 20 46 18 47 19 48 17 50 16 52 14 53 15 54 9 56 8 57 6 58
REMARK SMILES IDX 7 59 5 61 4 62 3 63 2 64 1 65 10 66 11 67 12 68 13 69 22 71
REMARK SMILES IDX 23 72 24 73 25 74 26 75 27 76 28 77
REMARK H PARENT 31 4 36 13 59 34 20 49 16 55 8 60 13 70 27 78 27 79 28 80
REMARK H PARENT 28 81
REMARK Flexibility Score:  259.900
ROOT
ATOM      1  O   UNL     1      -2.646   3.323  13.441  1.00  0.00    -0.273 OA
ATOM      2  N   UNL     1      -4.020   4.081  11.778  1.00  0.00    -0.343 N 
ATOM      3  C   UNL     1      -3.782   3.568  13.035  1.00  0.00     0.243 C 
ATOM      4  H   UNL     1      -4.967   4.284  11.483  1.00  0.00     0.164 HD
ENDROOT
BRANCH   2   5
ATOM      5  C   UNL     1      -2.929   4.246  10.824  1.00  0.00     0.171 C 
ATOM      6  C   UNL     1      -2.843   4.291   7.927  1.00  0.00     0.214 C 
ATOM      7  N   UNL     1      -2.664   3.039   8.623  1.00  0.00    -0.303 N 
ATOM      8  C   UNL     1      -2.355   5.495   8.718  1.00  0.00     0.057 C 
ATOM      9  C   UNL     1      -2.745   2.938  10.003  1.00  0.00     0.247 C 
ATOM     10  C   UNL     1      -3.070   5.556  10.050  1.00  0.00     0.040 C 
ATOM     11  O   UNL     1      -2.677   1.848  10.586  1.00  0.00    -0.272 OA
BRANCH   6  12
ATOM     12  O   UNL     1      -4.212   4.424   7.623  1.00  0.00    -0.373 OA
ATOM     13  H   UNL     1      -4.711   4.022   8.366  1.00  0.00     0.213 HD
ENDBRANCH   6  12
BRANCH   7  14
ATOM     14  C   UNL     1      -2.536   1.822   7.793  1.00  0.00     0.177 C 
BRANCH  14  15
ATOM     15  C   UNL     1      -1.105   1.266   7.662  1.00  0.00     0.038 C 
BRANCH  15  16
ATOM     16  C   UNL     1      -0.668   0.594   6.341  1.00  0.00    -0.015 C 
ATOM     17  C   UNL     1      -0.428  -0.910   6.501  1.00  0.00     0.007 C 
ATOM     18  C   UNL     1       0.631   1.237   5.838  1.00  0.00     0.007 C 
ENDBRANCH  15  16
ENDBRANCH  14  15
BRANCH  14  19
ATOM     19  C   UNL     1      -3.840   0.958   7.889  1.00  0.00     0.245 C 
ATOM     20  O   UNL     1      -4.919   1.553   7.725  1.00  0.00    -0.272 OA
BRANCH  19  21
ATOM     21  N   UNL     1      -3.856  -0.377   8.252  1.00  0.00    -0.332 N 
ATOM     22  C   UNL     1      -3.098  -0.963   9.343  1.00  0.00     0.147 C 
BRANCH  21  23
ATOM     23  C   UNL     1      -4.708  -1.304   7.457  1.00  0.00     0.178 C 
BRANCH  23  24
ATOM     24  C   UNL     1      -3.933  -2.393   6.687  1.00  0.00     0.070 C 
BRANCH  24  25
ATOM     25  C   UNL     1      -4.640  -3.049   5.524  1.00  0.00    -0.045 A 
ATOM     26  C   UNL     1      -5.745  -2.436   4.918  1.00  0.00     0.004 A 
ATOM     27  C   UNL     1      -4.200  -4.288   5.036  1.00  0.00     0.004 A 
ATOM     28  C   UNL     1      -6.404  -3.057   3.855  1.00  0.00     0.000 A 
ATOM     29  C   UNL     1      -4.859  -4.907   3.972  1.00  0.00     0.000 A 
ATOM     30  C   UNL     1      -5.963  -4.292   3.384  1.00  0.00     0.000 A 
ENDBRANCH  24  25
ENDBRANCH  23  24
BRANCH  23  31
ATOM     31  C   UNL     1      -5.941  -1.813   8.241  1.00  0.00     0.243 C 
ATOM     32  O   UNL     1      -6.107  -2.983   8.576  1.00  0.00    -0.273 OA
ATOM     33  N   UNL     1      -6.940  -0.865   8.376  1.00  0.00    -0.341 N 
ATOM     34  H   UNL     1      -6.745   0.093   8.073  1.00  0.00     0.164 HD
BRANCH  33  35
ATOM     35  C   UNL     1      -8.244  -1.158   8.978  1.00  0.00     0.194 C 
BRANCH  35  36
ATOM     36  C   UNL     1      -9.457  -0.721   8.110  1.00  0.00     0.017 C 
ATOM     37  C   UNL     1     -10.185  -1.938   7.513  1.00  0.00     0.010 C 
ATOM     38  C   UNL     1      -9.067   0.196   6.945  1.00  0.00     0.010 C 
ENDBRANCH  35  36
BRANCH  35  39
ATOM     39  C   UNL     1      -8.359  -0.639  10.439  1.00  0.00     0.329 C 
ATOM     40  O   UNL     1      -7.852  -1.194  11.406  1.00  0.00    -0.250 OA
BRANCH  39  41
ATOM     41  O   UNL     1      -9.016   0.557  10.515  1.00  0.00    -0.458 OA
BRANCH  41  42
ATOM     42  C   UNL     1      -8.621   1.439  11.593  1.00  0.00     0.205 CG0
ATOM     43  C   UNL     1      -9.855   2.240  12.001  1.00  0.00     0.056 C 
ATOM     44  G   UNL     1      -7.472   2.339  11.095  1.00  0.00     0.000 G0
ENDBRANCH  41  42
ENDBRANCH  39  41
ENDBRANCH  35  39
ENDBRANCH  33  35
ENDBRANCH  23  31
ENDBRANCH  21  23
ENDBRANCH  19  21
ENDBRANCH  14  19
ENDBRANCH   7  14
ENDBRANCH   2   5
BRANCH   3  45
ATOM     45  C   UNL     1      -5.029   3.342  13.900  1.00  0.00     0.171 C 
BRANCH  45  46
ATOM     46  N   UNL     1      -6.144   3.251  12.967  1.00  0.00    -0.342 N 
ATOM     47  C   UNL     1      -6.285   2.207  12.087  1.00  0.00     0.247 C 
ATOM     48  O   UNL     1      -5.524   1.239  12.072  1.00  0.00    -0.273 OA
ATOM     49  H   UNL     1      -6.830   4.004  12.985  1.00  0.00     0.164 HD
BRANCH  47  50
ATOM     50  C   UNL     1      -7.451   2.344  11.097  1.00  0.00     0.212 CG0
ATOM     51  G   UNL     1      -8.611   1.473  11.619  1.00  0.00     0.000 G0
BRANCH  50  52
ATOM     52  N   UNL     1      -7.768   3.769  11.064  1.00  0.00    -0.339 N 
ATOM     53  C   UNL     1      -7.207   4.648  10.169  1.00  0.00     0.243 C 
ATOM     54  O   UNL     1      -6.350   4.309   9.358  1.00  0.00    -0.273 OA
ATOM     55  H   UNL     1      -8.389   4.132  11.784  1.00  0.00     0.164 HD
BRANCH  53  56
ATOM     56  C   UNL     1      -7.630   6.115  10.382  1.00  0.00     0.182 C 
BRANCH  56  57
ATOM     57  N   UNL     1      -6.665   7.035   9.771  1.00  0.00    -0.344 N 
ATOM     58  C   UNL     1      -7.030   7.967   8.831  1.00  0.00     0.220 C 
ATOM     59  O   UNL     1      -8.169   8.047   8.384  1.00  0.00    -0.275 OA
ATOM     60  H   UNL     1      -5.737   7.070  10.185  1.00  0.00     0.164 HD
BRANCH  58  61
ATOM     61  C   UNL     1      -5.880   8.850   8.381  1.00  0.00     0.100 C 
BRANCH  61  62
ATOM     62  C   UNL     1      -6.037   9.387   6.958  1.00  0.00     0.010 C 
BRANCH  62  63
ATOM     63  C   UNL     1      -4.711   9.579   6.211  1.00  0.00     0.000 C 
BRANCH  63  64
ATOM     64  C   UNL     1      -4.724  10.718   5.192  1.00  0.00    -0.003 C 
ATOM     65  C   UNL     1      -3.797  10.426   4.021  1.00  0.00     0.004 C 
ENDBRANCH  63  64
ENDBRANCH  62  63
ENDBRANCH  61  62
ENDBRANCH  58  61
ENDBRANCH  56  57
BRANCH  56  66
ATOM     66  C   UNL     1      -7.863   6.422  11.860  1.00  0.00     0.157 C 
BRANCH  66  67
ATOM     67  C   UNL     1      -8.949   7.444  12.039  1.00  0.00     0.305 C 
ATOM     68  O   UNL     1      -9.618   7.964  11.159  1.00  0.00    -0.252 OA
BRANCH  67  69
ATOM     69  O   UNL     1      -9.179   7.725  13.335  1.00  0.00    -0.481 OA
ATOM     70  H   UNL     1      -9.884   7.100  13.606  1.00  0.00     0.296 HD
ENDBRANCH  67  69
ENDBRANCH  66  67
ENDBRANCH  56  66
ENDBRANCH  53  56
ENDBRANCH  50  52
ENDBRANCH  47  50
ENDBRANCH  45  46
BRANCH  45  71
ATOM     71  C   UNL     1      -5.211   4.501  14.887  1.00  0.00     0.037 C 
BRANCH  71  72
ATOM     72  C   UNL     1      -6.619   5.098  14.821  1.00  0.00     0.026 C 
BRANCH  72  73
ATOM     73  C   UNL     1      -6.942   5.909  16.074  1.00  0.00     0.146 C 
BRANCH  73  74
ATOM     74  N   UNL     1      -7.755   7.052  15.669  1.00  0.00    -0.254 NA
ATOM     75  C   UNL     1      -8.467   7.629  16.565  1.00  0.00     0.185 C 
ATOM     76  N   UNL     1      -9.223   8.684  16.223  1.00  0.00    -0.370 N 
ATOM     77  N   UNL     1      -8.585   7.331  17.871  1.00  0.00    -0.370 N 
ATOM     78  H   UNL     1      -9.198   8.971  15.255  1.00  0.00     0.159 HD
ATOM     79  H   UNL     1      -9.911   9.092  16.831  1.00  0.00     0.159 HD
ATOM     80  H   UNL     1      -8.070   6.562  18.271  1.00  0.00     0.159 HD
ATOM     81  H   UNL     1      -9.088   7.929  18.505  1.00  0.00     0.159 HD
ENDBRANCH  73  74
ENDBRANCH  72  73
ENDBRANCH  71  72
ENDBRANCH  45  71
ENDBRANCH   3  45
TORSDOF 20
ENDMDL
MODEL 16
REMARK VINA RESULT:    -6.084      2.960      9.070
REMARK INTER + INTRA:         -25.110
REMARK INTER:                 -19.064
REMARK INTRA:                  -6.046
REMARK UNBOUND:                -7.644
REMARK SMILES CCCCCC(=O)N[C@H](CC(=O)O)C(=O)N[C@H]1C(=O)N[C@H](CCCN=C(N)N)C(=O)N[C@@H]2CC[C@H](O)N(C2=O)[C@@H](CC(C)C)C(=O)N(C)[C@@H](Cc2ccccc2)C(=O)N[C@H](C(C)C)C(=O)O[C@@H]1C
REMARK SMILES IDX 30 1 31 2 29 3 32 5 35 6 37 7 34 8 38 9 33 10 39 11 36 12
REMARK SMILES IDX 40 14 41 15 42 16 43 17 44 18 45 19 46 20 47 21 48 22 49 23
REMARK SMILES IDX 50 24 51 25 52 26 56 27 53 28 55 29 54 30 57 31 58 32 59 33
REMARK SMILES IDX 60 35 61 36 62 37 63 38 64 39 65 40 66 41 67 42 68 43 21 45
REMARK SMILES IDX 20 46 18 47 19 48 17 50 16 52 14 53 15 54 9 56 8 57 6 58
REMARK SMILES IDX 7 59 5 61 4 62 3 63 2 64 1 65 10 66 11 67 12 68 13 69 22 71
REMARK SMILES IDX 23 72 24 73 25 74 26 75 27 76 28 77
REMARK H PARENT 31 4 36 13 59 34 20 49 16 55 8 60 13 70 27 78 27 79 28 80
REMARK H PARENT 28 81
REMARK Flexibility Score:  259.900
ROOT
ATOM      1  O   UNL     1     -10.133   0.412  12.466  1.00  0.00    -0.273 OA
ATOM      2  N   UNL     1      -8.364   0.472  13.914  1.00  0.00    -0.343 N 
ATOM      3  C   UNL     1      -9.028  -0.010  12.806  1.00  0.00     0.243 C 
ATOM      4  H   UNL     1      -7.450   0.111  14.155  1.00  0.00     0.164 HD
ENDROOT
BRANCH   2   5
ATOM      5  C   UNL     1      -9.008   1.429  14.807  1.00  0.00     0.171 C 
ATOM      6  C   UNL     1     -11.332   3.137  14.509  1.00  0.00     0.214 C 
ATOM      7  N   UNL     1     -10.028   3.643  14.149  1.00  0.00    -0.303 N 
ATOM      8  C   UNL     1     -11.289   2.103  15.623  1.00  0.00     0.057 C 
ATOM      9  C   UNL     1      -8.884   2.864  14.218  1.00  0.00     0.247 C 
ATOM     10  C   UNL     1     -10.399   0.948  15.216  1.00  0.00     0.040 C 
ATOM     11  O   UNL     1      -7.785   3.277  13.826  1.00  0.00    -0.272 OA
BRANCH   6  12
ATOM     12  O   UNL     1     -11.916   2.589  13.350  1.00  0.00    -0.373 OA
ATOM     13  H   UNL     1     -11.318   2.797  12.601  1.00  0.00     0.213 HD
ENDBRANCH   6  12
BRANCH   7  14
ATOM     14  C   UNL     1      -9.974   4.996  13.555  1.00  0.00     0.177 C 
BRANCH  14  15
ATOM     15  C   UNL     1     -11.136   5.341  12.603  1.00  0.00     0.038 C 
BRANCH  15  16
ATOM     16  C   UNL     1     -11.884   6.682  12.772  1.00  0.00    -0.015 C 
ATOM     17  C   UNL     1     -13.386   6.551  12.500  1.00  0.00     0.007 C 
ATOM     18  C   UNL     1     -11.310   7.722  11.801  1.00  0.00     0.007 C 
ENDBRANCH  15  16
ENDBRANCH  14  15
BRANCH  14  19
ATOM     19  C   UNL     1      -9.285   5.997  14.545  1.00  0.00     0.245 C 
ATOM     20  O   UNL     1      -9.358   5.726  15.756  1.00  0.00    -0.272 OA
BRANCH  19  21
ATOM     21  N   UNL     1      -8.711   7.194  14.156  1.00  0.00    -0.332 N 
ATOM     22  C   UNL     1      -8.939   8.482  14.787  1.00  0.00     0.147 C 
BRANCH  21  23
ATOM     23  C   UNL     1      -7.788   7.176  12.988  1.00  0.00     0.178 C 
BRANCH  23  24
ATOM     24  C   UNL     1      -7.724   8.498  12.196  1.00  0.00     0.070 C 
BRANCH  24  25
ATOM     25  C   UNL     1      -7.811   8.404  10.690  1.00  0.00    -0.045 A 
ATOM     26  C   UNL     1      -8.068   7.178  10.062  1.00  0.00     0.004 A 
ATOM     27  C   UNL     1      -7.630   9.547   9.898  1.00  0.00     0.004 A 
ATOM     28  C   UNL     1      -8.129   7.096   8.669  1.00  0.00     0.000 A 
ATOM     29  C   UNL     1      -7.693   9.464   8.506  1.00  0.00     0.000 A 
ATOM     30  C   UNL     1      -7.940   8.237   7.893  1.00  0.00     0.000 A 
ENDBRANCH  24  25
ENDBRANCH  23  24
BRANCH  23  31
ATOM     31  C   UNL     1      -6.414   6.545  13.313  1.00  0.00     0.243 C 
ATOM     32  O   UNL     1      -5.720   6.867  14.274  1.00  0.00    -0.273 OA
ATOM     33  N   UNL     1      -5.940   5.707  12.317  1.00  0.00    -0.341 N 
ATOM     34  H   UNL     1      -6.562   5.480  11.538  1.00  0.00     0.164 HD
BRANCH  33  35
ATOM     35  C   UNL     1      -4.610   5.092  12.356  1.00  0.00     0.194 C 
BRANCH  35  36
ATOM     36  C   UNL     1      -3.835   5.172  11.011  1.00  0.00     0.017 C 
ATOM     37  C   UNL     1      -2.513   5.943  11.172  1.00  0.00     0.010 C 
ATOM     38  C   UNL     1      -4.632   5.857   9.893  1.00  0.00     0.010 C 
ENDBRANCH  35  36
BRANCH  35  39
ATOM     39  C   UNL     1      -4.636   3.646  12.926  1.00  0.00     0.329 C 
ATOM     40  O   UNL     1      -4.472   3.372  14.109  1.00  0.00    -0.250 OA
BRANCH  39  41
ATOM     41  O   UNL     1      -4.950   2.717  11.972  1.00  0.00    -0.458 OA
BRANCH  41  42
ATOM     42  C   UNL     1      -4.244   1.456  12.049  1.00  0.00     0.205 CG0
ATOM     43  C   UNL     1      -2.780   1.734  11.713  1.00  0.00     0.056 C 
ATOM     44  G   UNL     1      -4.897   0.466  11.065  1.00  0.00     0.000 G0
ENDBRANCH  41  42
ENDBRANCH  39  41
ENDBRANCH  35  39
ENDBRANCH  33  35
ENDBRANCH  23  31
ENDBRANCH  21  23
ENDBRANCH  19  21
ENDBRANCH  14  19
ENDBRANCH   7  14
ENDBRANCH   2   5
BRANCH   3  45
ATOM     45  C   UNL     1      -8.283  -1.093  12.014  1.00  0.00     0.171 C 
BRANCH  45  46
ATOM     46  N   UNL     1      -7.188  -0.406  11.341  1.00  0.00    -0.342 N 
ATOM     47  C   UNL     1      -5.902  -0.426  11.820  1.00  0.00     0.247 C 
ATOM     48  O   UNL     1      -5.567  -1.082  12.807  1.00  0.00    -0.273 OA
ATOM     49  H   UNL     1      -7.412   0.103  10.488  1.00  0.00     0.164 HD
BRANCH  47  50
ATOM     50  C   UNL     1      -4.908   0.455  11.050  1.00  0.00     0.212 CG0
ATOM     51  G   UNL     1      -4.266   1.427  12.060  1.00  0.00     0.000 G0
BRANCH  50  52
ATOM     52  N   UNL     1      -3.951  -0.471  10.451  1.00  0.00    -0.339 N 
ATOM     53  C   UNL     1      -4.178  -1.132   9.268  1.00  0.00     0.243 C 
ATOM     54  O   UNL     1      -5.233  -1.035   8.648  1.00  0.00    -0.273 OA
ATOM     55  H   UNL     1      -3.103  -0.679  10.974  1.00  0.00     0.164 HD
BRANCH  53  56
ATOM     56  C   UNL     1      -3.061  -2.121   8.878  1.00  0.00     0.182 C 
BRANCH  56  57
ATOM     57  N   UNL     1      -2.315  -1.640   7.712  1.00  0.00    -0.344 N 
ATOM     58  C   UNL     1      -0.989  -1.289   7.780  1.00  0.00     0.220 C 
ATOM     59  O   UNL     1      -0.357  -1.283   8.831  1.00  0.00    -0.275 OA
ATOM     60  H   UNL     1      -2.770  -1.727   6.806  1.00  0.00     0.164 HD
BRANCH  58  61
ATOM     61  C   UNL     1      -0.406  -0.877   6.440  1.00  0.00     0.100 C 
BRANCH  61  62
ATOM     62  C   UNL     1      -0.012   0.599   6.368  1.00  0.00     0.010 C 
BRANCH  62  63
ATOM     63  C   UNL     1      -0.870   1.521   7.243  1.00  0.00     0.000 C 
BRANCH  63  64
ATOM     64  C   UNL     1      -0.379   2.967   7.300  1.00  0.00    -0.003 C 
ATOM     65  C   UNL     1      -1.425   3.885   7.914  1.00  0.00     0.004 C 
ENDBRANCH  63  64
ENDBRANCH  62  63
ENDBRANCH  61  62
ENDBRANCH  58  61
ENDBRANCH  56  57
BRANCH  56  66
ATOM     66  C   UNL     1      -3.610  -3.532   8.670  1.00  0.00     0.157 C 
BRANCH  66  67
ATOM     67  C   UNL     1      -2.520  -4.488   8.282  1.00  0.00     0.305 C 
ATOM     68  O   UNL     1      -1.934  -4.536   7.212  1.00  0.00    -0.252 OA
BRANCH  67  69
ATOM     69  O   UNL     1      -2.181  -5.313   9.291  1.00  0.00    -0.481 OA
ATOM     70  H   UNL     1      -2.759  -5.048  10.037  1.00  0.00     0.296 HD
ENDBRANCH  67  69
ENDBRANCH  66  67
ENDBRANCH  56  66
ENDBRANCH  53  56
ENDBRANCH  50  52
ENDBRANCH  47  50
ENDBRANCH  45  46
BRANCH  45  71
ATOM     71  C   UNL     1      -9.228  -1.766  11.012  1.00  0.00     0.037 C 
BRANCH  71  72
ATOM     72  C   UNL     1      -8.481  -2.312   9.793  1.00  0.00     0.026 C 
BRANCH  72  73
ATOM     73  C   UNL     1      -9.206  -1.972   8.493  1.00  0.00     0.146 C 
BRANCH  73  74
ATOM     74  N   UNL     1      -8.654  -0.718   7.988  1.00  0.00    -0.254 NA
ATOM     75  C   UNL     1      -7.811  -0.779   7.024  1.00  0.00     0.185 C 
ATOM     76  N   UNL     1      -7.287   0.357   6.538  1.00  0.00    -0.370 N 
ATOM     77  N   UNL     1      -7.339  -1.862   6.382  1.00  0.00    -0.370 N 
ATOM     78  H   UNL     1      -7.584   1.220   6.971  1.00  0.00     0.159 HD
ATOM     79  H   UNL     1      -6.520   0.380   5.889  1.00  0.00     0.159 HD
ATOM     80  H   UNL     1      -7.649  -2.787   6.639  1.00  0.00     0.159 HD
ATOM     81  H   UNL     1      -6.765  -1.780   5.560  1.00  0.00     0.159 HD
ENDBRANCH  73  74
ENDBRANCH  72  73
ENDBRANCH  71  72
ENDBRANCH  45  71
ENDBRANCH   3  45
TORSDOF 20
ENDMDL
MODEL 17
REMARK VINA RESULT:    -6.082      2.754      5.585
REMARK INTER + INTRA:         -25.103
REMARK INTER:                 -18.625
REMARK INTRA:                  -6.479
REMARK UNBOUND:                -7.644
REMARK SMILES CCCCCC(=O)N[C@H](CC(=O)O)C(=O)N[C@H]1C(=O)N[C@H](CCCN=C(N)N)C(=O)N[C@@H]2CC[C@H](O)N(C2=O)[C@@H](CC(C)C)C(=O)N(C)[C@@H](Cc2ccccc2)C(=O)N[C@H](C(C)C)C(=O)O[C@@H]1C
REMARK SMILES IDX 30 1 31 2 29 3 32 5 35 6 37 7 34 8 38 9 33 10 39 11 36 12
REMARK SMILES IDX 40 14 41 15 42 16 43 17 44 18 45 19 46 20 47 21 48 22 49 23
REMARK SMILES IDX 50 24 51 25 52 26 56 27 53 28 55 29 54 30 57 31 58 32 59 33
REMARK SMILES IDX 60 35 61 36 62 37 63 38 64 39 65 40 66 41 67 42 68 43 21 45
REMARK SMILES IDX 20 46 18 47 19 48 17 50 16 52 14 53 15 54 9 56 8 57 6 58
REMARK SMILES IDX 7 59 5 61 4 62 3 63 2 64 1 65 10 66 11 67 12 68 13 69 22 71
REMARK SMILES IDX 23 72 24 73 25 74 26 75 27 76 28 77
REMARK H PARENT 31 4 36 13 59 34 20 49 16 55 8 60 13 70 27 78 27 79 28 80
REMARK H PARENT 28 81
REMARK Flexibility Score:  259.900
ROOT
ATOM      1  O   UNL     1      -7.631  -0.947  10.343  1.00  0.00    -0.273 OA
ATOM      2  N   UNL     1      -8.996   0.564   9.302  1.00  0.00    -0.343 N 
ATOM      3  C   UNL     1      -8.509  -0.086  10.415  1.00  0.00     0.243 C 
ATOM      4  H   UNL     1      -9.708   1.277   9.401  1.00  0.00     0.164 HD
ENDROOT
BRANCH   2   5
ATOM      5  C   UNL     1      -8.568   0.169   7.965  1.00  0.00     0.171 C 
ATOM      6  C   UNL     1      -6.702  -1.834   7.011  1.00  0.00     0.214 C 
ATOM      7  N   UNL     1      -6.233  -0.493   7.271  1.00  0.00    -0.303 N 
ATOM      8  C   UNL     1      -8.159  -1.890   6.580  1.00  0.00     0.057 C 
ATOM      9  C   UNL     1      -7.060   0.498   7.775  1.00  0.00     0.247 C 
ATOM     10  C   UNL     1      -9.031  -1.250   7.638  1.00  0.00     0.040 C 
ATOM     11  O   UNL     1      -6.631   1.620   8.076  1.00  0.00    -0.272 OA
BRANCH   6  12
ATOM     12  O   UNL     1      -6.506  -2.592   8.183  1.00  0.00    -0.373 OA
ATOM     13  H   UNL     1      -6.629  -3.535   7.939  1.00  0.00     0.213 HD
ENDBRANCH   6  12
BRANCH   7  14
ATOM     14  C   UNL     1      -4.784  -0.248   7.115  1.00  0.00     0.177 C 
BRANCH  14  15
ATOM     15  C   UNL     1      -3.868  -1.363   7.655  1.00  0.00     0.038 C 
BRANCH  15  16
ATOM     16  C   UNL     1      -2.817  -2.003   6.722  1.00  0.00    -0.015 C 
ATOM     17  C   UNL     1      -2.743  -3.525   6.882  1.00  0.00     0.007 C 
ATOM     18  C   UNL     1      -1.430  -1.421   7.025  1.00  0.00     0.007 C 
ENDBRANCH  15  16
ENDBRANCH  14  15
BRANCH  14  19
ATOM     19  C   UNL     1      -4.512   0.605   5.828  1.00  0.00     0.245 C 
ATOM     20  O   UNL     1      -4.678   0.037   4.735  1.00  0.00    -0.272 OA
BRANCH  19  21
ATOM     21  N   UNL     1      -4.000   1.890   5.848  1.00  0.00    -0.332 N 
ATOM     22  C   UNL     1      -4.311   2.936   4.890  1.00  0.00     0.147 C 
BRANCH  21  23
ATOM     23  C   UNL     1      -3.041   2.241   6.932  1.00  0.00     0.178 C 
BRANCH  23  24
ATOM     24  C   UNL     1      -1.616   2.577   6.448  1.00  0.00     0.070 C 
BRANCH  24  25
ATOM     25  C   UNL     1      -1.154   4.007   6.611  1.00  0.00    -0.045 A 
ATOM     26  C   UNL     1      -1.704   5.032   5.831  1.00  0.00     0.004 A 
ATOM     27  C   UNL     1      -0.159   4.327   7.546  1.00  0.00     0.004 A 
ATOM     28  C   UNL     1      -1.260   6.348   5.975  1.00  0.00     0.000 A 
ATOM     29  C   UNL     1       0.284   5.643   7.690  1.00  0.00     0.000 A 
ATOM     30  C   UNL     1      -0.265   6.652   6.902  1.00  0.00     0.000 A 
ENDBRANCH  24  25
ENDBRANCH  23  24
BRANCH  23  31
ATOM     31  C   UNL     1      -3.631   3.232   7.963  1.00  0.00     0.243 C 
ATOM     32  O   UNL     1      -4.280   4.231   7.662  1.00  0.00    -0.273 OA
ATOM     33  N   UNL     1      -3.205   2.999   9.260  1.00  0.00    -0.341 N 
ATOM     34  H   UNL     1      -2.662   2.153   9.448  1.00  0.00     0.164 HD
BRANCH  33  35
ATOM     35  C   UNL     1      -3.541   3.882  10.381  1.00  0.00     0.194 C 
BRANCH  35  36
ATOM     36  C   UNL     1      -2.306   4.509  11.087  1.00  0.00     0.017 C 
ATOM     37  C   UNL     1      -1.944   5.873  10.475  1.00  0.00     0.010 C 
ATOM     38  C   UNL     1      -1.054   3.626  11.012  1.00  0.00     0.010 C 
ENDBRANCH  35  36
BRANCH  35  39
ATOM     39  C   UNL     1      -4.513   3.217  11.395  1.00  0.00     0.329 C 
ATOM     40  O   UNL     1      -4.398   2.067  11.803  1.00  0.00    -0.250 OA
BRANCH  39  41
ATOM     41  O   UNL     1      -5.465   4.087  11.850  1.00  0.00    -0.458 OA
BRANCH  41  42
ATOM     42  C   UNL     1      -6.764   4.005  11.216  1.00  0.00     0.205 CG0
ATOM     43  C   UNL     1      -6.907   5.230  10.315  1.00  0.00     0.056 C 
ATOM     44  G   UNL     1      -7.844   3.952  12.315  1.00  0.00     0.000 G0
ENDBRANCH  41  42
ENDBRANCH  39  41
ENDBRANCH  35  39
ENDBRANCH  33  35
ENDBRANCH  23  31
ENDBRANCH  21  23
ENDBRANCH  19  21
ENDBRANCH  14  19
ENDBRANCH   7  14
ENDBRANCH   2   5
BRANCH   3  45
ATOM     45  C   UNL     1      -9.122   0.351  11.753  1.00  0.00     0.171 C 
BRANCH  45  46
ATOM     46  N   UNL     1      -8.379   1.538  12.157  1.00  0.00    -0.342 N 
ATOM     47  C   UNL     1      -8.846   2.809  11.938  1.00  0.00     0.247 C 
ATOM     48  O   UNL     1      -9.955   3.039  11.453  1.00  0.00    -0.273 OA
ATOM     49  H   UNL     1      -7.480   1.391  12.613  1.00  0.00     0.164 HD
BRANCH  47  50
ATOM     50  C   UNL     1      -7.873   3.934  12.317  1.00  0.00     0.212 CG0
ATOM     51  G   UNL     1      -6.783   3.995  11.229  1.00  0.00     0.000 G0
BRANCH  50  52
ATOM     52  N   UNL     1      -8.686   5.145  12.389  1.00  0.00    -0.339 N 
ATOM     53  C   UNL     1      -9.164   5.666  13.567  1.00  0.00     0.243 C 
ATOM     54  O   UNL     1      -8.987   5.119  14.652  1.00  0.00    -0.273 OA
ATOM     55  H   UNL     1      -8.960   5.583  11.512  1.00  0.00     0.164 HD
BRANCH  53  56
ATOM     56  C   UNL     1     -10.070   6.900  13.385  1.00  0.00     0.182 C 
BRANCH  56  57
ATOM     57  N   UNL     1      -9.809   7.561  12.102  1.00  0.00    -0.344 N 
ATOM     58  C   UNL     1     -10.803   7.814  11.189  1.00  0.00     0.220 C 
ATOM     59  O   UNL     1     -11.961   7.442  11.349  1.00  0.00    -0.275 OA
ATOM     60  H   UNL     1      -8.889   7.974  11.976  1.00  0.00     0.164 HD
BRANCH  58  61
ATOM     61  C   UNL     1     -10.316   8.558   9.960  1.00  0.00     0.100 C 
BRANCH  61  62
ATOM     62  C   UNL     1      -9.191   7.841   9.211  1.00  0.00     0.010 C 
BRANCH  62  63
ATOM     63  C   UNL     1      -7.895   8.654   9.099  1.00  0.00     0.000 C 
BRANCH  63  64
ATOM     64  C   UNL     1      -7.063   8.338   7.857  1.00  0.00    -0.003 C 
ATOM     65  C   UNL     1      -5.935   9.343   7.674  1.00  0.00     0.004 C 
ENDBRANCH  63  64
ENDBRANCH  62  63
ENDBRANCH  61  62
ENDBRANCH  58  61
ENDBRANCH  56  57
BRANCH  56  66
ATOM     66  C   UNL     1      -9.948   7.863  14.565  1.00  0.00     0.157 C 
BRANCH  66  67
ATOM     67  C   UNL     1      -8.571   8.458  14.641  1.00  0.00     0.305 C 
ATOM     68  O   UNL     1      -8.104   9.321  13.914  1.00  0.00    -0.252 OA
BRANCH  67  69
ATOM     69  O   UNL     1      -7.859   7.969  15.674  1.00  0.00    -0.481 OA
ATOM     70  H   UNL     1      -7.229   8.684  15.905  1.00  0.00     0.296 HD
ENDBRANCH  67  69
ENDBRANCH  66  67
ENDBRANCH  56  66
ENDBRANCH  53  56
ENDBRANCH  50  52
ENDBRANCH  47  50
ENDBRANCH  45  46
BRANCH  45  71
ATOM     71  C   UNL     1      -9.000  -0.772  12.788  1.00  0.00     0.037 C 
BRANCH  71  72
ATOM     72  C   UNL     1     -10.361  -1.177  13.361  1.00  0.00     0.026 C 
BRANCH  72  73
ATOM     73  C   UNL     1     -11.116   0.029  13.917  1.00  0.00     0.146 C 
BRANCH  73  74
ATOM     74  N   UNL     1     -10.264   0.669  14.914  1.00  0.00    -0.254 NA
ATOM     75  C   UNL     1     -10.384   1.934  15.081  1.00  0.00     0.185 C 
ATOM     76  N   UNL     1      -9.614   2.551  15.993  1.00  0.00    -0.370 N 
ATOM     77  N   UNL     1     -11.205   2.795  14.455  1.00  0.00    -0.370 N 
ATOM     78  H   UNL     1      -8.961   1.976  16.505  1.00  0.00     0.159 HD
ATOM     79  H   UNL     1      -9.549   3.550  16.077  1.00  0.00     0.159 HD
ATOM     80  H   UNL     1     -11.845   2.471  13.746  1.00  0.00     0.159 HD
ATOM     81  H   UNL     1     -11.292   3.753  14.753  1.00  0.00     0.159 HD
ENDBRANCH  73  74
ENDBRANCH  72  73
ENDBRANCH  71  72
ENDBRANCH  45  71
ENDBRANCH   3  45
TORSDOF 20
ENDMDL
MODEL 18
REMARK VINA RESULT:    -6.057      2.265      6.514
REMARK INTER + INTRA:         -25.032
REMARK INTER:                 -19.958
REMARK INTRA:                  -5.074
REMARK UNBOUND:                -7.644
REMARK SMILES CCCCCC(=O)N[C@H](CC(=O)O)C(=O)N[C@H]1C(=O)N[C@H](CCCN=C(N)N)C(=O)N[C@@H]2CC[C@H](O)N(C2=O)[C@@H](CC(C)C)C(=O)N(C)[C@@H](Cc2ccccc2)C(=O)N[C@H](C(C)C)C(=O)O[C@@H]1C
REMARK SMILES IDX 30 1 31 2 29 3 32 5 35 6 37 7 34 8 38 9 33 10 39 11 36 12
REMARK SMILES IDX 40 14 41 15 42 16 43 17 44 18 45 19 46 20 47 21 48 22 49 23
REMARK SMILES IDX 50 24 51 25 52 26 56 27 53 28 55 29 54 30 57 31 58 32 59 33
REMARK SMILES IDX 60 35 61 36 62 37 63 38 64 39 65 40 66 41 67 42 68 43 21 45
REMARK SMILES IDX 20 46 18 47 19 48 17 50 16 52 14 53 15 54 9 56 8 57 6 58
REMARK SMILES IDX 7 59 5 61 4 62 3 63 2 64 1 65 10 66 11 67 12 68 13 69 22 71
REMARK SMILES IDX 23 72 24 73 25 74 26 75 27 76 28 77
REMARK H PARENT 31 4 36 13 59 34 20 49 16 55 8 60 13 70 27 78 27 79 28 80
REMARK H PARENT 28 81
REMARK Flexibility Score:  259.900
ROOT
ATOM      1  O   UNL     1      -3.196   4.505   7.472  1.00  0.00    -0.273 OA
ATOM      2  N   UNL     1      -3.201   2.345   8.225  1.00  0.00    -0.343 N 
ATOM      3  C   UNL     1      -3.126   3.709   8.409  1.00  0.00     0.243 C 
ATOM      4  H   UNL     1      -3.154   1.721   9.021  1.00  0.00     0.164 HD
ENDROOT
BRANCH   2   5
ATOM      5  C   UNL     1      -3.248   1.779   6.881  1.00  0.00     0.171 C 
ATOM      6  C   UNL     1      -5.435   0.878   5.205  1.00  0.00     0.214 C 
ATOM      7  N   UNL     1      -4.777  -0.063   6.081  1.00  0.00    -0.303 N 
ATOM      8  C   UNL     1      -4.519   1.992   4.722  1.00  0.00     0.057 C 
ATOM      9  C   UNL     1      -3.760   0.312   6.944  1.00  0.00     0.247 C 
ATOM     10  C   UNL     1      -3.942   2.732   5.909  1.00  0.00     0.040 C 
ATOM     11  O   UNL     1      -3.261  -0.481   7.754  1.00  0.00    -0.272 OA
BRANCH   6  12
ATOM     12  O   UNL     1      -6.538   1.414   5.898  1.00  0.00    -0.373 OA
ATOM     13  H   UNL     1      -6.474   1.100   6.826  1.00  0.00     0.213 HD
ENDBRANCH   6  12
BRANCH   7  14
ATOM     14  C   UNL     1      -5.332  -1.432   6.133  1.00  0.00     0.177 C 
BRANCH  14  15
ATOM     15  C   UNL     1      -4.305  -2.564   5.941  1.00  0.00     0.038 C 
BRANCH  15  16
ATOM     16  C   UNL     1      -4.769  -3.927   5.380  1.00  0.00    -0.015 C 
ATOM     17  C   UNL     1      -3.606  -4.763   4.839  1.00  0.00     0.007 C 
ATOM     18  C   UNL     1      -5.771  -3.703   4.240  1.00  0.00     0.007 C 
ENDBRANCH  15  16
ENDBRANCH  14  15
BRANCH  14  19
ATOM     19  C   UNL     1      -6.567  -1.482   7.097  1.00  0.00     0.245 C 
ATOM     20  O   UNL     1      -7.674  -1.209   6.603  1.00  0.00    -0.272 OA
BRANCH  19  21
ATOM     21  N   UNL     1      -6.473  -1.698   8.460  1.00  0.00    -0.332 N 
ATOM     22  C   UNL     1      -5.778  -2.805   9.092  1.00  0.00     0.147 C 
BRANCH  21  23
ATOM     23  C   UNL     1      -7.146  -0.727   9.367  1.00  0.00     0.178 C 
BRANCH  23  24
ATOM     24  C   UNL     1      -8.208  -1.345  10.300  1.00  0.00     0.070 C 
BRANCH  24  25
ATOM     25  C   UNL     1      -9.566  -0.683  10.329  1.00  0.00    -0.045 A 
ATOM     26  C   UNL     1     -10.714  -1.383   9.938  1.00  0.00     0.004 A 
ATOM     27  C   UNL     1      -9.695   0.651  10.747  1.00  0.00     0.004 A 
ATOM     28  C   UNL     1     -11.964  -0.759   9.952  1.00  0.00     0.000 A 
ATOM     29  C   UNL     1     -10.944   1.273  10.761  1.00  0.00     0.000 A 
ATOM     30  C   UNL     1     -12.077   0.568  10.361  1.00  0.00     0.000 A 
ENDBRANCH  24  25
ENDBRANCH  23  24
BRANCH  23  31
ATOM     31  C   UNL     1      -6.156   0.240  10.058  1.00  0.00     0.243 C 
ATOM     32  O   UNL     1      -5.614   1.188   9.494  1.00  0.00    -0.273 OA
ATOM     33  N   UNL     1      -5.784  -0.164  11.329  1.00  0.00    -0.341 N 
ATOM     34  H   UNL     1      -6.266  -0.964  11.744  1.00  0.00     0.164 HD
BRANCH  33  35
ATOM     35  C   UNL     1      -4.768   0.533  12.123  1.00  0.00     0.194 C 
BRANCH  35  36
ATOM     36  C   UNL     1      -3.380  -0.168  12.135  1.00  0.00     0.017 C 
ATOM     37  C   UNL     1      -2.340   0.637  11.336  1.00  0.00     0.010 C 
ATOM     38  C   UNL     1      -3.413  -1.584  11.548  1.00  0.00     0.010 C 
ENDBRANCH  35  36
BRANCH  35  39
ATOM     39  C   UNL     1      -5.259   0.871  13.559  1.00  0.00     0.329 C 
ATOM     40  O   UNL     1      -4.764   0.410  14.580  1.00  0.00    -0.250 OA
BRANCH  39  41
ATOM     41  O   UNL     1      -6.254   1.810  13.560  1.00  0.00    -0.458 OA
BRANCH  41  42
ATOM     42  C   UNL     1      -5.831   3.190  13.665  1.00  0.00     0.205 CG0
ATOM     43  C   UNL     1      -6.727   3.862  14.704  1.00  0.00     0.056 C 
ATOM     44  G   UNL     1      -5.947   3.847  12.275  1.00  0.00     0.000 G0
ENDBRANCH  41  42
ENDBRANCH  39  41
ENDBRANCH  35  39
ENDBRANCH  33  35
ENDBRANCH  23  31
ENDBRANCH  21  23
ENDBRANCH  19  21
ENDBRANCH  14  19
ENDBRANCH   7  14
ENDBRANCH   2   5
BRANCH   3  45
ATOM     45  C   UNL     1      -2.970   4.168   9.865  1.00  0.00     0.171 C 
BRANCH  45  46
ATOM     46  N   UNL     1      -4.291   4.031  10.464  1.00  0.00    -0.342 N 
ATOM     47  C   UNL     1      -4.505   4.162  11.813  1.00  0.00     0.247 C 
ATOM     48  O   UNL     1      -3.614   4.474  12.604  1.00  0.00    -0.273 OA
ATOM     49  H   UNL     1      -5.068   3.828   9.837  1.00  0.00     0.164 HD
BRANCH  47  50
ATOM     50  C   UNL     1      -5.938   3.862  12.276  1.00  0.00     0.212 CG0
ATOM     51  G   UNL     1      -5.851   3.203  13.667  1.00  0.00     0.000 G0
BRANCH  50  52
ATOM     52  N   UNL     1      -6.621   5.153  12.291  1.00  0.00    -0.339 N 
ATOM     53  C   UNL     1      -7.843   5.368  11.701  1.00  0.00     0.243 C 
ATOM     54  O   UNL     1      -8.434   4.498  11.067  1.00  0.00    -0.273 OA
ATOM     55  H   UNL     1      -6.130   5.943  12.705  1.00  0.00     0.164 HD
BRANCH  53  56
ATOM     56  C   UNL     1      -8.325   6.831  11.771  1.00  0.00     0.182 C 
BRANCH  56  57
ATOM     57  N   UNL     1      -8.134   7.510  10.485  1.00  0.00    -0.344 N 
ATOM     58  C   UNL     1      -9.149   8.182   9.850  1.00  0.00     0.220 C 
ATOM     59  O   UNL     1     -10.300   8.201  10.275  1.00  0.00    -0.275 OA
ATOM     60  H   UNL     1      -7.178   7.604  10.151  1.00  0.00     0.164 HD
BRANCH  58  61
ATOM     61  C   UNL     1      -8.711   8.858   8.564  1.00  0.00     0.100 C 
BRANCH  61  62
ATOM     62  C   UNL     1      -7.553   8.150   7.860  1.00  0.00     0.010 C 
BRANCH  62  63
ATOM     63  C   UNL     1      -6.360   9.062   7.544  1.00  0.00     0.000 C 
BRANCH  63  64
ATOM     64  C   UNL     1      -6.463   9.786   6.203  1.00  0.00    -0.003 C 
ATOM     65  C   UNL     1      -5.135  10.416   5.808  1.00  0.00     0.004 C 
ENDBRANCH  63  64
ENDBRANCH  62  63
ENDBRANCH  61  62
ENDBRANCH  58  61
ENDBRANCH  56  57
BRANCH  56  66
ATOM     66  C   UNL     1      -7.663   7.584  12.924  1.00  0.00     0.157 C 
BRANCH  66  67
ATOM     67  C   UNL     1      -8.678   8.339  13.733  1.00  0.00     0.305 C 
ATOM     68  O   UNL     1      -8.462   9.039  14.711  1.00  0.00    -0.252 OA
BRANCH  67  69
ATOM     69  O   UNL     1      -9.923   8.216  13.236  1.00  0.00    -0.481 OA
ATOM     70  H   UNL     1     -10.453   7.851  13.976  1.00  0.00     0.296 HD
ENDBRANCH  67  69
ENDBRANCH  66  67
ENDBRANCH  56  66
ENDBRANCH  53  56
ENDBRANCH  50  52
ENDBRANCH  47  50
ENDBRANCH  45  46
BRANCH  45  71
ATOM     71  C   UNL     1      -2.472   5.616   9.919  1.00  0.00     0.037 C 
BRANCH  71  72
ATOM     72  C   UNL     1      -1.026   5.710  10.411  1.00  0.00     0.026 C 
BRANCH  72  73
ATOM     73  C   UNL     1      -0.083   6.162   9.298  1.00  0.00     0.146 C 
BRANCH  73  74
ATOM     74  N   UNL     1       0.354   4.973   8.572  1.00  0.00    -0.254 NA
ATOM     75  C   UNL     1       0.112   4.917   7.314  1.00  0.00     0.185 C 
ATOM     76  N   UNL     1       0.502   3.836   6.619  1.00  0.00    -0.370 N 
ATOM     77  N   UNL     1      -0.506   5.819   6.531  1.00  0.00    -0.370 N 
ATOM     78  H   UNL     1       0.969   3.104   7.134  1.00  0.00     0.159 HD
ATOM     79  H   UNL     1       0.223   3.658   5.670  1.00  0.00     0.159 HD
ATOM     80  H   UNL     1      -0.850   6.684   6.918  1.00  0.00     0.159 HD
ATOM     81  H   UNL     1      -0.536   5.717   5.530  1.00  0.00     0.159 HD
ENDBRANCH  73  74
ENDBRANCH  72  73
ENDBRANCH  71  72
ENDBRANCH  45  71
ENDBRANCH   3  45
TORSDOF 20
ENDMDL
MODEL 19
REMARK VINA RESULT:    -6.021      3.237      9.361
REMARK INTER + INTRA:         -24.929
REMARK INTER:                 -19.802
REMARK INTRA:                  -5.127
REMARK UNBOUND:                -7.644
REMARK SMILES CCCCCC(=O)N[C@H](CC(=O)O)C(=O)N[C@H]1C(=O)N[C@H](CCCN=C(N)N)C(=O)N[C@@H]2CC[C@H](O)N(C2=O)[C@@H](CC(C)C)C(=O)N(C)[C@@H](Cc2ccccc2)C(=O)N[C@H](C(C)C)C(=O)O[C@@H]1C
REMARK SMILES IDX 30 1 31 2 29 3 32 5 35 6 37 7 34 8 38 9 33 10 39 11 36 12
REMARK SMILES IDX 40 14 41 15 42 16 43 17 44 18 45 19 46 20 47 21 48 22 49 23
REMARK SMILES IDX 50 24 51 25 52 26 56 27 53 28 55 29 54 30 57 31 58 32 59 33
REMARK SMILES IDX 60 35 61 36 62 37 63 38 64 39 65 40 66 41 67 42 68 43 21 45
REMARK SMILES IDX 20 46 18 47 19 48 17 50 16 52 14 53 15 54 9 56 8 57 6 58
REMARK SMILES IDX 7 59 5 61 4 62 3 63 2 64 1 65 10 66 11 67 12 68 13 69 22 71
REMARK SMILES IDX 23 72 24 73 25 74 26 75 27 76 28 77
REMARK H PARENT 31 4 36 13 59 34 20 49 16 55 8 60 13 70 27 78 27 79 28 80
REMARK H PARENT 28 81
REMARK Flexibility Score:  259.900
ROOT
ATOM      1  O   UNL     1      -5.024   3.225  12.498  1.00  0.00    -0.273 OA
ATOM      2  N   UNL     1      -5.228   5.072  11.165  1.00  0.00    -0.343 N 
ATOM      3  C   UNL     1      -4.914   3.749  11.389  1.00  0.00     0.243 C 
ATOM      4  H   UNL     1      -5.139   5.466  10.237  1.00  0.00     0.164 HD
ENDROOT
BRANCH   2   5
ATOM      5  C   UNL     1      -5.597   5.946  12.274  1.00  0.00     0.171 C 
ATOM      6  C   UNL     1      -6.374   5.418  15.016  1.00  0.00     0.214 C 
ATOM      7  N   UNL     1      -7.391   5.510  13.995  1.00  0.00    -0.303 N 
ATOM      8  C   UNL     1      -5.150   6.273  14.727  1.00  0.00     0.057 C 
ATOM      9  C   UNL     1      -7.085   5.710  12.659  1.00  0.00     0.247 C 
ATOM     10  C   UNL     1      -4.556   5.883  13.391  1.00  0.00     0.040 C 
ATOM     11  O   UNL     1      -7.956   5.702  11.778  1.00  0.00    -0.272 OA
BRANCH   6  12
ATOM     12  O   UNL     1      -6.009   4.062  15.139  1.00  0.00    -0.373 OA
ATOM     13  H   UNL     1      -5.313   3.891  14.469  1.00  0.00     0.213 HD
ENDBRANCH   6  12
BRANCH   7  14
ATOM     14  C   UNL     1      -8.783   5.235  14.409  1.00  0.00     0.177 C 
BRANCH  14  15
ATOM     15  C   UNL     1      -9.497   6.399  15.123  1.00  0.00     0.038 C 
BRANCH  15  16
ATOM     16  C   UNL     1      -9.574   6.413  16.666  1.00  0.00    -0.015 C 
ATOM     17  C   UNL     1      -8.495   7.298  17.297  1.00  0.00     0.007 C 
ATOM     18  C   UNL     1      -9.402   4.988  17.207  1.00  0.00     0.007 C 
ENDBRANCH  15  16
ENDBRANCH  14  15
BRANCH  14  19
ATOM     19  C   UNL     1      -9.458   4.232  13.412  1.00  0.00     0.245 C 
ATOM     20  O   UNL     1     -10.248   4.714  12.582  1.00  0.00    -0.272 OA
BRANCH  19  21
ATOM     21  N   UNL     1      -9.310   2.858  13.481  1.00  0.00    -0.332 N 
ATOM     22  C   UNL     1      -8.112   2.161  13.913  1.00  0.00     0.147 C 
BRANCH  21  23
ATOM     23  C   UNL     1     -10.465   2.012  13.071  1.00  0.00     0.178 C 
BRANCH  23  24
ATOM     24  C   UNL     1     -11.808   2.391  13.728  1.00  0.00     0.070 C 
BRANCH  24  25
ATOM     25  C   UNL     1     -12.148   1.719  15.037  1.00  0.00    -0.045 A 
ATOM     26  C   UNL     1     -11.289   1.819  16.139  1.00  0.00     0.004 A 
ATOM     27  C   UNL     1     -13.332   0.978  15.166  1.00  0.00     0.004 A 
ATOM     28  C   UNL     1     -11.602   1.180  17.341  1.00  0.00     0.000 A 
ATOM     29  C   UNL     1     -13.645   0.342  16.369  1.00  0.00     0.000 A 
ATOM     30  C   UNL     1     -12.777   0.441  17.454  1.00  0.00     0.000 A 
ENDBRANCH  24  25
ENDBRANCH  23  24
BRANCH  23  31
ATOM     31  C   UNL     1     -10.529   1.778  11.543  1.00  0.00     0.243 C 
ATOM     32  O   UNL     1     -11.437   2.185  10.824  1.00  0.00    -0.273 OA
ATOM     33  N   UNL     1      -9.562   0.903  11.076  1.00  0.00    -0.341 N 
ATOM     34  H   UNL     1      -8.835   0.593  11.725  1.00  0.00     0.164 HD
BRANCH  33  35
ATOM     35  C   UNL     1      -9.506   0.443   9.686  1.00  0.00     0.194 C 
BRANCH  35  36
ATOM     36  C   UNL     1     -10.299  -0.867   9.418  1.00  0.00     0.017 C 
ATOM     37  C   UNL     1     -10.321  -1.772  10.662  1.00  0.00     0.010 C 
ATOM     38  C   UNL     1      -9.727  -1.693   8.259  1.00  0.00     0.010 C 
ENDBRANCH  35  36
BRANCH  35  39
ATOM     39  C   UNL     1      -8.052   0.363   9.141  1.00  0.00     0.329 C 
ATOM     40  O   UNL     1      -7.737   0.624   7.986  1.00  0.00    -0.250 OA
BRANCH  39  41
ATOM     41  O   UNL     1      -7.147   0.053  10.119  1.00  0.00    -0.458 OA
BRANCH  41  42
ATOM     42  C   UNL     1      -6.370  -1.151   9.913  1.00  0.00     0.205 CG0
ATOM     43  C   UNL     1      -6.866  -2.189  10.918  1.00  0.00     0.056 C 
ATOM     44  G   UNL     1      -4.878  -0.812  10.105  1.00  0.00     0.000 G0
ENDBRANCH  41  42
ENDBRANCH  39  41
ENDBRANCH  35  39
ENDBRANCH  33  35
ENDBRANCH  23  31
ENDBRANCH  21  23
ENDBRANCH  19  21
ENDBRANCH  14  19
ENDBRANCH   7  14
ENDBRANCH   2   5
BRANCH   3  45
ATOM     45  C   UNL     1      -4.437   2.969  10.157  1.00  0.00     0.171 C 
BRANCH  45  46
ATOM     46  N   UNL     1      -4.578   1.561  10.503  1.00  0.00    -0.342 N 
ATOM     47  C   UNL     1      -4.561   0.566   9.558  1.00  0.00     0.247 C 
ATOM     48  O   UNL     1      -4.352   0.781   8.364  1.00  0.00    -0.273 OA
ATOM     49  H   UNL     1      -4.696   1.333  11.488  1.00  0.00     0.164 HD
BRANCH  47  50
ATOM     50  C   UNL     1      -4.849  -0.844  10.094  1.00  0.00     0.212 CG0
ATOM     51  G   UNL     1      -6.351  -1.124   9.889  1.00  0.00     0.000 G0
BRANCH  50  52
ATOM     52  N   UNL     1      -3.985  -1.737   9.326  1.00  0.00    -0.339 N 
ATOM     53  C   UNL     1      -2.803  -2.244   9.808  1.00  0.00     0.243 C 
ATOM     54  O   UNL     1      -2.353  -1.941  10.910  1.00  0.00    -0.273 OA
ATOM     55  H   UNL     1      -4.249  -1.937   8.363  1.00  0.00     0.164 HD
BRANCH  53  56
ATOM     56  C   UNL     1      -2.021  -3.093   8.786  1.00  0.00     0.182 C 
BRANCH  56  57
ATOM     57  N   UNL     1      -1.672  -2.302   7.602  1.00  0.00    -0.344 N 
ATOM     58  C   UNL     1      -0.636  -1.399   7.599  1.00  0.00     0.220 C 
ATOM     59  O   UNL     1       0.020  -1.139   8.601  1.00  0.00    -0.275 OA
ATOM     60  H   UNL     1      -2.121  -2.559   6.727  1.00  0.00     0.164 HD
BRANCH  58  61
ATOM     61  C   UNL     1      -0.419  -0.738   6.250  1.00  0.00     0.100 C 
BRANCH  61  62
ATOM     62  C   UNL     1      -1.152   0.594   6.091  1.00  0.00     0.010 C 
BRANCH  62  63
ATOM     63  C   UNL     1      -0.533   1.750   6.887  1.00  0.00     0.000 C 
BRANCH  63  64
ATOM     64  C   UNL     1      -0.513   3.083   6.141  1.00  0.00    -0.003 C 
ATOM     65  C   UNL     1       0.900   3.639   6.035  1.00  0.00     0.004 C 
ENDBRANCH  63  64
ENDBRANCH  62  63
ENDBRANCH  61  62
ENDBRANCH  58  61
ENDBRANCH  56  57
BRANCH  56  66
ATOM     66  C   UNL     1      -2.778  -4.370   8.423  1.00  0.00     0.157 C 
BRANCH  66  67
ATOM     67  C   UNL     1      -3.253  -4.335   7.000  1.00  0.00     0.305 C 
ATOM     68  O   UNL     1      -2.776  -4.941   6.052  1.00  0.00    -0.252 OA
BRANCH  67  69
ATOM     69  O   UNL     1      -4.351  -3.570   6.846  1.00  0.00    -0.481 OA
ATOM     70  H   UNL     1      -5.094  -4.207   6.792  1.00  0.00     0.296 HD
ENDBRANCH  67  69
ENDBRANCH  66  67
ENDBRANCH  56  66
ENDBRANCH  53  56
ENDBRANCH  50  52
ENDBRANCH  47  50
ENDBRANCH  45  46
BRANCH  45  71
ATOM     71  C   UNL     1      -2.983   3.328   9.828  1.00  0.00     0.037 C 
BRANCH  71  72
ATOM     72  C   UNL     1      -2.881   4.278   8.632  1.00  0.00     0.026 C 
BRANCH  72  73
ATOM     73  C   UNL     1      -4.149   4.247   7.782  1.00  0.00     0.146 C 
BRANCH  73  74
ATOM     74  N   UNL     1      -3.785   3.766   6.452  1.00  0.00    -0.254 NA
ATOM     75  C   UNL     1      -4.574   2.935   5.879  1.00  0.00     0.185 C 
ATOM     76  N   UNL     1      -4.267   2.476   4.655  1.00  0.00    -0.370 N 
ATOM     77  N   UNL     1      -5.730   2.418   6.331  1.00  0.00    -0.370 N 
ATOM     78  H   UNL     1      -3.407   2.810   4.244  1.00  0.00     0.159 HD
ATOM     79  H   UNL     1      -4.756   1.721   4.208  1.00  0.00     0.159 HD
ATOM     80  H   UNL     1      -6.089   2.677   7.237  1.00  0.00     0.159 HD
ATOM     81  H   UNL     1      -6.326   1.861   5.741  1.00  0.00     0.159 HD
ENDBRANCH  73  74
ENDBRANCH  72  73
ENDBRANCH  71  72
ENDBRANCH  45  71
ENDBRANCH   3  45
TORSDOF 20
ENDMDL
MODEL 20
REMARK VINA RESULT:    -6.011      2.978      8.305
REMARK INTER + INTRA:         -24.899
REMARK INTER:                 -19.764
REMARK INTRA:                  -5.135
REMARK UNBOUND:                -7.644
REMARK SMILES CCCCCC(=O)N[C@H](CC(=O)O)C(=O)N[C@H]1C(=O)N[C@H](CCCN=C(N)N)C(=O)N[C@@H]2CC[C@H](O)N(C2=O)[C@@H](CC(C)C)C(=O)N(C)[C@@H](Cc2ccccc2)C(=O)N[C@H](C(C)C)C(=O)O[C@@H]1C
REMARK SMILES IDX 30 1 31 2 29 3 32 5 35 6 37 7 34 8 38 9 33 10 39 11 36 12
REMARK SMILES IDX 40 14 41 15 42 16 43 17 44 18 45 19 46 20 47 21 48 22 49 23
REMARK SMILES IDX 50 24 51 25 52 26 56 27 53 28 55 29 54 30 57 31 58 32 59 33
REMARK SMILES IDX 60 35 61 36 62 37 63 38 64 39 65 40 66 41 67 42 68 43 21 45
REMARK SMILES IDX 20 46 18 47 19 48 17 50 16 52 14 53 15 54 9 56 8 57 6 58
REMARK SMILES IDX 7 59 5 61 4 62 3 63 2 64 1 65 10 66 11 67 12 68 13 69 22 71
REMARK SMILES IDX 23 72 24 73 25 74 26 75 27 76 28 77
REMARK H PARENT 31 4 36 13 59 34 20 49 16 55 8 60 13 70 27 78 27 79 28 80
REMARK H PARENT 28 81
REMARK Flexibility Score:  259.900
ROOT
ATOM      1  O   UNL     1      -2.000  -0.570   8.620  1.00  0.00    -0.273 OA
ATOM      2  N   UNL     1      -3.703  -1.204  10.009  1.00  0.00    -0.343 N 
ATOM      3  C   UNL     1      -3.114  -1.073   8.770  1.00  0.00     0.243 C 
ATOM      4  H   UNL     1      -4.615  -1.636  10.096  1.00  0.00     0.164 HD
ENDROOT
BRANCH   2   5
ATOM      5  C   UNL     1      -3.071  -0.637  11.195  1.00  0.00     0.171 C 
ATOM      6  C   UNL     1      -3.926  -0.402  13.955  1.00  0.00     0.214 C 
ATOM      7  N   UNL     1      -4.216   0.668  13.028  1.00  0.00    -0.303 N 
ATOM      8  C   UNL     1      -2.653  -1.161  13.619  1.00  0.00     0.057 C 
ATOM      9  C   UNL     1      -3.881   0.598  11.685  1.00  0.00     0.247 C 
ATOM     10  C   UNL     1      -2.747  -1.725  12.217  1.00  0.00     0.040 C 
ATOM     11  O   UNL     1      -4.209   1.479  10.881  1.00  0.00    -0.272 OA
BRANCH   6  12
ATOM     12  O   UNL     1      -5.032  -1.274  13.964  1.00  0.00    -0.373 OA
ATOM     13  H   UNL     1      -5.068  -1.703  13.083  1.00  0.00     0.213 HD
ENDBRANCH   6  12
BRANCH   7  14
ATOM     14  C   UNL     1      -5.025   1.795  13.537  1.00  0.00     0.177 C 
BRANCH  14  15
ATOM     15  C   UNL     1      -4.230   3.070  13.881  1.00  0.00     0.038 C 
BRANCH  15  16
ATOM     16  C   UNL     1      -4.962   4.429  13.948  1.00  0.00    -0.015 C 
ATOM     17  C   UNL     1      -4.475   5.409  12.877  1.00  0.00     0.007 C 
ATOM     18  C   UNL     1      -4.739   5.070  15.324  1.00  0.00     0.007 C 
ENDBRANCH  15  16
ENDBRANCH  14  15
BRANCH  14  19
ATOM     19  C   UNL     1      -6.459   1.764  12.906  1.00  0.00     0.245 C 
ATOM     20  O   UNL     1      -6.562   2.155  11.731  1.00  0.00    -0.272 OA
BRANCH  19  21
ATOM     21  N   UNL     1      -7.605   1.438  13.610  1.00  0.00    -0.332 N 
ATOM     22  C   UNL     1      -7.652   0.625  14.813  1.00  0.00     0.147 C 
BRANCH  21  23
ATOM     23  C   UNL     1      -8.906   1.947  13.096  1.00  0.00     0.178 C 
BRANCH  23  24
ATOM     24  C   UNL     1      -9.057   3.481  13.129  1.00  0.00     0.070 C 
BRANCH  24  25
ATOM     25  C   UNL     1      -9.180   4.132  14.487  1.00  0.00    -0.045 A 
ATOM     26  C   UNL     1      -9.509   3.374  15.619  1.00  0.00     0.004 A 
ATOM     27  C   UNL     1      -8.969   5.511  14.633  1.00  0.00     0.004 A 
ATOM     28  C   UNL     1      -9.637   3.986  16.868  1.00  0.00     0.000 A 
ATOM     29  C   UNL     1      -9.096   6.121  15.882  1.00  0.00     0.000 A 
ATOM     30  C   UNL     1      -9.433   5.358  16.998  1.00  0.00     0.000 A 
ENDBRANCH  24  25
ENDBRANCH  23  24
BRANCH  23  31
ATOM     31  C   UNL     1      -9.334   1.278  11.768  1.00  0.00     0.243 C 
ATOM     32  O   UNL     1     -10.322   1.611  11.119  1.00  0.00    -0.273 OA
ATOM     33  N   UNL     1      -8.608   0.139  11.463  1.00  0.00    -0.341 N 
ATOM     34  H   UNL     1      -7.799  -0.091  12.045  1.00  0.00     0.164 HD
BRANCH  33  35
ATOM     35  C   UNL     1      -8.916  -0.721  10.318  1.00  0.00     0.194 C 
BRANCH  35  36
ATOM     36  C   UNL     1      -9.901  -1.881  10.641  1.00  0.00     0.017 C 
ATOM     37  C   UNL     1     -11.328  -1.549  10.172  1.00  0.00     0.010 C 
ATOM     38  C   UNL     1      -9.974  -2.212  12.136  1.00  0.00     0.010 C 
ENDBRANCH  35  36
BRANCH  35  39
ATOM     39  C   UNL     1      -7.639  -1.230   9.591  1.00  0.00     0.329 C 
ATOM     40  O   UNL     1      -6.562  -1.413  10.146  1.00  0.00    -0.250 OA
BRANCH  39  41
ATOM     41  O   UNL     1      -7.874  -1.535   8.279  1.00  0.00    -0.458 OA
BRANCH  41  42
ATOM     42  C   UNL     1      -8.390  -0.463   7.454  1.00  0.00     0.205 CG0
ATOM     43  C   UNL     1      -9.523  -1.044   6.611  1.00  0.00     0.056 C 
ATOM     44  G   UNL     1      -7.239   0.093   6.593  1.00  0.00     0.000 G0
ENDBRANCH  41  42
ENDBRANCH  39  41
ENDBRANCH  35  39
ENDBRANCH  33  35
ENDBRANCH  23  31
ENDBRANCH  21  23
ENDBRANCH  19  21
ENDBRANCH  14  19
ENDBRANCH   7  14
ENDBRANCH   2   5
BRANCH   3  45
ATOM     45  C   UNL     1      -3.934  -1.616   7.592  1.00  0.00     0.171 C 
BRANCH  45  46
ATOM     46  N   UNL     1      -5.135  -0.793   7.535  1.00  0.00    -0.342 N 
ATOM     47  C   UNL     1      -6.080  -0.936   6.550  1.00  0.00     0.247 C 
ATOM     48  O   UNL     1      -6.020  -1.815   5.690  1.00  0.00    -0.273 OA
ATOM     49  H   UNL     1      -5.252  -0.089   8.262  1.00  0.00     0.164 HD
BRANCH  47  50
ATOM     50  C   UNL     1      -7.212   0.100   6.580  1.00  0.00     0.212 CG0
ATOM     51  G   UNL     1      -8.354  -0.479   7.438  1.00  0.00     0.000 G0
BRANCH  50  52
ATOM     52  N   UNL     1      -6.619   1.308   7.148  1.00  0.00    -0.339 N 
ATOM     53  C   UNL     1      -5.767   2.131   6.452  1.00  0.00     0.243 C 
ATOM     54  O   UNL     1      -5.394   1.882   5.309  1.00  0.00    -0.273 OA
ATOM     55  H   UNL     1      -6.803   1.509   8.129  1.00  0.00     0.164 HD
BRANCH  53  56
ATOM     56  C   UNL     1      -5.200   3.297   7.286  1.00  0.00     0.182 C 
BRANCH  56  57
ATOM     57  N   UNL     1      -3.797   3.059   7.640  1.00  0.00    -0.344 N 
ATOM     58  C   UNL     1      -2.760   3.705   7.013  1.00  0.00     0.220 C 
ATOM     59  O   UNL     1      -2.928   4.468   6.068  1.00  0.00    -0.275 OA
ATOM     60  H   UNL     1      -3.621   2.515   8.481  1.00  0.00     0.164 HD
BRANCH  58  61
ATOM     61  C   UNL     1      -1.399   3.348   7.581  1.00  0.00     0.100 C 
BRANCH  61  62
ATOM     62  C   UNL     1      -0.424   2.792   6.542  1.00  0.00     0.010 C 
BRANCH  62  63
ATOM     63  C   UNL     1       0.779   3.701   6.261  1.00  0.00     0.000 C 
BRANCH  63  64
ATOM     64  C   UNL     1       0.556   4.705   5.131  1.00  0.00    -0.003 C 
ATOM     65  C   UNL     1       0.133   6.063   5.672  1.00  0.00     0.004 C 
ENDBRANCH  63  64
ENDBRANCH  62  63
ENDBRANCH  61  62
ENDBRANCH  58  61
ENDBRANCH  56  57
BRANCH  56  66
ATOM     66  C   UNL     1      -6.065   3.580   8.514  1.00  0.00     0.157 C 
BRANCH  66  67
ATOM     67  C   UNL     1      -5.573   4.787   9.260  1.00  0.00     0.305 C 
ATOM     68  O   UNL     1      -6.067   5.904   9.253  1.00  0.00    -0.252 OA
BRANCH  67  69
ATOM     69  O   UNL     1      -4.501   4.512  10.027  1.00  0.00    -0.481 OA
ATOM     70  H   UNL     1      -4.845   4.508  10.945  1.00  0.00     0.296 HD
ENDBRANCH  67  69
ENDBRANCH  66  67
ENDBRANCH  56  66
ENDBRANCH  53  56
ENDBRANCH  50  52
ENDBRANCH  47  50
ENDBRANCH  45  46
BRANCH  45  71
ATOM     71  C   UNL     1      -4.273  -3.094   7.814  1.00  0.00     0.037 C 
BRANCH  71  72
ATOM     72  C   UNL     1      -3.070  -4.005   7.556  1.00  0.00     0.026 C 
BRANCH  72  73
ATOM     73  C   UNL     1      -2.425  -3.713   6.203  1.00  0.00     0.146 C 
BRANCH  73  74
ATOM     74  N   UNL     1      -2.227  -4.986   5.517  1.00  0.00    -0.254 NA
ATOM     75  C   UNL     1      -3.024  -5.280   4.557  1.00  0.00     0.185 C 
ATOM     76  N   UNL     1      -2.866  -6.444   3.906  1.00  0.00    -0.370 N 
ATOM     77  N   UNL     1      -4.054  -4.568   4.066  1.00  0.00    -0.370 N 
ATOM     78  H   UNL     1      -2.117  -7.045   4.219  1.00  0.00     0.159 HD
ATOM     79  H   UNL     1      -3.534  -6.805   3.247  1.00  0.00     0.159 HD
ATOM     80  H   UNL     1      -4.288  -3.668   4.456  1.00  0.00     0.159 HD
ATOM     81  H   UNL     1      -4.539  -4.850   3.230  1.00  0.00     0.159 HD
ENDBRANCH  73  74
ENDBRANCH  72  73
ENDBRANCH  71  72
ENDBRANCH  45  71
ENDBRANCH   3  45
TORSDOF 20
ENDMDL
MODEL 21
REMARK VINA RESULT:    -5.981      2.667      5.337
REMARK INTER + INTRA:         -24.814
REMARK INTER:                 -20.222
REMARK INTRA:                  -4.592
REMARK UNBOUND:                -7.644
REMARK SMILES CCCCCC(=O)N[C@H](CC(=O)O)C(=O)N[C@H]1C(=O)N[C@H](CCCN=C(N)N)C(=O)N[C@@H]2CC[C@H](O)N(C2=O)[C@@H](CC(C)C)C(=O)N(C)[C@@H](Cc2ccccc2)C(=O)N[C@H](C(C)C)C(=O)O[C@@H]1C
REMARK SMILES IDX 30 1 31 2 29 3 32 5 35 6 37 7 34 8 38 9 33 10 39 11 36 12
REMARK SMILES IDX 40 14 41 15 42 16 43 17 44 18 45 19 46 20 47 21 48 22 49 23
REMARK SMILES IDX 50 24 51 25 52 26 56 27 53 28 55 29 54 30 57 31 58 32 59 33
REMARK SMILES IDX 60 35 61 36 62 37 63 38 64 39 65 40 66 41 67 42 68 43 21 45
REMARK SMILES IDX 20 46 18 47 19 48 17 50 16 52 14 53 15 54 9 56 8 57 6 58
REMARK SMILES IDX 7 59 5 61 4 62 3 63 2 64 1 65 10 66 11 67 12 68 13 69 22 71
REMARK SMILES IDX 23 72 24 73 25 74 26 75 27 76 28 77
REMARK H PARENT 31 4 36 13 59 34 20 49 16 55 8 60 13 70 27 78 27 79 28 80
REMARK H PARENT 28 81
REMARK Flexibility Score:  259.900
ROOT
ATOM      1  O   UNL     1      -3.718   4.516   8.169  1.00  0.00    -0.273 OA
ATOM      2  N   UNL     1      -2.196   4.729   9.863  1.00  0.00    -0.343 N 
ATOM      3  C   UNL     1      -3.418   4.971   9.273  1.00  0.00     0.243 C 
ATOM      4  H   UNL     1      -1.989   5.107  10.779  1.00  0.00     0.164 HD
ENDROOT
BRANCH   2   5
ATOM      5  C   UNL     1      -1.151   4.013   9.138  1.00  0.00     0.171 C 
ATOM      6  C   UNL     1      -0.894   3.184   6.372  1.00  0.00     0.214 C 
ATOM      7  N   UNL     1      -1.493   2.284   7.331  1.00  0.00    -0.303 N 
ATOM      8  C   UNL     1       0.144   4.112   6.985  1.00  0.00     0.057 C 
ATOM      9  C   UNL     1      -1.692   2.637   8.656  1.00  0.00     0.247 C 
ATOM     10  C   UNL     1      -0.485   4.916   8.102  1.00  0.00     0.040 C 
ATOM     11  O   UNL     1      -2.284   1.894   9.450  1.00  0.00    -0.272 OA
BRANCH   6  12
ATOM     12  O   UNL     1      -1.929   3.929   5.775  1.00  0.00    -0.373 OA
ATOM     13  H   UNL     1      -1.521   4.736   5.395  1.00  0.00     0.213 HD
ENDBRANCH   6  12
BRANCH   7  14
ATOM     14  C   UNL     1      -2.028   1.009   6.809  1.00  0.00     0.177 C 
BRANCH  14  15
ATOM     15  C   UNL     1      -2.814   1.118   5.488  1.00  0.00     0.038 C 
BRANCH  15  16
ATOM     16  C   UNL     1      -4.322   1.447   5.525  1.00  0.00    -0.015 C 
ATOM     17  C   UNL     1      -5.196   0.189   5.501  1.00  0.00     0.007 C 
ATOM     18  C   UNL     1      -4.694   2.313   4.315  1.00  0.00     0.007 C 
ENDBRANCH  15  16
ENDBRANCH  14  15
BRANCH  14  19
ATOM     19  C   UNL     1      -1.087  -0.179   7.209  1.00  0.00     0.245 C 
ATOM     20  O   UNL     1       0.014  -0.238   6.637  1.00  0.00    -0.272 OA
BRANCH  19  21
ATOM     21  N   UNL     1      -1.458  -1.203   8.063  1.00  0.00    -0.332 N 
ATOM     22  C   UNL     1      -0.620  -1.783   9.098  1.00  0.00     0.147 C 
BRANCH  21  23
ATOM     23  C   UNL     1      -2.824  -1.776   7.910  1.00  0.00     0.178 C 
BRANCH  23  24
ATOM     24  C   UNL     1      -2.863  -3.301   7.687  1.00  0.00     0.070 C 
BRANCH  24  25
ATOM     25  C   UNL     1      -3.480  -3.792   6.397  1.00  0.00    -0.045 A 
ATOM     26  C   UNL     1      -2.775  -4.654   5.547  1.00  0.00     0.004 A 
ATOM     27  C   UNL     1      -4.772  -3.386   6.031  1.00  0.00     0.004 A 
ATOM     28  C   UNL     1      -3.345  -5.089   4.349  1.00  0.00     0.000 A 
ATOM     29  C   UNL     1      -5.341  -3.823   4.834  1.00  0.00     0.000 A 
ATOM     30  C   UNL     1      -4.626  -4.672   3.993  1.00  0.00     0.000 A 
ENDBRANCH  24  25
ENDBRANCH  23  24
BRANCH  23  31
ATOM     31  C   UNL     1      -3.822  -1.246   8.968  1.00  0.00     0.243 C 
ATOM     32  O   UNL     1      -4.476  -0.215   8.839  1.00  0.00    -0.273 OA
ATOM     33  N   UNL     1      -3.780  -1.941  10.164  1.00  0.00    -0.341 N 
ATOM     34  H   UNL     1      -3.211  -2.790  10.213  1.00  0.00     0.164 HD
BRANCH  33  35
ATOM     35  C   UNL     1      -4.550  -1.544  11.346  1.00  0.00     0.194 C 
BRANCH  35  36
ATOM     36  C   UNL     1      -6.087  -1.718  11.190  1.00  0.00     0.017 C 
ATOM     37  C   UNL     1      -6.745  -2.105  12.526  1.00  0.00     0.010 C 
ATOM     38  C   UNL     1      -6.473  -2.789  10.162  1.00  0.00     0.010 C 
ENDBRANCH  35  36
BRANCH  35  39
ATOM     39  C   UNL     1      -4.176  -0.124  11.854  1.00  0.00     0.329 C 
ATOM     40  O   UNL     1      -3.057   0.195  12.237  1.00  0.00    -0.250 OA
BRANCH  39  41
ATOM     41  O   UNL     1      -5.215   0.758  11.744  1.00  0.00    -0.458 OA
BRANCH  41  42
ATOM     42  C   UNL     1      -5.292   1.788  12.759  1.00  0.00     0.205 CG0
ATOM     43  C   UNL     1      -6.068   1.206  13.939  1.00  0.00     0.056 C 
ATOM     44  G   UNL     1      -5.983   3.025  12.152  1.00  0.00     0.000 G0
ENDBRANCH  41  42
ENDBRANCH  39  41
ENDBRANCH  35  39
ENDBRANCH  33  35
ENDBRANCH  23  31
ENDBRANCH  21  23
ENDBRANCH  19  21
ENDBRANCH  14  19
ENDBRANCH   7  14
ENDBRANCH   2   5
BRANCH   3  45
ATOM     45  C   UNL     1      -4.387   5.828  10.099  1.00  0.00     0.171 C 
BRANCH  45  46
ATOM     46  N   UNL     1      -5.312   4.889  10.719  1.00  0.00    -0.342 N 
ATOM     47  C   UNL     1      -4.935   4.047  11.735  1.00  0.00     0.247 C 
ATOM     48  O   UNL     1      -3.814   4.073  12.243  1.00  0.00    -0.273 OA
ATOM     49  H   UNL     1      -6.267   4.874  10.366  1.00  0.00     0.164 HD
BRANCH  47  50
ATOM     50  C   UNL     1      -6.008   3.043  12.178  1.00  0.00     0.212 CG0
ATOM     51  G   UNL     1      -5.285   1.818  12.774  1.00  0.00     0.000 G0
BRANCH  50  52
ATOM     52  N   UNL     1      -6.831   3.756  13.151  1.00  0.00    -0.339 N 
ATOM     53  C   UNL     1      -8.034   4.342  12.839  1.00  0.00     0.243 C 
ATOM     54  O   UNL     1      -8.487   4.355  11.697  1.00  0.00    -0.273 OA
ATOM     55  H   UNL     1      -6.457   3.875  14.090  1.00  0.00     0.164 HD
BRANCH  53  56
ATOM     56  C   UNL     1      -8.680   5.112  14.008  1.00  0.00     0.182 C 
BRANCH  56  57
ATOM     57  N   UNL     1      -7.664   5.570  14.961  1.00  0.00    -0.344 N 
ATOM     58  C   UNL     1      -6.975   6.747  14.794  1.00  0.00     0.220 C 
ATOM     59  O   UNL     1      -7.108   7.458  13.804  1.00  0.00    -0.275 OA
ATOM     60  H   UNL     1      -7.597   5.065  15.841  1.00  0.00     0.164 HD
BRANCH  58  61
ATOM     61  C   UNL     1      -6.017   7.049  15.931  1.00  0.00     0.100 C 
BRANCH  61  62
ATOM     62  C   UNL     1      -4.581   6.597  15.664  1.00  0.00     0.010 C 
BRANCH  62  63
ATOM     63  C   UNL     1      -3.579   7.019  16.746  1.00  0.00     0.000 C 
BRANCH  63  64
ATOM     64  C   UNL     1      -3.407   8.531  16.885  1.00  0.00    -0.003 C 
ATOM     65  C   UNL     1      -2.324   9.055  15.953  1.00  0.00     0.004 C 
ENDBRANCH  63  64
ENDBRANCH  62  63
ENDBRANCH  61  62
ENDBRANCH  58  61
ENDBRANCH  56  57
BRANCH  56  66
ATOM     66  C   UNL     1      -9.775   4.289  14.684  1.00  0.00     0.157 C 
BRANCH  66  67
ATOM     67  C   UNL     1      -9.295   3.707  15.982  1.00  0.00     0.305 C 
ATOM     68  O   UNL     1      -9.591   4.080  17.107  1.00  0.00    -0.252 OA
BRANCH  67  69
ATOM     69  O   UNL     1      -8.498   2.637  15.799  1.00  0.00    -0.481 OA
ATOM     70  H   UNL     1      -7.674   3.003  15.413  1.00  0.00     0.296 HD
ENDBRANCH  67  69
ENDBRANCH  66  67
ENDBRANCH  56  66
ENDBRANCH  53  56
ENDBRANCH  50  52
ENDBRANCH  47  50
ENDBRANCH  45  46
BRANCH  45  71
ATOM     71  C   UNL     1      -5.117   6.828   9.195  1.00  0.00     0.037 C 
BRANCH  71  72
ATOM     72  C   UNL     1      -6.430   7.311   9.815  1.00  0.00     0.026 C 
BRANCH  72  73
ATOM     73  C   UNL     1      -7.436   7.728   8.744  1.00  0.00     0.146 C 
BRANCH  73  74
ATOM     74  N   UNL     1      -8.776   7.478   9.267  1.00  0.00    -0.254 NA
ATOM     75  C   UNL     1      -9.669   8.378   9.080  1.00  0.00     0.185 C 
ATOM     76  N   UNL     1     -10.911   8.175   9.548  1.00  0.00    -0.370 N 
ATOM     77  N   UNL     1      -9.558   9.562   8.454  1.00  0.00    -0.370 N 
ATOM     78  H   UNL     1     -11.080   7.310  10.041  1.00  0.00     0.159 HD
ATOM     79  H   UNL     1     -11.619   8.889   9.568  1.00  0.00     0.159 HD
ATOM     80  H   UNL     1      -8.680   9.847   8.047  1.00  0.00     0.159 HD
ATOM     81  H   UNL     1     -10.362  10.138   8.267  1.00  0.00     0.159 HD
ENDBRANCH  73  74
ENDBRANCH  72  73
ENDBRANCH  71  72
ENDBRANCH  45  71
ENDBRANCH   3  45
TORSDOF 20
ENDMDL
MODEL 22
REMARK VINA RESULT:    -5.974      2.888      5.787
REMARK INTER + INTRA:         -24.794
REMARK INTER:                 -18.923
REMARK INTRA:                  -5.871
REMARK UNBOUND:                -7.644
REMARK SMILES CCCCCC(=O)N[C@H](CC(=O)O)C(=O)N[C@H]1C(=O)N[C@H](CCCN=C(N)N)C(=O)N[C@@H]2CC[C@H](O)N(C2=O)[C@@H](CC(C)C)C(=O)N(C)[C@@H](Cc2ccccc2)C(=O)N[C@H](C(C)C)C(=O)O[C@@H]1C
REMARK SMILES IDX 30 1 31 2 29 3 32 5 35 6 37 7 34 8 38 9 33 10 39 11 36 12
REMARK SMILES IDX 40 14 41 15 42 16 43 17 44 18 45 19 46 20 47 21 48 22 49 23
REMARK SMILES IDX 50 24 51 25 52 26 56 27 53 28 55 29 54 30 57 31 58 32 59 33
REMARK SMILES IDX 60 35 61 36 62 37 63 38 64 39 65 40 66 41 67 42 68 43 21 45
REMARK SMILES IDX 20 46 18 47 19 48 17 50 16 52 14 53 15 54 9 56 8 57 6 58
REMARK SMILES IDX 7 59 5 61 4 62 3 63 2 64 1 65 10 66 11 67 12 68 13 69 22 71
REMARK SMILES IDX 23 72 24 73 25 74 26 75 27 76 28 77
REMARK H PARENT 31 4 36 13 59 34 20 49 16 55 8 60 13 70 27 78 27 79 28 80
REMARK H PARENT 28 81
REMARK Flexibility Score:  259.900
ROOT
ATOM      1  O   UNL     1      -3.516   6.229  10.444  1.00  0.00    -0.273 OA
ATOM      2  N   UNL     1      -4.835   5.213   8.876  1.00  0.00    -0.343 N 
ATOM      3  C   UNL     1      -4.637   6.001   9.990  1.00  0.00     0.243 C 
ATOM      4  H   UNL     1      -5.771   5.060   8.522  1.00  0.00     0.164 HD
ENDROOT
BRANCH   2   5
ATOM      5  C   UNL     1      -3.717   4.514   8.253  1.00  0.00     0.171 C 
ATOM      6  C   UNL     1      -3.579   2.303   6.383  1.00  0.00     0.214 C 
ATOM      7  N   UNL     1      -3.561   2.035   7.802  1.00  0.00    -0.303 N 
ATOM      8  C   UNL     1      -2.965   3.645   6.016  1.00  0.00     0.057 C 
ATOM      9  C   UNL     1      -3.675   3.040   8.749  1.00  0.00     0.247 C 
ATOM     10  C   UNL     1      -3.690   4.756   6.745  1.00  0.00     0.040 C 
ATOM     11  O   UNL     1      -3.746   2.795   9.960  1.00  0.00    -0.272 OA
BRANCH   6  12
ATOM     12  O   UNL     1      -4.918   2.239   5.950  1.00  0.00    -0.373 OA
ATOM     13  H   UNL     1      -4.967   2.719   5.095  1.00  0.00     0.213 HD
ENDBRANCH   6  12
BRANCH   7  14
ATOM     14  C   UNL     1      -3.564   0.616   8.216  1.00  0.00     0.177 C 
BRANCH  14  15
ATOM     15  C   UNL     1      -2.206   0.071   8.700  1.00  0.00     0.038 C 
BRANCH  15  16
ATOM     16  C   UNL     1      -1.465  -0.988   7.852  1.00  0.00    -0.015 C 
ATOM     17  C   UNL     1      -0.111  -1.373   8.453  1.00  0.00     0.007 C 
ATOM     18  C   UNL     1      -1.227  -0.445   6.438  1.00  0.00     0.007 C 
ENDBRANCH  15  16
ENDBRANCH  14  15
BRANCH  14  19
ATOM     19  C   UNL     1      -4.961   0.226   8.810  1.00  0.00     0.245 C 
ATOM     20  O   UNL     1      -5.959   0.732   8.271  1.00  0.00    -0.272 OA
BRANCH  19  21
ATOM     21  N   UNL     1      -5.128  -0.544   9.948  1.00  0.00    -0.332 N 
ATOM     22  C   UNL     1      -4.370  -0.405  11.178  1.00  0.00     0.147 C 
BRANCH  21  23
ATOM     23  C   UNL     1      -6.160  -1.617   9.917  1.00  0.00     0.178 C 
BRANCH  23  24
ATOM     24  C   UNL     1      -5.611  -3.046  10.103  1.00  0.00     0.070 C 
BRANCH  24  25
ATOM     25  C   UNL     1      -4.538  -3.502   9.142  1.00  0.00    -0.045 A 
ATOM     26  C   UNL     1      -4.700  -3.348   7.759  1.00  0.00     0.004 A 
ATOM     27  C   UNL     1      -3.361  -4.094   9.625  1.00  0.00     0.004 A 
ATOM     28  C   UNL     1      -3.711  -3.787   6.877  1.00  0.00     0.000 A 
ATOM     29  C   UNL     1      -2.372  -4.531   8.742  1.00  0.00     0.000 A 
ATOM     30  C   UNL     1      -2.550  -4.380   7.368  1.00  0.00     0.000 A 
ENDBRANCH  24  25
ENDBRANCH  23  24
BRANCH  23  31
ATOM     31  C   UNL     1      -7.406  -1.281  10.771  1.00  0.00     0.243 C 
ATOM     32  O   UNL     1      -7.754  -1.922  11.759  1.00  0.00    -0.273 OA
ATOM     33  N   UNL     1      -8.208  -0.298  10.216  1.00  0.00    -0.341 N 
ATOM     34  H   UNL     1      -7.867   0.197   9.388  1.00  0.00     0.164 HD
BRANCH  33  35
ATOM     35  C   UNL     1      -9.497   0.098  10.789  1.00  0.00     0.194 C 
BRANCH  35  36
ATOM     36  C   UNL     1     -10.691  -0.008   9.799  1.00  0.00     0.017 C 
ATOM     37  C   UNL     1     -12.035  -0.057  10.546  1.00  0.00     0.010 C 
ATOM     38  C   UNL     1     -10.622  -1.248   8.898  1.00  0.00     0.010 C 
ENDBRANCH  35  36
BRANCH  35  39
ATOM     39  C   UNL     1      -9.441   1.487  11.484  1.00  0.00     0.329 C 
ATOM     40  O   UNL     1     -10.186   2.421  11.211  1.00  0.00    -0.250 OA
BRANCH  39  41
ATOM     41  O   UNL     1      -8.524   1.525  12.497  1.00  0.00    -0.458 OA
BRANCH  41  42
ATOM     42  C   UNL     1      -7.353   2.346  12.272  1.00  0.00     0.205 CG0
ATOM     43  C   UNL     1      -6.244   1.813  13.176  1.00  0.00     0.056 C 
ATOM     44  G   UNL     1      -7.714   3.812  12.581  1.00  0.00     0.000 G0
ENDBRANCH  41  42
ENDBRANCH  39  41
ENDBRANCH  35  39
ENDBRANCH  33  35
ENDBRANCH  23  31
ENDBRANCH  21  23
ENDBRANCH  19  21
ENDBRANCH  14  19
ENDBRANCH   7  14
ENDBRANCH   2   5
BRANCH   3  45
ATOM     45  C   UNL     1      -5.910   6.591  10.612  1.00  0.00     0.171 C 
BRANCH  45  46
ATOM     46  N   UNL     1      -6.340   5.627  11.617  1.00  0.00    -0.342 N 
ATOM     47  C   UNL     1      -7.295   4.675  11.363  1.00  0.00     0.247 C 
ATOM     48  O   UNL     1      -7.803   4.518  10.252  1.00  0.00    -0.273 OA
ATOM     49  H   UNL     1      -5.903   5.686  12.535  1.00  0.00     0.164 HD
BRANCH  47  50
ATOM     50  C   UNL     1      -7.709   3.831  12.576  1.00  0.00     0.212 CG0
ATOM     51  G   UNL     1      -7.328   2.367  12.279  1.00  0.00     0.000 G0
BRANCH  50  52
ATOM     52  N   UNL     1      -6.985   4.397  13.711  1.00  0.00    -0.339 N 
ATOM     53  C   UNL     1      -7.466   4.382  14.998  1.00  0.00     0.243 C 
ATOM     54  O   UNL     1      -8.573   3.935  15.286  1.00  0.00    -0.273 OA
ATOM     55  H   UNL     1      -6.110   4.881  13.519  1.00  0.00     0.164 HD
BRANCH  53  56
ATOM     56  C   UNL     1      -6.565   5.116  16.012  1.00  0.00     0.182 C 
BRANCH  56  57
ATOM     57  N   UNL     1      -7.094   6.450  16.317  1.00  0.00    -0.344 N 
ATOM     58  C   UNL     1      -7.756   6.729  17.487  1.00  0.00     0.220 C 
ATOM     59  O   UNL     1      -8.016   5.871  18.324  1.00  0.00    -0.275 OA
ATOM     60  H   UNL     1      -6.813   7.208  15.700  1.00  0.00     0.164 HD
BRANCH  58  61
ATOM     61  C   UNL     1      -8.162   8.186  17.615  1.00  0.00     0.100 C 
BRANCH  61  62
ATOM     62  C   UNL     1      -8.223   8.928  16.280  1.00  0.00     0.010 C 
BRANCH  62  63
ATOM     63  C   UNL     1      -9.487   8.640  15.459  1.00  0.00     0.000 C 
BRANCH  63  64
ATOM     64  C   UNL     1      -9.236   7.845  14.179  1.00  0.00    -0.003 C 
ATOM     65  C   UNL     1      -8.061   8.412  13.395  1.00  0.00     0.004 C 
ENDBRANCH  63  64
ENDBRANCH  62  63
ENDBRANCH  61  62
ENDBRANCH  58  61
ENDBRANCH  56  57
BRANCH  56  66
ATOM     66  C   UNL     1      -5.113   5.165  15.540  1.00  0.00     0.157 C 
BRANCH  66  67
ATOM     67  C   UNL     1      -4.693   6.570  15.220  1.00  0.00     0.305 C 
ATOM     68  O   UNL     1      -4.136   7.358  15.970  1.00  0.00    -0.252 OA
BRANCH  67  69
ATOM     69  O   UNL     1      -4.950   6.902  13.940  1.00  0.00    -0.481 OA
ATOM     70  H   UNL     1      -5.926   6.863  13.863  1.00  0.00     0.296 HD
ENDBRANCH  67  69
ENDBRANCH  66  67
ENDBRANCH  56  66
ENDBRANCH  53  56
ENDBRANCH  50  52
ENDBRANCH  47  50
ENDBRANCH  45  46
BRANCH  45  71
ATOM     71  C   UNL     1      -6.981   6.802   9.536  1.00  0.00     0.037 C 
BRANCH  71  72
ATOM     72  C   UNL     1      -6.973   8.231   8.989  1.00  0.00     0.026 C 
BRANCH  72  73
ATOM     73  C   UNL     1      -8.028   9.099   9.671  1.00  0.00     0.146 C 
BRANCH  73  74
ATOM     74  N   UNL     1      -9.271   8.968   8.917  1.00  0.00    -0.254 NA
ATOM     75  C   UNL     1     -10.280   8.447   9.511  1.00  0.00     0.185 C 
ATOM     76  N   UNL     1     -11.438   8.314   8.843  1.00  0.00    -0.370 N 
ATOM     77  N   UNL     1     -10.374   7.984  10.770  1.00  0.00    -0.370 N 
ATOM     78  H   UNL     1     -11.452   8.632   7.885  1.00  0.00     0.159 HD
ATOM     79  H   UNL     1     -12.220   7.789   9.191  1.00  0.00     0.159 HD
ATOM     80  H   UNL     1      -9.580   8.023  11.391  1.00  0.00     0.159 HD
ATOM     81  H   UNL     1     -11.255   7.701  11.164  1.00  0.00     0.159 HD
ENDBRANCH  73  74
ENDBRANCH  72  73
ENDBRANCH  71  72
ENDBRANCH  45  71
ENDBRANCH   3  45
TORSDOF 20
ENDMDL
MODEL 23
REMARK VINA RESULT:    -5.966      3.830      6.557
REMARK INTER + INTRA:         -24.772
REMARK INTER:                 -20.490
REMARK INTRA:                  -4.282
REMARK UNBOUND:                -7.644
REMARK SMILES CCCCCC(=O)N[C@H](CC(=O)O)C(=O)N[C@H]1C(=O)N[C@H](CCCN=C(N)N)C(=O)N[C@@H]2CC[C@H](O)N(C2=O)[C@@H](CC(C)C)C(=O)N(C)[C@@H](Cc2ccccc2)C(=O)N[C@H](C(C)C)C(=O)O[C@@H]1C
REMARK SMILES IDX 30 1 31 2 29 3 32 5 35 6 37 7 34 8 38 9 33 10 39 11 36 12
REMARK SMILES IDX 40 14 41 15 42 16 43 17 44 18 45 19 46 20 47 21 48 22 49 23
REMARK SMILES IDX 50 24 51 25 52 26 56 27 53 28 55 29 54 30 57 31 58 32 59 33
REMARK SMILES IDX 60 35 61 36 62 37 63 38 64 39 65 40 66 41 67 42 68 43 21 45
REMARK SMILES IDX 20 46 18 47 19 48 17 50 16 52 14 53 15 54 9 56 8 57 6 58
REMARK SMILES IDX 7 59 5 61 4 62 3 63 2 64 1 65 10 66 11 67 12 68 13 69 22 71
REMARK SMILES IDX 23 72 24 73 25 74 26 75 27 76 28 77
REMARK H PARENT 31 4 36 13 59 34 20 49 16 55 8 60 13 70 27 78 27 79 28 80
REMARK H PARENT 28 81
REMARK Flexibility Score:  259.900
ROOT
ATOM      1  O   UNL     1      -6.425   9.188   8.948  1.00  0.00    -0.273 OA
ATOM      2  N   UNL     1      -6.054   7.057   9.690  1.00  0.00    -0.343 N 
ATOM      3  C   UNL     1      -6.793   8.218   9.610  1.00  0.00     0.243 C 
ATOM      4  H   UNL     1      -6.395   6.273  10.233  1.00  0.00     0.164 HD
ENDROOT
BRANCH   2   5
ATOM      5  C   UNL     1      -4.731   6.976   9.080  1.00  0.00     0.171 C 
ATOM      6  C   UNL     1      -3.461   4.982   7.402  1.00  0.00     0.214 C 
ATOM      7  N   UNL     1      -3.316   4.900   8.837  1.00  0.00    -0.303 N 
ATOM      8  C   UNL     1      -3.626   6.405   6.894  1.00  0.00     0.057 C 
ATOM      9  C   UNL     1      -3.937   5.789   9.698  1.00  0.00     0.247 C 
ATOM     10  C   UNL     1      -4.824   7.050   7.557  1.00  0.00     0.040 C 
ATOM     11  O   UNL     1      -3.879   5.661  10.928  1.00  0.00    -0.272 OA
BRANCH   6  12
ATOM     12  O   UNL     1      -4.572   4.196   7.037  1.00  0.00    -0.373 OA
ATOM     13  H   UNL     1      -5.286   4.815   6.772  1.00  0.00     0.213 HD
ENDBRANCH   6  12
BRANCH   7  14
ATOM     14  C   UNL     1      -2.588   3.729   9.371  1.00  0.00     0.177 C 
BRANCH  14  15
ATOM     15  C   UNL     1      -1.147   4.010   9.839  1.00  0.00     0.038 C 
BRANCH  15  16
ATOM     16  C   UNL     1      -0.377   5.213   9.251  1.00  0.00    -0.015 C 
ATOM     17  C   UNL     1       0.527   4.813   8.081  1.00  0.00     0.007 C 
ATOM     18  C   UNL     1       0.498   5.850  10.339  1.00  0.00     0.007 C 
ENDBRANCH  15  16
ENDBRANCH  14  15
BRANCH  14  19
ATOM     19  C   UNL     1      -3.587   2.735  10.058  1.00  0.00     0.245 C 
ATOM     20  O   UNL     1      -4.608   2.436   9.416  1.00  0.00    -0.272 OA
BRANCH  19  21
ATOM     21  N   UNL     1      -3.448   2.275  11.355  1.00  0.00    -0.332 N 
ATOM     22  C   UNL     1      -2.808   2.996  12.441  1.00  0.00     0.147 C 
BRANCH  21  23
ATOM     23  C   UNL     1      -3.985   0.923  11.675  1.00  0.00     0.178 C 
BRANCH  23  24
ATOM     24  C   UNL     1      -2.920  -0.114  12.084  1.00  0.00     0.070 C 
BRANCH  24  25
ATOM     25  C   UNL     1      -2.253  -0.891  10.973  1.00  0.00    -0.045 A 
ATOM     26  C   UNL     1      -2.463  -2.269  10.834  1.00  0.00     0.004 A 
ATOM     27  C   UNL     1      -1.406  -0.239  10.063  1.00  0.00     0.004 A 
ATOM     28  C   UNL     1      -1.829  -2.983   9.814  1.00  0.00     0.000 A 
ATOM     29  C   UNL     1      -0.775  -0.954   9.044  1.00  0.00     0.000 A 
ATOM     30  C   UNL     1      -0.985  -2.326   8.922  1.00  0.00     0.000 A 
ENDBRANCH  24  25
ENDBRANCH  23  24
BRANCH  23  31
ATOM     31  C   UNL     1      -5.233   0.971  12.589  1.00  0.00     0.243 C 
ATOM     32  O   UNL     1      -5.274   0.495  13.721  1.00  0.00    -0.273 OA
ATOM     33  N   UNL     1      -6.369   1.436  11.949  1.00  0.00    -0.341 N 
ATOM     34  H   UNL     1      -6.273   1.814  11.004  1.00  0.00     0.164 HD
BRANCH  33  35
ATOM     35  C   UNL     1      -7.691   1.456  12.583  1.00  0.00     0.194 C 
BRANCH  35  36
ATOM     36  C   UNL     1      -8.592   0.245  12.209  1.00  0.00     0.017 C 
ATOM     37  C   UNL     1      -8.498  -0.869  13.266  1.00  0.00     0.010 C 
ATOM     38  C   UNL     1      -8.238  -0.377  10.853  1.00  0.00     0.010 C 
ENDBRANCH  35  36
BRANCH  35  39
ATOM     39  C   UNL     1      -8.427   2.810  12.386  1.00  0.00     0.329 C 
ATOM     40  O   UNL     1      -9.211   3.039  11.472  1.00  0.00    -0.250 OA
BRANCH  39  41
ATOM     41  O   UNL     1      -8.171   3.693  13.398  1.00  0.00    -0.458 OA
BRANCH  41  42
ATOM     42  C   UNL     1      -7.577   4.956  13.012  1.00  0.00     0.205 CG0
ATOM     43  C   UNL     1      -6.147   4.967  13.549  1.00  0.00     0.056 C 
ATOM     44  G   UNL     1      -8.433   6.100  13.591  1.00  0.00     0.000 G0
ENDBRANCH  41  42
ENDBRANCH  39  41
ENDBRANCH  35  39
ENDBRANCH  33  35
ENDBRANCH  23  31
ENDBRANCH  21  23
ENDBRANCH  19  21
ENDBRANCH  14  19
ENDBRANCH   7  14
ENDBRANCH   2   5
BRANCH   3  45
ATOM     45  C   UNL     1      -8.117   8.208  10.387  1.00  0.00     0.171 C 
BRANCH  45  46
ATOM     46  N   UNL     1      -7.913   7.292  11.501  1.00  0.00    -0.342 N 
ATOM     47  C   UNL     1      -8.900   7.009  12.411  1.00  0.00     0.247 C 
ATOM     48  O   UNL     1     -10.046   7.449  12.312  1.00  0.00    -0.273 OA
ATOM     49  H   UNL     1      -6.995   6.861  11.588  1.00  0.00     0.164 HD
BRANCH  47  50
ATOM     50  C   UNL     1      -8.466   6.121  13.586  1.00  0.00     0.212 CG0
ATOM     51  G   UNL     1      -7.593   4.986  13.016  1.00  0.00     0.000 G0
BRANCH  50  52
ATOM     52  N   UNL     1      -7.742   7.005  14.495  1.00  0.00    -0.339 N 
ATOM     53  C   UNL     1      -8.024   7.105  15.836  1.00  0.00     0.243 C 
ATOM     54  O   UNL     1      -8.949   6.495  16.365  1.00  0.00    -0.273 OA
ATOM     55  H   UNL     1      -7.037   7.620  14.095  1.00  0.00     0.164 HD
BRANCH  53  56
ATOM     56  C   UNL     1      -7.185   8.167  16.576  1.00  0.00     0.182 C 
BRANCH  56  57
ATOM     57  N   UNL     1      -5.949   7.584  17.108  1.00  0.00    -0.344 N 
ATOM     58  C   UNL     1      -4.861   7.315  16.314  1.00  0.00     0.220 C 
ATOM     59  O   UNL     1      -4.872   7.475  15.098  1.00  0.00    -0.275 OA
ATOM     60  H   UNL     1      -5.863   7.532  18.119  1.00  0.00     0.164 HD
BRANCH  58  61
ATOM     61  C   UNL     1      -3.673   6.770  17.085  1.00  0.00     0.100 C 
BRANCH  61  62
ATOM     62  C   UNL     1      -2.564   7.797  17.315  1.00  0.00     0.010 C 
BRANCH  62  63
ATOM     63  C   UNL     1      -2.417   8.825  16.186  1.00  0.00     0.000 C 
BRANCH  63  64
ATOM     64  C   UNL     1      -1.031   9.460  16.093  1.00  0.00    -0.003 C 
ATOM     65  C   UNL     1      -0.262   9.309  17.398  1.00  0.00     0.004 C 
ENDBRANCH  63  64
ENDBRANCH  62  63
ENDBRANCH  61  62
ENDBRANCH  58  61
ENDBRANCH  56  57
BRANCH  56  66
ATOM     66  C   UNL     1      -8.002   8.872  17.658  1.00  0.00     0.157 C 
BRANCH  66  67
ATOM     67  C   UNL     1      -7.375   8.700  19.011  1.00  0.00     0.305 C 
ATOM     68  O   UNL     1      -7.672   7.870  19.857  1.00  0.00    -0.252 OA
BRANCH  67  69
ATOM     69  O   UNL     1      -6.358   9.559  19.217  1.00  0.00    -0.481 OA
ATOM     70  H   UNL     1      -5.876   9.585  18.363  1.00  0.00     0.296 HD
ENDBRANCH  67  69
ENDBRANCH  66  67
ENDBRANCH  56  66
ENDBRANCH  53  56
ENDBRANCH  50  52
ENDBRANCH  47  50
ENDBRANCH  45  46
BRANCH  45  71
ATOM     71  C   UNL     1      -9.264   7.750   9.480  1.00  0.00     0.037 C 
BRANCH  71  72
ATOM     72  C   UNL     1      -9.820   8.896   8.631  1.00  0.00     0.026 C 
BRANCH  72  73
ATOM     73  C   UNL     1     -11.257   9.236   9.022  1.00  0.00     0.146 C 
BRANCH  73  74
ATOM     74  N   UNL     1     -11.917   7.997   9.421  1.00  0.00    -0.254 NA
ATOM     75  C   UNL     1     -12.508   7.973  10.559  1.00  0.00     0.185 C 
ATOM     76  N   UNL     1     -13.125   6.848  10.954  1.00  0.00    -0.370 N 
ATOM     77  N   UNL     1     -12.617   8.951  11.475  1.00  0.00    -0.370 N 
ATOM     78  H   UNL     1     -13.084   6.059  10.325  1.00  0.00     0.159 HD
ATOM     79  H   UNL     1     -13.480   6.708  11.883  1.00  0.00     0.159 HD
ATOM     80  H   UNL     1     -12.204   9.857  11.311  1.00  0.00     0.159 HD
ATOM     81  H   UNL     1     -13.207   8.852  12.285  1.00  0.00     0.159 HD
ENDBRANCH  73  74
ENDBRANCH  72  73
ENDBRANCH  71  72
ENDBRANCH  45  71
ENDBRANCH   3  45
TORSDOF 20
ENDMDL
MODEL 24
REMARK VINA RESULT:    -5.944      2.925      9.247
REMARK INTER + INTRA:         -24.707
REMARK INTER:                 -17.495
REMARK INTRA:                  -7.212
REMARK UNBOUND:                -7.644
REMARK SMILES CCCCCC(=O)N[C@H](CC(=O)O)C(=O)N[C@H]1C(=O)N[C@H](CCCN=C(N)N)C(=O)N[C@@H]2CC[C@H](O)N(C2=O)[C@@H](CC(C)C)C(=O)N(C)[C@@H](Cc2ccccc2)C(=O)N[C@H](C(C)C)C(=O)O[C@@H]1C
REMARK SMILES IDX 30 1 31 2 29 3 32 5 35 6 37 7 34 8 38 9 33 10 39 11 36 12
REMARK SMILES IDX 40 14 41 15 42 16 43 17 44 18 45 19 46 20 47 21 48 22 49 23
REMARK SMILES IDX 50 24 51 25 52 26 56 27 53 28 55 29 54 30 57 31 58 32 59 33
REMARK SMILES IDX 60 35 61 36 62 37 63 38 64 39 65 40 66 41 67 42 68 43 21 45
REMARK SMILES IDX 20 46 18 47 19 48 17 50 16 52 14 53 15 54 9 56 8 57 6 58
REMARK SMILES IDX 7 59 5 61 4 62 3 63 2 64 1 65 10 66 11 67 12 68 13 69 22 71
REMARK SMILES IDX 23 72 24 73 25 74 26 75 27 76 28 77
REMARK H PARENT 31 4 36 13 59 34 20 49 16 55 8 60 13 70 27 78 27 79 28 80
REMARK H PARENT 28 81
REMARK Flexibility Score:  259.900
ROOT
ATOM      1  O   UNL     1      -9.451   0.987  12.354  1.00  0.00    -0.273 OA
ATOM      2  N   UNL     1      -8.086   0.518  14.127  1.00  0.00    -0.343 N 
ATOM      3  C   UNL     1      -8.541   0.317  12.842  1.00  0.00     0.243 C 
ATOM      4  H   UNL     1      -7.324  -0.042  14.491  1.00  0.00     0.164 HD
ENDROOT
BRANCH   2   5
ATOM      5  C   UNL     1      -8.755   1.466  15.012  1.00  0.00     0.171 C 
ATOM      6  C   UNL     1     -11.030   3.225  14.646  1.00  0.00     0.214 C 
ATOM      7  N   UNL     1      -9.701   3.715  14.362  1.00  0.00    -0.303 N 
ATOM      8  C   UNL     1     -11.061   2.163  15.733  1.00  0.00     0.057 C 
ATOM      9  C   UNL     1      -8.576   2.912  14.467  1.00  0.00     0.247 C 
ATOM     10  C   UNL     1     -10.173   1.002  15.341  1.00  0.00     0.040 C 
ATOM     11  O   UNL     1      -7.451   3.313  14.140  1.00  0.00    -0.272 OA
BRANCH   6  12
ATOM     12  O   UNL     1     -11.566   2.718  13.446  1.00  0.00    -0.373 OA
ATOM     13  H   UNL     1     -11.973   3.474  12.971  1.00  0.00     0.213 HD
ENDBRANCH   6  12
BRANCH   7  14
ATOM     14  C   UNL     1      -9.593   5.081  13.807  1.00  0.00     0.177 C 
BRANCH  14  15
ATOM     15  C   UNL     1     -10.626   5.429  12.718  1.00  0.00     0.038 C 
BRANCH  15  16
ATOM     16  C   UNL     1     -11.479   6.710  12.860  1.00  0.00    -0.015 C 
ATOM     17  C   UNL     1     -12.960   6.462  12.557  1.00  0.00     0.007 C 
ATOM     18  C   UNL     1     -10.964   7.785  11.895  1.00  0.00     0.007 C 
ENDBRANCH  15  16
ENDBRANCH  14  15
BRANCH  14  19
ATOM     19  C   UNL     1      -9.056   6.070  14.899  1.00  0.00     0.245 C 
ATOM     20  O   UNL     1      -9.662   6.089  15.983  1.00  0.00    -0.272 OA
BRANCH  19  21
ATOM     21  N   UNL     1      -8.039   6.982  14.679  1.00  0.00    -0.332 N 
ATOM     22  C   UNL     1      -7.625   8.021  15.605  1.00  0.00     0.147 C 
BRANCH  21  23
ATOM     23  C   UNL     1      -7.306   6.908  13.385  1.00  0.00     0.178 C 
BRANCH  23  24
ATOM     24  C   UNL     1      -7.410   8.175  12.512  1.00  0.00     0.070 C 
BRANCH  24  25
ATOM     25  C   UNL     1      -7.550   7.974  11.021  1.00  0.00    -0.045 A 
ATOM     26  C   UNL     1      -7.831   6.708  10.491  1.00  0.00     0.004 A 
ATOM     27  C   UNL     1      -7.396   9.057  10.143  1.00  0.00     0.004 A 
ATOM     28  C   UNL     1      -7.942   6.526   9.111  1.00  0.00     0.000 A 
ATOM     29  C   UNL     1      -7.508   8.874   8.764  1.00  0.00     0.000 A 
ATOM     30  C   UNL     1      -7.779   7.608   8.249  1.00  0.00     0.000 A 
ENDBRANCH  24  25
ENDBRANCH  23  24
BRANCH  23  31
ATOM     31  C   UNL     1      -5.876   6.335  13.533  1.00  0.00     0.243 C 
ATOM     32  O   UNL     1      -5.023   6.802  14.283  1.00  0.00    -0.273 OA
ATOM     33  N   UNL     1      -5.576   5.353  12.604  1.00  0.00    -0.341 N 
ATOM     34  H   UNL     1      -6.328   5.008  12.002  1.00  0.00     0.164 HD
BRANCH  33  35
ATOM     35  C   UNL     1      -4.245   4.752  12.479  1.00  0.00     0.194 C 
BRANCH  35  36
ATOM     36  C   UNL     1      -3.575   4.975  11.095  1.00  0.00     0.017 C 
ATOM     37  C   UNL     1      -2.547   6.119  11.149  1.00  0.00     0.010 C 
ATOM     38  C   UNL     1      -4.578   5.312   9.985  1.00  0.00     0.010 C 
ENDBRANCH  35  36
BRANCH  35  39
ATOM     39  C   UNL     1      -4.223   3.255  12.900  1.00  0.00     0.329 C 
ATOM     40  O   UNL     1      -4.008   2.867  14.042  1.00  0.00    -0.250 OA
BRANCH  39  41
ATOM     41  O   UNL     1      -4.557   2.421  11.870  1.00  0.00    -0.458 OA
BRANCH  41  42
ATOM     42  C   UNL     1      -3.750   1.229  11.722  1.00  0.00     0.205 CG0
ATOM     43  C   UNL     1      -2.356   1.675  11.287  1.00  0.00     0.056 C 
ATOM     44  G   UNL     1      -4.422   0.303  10.689  1.00  0.00     0.000 G0
ENDBRANCH  41  42
ENDBRANCH  39  41
ENDBRANCH  35  39
ENDBRANCH  33  35
ENDBRANCH  23  31
ENDBRANCH  21  23
ENDBRANCH  19  21
ENDBRANCH  14  19
ENDBRANCH   7  14
ENDBRANCH   2   5
BRANCH   3  45
ATOM     45  C   UNL     1      -7.819  -0.784  12.054  1.00  0.00     0.171 C 
BRANCH  45  46
ATOM     46  N   UNL     1      -6.735  -0.116  11.347  1.00  0.00    -0.342 N 
ATOM     47  C   UNL     1      -5.446  -0.590  11.358  1.00  0.00     0.247 C 
ATOM     48  O   UNL     1      -5.128  -1.647  11.903  1.00  0.00    -0.273 OA
ATOM     49  H   UNL     1      -6.966   0.733  10.835  1.00  0.00     0.164 HD
BRANCH  47  50
ATOM     50  C   UNL     1      -4.417   0.312  10.662  1.00  0.00     0.212 CG0
ATOM     51  G   UNL     1      -3.777   1.209  11.740  1.00  0.00     0.000 G0
BRANCH  50  52
ATOM     52  N   UNL     1      -3.466  -0.599  10.030  1.00  0.00    -0.339 N 
ATOM     53  C   UNL     1      -3.661  -1.152   8.787  1.00  0.00     0.243 C 
ATOM     54  O   UNL     1      -4.682  -0.964   8.132  1.00  0.00    -0.273 OA
ATOM     55  H   UNL     1      -2.651  -0.882  10.570  1.00  0.00     0.164 HD
BRANCH  53  56
ATOM     56  C   UNL     1      -2.564  -2.150   8.366  1.00  0.00     0.182 C 
BRANCH  56  57
ATOM     57  N   UNL     1      -3.137  -3.284   7.633  1.00  0.00    -0.344 N 
ATOM     58  C   UNL     1      -2.640  -3.704   6.423  1.00  0.00     0.220 C 
ATOM     59  O   UNL     1      -1.735  -3.119   5.838  1.00  0.00    -0.275 OA
ATOM     60  H   UNL     1      -3.817  -3.855   8.126  1.00  0.00     0.164 HD
BRANCH  58  61
ATOM     61  C   UNL     1      -3.349  -4.929   5.875  1.00  0.00     0.100 C 
BRANCH  61  62
ATOM     62  C   UNL     1      -4.557  -4.602   4.998  1.00  0.00     0.010 C 
BRANCH  62  63
ATOM     63  C   UNL     1      -4.540  -3.185   4.409  1.00  0.00     0.000 C 
BRANCH  63  64
ATOM     64  C   UNL     1      -5.884  -2.462   4.477  1.00  0.00    -0.003 C 
ATOM     65  C   UNL     1      -7.014  -3.340   3.957  1.00  0.00     0.004 C 
ENDBRANCH  63  64
ENDBRANCH  62  63
ENDBRANCH  61  62
ENDBRANCH  58  61
ENDBRANCH  56  57
BRANCH  56  66
ATOM     66  C   UNL     1      -1.727  -2.601   9.562  1.00  0.00     0.157 C 
BRANCH  66  67
ATOM     67  C   UNL     1      -2.202  -3.924  10.090  1.00  0.00     0.305 C 
ATOM     68  O   UNL     1      -1.717  -5.022   9.861  1.00  0.00    -0.252 OA
BRANCH  67  69
ATOM     69  O   UNL     1      -3.244  -3.794  10.933  1.00  0.00    -0.481 OA
ATOM     70  H   UNL     1      -3.959  -3.401  10.388  1.00  0.00     0.296 HD
ENDBRANCH  67  69
ENDBRANCH  66  67
ENDBRANCH  56  66
ENDBRANCH  53  56
ENDBRANCH  50  52
ENDBRANCH  47  50
ENDBRANCH  45  46
BRANCH  45  71
ATOM     71  C   UNL     1      -8.788  -1.471  11.086  1.00  0.00     0.037 C 
BRANCH  71  72
ATOM     72  C   UNL     1      -8.277  -1.442   9.643  1.00  0.00     0.026 C 
BRANCH  72  73
ATOM     73  C   UNL     1      -9.108  -0.500   8.773  1.00  0.00     0.146 C 
BRANCH  73  74
ATOM     74  N   UNL     1      -8.377   0.757   8.652  1.00  0.00    -0.254 NA
ATOM     75  C   UNL     1      -7.558   0.882   7.673  1.00  0.00     0.185 C 
ATOM     76  N   UNL     1      -6.872   2.028   7.534  1.00  0.00    -0.370 N 
ATOM     77  N   UNL     1      -7.258  -0.001   6.705  1.00  0.00    -0.370 N 
ATOM     78  H   UNL     1      -7.033   2.745   8.227  1.00  0.00     0.159 HD
ATOM     79  H   UNL     1      -6.114   2.144   6.884  1.00  0.00     0.159 HD
ATOM     80  H   UNL     1      -7.702  -0.907   6.680  1.00  0.00     0.159 HD
ATOM     81  H   UNL     1      -6.683   0.253   5.919  1.00  0.00     0.159 HD
ENDBRANCH  73  74
ENDBRANCH  72  73
ENDBRANCH  71  72
ENDBRANCH  45  71
ENDBRANCH   3  45
TORSDOF 20
ENDMDL
MODEL 25
REMARK VINA RESULT:    -5.927      2.527      5.193
REMARK INTER + INTRA:         -24.660
REMARK INTER:                 -18.584
REMARK INTRA:                  -6.076
REMARK UNBOUND:                -7.644
REMARK SMILES CCCCCC(=O)N[C@H](CC(=O)O)C(=O)N[C@H]1C(=O)N[C@H](CCCN=C(N)N)C(=O)N[C@@H]2CC[C@H](O)N(C2=O)[C@@H](CC(C)C)C(=O)N(C)[C@@H](Cc2ccccc2)C(=O)N[C@H](C(C)C)C(=O)O[C@@H]1C
REMARK SMILES IDX 30 1 31 2 29 3 32 5 35 6 37 7 34 8 38 9 33 10 39 11 36 12
REMARK SMILES IDX 40 14 41 15 42 16 43 17 44 18 45 19 46 20 47 21 48 22 49 23
REMARK SMILES IDX 50 24 51 25 52 26 56 27 53 28 55 29 54 30 57 31 58 32 59 33
REMARK SMILES IDX 60 35 61 36 62 37 63 38 64 39 65 40 66 41 67 42 68 43 21 45
REMARK SMILES IDX 20 46 18 47 19 48 17 50 16 52 14 53 15 54 9 56 8 57 6 58
REMARK SMILES IDX 7 59 5 61 4 62 3 63 2 64 1 65 10 66 11 67 12 68 13 69 22 71
REMARK SMILES IDX 23 72 24 73 25 74 26 75 27 76 28 77
REMARK H PARENT 31 4 36 13 59 34 20 49 16 55 8 60 13 70 27 78 27 79 28 80
REMARK H PARENT 28 81
REMARK Flexibility Score:  259.900
ROOT
ATOM      1  O   UNL     1      -7.149   0.311   9.809  1.00  0.00    -0.273 OA
ATOM      2  N   UNL     1      -9.039  -0.726   9.045  1.00  0.00    -0.343 N 
ATOM      3  C   UNL     1      -8.375   0.289   9.700  1.00  0.00     0.243 C 
ATOM      4  H   UNL     1     -10.048  -0.703   8.962  1.00  0.00     0.164 HD
ENDROOT
BRANCH   2   5
ATOM      5  C   UNL     1      -8.312  -1.890   8.550  1.00  0.00     0.171 C 
ATOM      6  C   UNL     1      -5.503  -2.603   8.563  1.00  0.00     0.214 C 
ATOM      7  N   UNL     1      -6.047  -1.883   7.436  1.00  0.00    -0.303 N 
ATOM      8  C   UNL     1      -6.517  -3.506   9.247  1.00  0.00     0.057 C 
ATOM      9  C   UNL     1      -7.368  -1.467   7.388  1.00  0.00     0.247 C 
ATOM     10  C   UNL     1      -7.706  -2.688   9.702  1.00  0.00     0.040 C 
ATOM     11  O   UNL     1      -7.805  -0.776   6.458  1.00  0.00    -0.272 OA
BRANCH   6  12
ATOM     12  O   UNL     1      -4.993  -1.656   9.473  1.00  0.00    -0.373 OA
ATOM     13  H   UNL     1      -4.168  -2.033   9.848  1.00  0.00     0.213 HD
ENDBRANCH   6  12
BRANCH   7  14
ATOM     14  C   UNL     1      -5.097  -1.470   6.381  1.00  0.00     0.177 C 
BRANCH  14  15
ATOM     15  C   UNL     1      -5.445  -1.952   4.959  1.00  0.00     0.038 C 
BRANCH  15  16
ATOM     16  C   UNL     1      -5.538  -3.467   4.670  1.00  0.00    -0.015 C 
ATOM     17  C   UNL     1      -4.359  -4.248   5.259  1.00  0.00     0.007 C 
ATOM     18  C   UNL     1      -5.563  -3.705   3.155  1.00  0.00     0.007 C 
ENDBRANCH  15  16
ENDBRANCH  14  15
BRANCH  14  19
ATOM     19  C   UNL     1      -4.457  -0.085   6.738  1.00  0.00     0.245 C 
ATOM     20  O   UNL     1      -5.181   0.916   6.607  1.00  0.00    -0.272 OA
BRANCH  19  21
ATOM     21  N   UNL     1      -3.126   0.087   7.075  1.00  0.00    -0.332 N 
ATOM     22  C   UNL     1      -1.995  -0.182   6.204  1.00  0.00     0.147 C 
BRANCH  21  23
ATOM     23  C   UNL     1      -2.812   0.577   8.445  1.00  0.00     0.178 C 
BRANCH  23  24
ATOM     24  C   UNL     1      -1.560  -0.057   9.086  1.00  0.00     0.070 C 
BRANCH  24  25
ATOM     25  C   UNL     1      -1.751  -1.359   9.829  1.00  0.00    -0.045 A 
ATOM     26  C   UNL     1      -1.504  -2.586   9.200  1.00  0.00     0.004 A 
ATOM     27  C   UNL     1      -2.186  -1.356  11.163  1.00  0.00     0.004 A 
ATOM     28  C   UNL     1      -1.700  -3.786   9.888  1.00  0.00     0.000 A 
ATOM     29  C   UNL     1      -2.380  -2.555  11.849  1.00  0.00     0.000 A 
ATOM     30  C   UNL     1      -2.139  -3.770  11.210  1.00  0.00     0.000 A 
ENDBRANCH  24  25
ENDBRANCH  23  24
BRANCH  23  31
ATOM     31  C   UNL     1      -2.900   2.116   8.571  1.00  0.00     0.243 C 
ATOM     32  O   UNL     1      -2.482   2.900   7.722  1.00  0.00    -0.273 OA
ATOM     33  N   UNL     1      -3.327   2.546   9.815  1.00  0.00    -0.341 N 
ATOM     34  H   UNL     1      -3.658   1.846  10.484  1.00  0.00     0.164 HD
BRANCH  33  35
ATOM     35  C   UNL     1      -3.373   3.960  10.200  1.00  0.00     0.194 C 
BRANCH  35  36
ATOM     36  C   UNL     1      -2.202   4.407  11.119  1.00  0.00     0.017 C 
ATOM     37  C   UNL     1      -1.226   5.332  10.371  1.00  0.00     0.010 C 
ATOM     38  C   UNL     1      -1.387   3.232  11.673  1.00  0.00     0.010 C 
ENDBRANCH  35  36
BRANCH  35  39
ATOM     39  C   UNL     1      -4.755   4.378  10.776  1.00  0.00     0.329 C 
ATOM     40  O   UNL     1      -5.149   5.536  10.842  1.00  0.00    -0.250 OA
BRANCH  39  41
ATOM     41  O   UNL     1      -5.521   3.299  11.123  1.00  0.00    -0.458 OA
BRANCH  41  42
ATOM     42  C   UNL     1      -5.785   3.128  12.536  1.00  0.00     0.205 CG0
ATOM     43  C   UNL     1      -5.457   1.677  12.886  1.00  0.00     0.056 C 
ATOM     44  G   UNL     1      -7.260   3.481  12.808  1.00  0.00     0.000 G0
ENDBRANCH  41  42
ENDBRANCH  39  41
ENDBRANCH  35  39
ENDBRANCH  33  35
ENDBRANCH  23  31
ENDBRANCH  21  23
ENDBRANCH  19  21
ENDBRANCH  14  19
ENDBRANCH   7  14
ENDBRANCH   2   5
BRANCH   3  45
ATOM     45  C   UNL     1      -9.269   1.400  10.267  1.00  0.00     0.171 C 
BRANCH  45  46
ATOM     46  N   UNL     1      -8.577   1.898  11.449  1.00  0.00    -0.342 N 
ATOM     47  C   UNL     1      -8.086   3.176  11.530  1.00  0.00     0.247 C 
ATOM     48  O   UNL     1      -8.256   4.016  10.646  1.00  0.00    -0.273 OA
ATOM     49  H   UNL     1      -8.464   1.252  12.228  1.00  0.00     0.164 HD
BRANCH  47  50
ATOM     50  C   UNL     1      -7.279   3.483  12.800  1.00  0.00     0.212 CG0
ATOM     51  G   UNL     1      -5.813   3.091  12.528  1.00  0.00     0.000 G0
BRANCH  50  52
ATOM     52  N   UNL     1      -7.459   4.912  13.041  1.00  0.00    -0.339 N 
ATOM     53  C   UNL     1      -8.558   5.438  13.675  1.00  0.00     0.243 C 
ATOM     54  O   UNL     1      -9.505   4.747  14.043  1.00  0.00    -0.273 OA
ATOM     55  H   UNL     1      -6.761   5.547  12.661  1.00  0.00     0.164 HD
BRANCH  53  56
ATOM     56  C   UNL     1      -8.568   6.979  13.738  1.00  0.00     0.182 C 
BRANCH  56  57
ATOM     57  N   UNL     1      -8.550   7.561  12.392  1.00  0.00    -0.344 N 
ATOM     58  C   UNL     1      -9.694   7.746  11.655  1.00  0.00     0.220 C 
ATOM     59  O   UNL     1     -10.798   7.374  12.038  1.00  0.00    -0.275 OA
ATOM     60  H   UNL     1      -7.675   7.974  12.081  1.00  0.00     0.164 HD
BRANCH  58  61
ATOM     61  C   UNL     1      -9.445   8.417  10.317  1.00  0.00     0.100 C 
BRANCH  61  62
ATOM     62  C   UNL     1      -7.977   8.415   9.890  1.00  0.00     0.010 C 
BRANCH  62  63
ATOM     63  C   UNL     1      -7.764   8.283   8.376  1.00  0.00     0.000 C 
BRANCH  63  64
ATOM     64  C   UNL     1      -6.309   8.061   7.965  1.00  0.00    -0.003 C 
ATOM     65  C   UNL     1      -5.498   9.343   8.082  1.00  0.00     0.004 C 
ENDBRANCH  63  64
ENDBRANCH  62  63
ENDBRANCH  61  62
ENDBRANCH  58  61
ENDBRANCH  56  57
BRANCH  56  66
ATOM     66  C   UNL     1      -7.434   7.511  14.611  1.00  0.00     0.157 C 
BRANCH  66  67
ATOM     67  C   UNL     1      -7.649   7.161  16.056  1.00  0.00     0.305 C 
ATOM     68  O   UNL     1      -8.592   7.495  16.758  1.00  0.00    -0.252 OA
BRANCH  67  69
ATOM     69  O   UNL     1      -6.683   6.356  16.537  1.00  0.00    -0.481 OA
ATOM     70  H   UNL     1      -6.667   6.533  17.501  1.00  0.00     0.296 HD
ENDBRANCH  67  69
ENDBRANCH  66  67
ENDBRANCH  56  66
ENDBRANCH  53  56
ENDBRANCH  50  52
ENDBRANCH  47  50
ENDBRANCH  45  46
BRANCH  45  71
ATOM     71  C   UNL     1     -10.655   0.846  10.614  1.00  0.00     0.037 C 
BRANCH  71  72
ATOM     72  C   UNL     1     -11.461   1.814  11.483  1.00  0.00     0.026 C 
BRANCH  72  73
ATOM     73  C   UNL     1     -11.853   1.179  12.815  1.00  0.00     0.146 C 
BRANCH  73  74
ATOM     74  N   UNL     1     -10.626   0.795  13.505  1.00  0.00    -0.254 NA
ATOM     75  C   UNL     1     -10.292   1.461  14.549  1.00  0.00     0.185 C 
ATOM     76  N   UNL     1      -9.169   1.131  15.206  1.00  0.00    -0.370 N 
ATOM     77  N   UNL     1     -10.923   2.499  15.126  1.00  0.00    -0.370 N 
ATOM     78  H   UNL     1      -8.629   0.364  14.833  1.00  0.00     0.159 HD
ATOM     79  H   UNL     1      -8.770   1.693  15.938  1.00  0.00     0.159 HD
ATOM     80  H   UNL     1     -11.785   2.854  14.742  1.00  0.00     0.159 HD
ATOM     81  H   UNL     1     -10.626   2.870  16.014  1.00  0.00     0.159 HD
ENDBRANCH  73  74
ENDBRANCH  72  73
ENDBRANCH  71  72
ENDBRANCH  45  71
ENDBRANCH   3  45
TORSDOF 20
ENDMDL
MODEL 26
REMARK VINA RESULT:    -5.919      3.058      8.794
REMARK INTER + INTRA:         -24.636
REMARK INTER:                 -18.275
REMARK INTRA:                  -6.360
REMARK UNBOUND:                -7.644
REMARK SMILES CCCCCC(=O)N[C@H](CC(=O)O)C(=O)N[C@H]1C(=O)N[C@H](CCCN=C(N)N)C(=O)N[C@@H]2CC[C@H](O)N(C2=O)[C@@H](CC(C)C)C(=O)N(C)[C@@H](Cc2ccccc2)C(=O)N[C@H](C(C)C)C(=O)O[C@@H]1C
REMARK SMILES IDX 30 1 31 2 29 3 32 5 35 6 37 7 34 8 38 9 33 10 39 11 36 12
REMARK SMILES IDX 40 14 41 15 42 16 43 17 44 18 45 19 46 20 47 21 48 22 49 23
REMARK SMILES IDX 50 24 51 25 52 26 56 27 53 28 55 29 54 30 57 31 58 32 59 33
REMARK SMILES IDX 60 35 61 36 62 37 63 38 64 39 65 40 66 41 67 42 68 43 21 45
REMARK SMILES IDX 20 46 18 47 19 48 17 50 16 52 14 53 15 54 9 56 8 57 6 58
REMARK SMILES IDX 7 59 5 61 4 62 3 63 2 64 1 65 10 66 11 67 12 68 13 69 22 71
REMARK SMILES IDX 23 72 24 73 25 74 26 75 27 76 28 77
REMARK H PARENT 31 4 36 13 59 34 20 49 16 55 8 60 13 70 27 78 27 79 28 80
REMARK H PARENT 28 81
REMARK Flexibility Score:  259.900
ROOT
ATOM      1  O   UNL     1      -4.284   2.643  12.420  1.00  0.00    -0.273 OA
ATOM      2  N   UNL     1      -3.493   2.383  10.290  1.00  0.00    -0.343 N 
ATOM      3  C   UNL     1      -3.876   1.903  11.524  1.00  0.00     0.243 C 
ATOM      4  H   UNL     1      -3.177   1.743   9.572  1.00  0.00     0.164 HD
ENDROOT
BRANCH   2   5
ATOM      5  C   UNL     1      -3.443   3.818  10.034  1.00  0.00     0.171 C 
ATOM      6  C   UNL     1      -4.228   6.122  11.609  1.00  0.00     0.214 C 
ATOM      7  N   UNL     1      -5.180   5.523  10.704  1.00  0.00    -0.303 N 
ATOM      8  C   UNL     1      -2.786   5.973  11.150  1.00  0.00     0.057 C 
ATOM      9  C   UNL     1      -4.888   4.391   9.960  1.00  0.00     0.247 C 
ATOM     10  C   UNL     1      -2.454   4.508  10.972  1.00  0.00     0.040 C 
ATOM     11  O   UNL     1      -5.737   3.833   9.253  1.00  0.00    -0.272 OA
BRANCH   6  12
ATOM     12  O   UNL     1      -4.405   5.530  12.875  1.00  0.00    -0.373 OA
ATOM     13  H   UNL     1      -5.237   5.893  13.248  1.00  0.00     0.213 HD
ENDBRANCH   6  12
BRANCH   7  14
ATOM     14  C   UNL     1      -6.549   6.081  10.706  1.00  0.00     0.177 C 
BRANCH  14  15
ATOM     15  C   UNL     1      -7.067   6.554   9.333  1.00  0.00     0.038 C 
BRANCH  15  16
ATOM     16  C   UNL     1      -6.828   8.015   8.893  1.00  0.00    -0.015 C 
ATOM     17  C   UNL     1      -7.766   8.445   7.760  1.00  0.00     0.007 C 
ATOM     18  C   UNL     1      -5.382   8.181   8.408  1.00  0.00     0.007 C 
ENDBRANCH  15  16
ENDBRANCH  14  15
BRANCH  14  19
ATOM     19  C   UNL     1      -7.417   5.388  11.813  1.00  0.00     0.245 C 
ATOM     20  O   UNL     1      -7.222   4.175  11.999  1.00  0.00    -0.272 OA
BRANCH  19  21
ATOM     21  N   UNL     1      -8.442   6.019  12.496  1.00  0.00    -0.332 N 
ATOM     22  C   UNL     1      -8.967   7.339  12.197  1.00  0.00     0.147 C 
BRANCH  21  23
ATOM     23  C   UNL     1      -9.059   5.298  13.644  1.00  0.00     0.178 C 
BRANCH  23  24
ATOM     24  C   UNL     1      -9.615   6.211  14.755  1.00  0.00     0.070 C 
BRANCH  24  25
ATOM     25  C   UNL     1      -8.719   6.475  15.942  1.00  0.00    -0.045 A 
ATOM     26  C   UNL     1      -7.352   6.174  15.890  1.00  0.00     0.004 A 
ATOM     27  C   UNL     1      -9.247   7.024  17.120  1.00  0.00     0.004 A 
ATOM     28  C   UNL     1      -6.533   6.405  16.997  1.00  0.00     0.000 A 
ATOM     29  C   UNL     1      -8.427   7.255  18.226  1.00  0.00     0.000 A 
ATOM     30  C   UNL     1      -7.071   6.942  18.164  1.00  0.00     0.000 A 
ENDBRANCH  24  25
ENDBRANCH  23  24
BRANCH  23  31
ATOM     31  C   UNL     1     -10.008   4.159  13.201  1.00  0.00     0.243 C 
ATOM     32  O   UNL     1     -11.071   4.339  12.613  1.00  0.00    -0.273 OA
ATOM     33  N   UNL     1      -9.644   2.915  13.690  1.00  0.00    -0.341 N 
ATOM     34  H   UNL     1      -8.749   2.828  14.178  1.00  0.00     0.164 HD
BRANCH  33  35
ATOM     35  C   UNL     1     -10.459   1.712  13.498  1.00  0.00     0.194 C 
BRANCH  35  36
ATOM     36  C   UNL     1     -11.502   1.465  14.624  1.00  0.00     0.017 C 
ATOM     37  C   UNL     1     -12.906   1.926  14.197  1.00  0.00     0.010 C 
ATOM     38  C   UNL     1     -11.160   2.187  15.933  1.00  0.00     0.010 C 
ENDBRANCH  35  36
BRANCH  35  39
ATOM     39  C   UNL     1      -9.600   0.448  13.214  1.00  0.00     0.329 C 
ATOM     40  O   UNL     1      -9.192  -0.313  14.083  1.00  0.00    -0.250 OA
BRANCH  39  41
ATOM     41  O   UNL     1      -9.422   0.230  11.876  1.00  0.00    -0.458 OA
BRANCH  41  42
ATOM     42  C   UNL     1      -8.156   0.656  11.320  1.00  0.00     0.205 CG0
ATOM     43  C   UNL     1      -8.461   1.674  10.223  1.00  0.00     0.056 C 
ATOM     44  G   UNL     1      -7.413  -0.584  10.783  1.00  0.00     0.000 G0
ENDBRANCH  41  42
ENDBRANCH  39  41
ENDBRANCH  35  39
ENDBRANCH  33  35
ENDBRANCH  23  31
ENDBRANCH  21  23
ENDBRANCH  19  21
ENDBRANCH  14  19
ENDBRANCH   7  14
ENDBRANCH   2   5
BRANCH   3  45
ATOM     45  C   UNL     1      -3.780   0.381  11.696  1.00  0.00     0.171 C 
BRANCH  45  46
ATOM     46  N   UNL     1      -5.154  -0.103  11.701  1.00  0.00    -0.342 N 
ATOM     47  C   UNL     1      -5.908  -0.189  10.558  1.00  0.00     0.247 C 
ATOM     48  O   UNL     1      -5.458   0.065   9.440  1.00  0.00    -0.273 OA
ATOM     49  H   UNL     1      -5.548  -0.377  12.599  1.00  0.00     0.164 HD
BRANCH  47  50
ATOM     50  C   UNL     1      -7.371  -0.601  10.774  1.00  0.00     0.212 CG0
ATOM     51  G   UNL     1      -8.124   0.624  11.328  1.00  0.00     0.000 G0
BRANCH  50  52
ATOM     52  N   UNL     1      -7.852  -1.030   9.463  1.00  0.00    -0.339 N 
ATOM     53  C   UNL     1      -7.996  -2.348   9.105  1.00  0.00     0.243 C 
ATOM     54  O   UNL     1      -7.679  -3.274   9.847  1.00  0.00    -0.273 OA
ATOM     55  H   UNL     1      -8.027  -0.310   8.765  1.00  0.00     0.164 HD
BRANCH  53  56
ATOM     56  C   UNL     1      -8.437  -2.557   7.642  1.00  0.00     0.182 C 
BRANCH  56  57
ATOM     57  N   UNL     1      -7.630  -1.743   6.728  1.00  0.00    -0.344 N 
ATOM     58  C   UNL     1      -6.295  -1.985   6.511  1.00  0.00     0.220 C 
ATOM     59  O   UNL     1      -5.670  -2.848   7.118  1.00  0.00    -0.275 OA
ATOM     60  H   UNL     1      -8.128  -1.088   6.132  1.00  0.00     0.164 HD
BRANCH  58  61
ATOM     61  C   UNL     1      -5.675  -1.058   5.482  1.00  0.00     0.100 C 
BRANCH  61  62
ATOM     62  C   UNL     1      -4.957   0.146   6.092  1.00  0.00     0.010 C 
BRANCH  62  63
ATOM     63  C   UNL     1      -5.630   1.493   5.798  1.00  0.00     0.000 C 
BRANCH  63  64
ATOM     64  C   UNL     1      -4.835   2.399   4.859  1.00  0.00    -0.003 C 
ATOM     65  C   UNL     1      -3.494   2.787   5.465  1.00  0.00     0.004 C 
ENDBRANCH  63  64
ENDBRANCH  62  63
ENDBRANCH  61  62
ENDBRANCH  58  61
ENDBRANCH  56  57
BRANCH  56  66
ATOM     66  C   UNL     1      -9.934  -2.307   7.467  1.00  0.00     0.157 C 
BRANCH  66  67
ATOM     67  C   UNL     1     -10.369  -1.072   8.203  1.00  0.00     0.305 C 
ATOM     68  O   UNL     1     -11.020  -1.025   9.235  1.00  0.00    -0.252 OA
BRANCH  67  69
ATOM     69  O   UNL     1      -9.913   0.055   7.624  1.00  0.00    -0.481 OA
ATOM     70  H   UNL     1     -10.254   0.781   8.188  1.00  0.00     0.296 HD
ENDBRANCH  67  69
ENDBRANCH  66  67
ENDBRANCH  56  66
ENDBRANCH  53  56
ENDBRANCH  50  52
ENDBRANCH  47  50
ENDBRANCH  45  46
BRANCH  45  71
ATOM     71  C   UNL     1      -3.054   0.037  13.002  1.00  0.00     0.037 C 
BRANCH  71  72
ATOM     72  C   UNL     1      -2.496  -1.389  12.991  1.00  0.00     0.026 C 
BRANCH  72  73
ATOM     73  C   UNL     1      -2.392  -1.939  11.571  1.00  0.00     0.146 C 
BRANCH  73  74
ATOM     74  N   UNL     1      -3.418  -2.965  11.412  1.00  0.00    -0.254 NA
ATOM     75  C   UNL     1      -3.914  -3.141  10.243  1.00  0.00     0.185 C 
ATOM     76  N   UNL     1      -4.859  -4.079  10.066  1.00  0.00    -0.370 N 
ATOM     77  N   UNL     1      -3.622  -2.503   9.097  1.00  0.00    -0.370 N 
ATOM     78  H   UNL     1      -5.143  -4.602  10.882  1.00  0.00     0.159 HD
ATOM     79  H   UNL     1      -5.392  -4.174   9.219  1.00  0.00     0.159 HD
ATOM     80  H   UNL     1      -2.925  -1.774   9.078  1.00  0.00     0.159 HD
ATOM     81  H   UNL     1      -3.995  -2.808   8.213  1.00  0.00     0.159 HD
ENDBRANCH  73  74
ENDBRANCH  72  73
ENDBRANCH  71  72
ENDBRANCH  45  71
ENDBRANCH   3  45
TORSDOF 20
ENDMDL
MODEL 27
REMARK VINA RESULT:    -5.908      2.972      5.503
REMARK INTER + INTRA:         -24.603
REMARK INTER:                 -19.545
REMARK INTRA:                  -5.058
REMARK UNBOUND:                -7.644
REMARK SMILES CCCCCC(=O)N[C@H](CC(=O)O)C(=O)N[C@H]1C(=O)N[C@H](CCCN=C(N)N)C(=O)N[C@@H]2CC[C@H](O)N(C2=O)[C@@H](CC(C)C)C(=O)N(C)[C@@H](Cc2ccccc2)C(=O)N[C@H](C(C)C)C(=O)O[C@@H]1C
REMARK SMILES IDX 30 1 31 2 29 3 32 5 35 6 37 7 34 8 38 9 33 10 39 11 36 12
REMARK SMILES IDX 40 14 41 15 42 16 43 17 44 18 45 19 46 20 47 21 48 22 49 23
REMARK SMILES IDX 50 24 51 25 52 26 56 27 53 28 55 29 54 30 57 31 58 32 59 33
REMARK SMILES IDX 60 35 61 36 62 37 63 38 64 39 65 40 66 41 67 42 68 43 21 45
REMARK SMILES IDX 20 46 18 47 19 48 17 50 16 52 14 53 15 54 9 56 8 57 6 58
REMARK SMILES IDX 7 59 5 61 4 62 3 63 2 64 1 65 10 66 11 67 12 68 13 69 22 71
REMARK SMILES IDX 23 72 24 73 25 74 26 75 27 76 28 77
REMARK H PARENT 31 4 36 13 59 34 20 49 16 55 8 60 13 70 27 78 27 79 28 80
REMARK H PARENT 28 81
REMARK Flexibility Score:  259.900
ROOT
ATOM      1  O   UNL     1     -11.945   1.548   9.943  1.00  0.00    -0.273 OA
ATOM      2  N   UNL     1      -9.879   0.711  10.458  1.00  0.00    -0.343 N 
ATOM      3  C   UNL     1     -11.022   1.424  10.750  1.00  0.00     0.243 C 
ATOM      4  H   UNL     1      -9.147   0.619  11.151  1.00  0.00     0.164 HD
ENDROOT
BRANCH   2   5
ATOM      5  C   UNL     1      -9.664   0.167   9.122  1.00  0.00     0.171 C 
ATOM      6  C   UNL     1      -8.281  -2.192   8.161  1.00  0.00     0.214 C 
ATOM      7  N   UNL     1      -7.562  -0.944   8.274  1.00  0.00    -0.303 N 
ATOM      8  C   UNL     1      -9.761  -2.009   7.866  1.00  0.00     0.057 C 
ATOM      9  C   UNL     1      -8.148   0.207   8.774  1.00  0.00     0.247 C 
ATOM     10  C   UNL     1     -10.397  -1.161   8.946  1.00  0.00     0.040 C 
ATOM     11  O   UNL     1      -7.503   1.249   8.949  1.00  0.00    -0.272 OA
BRANCH   6  12
ATOM     12  O   UNL     1      -8.102  -2.903   9.364  1.00  0.00    -0.373 OA
ATOM     13  H   UNL     1      -8.949  -2.851   9.857  1.00  0.00     0.213 HD
ENDBRANCH   6  12
BRANCH   7  14
ATOM     14  C   UNL     1      -6.115  -0.974   7.972  1.00  0.00     0.177 C 
BRANCH  14  15
ATOM     15  C   UNL     1      -5.348  -2.177   8.553  1.00  0.00     0.038 C 
BRANCH  15  16
ATOM     16  C   UNL     1      -4.043  -2.649   7.874  1.00  0.00    -0.015 C 
ATOM     17  C   UNL     1      -3.632  -4.058   8.311  1.00  0.00     0.007 C 
ATOM     18  C   UNL     1      -2.901  -1.686   8.220  1.00  0.00     0.007 C 
ENDBRANCH  15  16
ENDBRANCH  14  15
BRANCH  14  19
ATOM     19  C   UNL     1      -5.837  -0.307   6.581  1.00  0.00     0.245 C 
ATOM     20  O   UNL     1      -5.816  -1.061   5.593  1.00  0.00    -0.272 OA
BRANCH  19  21
ATOM     21  N   UNL     1      -5.510   1.027   6.417  1.00  0.00    -0.332 N 
ATOM     22  C   UNL     1      -6.361   2.035   5.811  1.00  0.00     0.147 C 
BRANCH  21  23
ATOM     23  C   UNL     1      -4.171   1.478   6.887  1.00  0.00     0.178 C 
BRANCH  23  24
ATOM     24  C   UNL     1      -3.309   2.170   5.811  1.00  0.00     0.070 C 
BRANCH  24  25
ATOM     25  C   UNL     1      -1.809   2.059   5.955  1.00  0.00    -0.045 A 
ATOM     26  C   UNL     1      -1.023   3.196   6.182  1.00  0.00     0.004 A 
ATOM     27  C   UNL     1      -1.179   0.809   5.857  1.00  0.00     0.004 A 
ATOM     28  C   UNL     1       0.365   3.087   6.296  1.00  0.00     0.000 A 
ATOM     29  C   UNL     1       0.207   0.701   5.973  1.00  0.00     0.000 A 
ATOM     30  C   UNL     1       0.979   1.841   6.190  1.00  0.00     0.000 A 
ENDBRANCH  24  25
ENDBRANCH  23  24
BRANCH  23  31
ATOM     31  C   UNL     1      -4.224   2.209   8.249  1.00  0.00     0.243 C 
ATOM     32  O   UNL     1      -4.324   3.427   8.372  1.00  0.00    -0.273 OA
ATOM     33  N   UNL     1      -3.961   1.384   9.330  1.00  0.00    -0.341 N 
ATOM     34  H   UNL     1      -3.881   0.378   9.164  1.00  0.00     0.164 HD
BRANCH  33  35
ATOM     35  C   UNL     1      -3.842   1.881  10.704  1.00  0.00     0.194 C 
BRANCH  35  36
ATOM     36  C   UNL     1      -2.456   1.615  11.357  1.00  0.00     0.017 C 
ATOM     37  C   UNL     1      -1.766   2.929  11.760  1.00  0.00     0.010 C 
ATOM     38  C   UNL     1      -1.492   0.852  10.440  1.00  0.00     0.010 C 
ENDBRANCH  35  36
BRANCH  35  39
ATOM     39  C   UNL     1      -5.012   1.411  11.613  1.00  0.00     0.329 C 
ATOM     40  O   UNL     1      -5.356   0.242  11.739  1.00  0.00    -0.250 OA
BRANCH  39  41
ATOM     41  O   UNL     1      -5.561   2.440  12.326  1.00  0.00    -0.458 OA
BRANCH  41  42
ATOM     42  C   UNL     1      -6.926   2.792  11.996  1.00  0.00     0.205 CG0
ATOM     43  C   UNL     1      -6.870   3.816  10.864  1.00  0.00     0.056 C 
ATOM     44  G   UNL     1      -7.610   3.349  13.261  1.00  0.00     0.000 G0
ENDBRANCH  41  42
ENDBRANCH  39  41
ENDBRANCH  35  39
ENDBRANCH  33  35
ENDBRANCH  23  31
ENDBRANCH  21  23
ENDBRANCH  19  21
ENDBRANCH  14  19
ENDBRANCH   7  14
ENDBRANCH   2   5
BRANCH   3  45
ATOM     45  C   UNL     1     -11.075   2.035  12.156  1.00  0.00     0.171 C 
BRANCH  45  46
ATOM     46  N   UNL     1      -9.687   2.176  12.576  1.00  0.00    -0.342 N 
ATOM     47  C   UNL     1      -9.151   3.382  12.953  1.00  0.00     0.247 C 
ATOM     48  O   UNL     1      -9.818   4.414  13.033  1.00  0.00    -0.273 OA
ATOM     49  H   UNL     1      -9.113   1.335  12.579  1.00  0.00     0.164 HD
BRANCH  47  50
ATOM     50  C   UNL     1      -7.643   3.361  13.243  1.00  0.00     0.212 CG0
ATOM     51  G   UNL     1      -6.938   2.766  12.008  1.00  0.00     0.000 G0
BRANCH  50  52
ATOM     52  N   UNL     1      -7.277   4.750  13.504  1.00  0.00    -0.339 N 
ATOM     53  C   UNL     1      -7.144   5.273  14.767  1.00  0.00     0.243 C 
ATOM     54  O   UNL     1      -7.377   4.620  15.781  1.00  0.00    -0.273 OA
ATOM     55  H   UNL     1      -7.179   5.372  12.703  1.00  0.00     0.164 HD
BRANCH  53  56
ATOM     56  C   UNL     1      -6.836   6.783  14.792  1.00  0.00     0.182 C 
BRANCH  56  57
ATOM     57  N   UNL     1      -6.947   7.366  13.451  1.00  0.00    -0.344 N 
ATOM     58  C   UNL     1      -7.962   8.223  13.102  1.00  0.00     0.220 C 
ATOM     59  O   UNL     1      -8.884   8.503  13.860  1.00  0.00    -0.275 OA
ATOM     60  H   UNL     1      -6.153   7.241  12.829  1.00  0.00     0.164 HD
BRANCH  58  61
ATOM     61  C   UNL     1      -7.844   8.748  11.683  1.00  0.00     0.100 C 
BRANCH  61  62
ATOM     62  C   UNL     1      -8.447   7.819  10.630  1.00  0.00     0.010 C 
BRANCH  62  63
ATOM     63  C   UNL     1      -7.415   7.186   9.687  1.00  0.00     0.000 C 
BRANCH  63  64
ATOM     64  C   UNL     1      -6.440   8.184   9.065  1.00  0.00    -0.003 C 
ATOM     65  C   UNL     1      -7.148   9.123   8.099  1.00  0.00     0.004 C 
ENDBRANCH  63  64
ENDBRANCH  62  63
ENDBRANCH  61  62
ENDBRANCH  58  61
ENDBRANCH  56  57
BRANCH  56  66
ATOM     66  C   UNL     1      -5.480   7.068  15.435  1.00  0.00     0.157 C 
BRANCH  66  67
ATOM     67  C   UNL     1      -5.634   7.498  16.865  1.00  0.00     0.305 C 
ATOM     68  O   UNL     1      -4.795   7.419  17.749  1.00  0.00    -0.252 OA
BRANCH  67  69
ATOM     69  O   UNL     1      -6.834   8.061  17.103  1.00  0.00    -0.481 OA
ATOM     70  H   UNL     1      -6.978   8.672  16.349  1.00  0.00     0.296 HD
ENDBRANCH  67  69
ENDBRANCH  66  67
ENDBRANCH  56  66
ENDBRANCH  53  56
ENDBRANCH  50  52
ENDBRANCH  47  50
ENDBRANCH  45  46
BRANCH  45  71
ATOM     71  C   UNL     1     -11.863   1.125  13.104  1.00  0.00     0.037 C 
BRANCH  71  72
ATOM     72  C   UNL     1     -12.340   1.869  14.354  1.00  0.00     0.026 C 
BRANCH  72  73
ATOM     73  C   UNL     1     -11.895   1.161  15.632  1.00  0.00     0.146 C 
BRANCH  73  74
ATOM     74  N   UNL     1     -12.319  -0.233  15.541  1.00  0.00    -0.254 NA
ATOM     75  C   UNL     1     -13.167  -0.658  16.404  1.00  0.00     0.185 C 
ATOM     76  N   UNL     1     -13.577  -1.936  16.345  1.00  0.00    -0.370 N 
ATOM     77  N   UNL     1     -13.747   0.007  17.418  1.00  0.00    -0.370 N 
ATOM     78  H   UNL     1     -13.182  -2.510  15.614  1.00  0.00     0.159 HD
ATOM     79  H   UNL     1     -14.121  -2.376  17.066  1.00  0.00     0.159 HD
ATOM     80  H   UNL     1     -13.536   0.980  17.581  1.00  0.00     0.159 HD
ATOM     81  H   UNL     1     -14.489  -0.402  17.962  1.00  0.00     0.159 HD
ENDBRANCH  73  74
ENDBRANCH  72  73
ENDBRANCH  71  72
ENDBRANCH  45  71
ENDBRANCH   3  45
TORSDOF 20
ENDMDL
MODEL 28
REMARK VINA RESULT:    -5.903      2.890      8.255
REMARK INTER + INTRA:         -24.591
REMARK INTER:                 -19.218
REMARK INTRA:                  -5.373
REMARK UNBOUND:                -7.644
REMARK SMILES CCCCCC(=O)N[C@H](CC(=O)O)C(=O)N[C@H]1C(=O)N[C@H](CCCN=C(N)N)C(=O)N[C@@H]2CC[C@H](O)N(C2=O)[C@@H](CC(C)C)C(=O)N(C)[C@@H](Cc2ccccc2)C(=O)N[C@H](C(C)C)C(=O)O[C@@H]1C
REMARK SMILES IDX 30 1 31 2 29 3 32 5 35 6 37 7 34 8 38 9 33 10 39 11 36 12
REMARK SMILES IDX 40 14 41 15 42 16 43 17 44 18 45 19 46 20 47 21 48 22 49 23
REMARK SMILES IDX 50 24 51 25 52 26 56 27 53 28 55 29 54 30 57 31 58 32 59 33
REMARK SMILES IDX 60 35 61 36 62 37 63 38 64 39 65 40 66 41 67 42 68 43 21 45
REMARK SMILES IDX 20 46 18 47 19 48 17 50 16 52 14 53 15 54 9 56 8 57 6 58
REMARK SMILES IDX 7 59 5 61 4 62 3 63 2 64 1 65 10 66 11 67 12 68 13 69 22 71
REMARK SMILES IDX 23 72 24 73 25 74 26 75 27 76 28 77
REMARK H PARENT 31 4 36 13 59 34 20 49 16 55 8 60 13 70 27 78 27 79 28 80
REMARK H PARENT 28 81
REMARK Flexibility Score:  259.900
ROOT
ATOM      1  O   UNL     1      -6.023   2.247   5.490  1.00  0.00    -0.273 OA
ATOM      2  N   UNL     1      -5.360   2.296   7.678  1.00  0.00    -0.343 N 
ATOM      3  C   UNL     1      -5.804   1.650   6.544  1.00  0.00     0.243 C 
ATOM      4  H   UNL     1      -5.175   1.770   8.524  1.00  0.00     0.164 HD
ENDROOT
BRANCH   2   5
ATOM      5  C   UNL     1      -5.244   3.750   7.707  1.00  0.00     0.171 C 
ATOM      6  C   UNL     1      -4.053   5.588   9.607  1.00  0.00     0.214 C 
ATOM      7  N   UNL     1      -5.446   5.231   9.742  1.00  0.00    -0.303 N 
ATOM      8  C   UNL     1      -3.562   5.561   8.168  1.00  0.00     0.057 C 
ATOM      9  C   UNL     1      -6.064   4.320   8.900  1.00  0.00     0.247 C 
ATOM     10  C   UNL     1      -3.786   4.187   7.575  1.00  0.00     0.040 C 
ATOM     11  O   UNL     1      -7.234   3.954   9.076  1.00  0.00    -0.272 OA
BRANCH   6  12
ATOM     12  O   UNL     1      -3.302   4.699  10.400  1.00  0.00    -0.373 OA
ATOM     13  H   UNL     1      -2.919   5.223  11.136  1.00  0.00     0.213 HD
ENDBRANCH   6  12
BRANCH   7  14
ATOM     14  C   UNL     1      -6.165   5.767  10.917  1.00  0.00     0.177 C 
BRANCH  14  15
ATOM     15  C   UNL     1      -7.507   6.457  10.606  1.00  0.00     0.038 C 
BRANCH  15  16
ATOM     16  C   UNL     1      -7.750   7.903  11.092  1.00  0.00    -0.015 C 
ATOM     17  C   UNL     1      -8.936   8.004  12.056  1.00  0.00     0.007 C 
ATOM     18  C   UNL     1      -8.029   8.814   9.890  1.00  0.00     0.007 C 
ENDBRANCH  15  16
ENDBRANCH  14  15
BRANCH  14  19
ATOM     19  C   UNL     1      -5.866   4.892  12.183  1.00  0.00     0.245 C 
ATOM     20  O   UNL     1      -5.086   5.372  13.023  1.00  0.00    -0.272 OA
BRANCH  19  21
ATOM     21  N   UNL     1      -6.327   3.599  12.352  1.00  0.00    -0.332 N 
ATOM     22  C   UNL     1      -5.571   2.391  12.070  1.00  0.00     0.147 C 
BRANCH  21  23
ATOM     23  C   UNL     1      -7.716   3.415  12.855  1.00  0.00     0.178 C 
BRANCH  23  24
ATOM     24  C   UNL     1      -8.401   4.707  13.345  1.00  0.00     0.070 C 
BRANCH  24  25
ATOM     25  C   UNL     1      -8.380   4.976  14.832  1.00  0.00    -0.045 A 
ATOM     26  C   UNL     1      -9.165   4.219  15.710  1.00  0.00     0.004 A 
ATOM     27  C   UNL     1      -7.572   5.998  15.354  1.00  0.00     0.004 A 
ATOM     28  C   UNL     1      -9.153   4.485  17.081  1.00  0.00     0.000 A 
ATOM     29  C   UNL     1      -7.559   6.262  16.725  1.00  0.00     0.000 A 
ATOM     30  C   UNL     1      -8.352   5.507  17.587  1.00  0.00     0.000 A 
ENDBRANCH  24  25
ENDBRANCH  23  24
BRANCH  23  31
ATOM     31  C   UNL     1      -8.582   2.530  11.927  1.00  0.00     0.243 C 
ATOM     32  O   UNL     1      -9.150   2.942  10.919  1.00  0.00    -0.273 OA
ATOM     33  N   UNL     1      -8.816   1.262  12.433  1.00  0.00    -0.341 N 
ATOM     34  H   UNL     1      -8.318   0.978  13.280  1.00  0.00     0.164 HD
BRANCH  33  35
ATOM     35  C   UNL     1      -9.705   0.295  11.783  1.00  0.00     0.194 C 
BRANCH  35  36
ATOM     36  C   UNL     1     -11.114   0.192  12.432  1.00  0.00     0.017 C 
ATOM     37  C   UNL     1     -12.132   1.089  11.704  1.00  0.00     0.010 C 
ATOM     38  C   UNL     1     -11.129   0.590  13.913  1.00  0.00     0.010 C 
ENDBRANCH  35  36
BRANCH  35  39
ATOM     39  C   UNL     1      -9.044  -1.101  11.608  1.00  0.00     0.329 C 
ATOM     40  O   UNL     1      -9.637  -2.096  11.210  1.00  0.00    -0.250 OA
BRANCH  39  41
ATOM     41  O   UNL     1      -7.701  -1.075  11.865  1.00  0.00    -0.458 OA
BRANCH  41  42
ATOM     42  C   UNL     1      -6.884  -1.993  11.098  1.00  0.00     0.205 CG0
ATOM     43  C   UNL     1      -6.247  -2.968  12.087  1.00  0.00     0.056 C 
ATOM     44  G   UNL     1      -5.836  -1.181  10.312  1.00  0.00     0.000 G0
ENDBRANCH  41  42
ENDBRANCH  39  41
ENDBRANCH  35  39
ENDBRANCH  33  35
ENDBRANCH  23  31
ENDBRANCH  21  23
ENDBRANCH  19  21
ENDBRANCH  14  19
ENDBRANCH   7  14
ENDBRANCH   2   5
BRANCH   3  45
ATOM     45  C   UNL     1      -5.985   0.133   6.681  1.00  0.00     0.171 C 
BRANCH  45  46
ATOM     46  N   UNL     1      -5.597  -0.189   8.048  1.00  0.00    -0.342 N 
ATOM     47  C   UNL     1      -6.320  -1.049   8.835  1.00  0.00     0.247 C 
ATOM     48  O   UNL     1      -7.303  -1.666   8.423  1.00  0.00    -0.273 OA
ATOM     49  H   UNL     1      -4.756   0.257   8.411  1.00  0.00     0.164 HD
BRANCH  47  50
ATOM     50  C   UNL     1      -5.831  -1.169  10.286  1.00  0.00     0.212 CG0
ATOM     51  G   UNL     1      -6.879  -1.988  11.066  1.00  0.00     0.000 G0
BRANCH  50  52
ATOM     52  N   UNL     1      -4.529  -1.826  10.205  1.00  0.00    -0.339 N 
ATOM     53  C   UNL     1      -3.375  -1.280  10.711  1.00  0.00     0.243 C 
ATOM     54  O   UNL     1      -3.340  -0.166  11.227  1.00  0.00    -0.273 OA
ATOM     55  H   UNL     1      -4.473  -2.702   9.690  1.00  0.00     0.164 HD
BRANCH  53  56
ATOM     56  C   UNL     1      -2.110  -2.116  10.431  1.00  0.00     0.182 C 
BRANCH  56  57
ATOM     57  N   UNL     1      -1.792  -2.126   8.999  1.00  0.00    -0.344 N 
ATOM     58  C   UNL     1      -0.857  -1.285   8.447  1.00  0.00     0.220 C 
ATOM     59  O   UNL     1      -0.278  -0.420   9.095  1.00  0.00    -0.275 OA
ATOM     60  H   UNL     1      -2.173  -2.891   8.448  1.00  0.00     0.164 HD
BRANCH  58  61
ATOM     61  C   UNL     1      -0.649  -1.510   6.960  1.00  0.00     0.100 C 
BRANCH  61  62
ATOM     62  C   UNL     1      -0.210  -0.257   6.203  1.00  0.00     0.010 C 
BRANCH  62  63
ATOM     63  C   UNL     1      -0.363   1.045   7.001  1.00  0.00     0.000 C 
BRANCH  63  64
ATOM     64  C   UNL     1      -1.057   2.171   6.237  1.00  0.00    -0.003 C 
ATOM     65  C   UNL     1      -2.284   1.663   5.492  1.00  0.00     0.004 C 
ENDBRANCH  63  64
ENDBRANCH  62  63
ENDBRANCH  61  62
ENDBRANCH  58  61
ENDBRANCH  56  57
BRANCH  56  66
ATOM     66  C   UNL     1      -2.232  -3.527  11.004  1.00  0.00     0.157 C 
BRANCH  66  67
ATOM     67  C   UNL     1      -2.423  -4.542   9.914  1.00  0.00     0.305 C 
ATOM     68  O   UNL     1      -3.373  -4.629   9.151  1.00  0.00    -0.252 OA
BRANCH  67  69
ATOM     69  O   UNL     1      -1.372  -5.377   9.803  1.00  0.00    -0.481 OA
ATOM     70  H   UNL     1      -1.685  -6.225  10.182  1.00  0.00     0.296 HD
ENDBRANCH  67  69
ENDBRANCH  66  67
ENDBRANCH  56  66
ENDBRANCH  53  56
ENDBRANCH  50  52
ENDBRANCH  47  50
ENDBRANCH  45  46
BRANCH  45  71
ATOM     71  C   UNL     1      -5.112  -0.603   5.658  1.00  0.00     0.037 C 
BRANCH  71  72
ATOM     72  C   UNL     1      -4.193  -1.633   6.320  1.00  0.00     0.026 C 
BRANCH  72  73
ATOM     73  C   UNL     1      -4.448  -3.039   5.783  1.00  0.00     0.146 C 
BRANCH  73  74
ATOM     74  N   UNL     1      -4.653  -2.937   4.341  1.00  0.00    -0.254 NA
ATOM     75  C   UNL     1      -5.301  -3.879   3.761  1.00  0.00     0.185 C 
ATOM     76  N   UNL     1      -5.507  -3.813   2.435  1.00  0.00    -0.370 N 
ATOM     77  N   UNL     1      -5.841  -4.988   4.295  1.00  0.00    -0.370 N 
ATOM     78  H   UNL     1      -5.126  -3.011   1.952  1.00  0.00     0.159 HD
ATOM     79  H   UNL     1      -5.875  -4.575   1.893  1.00  0.00     0.159 HD
ATOM     80  H   UNL     1      -5.767  -5.169   5.285  1.00  0.00     0.159 HD
ATOM     81  H   UNL     1      -6.429  -5.602   3.756  1.00  0.00     0.159 HD
ENDBRANCH  73  74
ENDBRANCH  72  73
ENDBRANCH  71  72
ENDBRANCH  45  71
ENDBRANCH   3  45
TORSDOF 20
ENDMDL
MODEL 29
REMARK VINA RESULT:    -5.883      2.528      7.430
REMARK INTER + INTRA:         -24.533
REMARK INTER:                 -18.975
REMARK INTRA:                  -5.558
REMARK UNBOUND:                -7.644
REMARK SMILES CCCCCC(=O)N[C@H](CC(=O)O)C(=O)N[C@H]1C(=O)N[C@H](CCCN=C(N)N)C(=O)N[C@@H]2CC[C@H](O)N(C2=O)[C@@H](CC(C)C)C(=O)N(C)[C@@H](Cc2ccccc2)C(=O)N[C@H](C(C)C)C(=O)O[C@@H]1C
REMARK SMILES IDX 30 1 31 2 29 3 32 5 35 6 37 7 34 8 38 9 33 10 39 11 36 12
REMARK SMILES IDX 40 14 41 15 42 16 43 17 44 18 45 19 46 20 47 21 48 22 49 23
REMARK SMILES IDX 50 24 51 25 52 26 56 27 53 28 55 29 54 30 57 31 58 32 59 33
REMARK SMILES IDX 60 35 61 36 62 37 63 38 64 39 65 40 66 41 67 42 68 43 21 45
REMARK SMILES IDX 20 46 18 47 19 48 17 50 16 52 14 53 15 54 9 56 8 57 6 58
REMARK SMILES IDX 7 59 5 61 4 62 3 63 2 64 1 65 10 66 11 67 12 68 13 69 22 71
REMARK SMILES IDX 23 72 24 73 25 74 26 75 27 76 28 77
REMARK H PARENT 31 4 36 13 59 34 20 49 16 55 8 60 13 70 27 78 27 79 28 80
REMARK H PARENT 28 81
REMARK Flexibility Score:  259.900
ROOT
ATOM      1  O   UNL     1      -1.920   1.442  10.635  1.00  0.00    -0.273 OA
ATOM      2  N   UNL     1      -2.962   1.684  12.657  1.00  0.00    -0.343 N 
ATOM      3  C   UNL     1      -2.274   2.167  11.565  1.00  0.00     0.243 C 
ATOM      4  H   UNL     1      -3.249   2.313  13.396  1.00  0.00     0.164 HD
ENDROOT
BRANCH   2   5
ATOM      5  C   UNL     1      -3.197   0.252  12.811  1.00  0.00     0.171 C 
ATOM      6  C   UNL     1      -3.777  -1.859  10.911  1.00  0.00     0.214 C 
ATOM      7  N   UNL     1      -4.867  -1.141  11.529  1.00  0.00    -0.303 N 
ATOM      8  C   UNL     1      -2.541  -1.951  11.792  1.00  0.00     0.057 C 
ATOM      9  C   UNL     1      -4.660  -0.088  12.406  1.00  0.00     0.247 C 
ATOM     10  C   UNL     1      -2.075  -0.561  12.167  1.00  0.00     0.040 C 
ATOM     11  O   UNL     1      -5.598   0.578  12.863  1.00  0.00    -0.272 OA
BRANCH   6  12
ATOM     12  O   UNL     1      -3.470  -1.215   9.697  1.00  0.00    -0.373 OA
ATOM     13  H   UNL     1      -3.718  -1.830   8.974  1.00  0.00     0.213 HD
ENDBRANCH   6  12
BRANCH   7  14
ATOM     14  C   UNL     1      -6.233  -1.476  11.075  1.00  0.00     0.177 C 
BRANCH  14  15
ATOM     15  C   UNL     1      -7.218  -1.869  12.193  1.00  0.00     0.038 C 
BRANCH  15  16
ATOM     16  C   UNL     1      -8.590  -1.164  12.282  1.00  0.00    -0.015 C 
ATOM     17  C   UNL     1      -8.780  -0.420  13.607  1.00  0.00     0.007 C 
ATOM     18  C   UNL     1      -9.715  -2.198  12.145  1.00  0.00     0.007 C 
ENDBRANCH  15  16
ENDBRANCH  14  15
BRANCH  14  19
ATOM     19  C   UNL     1      -6.599  -0.650   9.794  1.00  0.00     0.245 C 
ATOM     20  O   UNL     1      -6.509   0.586   9.881  1.00  0.00    -0.272 OA
BRANCH  19  21
ATOM     21  N   UNL     1      -7.112  -1.208   8.636  1.00  0.00    -0.332 N 
ATOM     22  C   UNL     1      -8.307  -2.029   8.555  1.00  0.00     0.147 C 
BRANCH  21  23
ATOM     23  C   UNL     1      -6.380  -0.964   7.362  1.00  0.00     0.178 C 
BRANCH  23  24
ATOM     24  C   UNL     1      -6.781  -1.895   6.200  1.00  0.00     0.070 C 
BRANCH  24  25
ATOM     25  C   UNL     1      -5.724  -2.844   5.683  1.00  0.00    -0.045 A 
ATOM     26  C   UNL     1      -4.709  -3.315   6.525  1.00  0.00     0.004 A 
ATOM     27  C   UNL     1      -5.743  -3.263   4.344  1.00  0.00     0.004 A 
ATOM     28  C   UNL     1      -3.726  -4.178   6.035  1.00  0.00     0.000 A 
ATOM     29  C   UNL     1      -4.761  -4.126   3.856  1.00  0.00     0.000 A 
ATOM     30  C   UNL     1      -3.751  -4.581   4.702  1.00  0.00     0.000 A 
ENDBRANCH  24  25
ENDBRANCH  23  24
BRANCH  23  31
ATOM     31  C   UNL     1      -6.293   0.536   6.995  1.00  0.00     0.243 C 
ATOM     32  O   UNL     1      -7.229   1.187   6.537  1.00  0.00    -0.273 OA
ATOM     33  N   UNL     1      -5.006   1.045   7.052  1.00  0.00    -0.341 N 
ATOM     34  H   UNL     1      -4.267   0.453   7.437  1.00  0.00     0.164 HD
BRANCH  33  35
ATOM     35  C   UNL     1      -4.668   2.408   6.633  1.00  0.00     0.194 C 
BRANCH  35  36
ATOM     36  C   UNL     1      -3.874   2.483   5.298  1.00  0.00     0.017 C 
ATOM     37  C   UNL     1      -4.653   1.827   4.146  1.00  0.00     0.010 C 
ATOM     38  C   UNL     1      -2.502   1.801   5.372  1.00  0.00     0.010 C 
ENDBRANCH  35  36
BRANCH  35  39
ATOM     39  C   UNL     1      -3.983   3.228   7.762  1.00  0.00     0.329 C 
ATOM     40  O   UNL     1      -2.842   3.027   8.161  1.00  0.00    -0.250 OA
BRANCH  39  41
ATOM     41  O   UNL     1      -4.766   4.259   8.204  1.00  0.00    -0.458 OA
BRANCH  41  42
ATOM     42  C   UNL     1      -5.594   3.986   9.360  1.00  0.00     0.205 CG0
ATOM     43  C   UNL     1      -7.042   3.932   8.878  1.00  0.00     0.056 C 
ATOM     44  G   UNL     1      -5.360   5.095  10.405  1.00  0.00     0.000 G0
ENDBRANCH  41  42
ENDBRANCH  39  41
ENDBRANCH  35  39
ENDBRANCH  33  35
ENDBRANCH  23  31
ENDBRANCH  21  23
ENDBRANCH  19  21
ENDBRANCH  14  19
ENDBRANCH   7  14
ENDBRANCH   2   5
BRANCH   3  45
ATOM     45  C   UNL     1      -1.998   3.677  11.578  1.00  0.00     0.171 C 
BRANCH  45  46
ATOM     46  N   UNL     1      -3.085   4.283  10.822  1.00  0.00    -0.342 N 
ATOM     47  C   UNL     1      -4.295   4.594  11.392  1.00  0.00     0.247 C 
ATOM     48  O   UNL     1      -4.523   4.452  12.593  1.00  0.00    -0.273 OA
ATOM     49  H   UNL     1      -2.919   4.469   9.834  1.00  0.00     0.164 HD
BRANCH  47  50
ATOM     50  C   UNL     1      -5.361   5.109  10.414  1.00  0.00     0.212 CG0
ATOM     51  G   UNL     1      -5.598   4.010   9.359  1.00  0.00     0.000 G0
BRANCH  50  52
ATOM     52  N   UNL     1      -6.538   5.386  11.233  1.00  0.00    -0.339 N 
ATOM     53  C   UNL     1      -7.352   6.476  11.041  1.00  0.00     0.243 C 
ATOM     54  O   UNL     1      -7.120   7.335  10.194  1.00  0.00    -0.273 OA
ATOM     55  H   UNL     1      -6.720   4.771  12.023  1.00  0.00     0.164 HD
BRANCH  53  56
ATOM     56  C   UNL     1      -8.482   6.607  12.081  1.00  0.00     0.182 C 
BRANCH  56  57
ATOM     57  N   UNL     1      -9.243   5.358  12.191  1.00  0.00    -0.344 N 
ATOM     58  C   UNL     1      -9.328   4.648  13.364  1.00  0.00     0.220 C 
ATOM     59  O   UNL     1      -8.717   4.967  14.378  1.00  0.00    -0.275 OA
ATOM     60  H   UNL     1      -9.844   5.115  11.408  1.00  0.00     0.164 HD
BRANCH  58  61
ATOM     61  C   UNL     1     -10.215   3.421  13.261  1.00  0.00     0.100 C 
BRANCH  61  62
ATOM     62  C   UNL     1     -10.128   2.708  11.912  1.00  0.00     0.010 C 
BRANCH  62  63
ATOM     63  C   UNL     1     -11.136   1.565  11.740  1.00  0.00     0.000 C 
BRANCH  63  64
ATOM     64  C   UNL     1     -11.551   1.308  10.292  1.00  0.00    -0.003 C 
ATOM     65  C   UNL     1     -11.602  -0.182   9.985  1.00  0.00     0.004 C 
ENDBRANCH  63  64
ENDBRANCH  62  63
ENDBRANCH  61  62
ENDBRANCH  58  61
ENDBRANCH  56  57
BRANCH  56  66
ATOM     66  C   UNL     1      -9.381   7.806  11.785  1.00  0.00     0.157 C 
BRANCH  66  67
ATOM     67  C   UNL     1     -10.781   7.570  12.273  1.00  0.00     0.305 C 
ATOM     68  O   UNL     1     -11.734   7.190  11.610  1.00  0.00    -0.252 OA
BRANCH  67  69
ATOM     69  O   UNL     1     -10.903   7.776  13.598  1.00  0.00    -0.481 OA
ATOM     70  H   UNL     1     -11.862   7.919  13.742  1.00  0.00     0.296 HD
ENDBRANCH  67  69
ENDBRANCH  66  67
ENDBRANCH  56  66
ENDBRANCH  53  56
ENDBRANCH  50  52
ENDBRANCH  47  50
ENDBRANCH  45  46
BRANCH  45  71
ATOM     71  C   UNL     1      -0.634   3.976  10.945  1.00  0.00     0.037 C 
BRANCH  71  72
ATOM     72  C   UNL     1      -0.491   5.449  10.555  1.00  0.00     0.026 C 
BRANCH  72  73
ATOM     73  C   UNL     1      -0.656   5.648   9.050  1.00  0.00     0.146 C 
BRANCH  73  74
ATOM     74  N   UNL     1       0.234   4.709   8.374  1.00  0.00    -0.254 NA
ATOM     75  C   UNL     1       0.074   4.534   7.114  1.00  0.00     0.185 C 
ATOM     76  N   UNL     1       0.878   3.677   6.464  1.00  0.00    -0.370 N 
ATOM     77  N   UNL     1      -0.821   5.103   6.288  1.00  0.00    -0.370 N 
ATOM     78  H   UNL     1       1.577   3.199   7.014  1.00  0.00     0.159 HD
ATOM     79  H   UNL     1       0.722   3.381   5.517  1.00  0.00     0.159 HD
ATOM     80  H   UNL     1      -1.490   5.773   6.638  1.00  0.00     0.159 HD
ATOM     81  H   UNL     1      -0.777   4.973   5.291  1.00  0.00     0.159 HD
ENDBRANCH  73  74
ENDBRANCH  72  73
ENDBRANCH  71  72
ENDBRANCH  45  71
ENDBRANCH   3  45
TORSDOF 20
ENDMDL
MODEL 30
REMARK VINA RESULT:    -5.858      3.003      6.635
REMARK INTER + INTRA:         -24.460
REMARK INTER:                 -18.192
REMARK INTRA:                  -6.267
REMARK UNBOUND:                -7.644
REMARK SMILES CCCCCC(=O)N[C@H](CC(=O)O)C(=O)N[C@H]1C(=O)N[C@H](CCCN=C(N)N)C(=O)N[C@@H]2CC[C@H](O)N(C2=O)[C@@H](CC(C)C)C(=O)N(C)[C@@H](Cc2ccccc2)C(=O)N[C@H](C(C)C)C(=O)O[C@@H]1C
REMARK SMILES IDX 30 1 31 2 29 3 32 5 35 6 37 7 34 8 38 9 33 10 39 11 36 12
REMARK SMILES IDX 40 14 41 15 42 16 43 17 44 18 45 19 46 20 47 21 48 22 49 23
REMARK SMILES IDX 50 24 51 25 52 26 56 27 53 28 55 29 54 30 57 31 58 32 59 33
REMARK SMILES IDX 60 35 61 36 62 37 63 38 64 39 65 40 66 41 67 42 68 43 21 45
REMARK SMILES IDX 20 46 18 47 19 48 17 50 16 52 14 53 15 54 9 56 8 57 6 58
REMARK SMILES IDX 7 59 5 61 4 62 3 63 2 64 1 65 10 66 11 67 12 68 13 69 22 71
REMARK SMILES IDX 23 72 24 73 25 74 26 75 27 76 28 77
REMARK H PARENT 31 4 36 13 59 34 20 49 16 55 8 60 13 70 27 78 27 79 28 80
REMARK H PARENT 28 81
REMARK Flexibility Score:  259.900
ROOT
ATOM      1  O   UNL     1      -2.896   4.120  11.599  1.00  0.00    -0.273 OA
ATOM      2  N   UNL     1      -3.706   4.834   9.583  1.00  0.00    -0.343 N 
ATOM      3  C   UNL     1      -3.789   4.663  10.948  1.00  0.00     0.243 C 
ATOM      4  H   UNL     1      -4.454   5.299   9.082  1.00  0.00     0.164 HD
ENDROOT
BRANCH   2   5
ATOM      5  C   UNL     1      -2.594   4.264   8.830  1.00  0.00     0.171 C 
ATOM      6  C   UNL     1      -2.263   3.579   6.032  1.00  0.00     0.214 C 
ATOM      7  N   UNL     1      -2.758   2.583   6.954  1.00  0.00    -0.303 N 
ATOM      8  C   UNL     1      -1.329   4.588   6.681  1.00  0.00     0.057 C 
ATOM      9  C   UNL     1      -2.987   2.858   8.292  1.00  0.00     0.247 C 
ATOM     10  C   UNL     1      -2.034   5.275   7.830  1.00  0.00     0.040 C 
ATOM     11  O   UNL     1      -3.492   2.025   9.056  1.00  0.00    -0.272 OA
BRANCH   6  12
ATOM     12  O   UNL     1      -3.376   4.232   5.466  1.00  0.00    -0.373 OA
ATOM     13  H   UNL     1      -3.968   3.535   5.112  1.00  0.00     0.213 HD
ENDBRANCH   6  12
BRANCH   7  14
ATOM     14  C   UNL     1      -3.155   1.279   6.382  1.00  0.00     0.177 C 
BRANCH  14  15
ATOM     15  C   UNL     1      -2.180   0.118   6.655  1.00  0.00     0.038 C 
BRANCH  15  16
ATOM     16  C   UNL     1      -0.720   0.428   7.052  1.00  0.00    -0.015 C 
ATOM     17  C   UNL     1       0.180   0.658   5.834  1.00  0.00     0.007 C 
ATOM     18  C   UNL     1      -0.143  -0.741   7.861  1.00  0.00     0.007 C 
ENDBRANCH  15  16
ENDBRANCH  14  15
BRANCH  14  19
ATOM     19  C   UNL     1      -4.718   1.160   6.335  1.00  0.00     0.245 C 
ATOM     20  O   UNL     1      -5.352   2.205   6.111  1.00  0.00    -0.272 OA
BRANCH  19  21
ATOM     21  N   UNL     1      -5.412   0.002   6.636  1.00  0.00    -0.332 N 
ATOM     22  C   UNL     1      -5.127  -1.316   6.096  1.00  0.00     0.147 C 
BRANCH  21  23
ATOM     23  C   UNL     1      -6.556   0.102   7.584  1.00  0.00     0.178 C 
BRANCH  23  24
ATOM     24  C   UNL     1      -7.633  -0.989   7.414  1.00  0.00     0.070 C 
BRANCH  24  25
ATOM     25  C   UNL     1      -8.833  -0.920   8.329  1.00  0.00    -0.045 A 
ATOM     26  C   UNL     1      -9.656   0.213   8.349  1.00  0.00     0.004 A 
ATOM     27  C   UNL     1      -9.137  -1.994   9.179  1.00  0.00     0.004 A 
ATOM     28  C   UNL     1     -10.754   0.276   9.211  1.00  0.00     0.000 A 
ATOM     29  C   UNL     1     -10.235  -1.930  10.039  1.00  0.00     0.000 A 
ATOM     30  C   UNL     1     -11.041  -0.794  10.056  1.00  0.00     0.000 A 
ENDBRANCH  24  25
ENDBRANCH  23  24
BRANCH  23  31
ATOM     31  C   UNL     1      -6.111   0.356   9.043  1.00  0.00     0.243 C 
ATOM     32  O   UNL     1      -6.280   1.418   9.639  1.00  0.00    -0.273 OA
ATOM     33  N   UNL     1      -5.332  -0.661   9.569  1.00  0.00    -0.341 N 
ATOM     34  H   UNL     1      -5.222  -1.519   9.023  1.00  0.00     0.164 HD
BRANCH  33  35
ATOM     35  C   UNL     1      -4.702  -0.583  10.890  1.00  0.00     0.194 C 
BRANCH  35  36
ATOM     36  C   UNL     1      -3.263  -1.171  10.942  1.00  0.00     0.017 C 
ATOM     37  C   UNL     1      -2.204  -0.056  10.975  1.00  0.00     0.010 C 
ATOM     38  C   UNL     1      -2.937  -2.078   9.749  1.00  0.00     0.010 C 
ENDBRANCH  35  36
BRANCH  35  39
ATOM     39  C   UNL     1      -5.604  -1.157  12.018  1.00  0.00     0.329 C 
ATOM     40  O   UNL     1      -5.370  -2.197  12.622  1.00  0.00    -0.250 OA
BRANCH  39  41
ATOM     41  O   UNL     1      -6.647  -0.326  12.322  1.00  0.00    -0.458 OA
BRANCH  41  42
ATOM     42  C   UNL     1      -6.346   0.784  13.202  1.00  0.00     0.205 CG0
ATOM     43  C   UNL     1      -6.931   0.449  14.572  1.00  0.00     0.056 C 
ATOM     44  G   UNL     1      -6.952   2.067  12.600  1.00  0.00     0.000 G0
ENDBRANCH  41  42
ENDBRANCH  39  41
ENDBRANCH  35  39
ENDBRANCH  33  35
ENDBRANCH  23  31
ENDBRANCH  21  23
ENDBRANCH  19  21
ENDBRANCH  14  19
ENDBRANCH   7  14
ENDBRANCH   2   5
BRANCH   3  45
ATOM     45  C   UNL     1      -5.062   5.216  11.603  1.00  0.00     0.171 C 
BRANCH  45  46
ATOM     46  N   UNL     1      -5.988   4.094  11.673  1.00  0.00    -0.342 N 
ATOM     47  C   UNL     1      -6.040   3.247  12.751  1.00  0.00     0.247 C 
ATOM     48  O   UNL     1      -5.362   3.415  13.765  1.00  0.00    -0.273 OA
ATOM     49  H   UNL     1      -6.608   3.952  10.877  1.00  0.00     0.164 HD
BRANCH  47  50
ATOM     50  C   UNL     1      -6.988   2.050  12.593  1.00  0.00     0.212 CG0
ATOM     51  G   UNL     1      -6.303   0.824  13.227  1.00  0.00     0.000 G0
BRANCH  50  52
ATOM     52  N   UNL     1      -8.221   2.438  13.273  1.00  0.00    -0.339 N 
ATOM     53  C   UNL     1      -9.381   2.759  12.610  1.00  0.00     0.243 C 
ATOM     54  O   UNL     1      -9.454   2.796  11.385  1.00  0.00    -0.273 OA
ATOM     55  H   UNL     1      -8.192   2.534  14.286  1.00  0.00     0.164 HD
BRANCH  53  56
ATOM     56  C   UNL     1     -10.525   3.221  13.535  1.00  0.00     0.182 C 
BRANCH  56  57
ATOM     57  N   UNL     1     -10.441   2.565  14.844  1.00  0.00    -0.344 N 
ATOM     58  C   UNL     1     -10.199   3.263  16.002  1.00  0.00     0.220 C 
ATOM     59  O   UNL     1      -9.964   4.466  16.015  1.00  0.00    -0.275 OA
ATOM     60  H   UNL     1     -10.728   1.591  14.891  1.00  0.00     0.164 HD
BRANCH  58  61
ATOM     61  C   UNL     1     -10.213   2.390  17.244  1.00  0.00     0.100 C 
BRANCH  61  62
ATOM     62  C   UNL     1     -10.810   1.001  17.015  1.00  0.00     0.010 C 
BRANCH  62  63
ATOM     63  C   UNL     1     -11.887   0.606  18.033  1.00  0.00     0.000 C 
BRANCH  63  64
ATOM     64  C   UNL     1     -13.314   0.667  17.492  1.00  0.00    -0.003 C 
ATOM     65  C   UNL     1     -13.821  -0.715  17.105  1.00  0.00     0.004 C 
ENDBRANCH  63  64
ENDBRANCH  62  63
ENDBRANCH  61  62
ENDBRANCH  58  61
ENDBRANCH  56  57
BRANCH  56  66
ATOM     66  C   UNL     1     -11.890   3.024  12.879  1.00  0.00     0.157 C 
BRANCH  66  67
ATOM     67  C   UNL     1     -12.621   1.859  13.482  1.00  0.00     0.305 C 
ATOM     68  O   UNL     1     -13.496   1.905  14.334  1.00  0.00    -0.252 OA
BRANCH  67  69
ATOM     69  O   UNL     1     -12.248   0.684  12.941  1.00  0.00    -0.481 OA
ATOM     70  H   UNL     1     -12.803   0.013  13.392  1.00  0.00     0.296 HD
ENDBRANCH  67  69
ENDBRANCH  66  67
ENDBRANCH  56  66
ENDBRANCH  53  56
ENDBRANCH  50  52
ENDBRANCH  47  50
ENDBRANCH  45  46
BRANCH  45  71
ATOM     71  C   UNL     1      -5.633   6.370  10.771  1.00  0.00     0.037 C 
BRANCH  71  72
ATOM     72  C   UNL     1      -7.138   6.221  10.537  1.00  0.00     0.026 C 
BRANCH  72  73
ATOM     73  C   UNL     1      -7.842   7.576  10.541  1.00  0.00     0.146 C 
BRANCH  73  74
ATOM     74  N   UNL     1      -8.071   7.957  11.931  1.00  0.00    -0.254 NA
ATOM     75  C   UNL     1      -9.255   7.820  12.402  1.00  0.00     0.185 C 
ATOM     76  N   UNL     1      -9.497   8.160  13.679  1.00  0.00    -0.370 N 
ATOM     77  N   UNL     1     -10.361   7.362  11.790  1.00  0.00    -0.370 N 
ATOM     78  H   UNL     1      -8.719   8.522  14.211  1.00  0.00     0.159 HD
ATOM     79  H   UNL     1     -10.420   8.217  14.071  1.00  0.00     0.159 HD
ATOM     80  H   UNL     1     -10.328   7.064  10.826  1.00  0.00     0.159 HD
ATOM     81  H   UNL     1     -11.213   7.189  12.297  1.00  0.00     0.159 HD
ENDBRANCH  73  74
ENDBRANCH  72  73
ENDBRANCH  71  72
ENDBRANCH  45  71
ENDBRANCH   3  45
TORSDOF 20
ENDMDL
MODEL 31
REMARK VINA RESULT:    -5.846      1.523      2.070
REMARK INTER + INTRA:         -24.425
REMARK INTER:                 -18.694
REMARK INTRA:                  -5.731
REMARK UNBOUND:                -7.644
REMARK SMILES CCCCCC(=O)N[C@H](CC(=O)O)C(=O)N[C@H]1C(=O)N[C@H](CCCN=C(N)N)C(=O)N[C@@H]2CC[C@H](O)N(C2=O)[C@@H](CC(C)C)C(=O)N(C)[C@@H](Cc2ccccc2)C(=O)N[C@H](C(C)C)C(=O)O[C@@H]1C
REMARK SMILES IDX 30 1 31 2 29 3 32 5 35 6 37 7 34 8 38 9 33 10 39 11 36 12
REMARK SMILES IDX 40 14 41 15 42 16 43 17 44 18 45 19 46 20 47 21 48 22 49 23
REMARK SMILES IDX 50 24 51 25 52 26 56 27 53 28 55 29 54 30 57 31 58 32 59 33
REMARK SMILES IDX 60 35 61 36 62 37 63 38 64 39 65 40 66 41 67 42 68 43 21 45
REMARK SMILES IDX 20 46 18 47 19 48 17 50 16 52 14 53 15 54 9 56 8 57 6 58
REMARK SMILES IDX 7 59 5 61 4 62 3 63 2 64 1 65 10 66 11 67 12 68 13 69 22 71
REMARK SMILES IDX 23 72 24 73 25 74 26 75 27 76 28 77
REMARK H PARENT 31 4 36 13 59 34 20 49 16 55 8 60 13 70 27 78 27 79 28 80
REMARK H PARENT 28 81
REMARK Flexibility Score:  259.900
ROOT
ATOM      1  O   UNL     1      -6.162   0.469   7.227  1.00  0.00    -0.273 OA
ATOM      2  N   UNL     1      -6.095   2.657   7.892  1.00  0.00    -0.343 N 
ATOM      3  C   UNL     1      -6.621   1.383   7.914  1.00  0.00     0.243 C 
ATOM      4  H   UNL     1      -6.489   3.380   8.481  1.00  0.00     0.164 HD
ENDROOT
BRANCH   2   5
ATOM      5  C   UNL     1      -5.035   3.006   6.952  1.00  0.00     0.171 C 
ATOM      6  C   UNL     1      -3.232   1.407   5.341  1.00  0.00     0.214 C 
ATOM      7  N   UNL     1      -2.829   1.813   6.667  1.00  0.00    -0.303 N 
ATOM      8  C   UNL     1      -4.175   2.393   4.670  1.00  0.00     0.057 C 
ATOM      9  C   UNL     1      -3.661   2.534   7.508  1.00  0.00     0.247 C 
ATOM     10  C   UNL     1      -5.405   2.592   5.529  1.00  0.00     0.040 C 
ATOM     11  O   UNL     1      -3.342   2.804   8.673  1.00  0.00    -0.272 OA
BRANCH   6  12
ATOM     12  O   UNL     1      -3.839   0.139   5.445  1.00  0.00    -0.373 OA
ATOM     13  H   UNL     1      -4.086   0.015   6.386  1.00  0.00     0.213 HD
ENDBRANCH   6  12
BRANCH   7  14
ATOM     14  C   UNL     1      -1.533   1.301   7.160  1.00  0.00     0.177 C 
BRANCH  14  15
ATOM     15  C   UNL     1      -0.418   2.356   7.292  1.00  0.00     0.038 C 
BRANCH  15  16
ATOM     16  C   UNL     1      -0.611   3.751   6.658  1.00  0.00    -0.015 C 
ATOM     17  C   UNL     1       0.445   4.062   5.594  1.00  0.00     0.007 C 
ATOM     18  C   UNL     1      -0.529   4.830   7.746  1.00  0.00     0.007 C 
ENDBRANCH  15  16
ENDBRANCH  14  15
BRANCH  14  19
ATOM     19  C   UNL     1      -1.761   0.095   8.135  1.00  0.00     0.245 C 
ATOM     20  O   UNL     1      -1.843   0.363   9.346  1.00  0.00    -0.272 OA
BRANCH  19  21
ATOM     21  N   UNL     1      -1.761  -1.230   7.737  1.00  0.00    -0.332 N 
ATOM     22  C   UNL     1      -0.646  -1.925   7.119  1.00  0.00     0.147 C 
BRANCH  21  23
ATOM     23  C   UNL     1      -3.007  -2.019   7.943  1.00  0.00     0.178 C 
BRANCH  23  24
ATOM     24  C   UNL     1      -3.116  -3.293   7.081  1.00  0.00     0.070 C 
BRANCH  24  25
ATOM     25  C   UNL     1      -4.171  -3.305   6.000  1.00  0.00    -0.045 A 
ATOM     26  C   UNL     1      -4.000  -4.067   4.837  1.00  0.00     0.004 A 
ATOM     27  C   UNL     1      -5.342  -2.545   6.146  1.00  0.00     0.004 A 
ATOM     28  C   UNL     1      -4.972  -4.059   3.835  1.00  0.00     0.000 A 
ATOM     29  C   UNL     1      -6.314  -2.539   5.144  1.00  0.00     0.000 A 
ATOM     30  C   UNL     1      -6.127  -3.294   3.988  1.00  0.00     0.000 A 
ENDBRANCH  24  25
ENDBRANCH  23  24
BRANCH  23  31
ATOM     31  C   UNL     1      -3.359  -2.212   9.438  1.00  0.00     0.243 C 
ATOM     32  O   UNL     1      -2.843  -3.060  10.161  1.00  0.00    -0.273 OA
ATOM     33  N   UNL     1      -4.449  -1.464   9.851  1.00  0.00    -0.341 N 
ATOM     34  H   UNL     1      -4.840  -0.777   9.201  1.00  0.00     0.164 HD
BRANCH  33  35
ATOM     35  C   UNL     1      -5.033  -1.575  11.190  1.00  0.00     0.194 C 
BRANCH  35  36
ATOM     36  C   UNL     1      -6.385  -2.341  11.231  1.00  0.00     0.017 C 
ATOM     37  C   UNL     1      -6.569  -3.080  12.568  1.00  0.00     0.010 C 
ATOM     38  C   UNL     1      -6.528  -3.377  10.110  1.00  0.00     0.010 C 
ENDBRANCH  35  36
BRANCH  35  39
ATOM     39  C   UNL     1      -5.119  -0.206  11.921  1.00  0.00     0.329 C 
ATOM     40  O   UNL     1      -4.143   0.446  12.273  1.00  0.00    -0.250 OA
BRANCH  39  41
ATOM     41  O   UNL     1      -6.407   0.234  12.051  1.00  0.00    -0.458 OA
BRANCH  41  42
ATOM     42  C   UNL     1      -6.649   1.211  13.092  1.00  0.00     0.205 CG0
ATOM     43  C   UNL     1      -7.411   0.503  14.210  1.00  0.00     0.056 C 
ATOM     44  G   UNL     1      -7.443   2.386  12.488  1.00  0.00     0.000 G0
ENDBRANCH  41  42
ENDBRANCH  39  41
ENDBRANCH  35  39
ENDBRANCH  33  35
ENDBRANCH  23  31
ENDBRANCH  21  23
ENDBRANCH  19  21
ENDBRANCH  14  19
ENDBRANCH   7  14
ENDBRANCH   2   5
BRANCH   3  45
ATOM     45  C   UNL     1      -7.804   1.177   8.869  1.00  0.00     0.171 C 
BRANCH  45  46
ATOM     46  N   UNL     1      -7.314   1.555  10.189  1.00  0.00    -0.342 N 
ATOM     47  C   UNL     1      -8.156   1.922  11.209  1.00  0.00     0.247 C 
ATOM     48  O   UNL     1      -9.383   1.889  11.108  1.00  0.00    -0.273 OA
ATOM     49  H   UNL     1      -6.306   1.541  10.333  1.00  0.00     0.164 HD
BRANCH  47  50
ATOM     50  C   UNL     1      -7.456   2.406  12.486  1.00  0.00     0.212 CG0
ATOM     51  G   UNL     1      -6.683   1.211  13.078  1.00  0.00     0.000 G0
BRANCH  50  52
ATOM     52  N   UNL     1      -6.588   3.502  12.063  1.00  0.00    -0.339 N 
ATOM     53  C   UNL     1      -6.988   4.816  12.034  1.00  0.00     0.243 C 
ATOM     54  O   UNL     1      -8.131   5.165  12.314  1.00  0.00    -0.273 OA
ATOM     55  H   UNL     1      -5.662   3.263  11.713  1.00  0.00     0.164 HD
BRANCH  53  56
ATOM     56  C   UNL     1      -5.928   5.783  11.470  1.00  0.00     0.182 C 
BRANCH  56  57
ATOM     57  N   UNL     1      -6.543   6.786  10.595  1.00  0.00    -0.344 N 
ATOM     58  C   UNL     1      -7.003   6.483   9.337  1.00  0.00     0.220 C 
ATOM     59  O   UNL     1      -6.866   5.375   8.830  1.00  0.00    -0.275 OA
ATOM     60  H   UNL     1      -6.766   7.686  11.012  1.00  0.00     0.164 HD
BRANCH  58  61
ATOM     61  C   UNL     1      -7.654   7.660   8.635  1.00  0.00     0.100 C 
BRANCH  61  62
ATOM     62  C   UNL     1      -7.076   9.016   9.040  1.00  0.00     0.010 C 
BRANCH  62  63
ATOM     63  C   UNL     1      -5.897   9.479   8.175  1.00  0.00     0.000 C 
BRANCH  63  64
ATOM     64  C   UNL     1      -6.176   9.460   6.673  1.00  0.00    -0.003 C 
ATOM     65  C   UNL     1      -7.327  10.388   6.310  1.00  0.00     0.004 C 
ENDBRANCH  63  64
ENDBRANCH  62  63
ENDBRANCH  61  62
ENDBRANCH  58  61
ENDBRANCH  56  57
BRANCH  56  66
ATOM     66  C   UNL     1      -4.795   5.028  10.775  1.00  0.00     0.157 C 
BRANCH  66  67
ATOM     67  C   UNL     1      -3.617   5.925  10.527  1.00  0.00     0.305 C 
ATOM     68  O   UNL     1      -3.417   6.616   9.540  1.00  0.00    -0.252 OA
BRANCH  67  69
ATOM     69  O   UNL     1      -2.763   5.947  11.568  1.00  0.00    -0.481 OA
ATOM     70  H   UNL     1      -2.325   6.823  11.514  1.00  0.00     0.296 HD
ENDBRANCH  67  69
ENDBRANCH  66  67
ENDBRANCH  56  66
ENDBRANCH  53  56
ENDBRANCH  50  52
ENDBRANCH  47  50
ENDBRANCH  45  46
BRANCH  45  71
ATOM     71  C   UNL     1      -8.269  -0.283   8.836  1.00  0.00     0.037 C 
BRANCH  71  72
ATOM     72  C   UNL     1      -9.609  -0.443   8.113  1.00  0.00     0.026 C 
BRANCH  72  73
ATOM     73  C   UNL     1     -10.557  -1.356   8.887  1.00  0.00     0.146 C 
BRANCH  73  74
ATOM     74  N   UNL     1     -11.386  -0.515   9.746  1.00  0.00    -0.254 NA
ATOM     75  C   UNL     1     -11.136  -0.514  11.003  1.00  0.00     0.185 C 
ATOM     76  N   UNL     1     -11.880   0.251  11.819  1.00  0.00    -0.370 N 
ATOM     77  N   UNL     1     -10.194  -1.195  11.678  1.00  0.00    -0.370 N 
ATOM     78  H   UNL     1     -12.619   0.791  11.392  1.00  0.00     0.159 HD
ATOM     79  H   UNL     1     -11.840   0.193  12.821  1.00  0.00     0.159 HD
ATOM     80  H   UNL     1      -9.556  -1.808  11.193  1.00  0.00     0.159 HD
ATOM     81  H   UNL     1     -10.017  -1.025  12.655  1.00  0.00     0.159 HD
ENDBRANCH  73  74
ENDBRANCH  72  73
ENDBRANCH  71  72
ENDBRANCH  45  71
ENDBRANCH   3  45
TORSDOF 20
ENDMDL
MODEL 32
REMARK VINA RESULT:    -5.800      2.699      5.834
REMARK INTER + INTRA:         -24.293
REMARK INTER:                 -17.377
REMARK INTRA:                  -6.917
REMARK UNBOUND:                -7.644
REMARK SMILES CCCCCC(=O)N[C@H](CC(=O)O)C(=O)N[C@H]1C(=O)N[C@H](CCCN=C(N)N)C(=O)N[C@@H]2CC[C@H](O)N(C2=O)[C@@H](CC(C)C)C(=O)N(C)[C@@H](Cc2ccccc2)C(=O)N[C@H](C(C)C)C(=O)O[C@@H]1C
REMARK SMILES IDX 30 1 31 2 29 3 32 5 35 6 37 7 34 8 38 9 33 10 39 11 36 12
REMARK SMILES IDX 40 14 41 15 42 16 43 17 44 18 45 19 46 20 47 21 48 22 49 23
REMARK SMILES IDX 50 24 51 25 52 26 56 27 53 28 55 29 54 30 57 31 58 32 59 33
REMARK SMILES IDX 60 35 61 36 62 37 63 38 64 39 65 40 66 41 67 42 68 43 21 45
REMARK SMILES IDX 20 46 18 47 19 48 17 50 16 52 14 53 15 54 9 56 8 57 6 58
REMARK SMILES IDX 7 59 5 61 4 62 3 63 2 64 1 65 10 66 11 67 12 68 13 69 22 71
REMARK SMILES IDX 23 72 24 73 25 74 26 75 27 76 28 77
REMARK H PARENT 31 4 36 13 59 34 20 49 16 55 8 60 13 70 27 78 27 79 28 80
REMARK H PARENT 28 81
REMARK Flexibility Score:  259.900
ROOT
ATOM      1  O   UNL     1      -2.018   2.551  12.187  1.00  0.00    -0.273 OA
ATOM      2  N   UNL     1      -2.684   3.818  10.404  1.00  0.00    -0.343 N 
ATOM      3  C   UNL     1      -2.823   3.338  11.688  1.00  0.00     0.243 C 
ATOM      4  H   UNL     1      -3.358   4.476  10.031  1.00  0.00     0.164 HD
ENDROOT
BRANCH   2   5
ATOM      5  C   UNL     1      -1.629   3.313   9.532  1.00  0.00     0.171 C 
ATOM      6  C   UNL     1      -1.258   3.375   6.658  1.00  0.00     0.214 C 
ATOM      7  N   UNL     1      -1.936   2.253   7.262  1.00  0.00    -0.303 N 
ATOM      8  C   UNL     1      -0.222   4.014   7.569  1.00  0.00     0.057 C 
ATOM      9  C   UNL     1      -2.191   2.184   8.622  1.00  0.00     0.247 C 
ATOM     10  C   UNL     1      -0.879   4.461   8.857  1.00  0.00     0.040 C 
ATOM     11  O   UNL     1      -2.849   1.261   9.120  1.00  0.00    -0.272 OA
BRANCH   6  12
ATOM     12  O   UNL     1      -2.235   4.319   6.285  1.00  0.00    -0.373 OA
ATOM     13  H   UNL     1      -3.106   3.873   6.354  1.00  0.00     0.213 HD
ENDBRANCH   6  12
BRANCH   7  14
ATOM     14  C   UNL     1      -2.487   1.230   6.347  1.00  0.00     0.177 C 
BRANCH  14  15
ATOM     15  C   UNL     1      -1.866  -0.174   6.481  1.00  0.00     0.038 C 
BRANCH  15  16
ATOM     16  C   UNL     1      -0.333  -0.339   6.390  1.00  0.00    -0.015 C 
ATOM     17  C   UNL     1       0.351  -0.211   7.755  1.00  0.00     0.007 C 
ATOM     18  C   UNL     1       0.250   0.730   5.458  1.00  0.00     0.007 C 
ENDBRANCH  15  16
ENDBRANCH  14  15
BRANCH  14  19
ATOM     19  C   UNL     1      -3.995   1.530   6.043  1.00  0.00     0.245 C 
ATOM     20  O   UNL     1      -4.278   2.692   5.706  1.00  0.00    -0.272 OA
BRANCH  19  21
ATOM     21  N   UNL     1      -5.017   0.617   6.236  1.00  0.00    -0.332 N 
ATOM     22  C   UNL     1      -5.096  -0.701   5.631  1.00  0.00     0.147 C 
BRANCH  21  23
ATOM     23  C   UNL     1      -6.142   1.010   7.130  1.00  0.00     0.178 C 
BRANCH  23  24
ATOM     24  C   UNL     1      -7.540   0.599   6.626  1.00  0.00     0.070 C 
BRANCH  24  25
ATOM     25  C   UNL     1      -8.428  -0.149   7.593  1.00  0.00    -0.045 A 
ATOM     26  C   UNL     1      -9.121   0.530   8.603  1.00  0.00     0.004 A 
ATOM     27  C   UNL     1      -8.566  -1.542   7.494  1.00  0.00     0.004 A 
ATOM     28  C   UNL     1      -9.926  -0.171   9.503  1.00  0.00     0.000 A 
ATOM     29  C   UNL     1      -9.372  -2.241   8.394  1.00  0.00     0.000 A 
ATOM     30  C   UNL     1     -10.050  -1.554   9.400  1.00  0.00     0.000 A 
ENDBRANCH  24  25
ENDBRANCH  23  24
BRANCH  23  31
ATOM     31  C   UNL     1      -5.868   0.695   8.620  1.00  0.00     0.243 C 
ATOM     32  O   UNL     1      -5.707   1.552   9.485  1.00  0.00    -0.273 OA
ATOM     33  N   UNL     1      -5.633  -0.647   8.867  1.00  0.00    -0.341 N 
ATOM     34  H   UNL     1      -5.778  -1.314   8.105  1.00  0.00     0.164 HD
BRANCH  33  35
ATOM     35  C   UNL     1      -5.237  -1.160  10.182  1.00  0.00     0.194 C 
BRANCH  35  36
ATOM     36  C   UNL     1      -4.055  -2.169  10.140  1.00  0.00     0.017 C 
ATOM     37  C   UNL     1      -2.804  -1.595  10.827  1.00  0.00     0.010 C 
ATOM     38  C   UNL     1      -3.654  -2.571   8.715  1.00  0.00     0.010 C 
ENDBRANCH  35  36
BRANCH  35  39
ATOM     39  C   UNL     1      -6.441  -1.709  10.997  1.00  0.00     0.329 C 
ATOM     40  O   UNL     1      -6.614  -2.895  11.250  1.00  0.00    -0.250 OA
BRANCH  39  41
ATOM     41  O   UNL     1      -7.243  -0.710  11.477  1.00  0.00    -0.458 OA
BRANCH  41  42
ATOM     42  C   UNL     1      -6.682   0.113  12.528  1.00  0.00     0.205 CG0
ATOM     43  C   UNL     1      -7.205  -0.430  13.856  1.00  0.00     0.056 C 
ATOM     44  G   UNL     1      -7.101   1.576  12.282  1.00  0.00     0.000 G0
ENDBRANCH  41  42
ENDBRANCH  39  41
ENDBRANCH  35  39
ENDBRANCH  33  35
ENDBRANCH  23  31
ENDBRANCH  21  23
ENDBRANCH  19  21
ENDBRANCH  14  19
ENDBRANCH   7  14
ENDBRANCH   2   5
BRANCH   3  45
ATOM     45  C   UNL     1      -4.037   3.869  12.461  1.00  0.00     0.171 C 
BRANCH  45  46
ATOM     46  N   UNL     1      -5.166   3.056  12.028  1.00  0.00    -0.342 N 
ATOM     47  C   UNL     1      -6.061   2.508  12.913  1.00  0.00     0.247 C 
ATOM     48  O   UNL     1      -6.019   2.722  14.125  1.00  0.00    -0.273 OA
ATOM     49  H   UNL     1      -5.271   2.900  11.027  1.00  0.00     0.164 HD
BRANCH  47  50
ATOM     50  C   UNL     1      -7.110   1.579  12.285  1.00  0.00     0.212 CG0
ATOM     51  G   UNL     1      -6.663   0.126  12.543  1.00  0.00     0.000 G0
BRANCH  50  52
ATOM     52  N   UNL     1      -8.371   1.919  12.937  1.00  0.00    -0.339 N 
ATOM     53  C   UNL     1      -9.257   2.842  12.435  1.00  0.00     0.243 C 
ATOM     54  O   UNL     1      -9.028   3.495  11.420  1.00  0.00    -0.273 OA
ATOM     55  H   UNL     1      -8.567   1.493  13.840  1.00  0.00     0.164 HD
BRANCH  53  56
ATOM     56  C   UNL     1     -10.478   3.098  13.341  1.00  0.00     0.182 C 
BRANCH  56  57
ATOM     57  N   UNL     1     -10.387   4.409  13.990  1.00  0.00    -0.344 N 
ATOM     58  C   UNL     1      -9.463   4.683  14.970  1.00  0.00     0.220 C 
ATOM     59  O   UNL     1      -8.703   3.833  15.421  1.00  0.00    -0.275 OA
ATOM     60  H   UNL     1     -10.926   5.166  13.578  1.00  0.00     0.164 HD
BRANCH  58  61
ATOM     61  C   UNL     1      -9.511   6.119  15.457  1.00  0.00     0.100 C 
BRANCH  61  62
ATOM     62  C   UNL     1      -8.831   7.112  14.514  1.00  0.00     0.010 C 
BRANCH  62  63
ATOM     63  C   UNL     1      -8.064   8.232  15.229  1.00  0.00     0.000 C 
BRANCH  63  64
ATOM     64  C   UNL     1      -7.373   7.793  16.520  1.00  0.00    -0.003 C 
ATOM     65  C   UNL     1      -7.215   8.956  17.488  1.00  0.00     0.004 C 
ENDBRANCH  63  64
ENDBRANCH  62  63
ENDBRANCH  61  62
ENDBRANCH  58  61
ENDBRANCH  56  57
BRANCH  56  66
ATOM     66  C   UNL     1     -10.673   1.967  14.349  1.00  0.00     0.157 C 
BRANCH  66  67
ATOM     67  C   UNL     1     -12.121   1.584  14.463  1.00  0.00     0.305 C 
ATOM     68  O   UNL     1     -13.082   2.229  14.074  1.00  0.00    -0.252 OA
BRANCH  67  69
ATOM     69  O   UNL     1     -12.286   0.369  15.021  1.00  0.00    -0.481 OA
ATOM     70  H   UNL     1     -13.089   0.004  14.592  1.00  0.00     0.296 HD
ENDBRANCH  67  69
ENDBRANCH  66  67
ENDBRANCH  56  66
ENDBRANCH  53  56
ENDBRANCH  50  52
ENDBRANCH  47  50
ENDBRANCH  45  46
BRANCH  45  71
ATOM     71  C   UNL     1      -4.259   5.354  12.152  1.00  0.00     0.037 C 
BRANCH  71  72
ATOM     72  C   UNL     1      -5.726   5.762  12.308  1.00  0.00     0.026 C 
BRANCH  72  73
ATOM     73  C   UNL     1      -6.379   6.036  10.955  1.00  0.00     0.146 C 
BRANCH  73  74
ATOM     74  N   UNL     1      -5.432   5.645   9.915  1.00  0.00    -0.254 NA
ATOM     75  C   UNL     1      -5.818   4.786   9.045  1.00  0.00     0.185 C 
ATOM     76  N   UNL     1      -4.970   4.408   8.075  1.00  0.00    -0.370 N 
ATOM     77  N   UNL     1      -7.006   4.165   8.940  1.00  0.00    -0.370 N 
ATOM     78  H   UNL     1      -4.049   4.824   8.085  1.00  0.00     0.159 HD
ATOM     79  H   UNL     1      -5.148   3.641   7.452  1.00  0.00     0.159 HD
ATOM     80  H   UNL     1      -7.745   4.355   9.601  1.00  0.00     0.159 HD
ATOM     81  H   UNL     1      -7.234   3.593   8.144  1.00  0.00     0.159 HD
ENDBRANCH  73  74
ENDBRANCH  72  73
ENDBRANCH  71  72
ENDBRANCH  45  71
ENDBRANCH   3  45
TORSDOF 20
ENDMDL
MODEL 33
REMARK VINA RESULT:    -5.796      2.811      6.910
REMARK INTER + INTRA:         -24.281
REMARK INTER:                 -18.397
REMARK INTRA:                  -5.884
REMARK UNBOUND:                -7.644
REMARK SMILES CCCCCC(=O)N[C@H](CC(=O)O)C(=O)N[C@H]1C(=O)N[C@H](CCCN=C(N)N)C(=O)N[C@@H]2CC[C@H](O)N(C2=O)[C@@H](CC(C)C)C(=O)N(C)[C@@H](Cc2ccccc2)C(=O)N[C@H](C(C)C)C(=O)O[C@@H]1C
REMARK SMILES IDX 30 1 31 2 29 3 32 5 35 6 37 7 34 8 38 9 33 10 39 11 36 12
REMARK SMILES IDX 40 14 41 15 42 16 43 17 44 18 45 19 46 20 47 21 48 22 49 23
REMARK SMILES IDX 50 24 51 25 52 26 56 27 53 28 55 29 54 30 57 31 58 32 59 33
REMARK SMILES IDX 60 35 61 36 62 37 63 38 64 39 65 40 66 41 67 42 68 43 21 45
REMARK SMILES IDX 20 46 18 47 19 48 17 50 16 52 14 53 15 54 9 56 8 57 6 58
REMARK SMILES IDX 7 59 5 61 4 62 3 63 2 64 1 65 10 66 11 67 12 68 13 69 22 71
REMARK SMILES IDX 23 72 24 73 25 74 26 75 27 76 28 77
REMARK H PARENT 31 4 36 13 59 34 20 49 16 55 8 60 13 70 27 78 27 79 28 80
REMARK H PARENT 28 81
REMARK Flexibility Score:  259.900
ROOT
ATOM      1  O   UNL     1      -2.812  -0.268  10.422  1.00  0.00    -0.273 OA
ATOM      2  N   UNL     1      -4.061  -1.742  11.646  1.00  0.00    -0.343 N 
ATOM      3  C   UNL     1      -3.557  -0.488  11.378  1.00  0.00     0.243 C 
ATOM      4  H   UNL     1      -4.682  -1.883  12.433  1.00  0.00     0.164 HD
ENDROOT
BRANCH   2   5
ATOM      5  C   UNL     1      -3.631  -2.897  10.865  1.00  0.00     0.171 C 
ATOM      6  C   UNL     1      -1.775  -3.196   8.658  1.00  0.00     0.214 C 
ATOM      7  N   UNL     1      -3.170  -2.944   8.384  1.00  0.00    -0.303 N 
ATOM      8  C   UNL     1      -1.545  -3.963   9.951  1.00  0.00     0.057 C 
ATOM      9  C   UNL     1      -4.100  -2.741   9.390  1.00  0.00     0.247 C 
ATOM     10  C   UNL     1      -2.155  -3.207  11.111  1.00  0.00     0.040 C 
ATOM     11  O   UNL     1      -5.276  -2.440   9.146  1.00  0.00    -0.272 OA
BRANCH   6  12
ATOM     12  O   UNL     1      -1.113  -1.953   8.699  1.00  0.00    -0.373 OA
ATOM     13  H   UNL     1      -0.151  -2.138   8.652  1.00  0.00     0.213 HD
ENDBRANCH   6  12
BRANCH   7  14
ATOM     14  C   UNL     1      -3.553  -2.762   6.967  1.00  0.00     0.177 C 
BRANCH  14  15
ATOM     15  C   UNL     1      -4.322  -3.940   6.339  1.00  0.00     0.038 C 
BRANCH  15  16
ATOM     16  C   UNL     1      -3.588  -4.904   5.381  1.00  0.00    -0.015 C 
ATOM     17  C   UNL     1      -2.105  -4.557   5.226  1.00  0.00     0.007 C 
ATOM     18  C   UNL     1      -4.241  -4.853   3.994  1.00  0.00     0.007 C 
ENDBRANCH  15  16
ENDBRANCH  14  15
BRANCH  14  19
ATOM     19  C   UNL     1      -3.810  -1.246   6.664  1.00  0.00     0.245 C 
ATOM     20  O   UNL     1      -2.976  -0.438   7.106  1.00  0.00    -0.272 OA
BRANCH  19  21
ATOM     21  N   UNL     1      -4.949  -0.766   6.042  1.00  0.00    -0.332 N 
ATOM     22  C   UNL     1      -5.613  -1.382   4.907  1.00  0.00     0.147 C 
BRANCH  21  23
ATOM     23  C   UNL     1      -5.549   0.492   6.565  1.00  0.00     0.178 C 
BRANCH  23  24
ATOM     24  C   UNL     1      -5.276   1.743   5.705  1.00  0.00     0.070 C 
BRANCH  24  25
ATOM     25  C   UNL     1      -4.322   2.771   6.269  1.00  0.00    -0.045 A 
ATOM     26  C   UNL     1      -3.311   3.325   5.473  1.00  0.00     0.004 A 
ATOM     27  C   UNL     1      -4.435   3.182   7.606  1.00  0.00     0.004 A 
ATOM     28  C   UNL     1      -2.423   4.261   6.007  1.00  0.00     0.000 A 
ATOM     29  C   UNL     1      -3.547   4.119   8.137  1.00  0.00     0.000 A 
ATOM     30  C   UNL     1      -2.540   4.656   7.338  1.00  0.00     0.000 A 
ENDBRANCH  24  25
ENDBRANCH  23  24
BRANCH  23  31
ATOM     31  C   UNL     1      -7.020   0.319   7.014  1.00  0.00     0.243 C 
ATOM     32  O   UNL     1      -7.954   0.990   6.581  1.00  0.00    -0.273 OA
ATOM     33  N   UNL     1      -7.172  -0.539   8.089  1.00  0.00    -0.341 N 
ATOM     34  H   UNL     1      -6.356  -1.066   8.409  1.00  0.00     0.164 HD
BRANCH  33  35
ATOM     35  C   UNL     1      -8.458  -0.762   8.757  1.00  0.00     0.194 C 
BRANCH  35  36
ATOM     36  C   UNL     1      -9.641  -1.027   7.784  1.00  0.00     0.017 C 
ATOM     37  C   UNL     1     -10.957  -1.245   8.550  1.00  0.00     0.010 C 
ATOM     38  C   UNL     1      -9.424  -2.251   6.886  1.00  0.00     0.010 C 
ENDBRANCH  35  36
BRANCH  35  39
ATOM     39  C   UNL     1      -8.795   0.347   9.792  1.00  0.00     0.329 C 
ATOM     40  O   UNL     1      -8.699   1.548   9.567  1.00  0.00    -0.250 OA
BRANCH  39  41
ATOM     41  O   UNL     1      -9.295  -0.164  10.958  1.00  0.00    -0.458 OA
BRANCH  41  42
ATOM     42  C   UNL     1      -8.356  -0.307  12.050  1.00  0.00     0.205 CG0
ATOM     43  C   UNL     1      -9.105  -0.962  13.210  1.00  0.00     0.056 C 
ATOM     44  G   UNL     1      -7.809   1.087  12.414  1.00  0.00     0.000 G0
ENDBRANCH  41  42
ENDBRANCH  39  41
ENDBRANCH  35  39
ENDBRANCH  33  35
ENDBRANCH  23  31
ENDBRANCH  21  23
ENDBRANCH  19  21
ENDBRANCH  14  19
ENDBRANCH   7  14
ENDBRANCH   2   5
BRANCH   3  45
ATOM     45  C   UNL     1      -4.005   0.620  12.341  1.00  0.00     0.171 C 
BRANCH  45  46
ATOM     46  N   UNL     1      -5.400   0.884  12.016  1.00  0.00    -0.342 N 
ATOM     47  C   UNL     1      -6.384   0.926  12.971  1.00  0.00     0.247 C 
ATOM     48  O   UNL     1      -6.151   0.816  14.176  1.00  0.00    -0.273 OA
ATOM     49  H   UNL     1      -5.628   1.037  11.035  1.00  0.00     0.164 HD
BRANCH  47  50
ATOM     50  C   UNL     1      -7.810   1.092  12.429  1.00  0.00     0.212 CG0
ATOM     51  G   UNL     1      -8.340  -0.310  12.069  1.00  0.00     0.000 G0
BRANCH  50  52
ATOM     52  N   UNL     1      -8.563   1.736  13.502  1.00  0.00    -0.339 N 
ATOM     53  C   UNL     1      -9.231   2.926  13.349  1.00  0.00     0.243 C 
ATOM     54  O   UNL     1      -9.202   3.572  12.305  1.00  0.00    -0.273 OA
ATOM     55  H   UNL     1      -8.533   1.305  14.425  1.00  0.00     0.164 HD
BRANCH  53  56
ATOM     56  C   UNL     1      -9.881   3.453  14.645  1.00  0.00     0.182 C 
BRANCH  56  57
ATOM     57  N   UNL     1      -8.863   3.909  15.596  1.00  0.00    -0.344 N 
ATOM     58  C   UNL     1      -8.831   5.194  16.081  1.00  0.00     0.220 C 
ATOM     59  O   UNL     1      -9.603   6.066  15.697  1.00  0.00    -0.275 OA
ATOM     60  H   UNL     1      -8.271   3.196  16.015  1.00  0.00     0.164 HD
BRANCH  58  61
ATOM     61  C   UNL     1      -7.728   5.426  17.097  1.00  0.00     0.100 C 
BRANCH  61  62
ATOM     62  C   UNL     1      -6.778   6.566  16.726  1.00  0.00     0.010 C 
BRANCH  62  63
ATOM     63  C   UNL     1      -6.123   6.412  15.347  1.00  0.00     0.000 C 
BRANCH  63  64
ATOM     64  C   UNL     1      -4.713   6.992  15.256  1.00  0.00    -0.003 C 
ATOM     65  C   UNL     1      -4.008   6.952  16.604  1.00  0.00     0.004 C 
ENDBRANCH  63  64
ENDBRANCH  62  63
ENDBRANCH  61  62
ENDBRANCH  58  61
ENDBRANCH  56  57
BRANCH  56  66
ATOM     66  C   UNL     1     -10.823   2.419  15.259  1.00  0.00     0.157 C 
BRANCH  66  67
ATOM     67  C   UNL     1     -11.983   2.132  14.350  1.00  0.00     0.305 C 
ATOM     68  O   UNL     1     -12.779   2.941  13.900  1.00  0.00    -0.252 OA
BRANCH  67  69
ATOM     69  O   UNL     1     -12.054   0.832  14.006  1.00  0.00    -0.481 OA
ATOM     70  H   UNL     1     -11.796   0.808  13.060  1.00  0.00     0.296 HD
ENDBRANCH  67  69
ENDBRANCH  66  67
ENDBRANCH  56  66
ENDBRANCH  53  56
ENDBRANCH  50  52
ENDBRANCH  47  50
ENDBRANCH  45  46
BRANCH  45  71
ATOM     71  C   UNL     1      -3.135   1.869  12.160  1.00  0.00     0.037 C 
BRANCH  71  72
ATOM     72  C   UNL     1      -3.521   2.985  13.134  1.00  0.00     0.026 C 
BRANCH  72  73
ATOM     73  C   UNL     1      -3.976   4.241  12.394  1.00  0.00     0.146 C 
BRANCH  73  74
ATOM     74  N   UNL     1      -4.856   3.825  11.306  1.00  0.00    -0.254 NA
ATOM     75  C   UNL     1      -6.039   4.316  11.271  1.00  0.00     0.185 C 
ATOM     76  N   UNL     1      -6.871   3.953  10.281  1.00  0.00    -0.370 N 
ATOM     77  N   UNL     1      -6.618   5.188  12.115  1.00  0.00    -0.370 N 
ATOM     78  H   UNL     1      -6.516   3.292   9.605  1.00  0.00     0.159 HD
ATOM     79  H   UNL     1      -7.850   4.180  10.269  1.00  0.00     0.159 HD
ATOM     80  H   UNL     1      -6.108   5.551  12.907  1.00  0.00     0.159 HD
ATOM     81  H   UNL     1      -7.519   5.592  11.921  1.00  0.00     0.159 HD
ENDBRANCH  73  74
ENDBRANCH  72  73
ENDBRANCH  71  72
ENDBRANCH  45  71
ENDBRANCH   3  45
TORSDOF 20
ENDMDL
MODEL 34
REMARK VINA RESULT:    -5.747      2.834      5.704
REMARK INTER + INTRA:         -24.142
REMARK INTER:                 -18.768
REMARK INTRA:                  -5.374
REMARK UNBOUND:                -7.644
REMARK SMILES CCCCCC(=O)N[C@H](CC(=O)O)C(=O)N[C@H]1C(=O)N[C@H](CCCN=C(N)N)C(=O)N[C@@H]2CC[C@H](O)N(C2=O)[C@@H](CC(C)C)C(=O)N(C)[C@@H](Cc2ccccc2)C(=O)N[C@H](C(C)C)C(=O)O[C@@H]1C
REMARK SMILES IDX 30 1 31 2 29 3 32 5 35 6 37 7 34 8 38 9 33 10 39 11 36 12
REMARK SMILES IDX 40 14 41 15 42 16 43 17 44 18 45 19 46 20 47 21 48 22 49 23
REMARK SMILES IDX 50 24 51 25 52 26 56 27 53 28 55 29 54 30 57 31 58 32 59 33
REMARK SMILES IDX 60 35 61 36 62 37 63 38 64 39 65 40 66 41 67 42 68 43 21 45
REMARK SMILES IDX 20 46 18 47 19 48 17 50 16 52 14 53 15 54 9 56 8 57 6 58
REMARK SMILES IDX 7 59 5 61 4 62 3 63 2 64 1 65 10 66 11 67 12 68 13 69 22 71
REMARK SMILES IDX 23 72 24 73 25 74 26 75 27 76 28 77
REMARK H PARENT 31 4 36 13 59 34 20 49 16 55 8 60 13 70 27 78 27 79 28 80
REMARK H PARENT 28 81
REMARK Flexibility Score:  259.900
ROOT
ATOM      1  O   UNL     1      -2.180   4.495  11.482  1.00  0.00    -0.273 OA
ATOM      2  N   UNL     1      -3.939   3.969  10.118  1.00  0.00    -0.343 N 
ATOM      3  C   UNL     1      -3.378   4.245  11.346  1.00  0.00     0.243 C 
ATOM      4  H   UNL     1      -4.931   3.783  10.043  1.00  0.00     0.164 HD
ENDROOT
BRANCH   2   5
ATOM      5  C   UNL     1      -3.101   3.845   8.930  1.00  0.00     0.171 C 
ATOM      6  C   UNL     1      -3.673   3.073   6.195  1.00  0.00     0.214 C 
ATOM      7  N   UNL     1      -3.276   2.064   7.150  1.00  0.00    -0.303 N 
ATOM      8  C   UNL     1      -3.083   4.443   6.488  1.00  0.00     0.057 C 
ATOM      9  C   UNL     1      -3.038   2.356   8.483  1.00  0.00     0.247 C 
ATOM     10  C   UNL     1      -3.482   4.886   7.879  1.00  0.00     0.040 C 
ATOM     11  O   UNL     1      -2.783   1.473   9.313  1.00  0.00    -0.272 OA
BRANCH   6  12
ATOM     12  O   UNL     1      -5.080   3.133   6.192  1.00  0.00    -0.373 OA
ATOM     13  H   UNL     1      -5.336   3.849   5.572  1.00  0.00     0.213 HD
ENDBRANCH   6  12
BRANCH   7  14
ATOM     14  C   UNL     1      -3.275   0.662   6.682  1.00  0.00     0.177 C 
BRANCH  14  15
ATOM     15  C   UNL     1      -1.895   0.104   6.283  1.00  0.00     0.038 C 
BRANCH  15  16
ATOM     16  C   UNL     1      -0.616   0.779   6.827  1.00  0.00    -0.015 C 
ATOM     17  C   UNL     1       0.372   1.142   5.714  1.00  0.00     0.007 C 
ATOM     18  C   UNL     1       0.092  -0.166   7.808  1.00  0.00     0.007 C 
ENDBRANCH  15  16
ENDBRANCH  14  15
BRANCH  14  19
ATOM     19  C   UNL     1      -4.409  -0.151   7.396  1.00  0.00     0.245 C 
ATOM     20  O   UNL     1      -5.517   0.403   7.496  1.00  0.00    -0.272 OA
BRANCH  19  21
ATOM     21  N   UNL     1      -4.213  -1.377   8.006  1.00  0.00    -0.332 N 
ATOM     22  C   UNL     1      -3.105  -1.714   8.883  1.00  0.00     0.147 C 
BRANCH  21  23
ATOM     23  C   UNL     1      -5.207  -2.454   7.741  1.00  0.00     0.178 C 
BRANCH  23  24
ATOM     24  C   UNL     1      -4.660  -3.654   6.942  1.00  0.00     0.070 C 
BRANCH  24  25
ATOM     25  C   UNL     1      -5.047  -3.744   5.484  1.00  0.00    -0.045 A 
ATOM     26  C   UNL     1      -4.242  -4.434   4.569  1.00  0.00     0.004 A 
ATOM     27  C   UNL     1      -6.221  -3.128   5.024  1.00  0.00     0.004 A 
ATOM     28  C   UNL     1      -4.598  -4.498   3.220  1.00  0.00     0.000 A 
ATOM     29  C   UNL     1      -6.576  -3.194   3.676  1.00  0.00     0.000 A 
ATOM     30  C   UNL     1      -5.762  -3.876   2.774  1.00  0.00     0.000 A 
ENDBRANCH  24  25
ENDBRANCH  23  24
BRANCH  23  31
ATOM     31  C   UNL     1      -6.039  -2.828   8.991  1.00  0.00     0.243 C 
ATOM     32  O   UNL     1      -6.168  -3.974   9.413  1.00  0.00    -0.273 OA
ATOM     33  N   UNL     1      -6.786  -1.776   9.493  1.00  0.00    -0.341 N 
ATOM     34  H   UNL     1      -6.640  -0.844   9.097  1.00  0.00     0.164 HD
BRANCH  33  35
ATOM     35  C   UNL     1      -7.737  -1.927  10.598  1.00  0.00     0.194 C 
BRANCH  35  36
ATOM     36  C   UNL     1      -9.011  -1.046  10.464  1.00  0.00     0.017 C 
ATOM     37  C   UNL     1     -10.272  -1.910  10.283  1.00  0.00     0.010 C 
ATOM     38  C   UNL     1      -8.950  -0.071   9.282  1.00  0.00     0.010 C 
ENDBRANCH  35  36
BRANCH  35  39
ATOM     39  C   UNL     1      -7.066  -1.768  11.991  1.00  0.00     0.329 C 
ATOM     40  O   UNL     1      -6.092  -2.414  12.361  1.00  0.00    -0.250 OA
BRANCH  39  41
ATOM     41  O   UNL     1      -7.629  -0.763  12.728  1.00  0.00    -0.458 OA
BRANCH  41  42
ATOM     42  C   UNL     1      -6.728   0.268  13.200  1.00  0.00     0.205 CG0
ATOM     43  C   UNL     1      -6.772   0.245  14.726  1.00  0.00     0.056 C 
ATOM     44  G   UNL     1      -7.182   1.621  12.617  1.00  0.00     0.000 G0
ENDBRANCH  41  42
ENDBRANCH  39  41
ENDBRANCH  35  39
ENDBRANCH  33  35
ENDBRANCH  23  31
ENDBRANCH  21  23
ENDBRANCH  19  21
ENDBRANCH  14  19
ENDBRANCH   7  14
ENDBRANCH   2   5
BRANCH   3  45
ATOM     45  C   UNL     1      -4.354   4.240  12.530  1.00  0.00     0.171 C 
BRANCH  45  46
ATOM     46  N   UNL     1      -5.383   3.267  12.188  1.00  0.00    -0.342 N 
ATOM     47  C   UNL     1      -6.251   2.755  13.120  1.00  0.00     0.247 C 
ATOM     48  O   UNL     1      -6.272   3.132  14.292  1.00  0.00    -0.273 OA
ATOM     49  H   UNL     1      -5.438   2.970  11.216  1.00  0.00     0.164 HD
BRANCH  47  50
ATOM     50  C   UNL     1      -7.183   1.651  12.602  1.00  0.00     0.212 CG0
ATOM     51  G   UNL     1      -6.702   0.314  13.200  1.00  0.00     0.000 G0
BRANCH  50  52
ATOM     52  N   UNL     1      -8.522   2.032  13.044  1.00  0.00    -0.339 N 
ATOM     53  C   UNL     1      -9.436   2.657  12.232  1.00  0.00     0.243 C 
ATOM     54  O   UNL     1      -9.178   2.993  11.079  1.00  0.00    -0.273 OA
ATOM     55  H   UNL     1      -8.758   1.880  14.023  1.00  0.00     0.164 HD
BRANCH  53  56
ATOM     56  C   UNL     1     -10.750   3.039  12.944  1.00  0.00     0.182 C 
BRANCH  56  57
ATOM     57  N   UNL     1     -10.890   4.496  13.045  1.00  0.00    -0.344 N 
ATOM     58  C   UNL     1     -10.006   5.272  13.754  1.00  0.00     0.220 C 
ATOM     59  O   UNL     1      -9.085   4.799  14.410  1.00  0.00    -0.275 OA
ATOM     60  H   UNL     1     -11.575   4.936  12.436  1.00  0.00     0.164 HD
BRANCH  58  61
ATOM     61  C   UNL     1     -10.311   6.757  13.672  1.00  0.00     0.100 C 
BRANCH  61  62
ATOM     62  C   UNL     1      -9.324   7.542  12.809  1.00  0.00     0.010 C 
BRANCH  62  63
ATOM     63  C   UNL     1      -8.514   6.676  11.835  1.00  0.00     0.000 C 
BRANCH  63  64
ATOM     64  C   UNL     1      -7.957   7.438  10.634  1.00  0.00    -0.003 C 
ATOM     65  C   UNL     1      -7.050   6.554   9.789  1.00  0.00     0.004 C 
ENDBRANCH  63  64
ENDBRANCH  62  63
ENDBRANCH  61  62
ENDBRANCH  58  61
ENDBRANCH  56  57
BRANCH  56  66
ATOM     66  C   UNL     1     -10.870   2.353  14.303  1.00  0.00     0.157 C 
BRANCH  66  67
ATOM     67  C   UNL     1     -11.730   1.125  14.218  1.00  0.00     0.305 C 
ATOM     68  O   UNL     1     -11.685   0.146  14.948  1.00  0.00    -0.252 OA
BRANCH  67  69
ATOM     69  O   UNL     1     -12.652   1.212  13.240  1.00  0.00    -0.481 OA
ATOM     70  H   UNL     1     -12.161   1.557  12.464  1.00  0.00     0.296 HD
ENDBRANCH  67  69
ENDBRANCH  66  67
ENDBRANCH  56  66
ENDBRANCH  53  56
ENDBRANCH  50  52
ENDBRANCH  47  50
ENDBRANCH  45  46
BRANCH  45  71
ATOM     71  C   UNL     1      -4.945   5.639  12.741  1.00  0.00     0.037 C 
BRANCH  71  72
ATOM     72  C   UNL     1      -4.894   6.071  14.208  1.00  0.00     0.026 C 
BRANCH  72  73
ATOM     73  C   UNL     1      -6.165   6.812  14.618  1.00  0.00     0.146 C 
BRANCH  73  74
ATOM     74  N   UNL     1      -5.932   7.404  15.932  1.00  0.00    -0.254 NA
ATOM     75  C   UNL     1      -6.830   7.237  16.832  1.00  0.00     0.185 C 
ATOM     76  N   UNL     1      -6.644   7.769  18.051  1.00  0.00    -0.370 N 
ATOM     77  N   UNL     1      -7.997   6.576  16.748  1.00  0.00    -0.370 N 
ATOM     78  H   UNL     1      -5.792   8.291  18.197  1.00  0.00     0.159 HD
ATOM     79  H   UNL     1      -7.360   7.804  18.755  1.00  0.00     0.159 HD
ATOM     80  H   UNL     1      -8.269   6.120  15.890  1.00  0.00     0.159 HD
ATOM     81  H   UNL     1      -8.571   6.412  17.559  1.00  0.00     0.159 HD
ENDBRANCH  73  74
ENDBRANCH  72  73
ENDBRANCH  71  72
ENDBRANCH  45  71
ENDBRANCH   3  45
TORSDOF 20
ENDMDL
MODEL 35
REMARK VINA RESULT:    -5.743      3.260      9.206
REMARK INTER + INTRA:         -24.131
REMARK INTER:                 -19.111
REMARK INTRA:                  -5.020
REMARK UNBOUND:                -7.644
REMARK SMILES CCCCCC(=O)N[C@H](CC(=O)O)C(=O)N[C@H]1C(=O)N[C@H](CCCN=C(N)N)C(=O)N[C@@H]2CC[C@H](O)N(C2=O)[C@@H](CC(C)C)C(=O)N(C)[C@@H](Cc2ccccc2)C(=O)N[C@H](C(C)C)C(=O)O[C@@H]1C
REMARK SMILES IDX 30 1 31 2 29 3 32 5 35 6 37 7 34 8 38 9 33 10 39 11 36 12
REMARK SMILES IDX 40 14 41 15 42 16 43 17 44 18 45 19 46 20 47 21 48 22 49 23
REMARK SMILES IDX 50 24 51 25 52 26 56 27 53 28 55 29 54 30 57 31 58 32 59 33
REMARK SMILES IDX 60 35 61 36 62 37 63 38 64 39 65 40 66 41 67 42 68 43 21 45
REMARK SMILES IDX 20 46 18 47 19 48 17 50 16 52 14 53 15 54 9 56 8 57 6 58
REMARK SMILES IDX 7 59 5 61 4 62 3 63 2 64 1 65 10 66 11 67 12 68 13 69 22 71
REMARK SMILES IDX 23 72 24 73 25 74 26 75 27 76 28 77
REMARK H PARENT 31 4 36 13 59 34 20 49 16 55 8 60 13 70 27 78 27 79 28 80
REMARK H PARENT 28 81
REMARK Flexibility Score:  259.900
ROOT
ATOM      1  O   UNL     1      -4.966   2.595  11.763  1.00  0.00    -0.273 OA
ATOM      2  N   UNL     1      -3.931   4.580  11.294  1.00  0.00    -0.343 N 
ATOM      3  C   UNL     1      -4.295   3.284  10.995  1.00  0.00     0.243 C 
ATOM      4  H   UNL     1      -3.391   5.122  10.632  1.00  0.00     0.164 HD
ENDROOT
BRANCH   2   5
ATOM      5  C   UNL     1      -4.233   5.152  12.602  1.00  0.00     0.171 C 
ATOM      6  C   UNL     1      -6.044   4.359  14.722  1.00  0.00     0.214 C 
ATOM      7  N   UNL     1      -6.503   5.271  13.701  1.00  0.00    -0.303 N 
ATOM      8  C   UNL     1      -4.553   4.467  15.000  1.00  0.00     0.057 C 
ATOM      9  C   UNL     1      -5.706   5.651  12.632  1.00  0.00     0.247 C 
ATOM     10  C   UNL     1      -3.775   4.223  13.726  1.00  0.00     0.040 C 
ATOM     11  O   UNL     1      -6.135   6.363  11.715  1.00  0.00    -0.272 OA
BRANCH   6  12
ATOM     12  O   UNL     1      -6.375   3.053  14.313  1.00  0.00    -0.373 OA
ATOM     13  H   UNL     1      -7.241   3.106  13.855  1.00  0.00     0.213 HD
ENDBRANCH   6  12
BRANCH   7  14
ATOM     14  C   UNL     1      -7.923   5.679  13.754  1.00  0.00     0.177 C 
BRANCH  14  15
ATOM     15  C   UNL     1      -8.208   6.958  14.565  1.00  0.00     0.038 C 
BRANCH  15  16
ATOM     16  C   UNL     1      -8.495   6.851  16.079  1.00  0.00    -0.015 C 
ATOM     17  C   UNL     1      -9.348   5.627  16.427  1.00  0.00     0.007 C 
ATOM     18  C   UNL     1      -9.238   8.105  16.556  1.00  0.00     0.007 C 
ENDBRANCH  15  16
ENDBRANCH  14  15
BRANCH  14  19
ATOM     19  C   UNL     1      -8.659   5.258  12.436  1.00  0.00     0.245 C 
ATOM     20  O   UNL     1      -9.329   6.135  11.866  1.00  0.00    -0.272 OA
BRANCH  19  21
ATOM     21  N   UNL     1      -8.692   3.963  11.951  1.00  0.00    -0.332 N 
ATOM     22  C   UNL     1      -7.862   3.444  10.878  1.00  0.00     0.147 C 
BRANCH  21  23
ATOM     23  C   UNL     1      -9.662   3.014  12.563  1.00  0.00     0.178 C 
BRANCH  23  24
ATOM     24  C   UNL     1     -10.692   3.666  13.509  1.00  0.00     0.070 C 
BRANCH  24  25
ATOM     25  C   UNL     1     -11.407   2.755  14.480  1.00  0.00    -0.045 A 
ATOM     26  C   UNL     1     -12.741   2.383  14.267  1.00  0.00     0.004 A 
ATOM     27  C   UNL     1     -10.742   2.271  15.617  1.00  0.00     0.004 A 
ATOM     28  C   UNL     1     -13.399   1.555  15.178  1.00  0.00     0.000 A 
ATOM     29  C   UNL     1     -11.402   1.442  16.526  1.00  0.00     0.000 A 
ATOM     30  C   UNL     1     -12.731   1.087  16.307  1.00  0.00     0.000 A 
ENDBRANCH  24  25
ENDBRANCH  23  24
BRANCH  23  31
ATOM     31  C   UNL     1     -10.257   2.015  11.542  1.00  0.00     0.243 C 
ATOM     32  O   UNL     1     -11.347   2.159  10.995  1.00  0.00    -0.273 OA
ATOM     33  N   UNL     1      -9.533   0.840  11.433  1.00  0.00    -0.341 N 
ATOM     34  H   UNL     1      -8.634   0.776  11.918  1.00  0.00     0.164 HD
BRANCH  33  35
ATOM     35  C   UNL     1      -9.972  -0.295  10.617  1.00  0.00     0.194 C 
BRANCH  35  36
ATOM     36  C   UNL     1      -9.685  -1.684  11.254  1.00  0.00     0.017 C 
ATOM     37  C   UNL     1      -9.983  -1.679  12.764  1.00  0.00     0.010 C 
ATOM     38  C   UNL     1      -8.233  -2.143  11.075  1.00  0.00     0.010 C 
ENDBRANCH  35  36
BRANCH  35  39
ATOM     39  C   UNL     1      -9.459  -0.212   9.152  1.00  0.00     0.329 C 
ATOM     40  O   UNL     1     -10.129  -0.515   8.172  1.00  0.00    -0.250 OA
BRANCH  39  41
ATOM     41  O   UNL     1      -8.202   0.321   9.071  1.00  0.00    -0.458 OA
BRANCH  41  42
ATOM     42  C   UNL     1      -7.360  -0.180   8.005  1.00  0.00     0.205 CG0
ATOM     43  C   UNL     1      -7.913  -1.543   7.593  1.00  0.00     0.056 C 
ATOM     44  G   UNL     1      -5.910  -0.264   8.522  1.00  0.00     0.000 G0
ENDBRANCH  41  42
ENDBRANCH  39  41
ENDBRANCH  35  39
ENDBRANCH  33  35
ENDBRANCH  23  31
ENDBRANCH  21  23
ENDBRANCH  19  21
ENDBRANCH  14  19
ENDBRANCH   7  14
ENDBRANCH   2   5
BRANCH   3  45
ATOM     45  C   UNL     1      -3.822   2.768   9.629  1.00  0.00     0.171 C 
BRANCH  45  46
ATOM     46  N   UNL     1      -4.418   1.448   9.479  1.00  0.00    -0.342 N 
ATOM     47  C   UNL     1      -5.275   1.140   8.452  1.00  0.00     0.247 C 
ATOM     48  O   UNL     1      -5.544   1.929   7.546  1.00  0.00    -0.273 OA
ATOM     49  H   UNL     1      -4.178   0.746  10.177  1.00  0.00     0.164 HD
BRANCH  47  50
ATOM     50  C   UNL     1      -5.902  -0.260   8.527  1.00  0.00     0.212 CG0
ATOM     51  G   UNL     1      -7.337  -0.159   7.973  1.00  0.00     0.000 G0
BRANCH  50  52
ATOM     52  N   UNL     1      -5.033  -1.119   7.726  1.00  0.00    -0.339 N 
ATOM     53  C   UNL     1      -4.225  -2.090   8.266  1.00  0.00     0.243 C 
ATOM     54  O   UNL     1      -4.132  -2.276   9.476  1.00  0.00    -0.273 OA
ATOM     55  H   UNL     1      -4.983  -0.939   6.725  1.00  0.00     0.164 HD
BRANCH  53  56
ATOM     56  C   UNL     1      -3.335  -2.810   7.234  1.00  0.00     0.182 C 
BRANCH  56  57
ATOM     57  N   UNL     1      -2.430  -1.867   6.569  1.00  0.00    -0.344 N 
ATOM     58  C   UNL     1      -1.211  -1.519   7.098  1.00  0.00     0.220 C 
ATOM     59  O   UNL     1      -0.826  -1.915   8.194  1.00  0.00    -0.275 OA
ATOM     60  H   UNL     1      -2.664  -1.597   5.618  1.00  0.00     0.164 HD
BRANCH  58  61
ATOM     61  C   UNL     1      -0.418  -0.575   6.214  1.00  0.00     0.100 C 
BRANCH  61  62
ATOM     62  C   UNL     1      -0.854   0.886   6.325  1.00  0.00     0.010 C 
BRANCH  62  63
ATOM     63  C   UNL     1       0.294   1.864   6.607  1.00  0.00     0.000 C 
BRANCH  63  64
ATOM     64  C   UNL     1       0.063   3.274   6.066  1.00  0.00    -0.003 C 
ATOM     65  C   UNL     1       1.237   3.742   5.218  1.00  0.00     0.004 C 
ENDBRANCH  63  64
ENDBRANCH  62  63
ENDBRANCH  61  62
ENDBRANCH  58  61
ENDBRANCH  56  57
BRANCH  56  66
ATOM     66  C   UNL     1      -4.169  -3.609   6.234  1.00  0.00     0.157 C 
BRANCH  66  67
ATOM     67  C   UNL     1      -3.302  -4.495   5.387  1.00  0.00     0.305 C 
ATOM     68  O   UNL     1      -3.526  -4.863   4.244  1.00  0.00    -0.252 OA
BRANCH  67  69
ATOM     69  O   UNL     1      -2.157  -4.836   6.008  1.00  0.00    -0.481 OA
ATOM     70  H   UNL     1      -2.438  -5.407   6.754  1.00  0.00     0.296 HD
ENDBRANCH  67  69
ENDBRANCH  66  67
ENDBRANCH  56  66
ENDBRANCH  53  56
ENDBRANCH  50  52
ENDBRANCH  47  50
ENDBRANCH  45  46
BRANCH  45  71
ATOM     71  C   UNL     1      -2.291   2.706   9.583  1.00  0.00     0.037 C 
BRANCH  71  72
ATOM     72  C   UNL     1      -1.767   1.278   9.759  1.00  0.00     0.026 C 
BRANCH  72  73
ATOM     73  C   UNL     1      -1.679   0.891  11.234  1.00  0.00     0.146 C 
BRANCH  73  74
ATOM     74  N   UNL     1      -2.402  -0.365  11.410  1.00  0.00    -0.254 NA
ATOM     75  C   UNL     1      -3.276  -0.426  12.346  1.00  0.00     0.185 C 
ATOM     76  N   UNL     1      -3.958  -1.568  12.533  1.00  0.00    -0.370 N 
ATOM     77  N   UNL     1      -3.642   0.524  13.224  1.00  0.00    -0.370 N 
ATOM     78  H   UNL     1      -3.738  -2.338  11.917  1.00  0.00     0.159 HD
ATOM     79  H   UNL     1      -4.547  -1.737  13.329  1.00  0.00     0.159 HD
ATOM     80  H   UNL     1      -3.215   1.437  13.200  1.00  0.00     0.159 HD
ATOM     81  H   UNL     1      -4.426   0.397  13.843  1.00  0.00     0.159 HD
ENDBRANCH  73  74
ENDBRANCH  72  73
ENDBRANCH  71  72
ENDBRANCH  45  71
ENDBRANCH   3  45
TORSDOF 20
ENDMDL
MODEL 36
REMARK VINA RESULT:    -5.713      2.838      7.395
REMARK INTER + INTRA:         -24.044
REMARK INTER:                 -19.545
REMARK INTRA:                  -4.500
REMARK UNBOUND:                -7.644
REMARK SMILES CCCCCC(=O)N[C@H](CC(=O)O)C(=O)N[C@H]1C(=O)N[C@H](CCCN=C(N)N)C(=O)N[C@@H]2CC[C@H](O)N(C2=O)[C@@H](CC(C)C)C(=O)N(C)[C@@H](Cc2ccccc2)C(=O)N[C@H](C(C)C)C(=O)O[C@@H]1C
REMARK SMILES IDX 30 1 31 2 29 3 32 5 35 6 37 7 34 8 38 9 33 10 39 11 36 12
REMARK SMILES IDX 40 14 41 15 42 16 43 17 44 18 45 19 46 20 47 21 48 22 49 23
REMARK SMILES IDX 50 24 51 25 52 26 56 27 53 28 55 29 54 30 57 31 58 32 59 33
REMARK SMILES IDX 60 35 61 36 62 37 63 38 64 39 65 40 66 41 67 42 68 43 21 45
REMARK SMILES IDX 20 46 18 47 19 48 17 50 16 52 14 53 15 54 9 56 8 57 6 58
REMARK SMILES IDX 7 59 5 61 4 62 3 63 2 64 1 65 10 66 11 67 12 68 13 69 22 71
REMARK SMILES IDX 23 72 24 73 25 74 26 75 27 76 28 77
REMARK H PARENT 31 4 36 13 59 34 20 49 16 55 8 60 13 70 27 78 27 79 28 80
REMARK H PARENT 28 81
REMARK Flexibility Score:  259.900
ROOT
ATOM      1  O   UNL     1      -1.653   2.149  11.291  1.00  0.00    -0.273 OA
ATOM      2  N   UNL     1      -3.395   3.024  12.486  1.00  0.00    -0.343 N 
ATOM      3  C   UNL     1      -2.320   3.127  11.631  1.00  0.00     0.243 C 
ATOM      4  H   UNL     1      -3.930   3.848  12.732  1.00  0.00     0.164 HD
ENDROOT
BRANCH   2   5
ATOM      5  C   UNL     1      -3.717   1.752  13.125  1.00  0.00     0.171 C 
ATOM      6  C   UNL     1      -4.490  -0.836  12.070  1.00  0.00     0.214 C 
ATOM      7  N   UNL     1      -5.512   0.126  12.412  1.00  0.00    -0.303 N 
ATOM      8  C   UNL     1      -3.235  -0.707  12.920  1.00  0.00     0.057 C 
ATOM      9  C   UNL     1      -5.211   1.398  12.872  1.00  0.00     0.247 C 
ATOM     10  C   UNL     1      -2.670   0.691  12.792  1.00  0.00     0.040 C 
ATOM     11  O   UNL     1      -6.089   2.245  13.080  1.00  0.00    -0.272 OA
BRANCH   6  12
ATOM     12  O   UNL     1      -4.180  -0.669  10.706  1.00  0.00    -0.373 OA
ATOM     13  H   UNL     1      -4.693   0.104  10.387  1.00  0.00     0.213 HD
ENDBRANCH   6  12
BRANCH   7  14
ATOM     14  C   UNL     1      -6.910  -0.246  12.111  1.00  0.00     0.177 C 
BRANCH  14  15
ATOM     15  C   UNL     1      -7.854  -0.290  13.328  1.00  0.00     0.038 C 
BRANCH  15  16
ATOM     16  C   UNL     1      -9.229  -0.983  13.201  1.00  0.00    -0.015 C 
ATOM     17  C   UNL     1      -9.145  -2.312  12.444  1.00  0.00     0.007 C 
ATOM     18  C   UNL     1     -10.205  -0.066  12.454  1.00  0.00     0.007 C 
ENDBRANCH  15  16
ENDBRANCH  14  15
BRANCH  14  19
ATOM     19  C   UNL     1      -7.305   0.240  10.674  1.00  0.00     0.245 C 
ATOM     20  O   UNL     1      -7.558   1.449  10.542  1.00  0.00    -0.272 OA
BRANCH  19  21
ATOM     21  N   UNL     1      -7.492  -0.608   9.597  1.00  0.00    -0.332 N 
ATOM     22  C   UNL     1      -8.775  -1.085   9.113  1.00  0.00     0.147 C 
BRANCH  21  23
ATOM     23  C   UNL     1      -6.284  -1.088   8.871  1.00  0.00     0.178 C 
BRANCH  23  24
ATOM     24  C   UNL     1      -6.327  -2.573   8.457  1.00  0.00     0.070 C 
BRANCH  24  25
ATOM     25  C   UNL     1      -5.003  -3.286   8.312  1.00  0.00    -0.045 A 
ATOM     26  C   UNL     1      -4.290  -3.712   9.439  1.00  0.00     0.004 A 
ATOM     27  C   UNL     1      -4.465  -3.528   7.038  1.00  0.00     0.004 A 
ATOM     28  C   UNL     1      -3.058  -4.355   9.297  1.00  0.00     0.000 A 
ATOM     29  C   UNL     1      -3.235  -4.172   6.898  1.00  0.00     0.000 A 
ATOM     30  C   UNL     1      -2.531  -4.582   8.028  1.00  0.00     0.000 A 
ENDBRANCH  24  25
ENDBRANCH  23  24
BRANCH  23  31
ATOM     31  C   UNL     1      -5.821  -0.116   7.760  1.00  0.00     0.243 C 
ATOM     32  O   UNL     1      -6.467   0.124   6.744  1.00  0.00    -0.273 OA
ATOM     33  N   UNL     1      -4.518   0.327   7.920  1.00  0.00    -0.341 N 
ATOM     34  H   UNL     1      -4.028   0.090   8.786  1.00  0.00     0.164 HD
BRANCH  33  35
ATOM     35  C   UNL     1      -3.830   1.159   6.930  1.00  0.00     0.194 C 
BRANCH  35  36
ATOM     36  C   UNL     1      -2.683   0.431   6.175  1.00  0.00     0.017 C 
ATOM     37  C   UNL     1      -2.032  -0.650   7.055  1.00  0.00     0.010 C 
ATOM     38  C   UNL     1      -1.569   1.377   5.711  1.00  0.00     0.010 C 
ENDBRANCH  35  36
BRANCH  35  39
ATOM     39  C   UNL     1      -3.366   2.523   7.514  1.00  0.00     0.329 C 
ATOM     40  O   UNL     1      -2.278   2.706   8.048  1.00  0.00    -0.250 OA
BRANCH  39  41
ATOM     41  O   UNL     1      -4.273   3.521   7.290  1.00  0.00    -0.458 OA
BRANCH  41  42
ATOM     42  C   UNL     1      -5.197   3.802   8.368  1.00  0.00     0.205 CG0
ATOM     43  C   UNL     1      -6.604   3.515   7.847  1.00  0.00     0.056 C 
ATOM     44  G   UNL     1      -5.017   5.270   8.801  1.00  0.00     0.000 G0
ENDBRANCH  41  42
ENDBRANCH  39  41
ENDBRANCH  35  39
ENDBRANCH  33  35
ENDBRANCH  23  31
ENDBRANCH  21  23
ENDBRANCH  19  21
ENDBRANCH  14  19
ENDBRANCH   7  14
ENDBRANCH   2   5
BRANCH   3  45
ATOM     45  C   UNL     1      -2.024   4.541  11.114  1.00  0.00     0.171 C 
BRANCH  45  46
ATOM     46  N   UNL     1      -2.919   4.741   9.982  1.00  0.00    -0.342 N 
ATOM     47  C   UNL     1      -4.175   5.276  10.121  1.00  0.00     0.247 C 
ATOM     48  O   UNL     1      -4.608   5.692  11.196  1.00  0.00    -0.273 OA
ATOM     49  H   UNL     1      -2.578   4.463   9.064  1.00  0.00     0.164 HD
BRANCH  47  50
ATOM     50  C   UNL     1      -5.019   5.296   8.839  1.00  0.00     0.212 CG0
ATOM     51  G   UNL     1      -5.189   3.838   8.369  1.00  0.00     0.000 G0
BRANCH  50  52
ATOM     52  N   UNL     1      -6.280   5.932   9.213  1.00  0.00    -0.339 N 
ATOM     53  C   UNL     1      -6.630   7.201   8.822  1.00  0.00     0.243 C 
ATOM     54  O   UNL     1      -5.883   7.923   8.168  1.00  0.00    -0.273 OA
ATOM     55  H   UNL     1      -6.895   5.426   9.847  1.00  0.00     0.164 HD
BRANCH  53  56
ATOM     56  C   UNL     1      -7.969   7.692   9.409  1.00  0.00     0.182 C 
BRANCH  56  57
ATOM     57  N   UNL     1      -8.335   6.919  10.601  1.00  0.00    -0.344 N 
ATOM     58  C   UNL     1      -8.198   7.420  11.873  1.00  0.00     0.220 C 
ATOM     59  O   UNL     1      -7.695   8.514  12.105  1.00  0.00    -0.275 OA
ATOM     60  H   UNL     1      -8.847   6.055  10.450  1.00  0.00     0.164 HD
BRANCH  58  61
ATOM     61  C   UNL     1      -8.693   6.471  12.949  1.00  0.00     0.100 C 
BRANCH  61  62
ATOM     62  C   UNL     1     -10.137   6.010  12.747  1.00  0.00     0.010 C 
BRANCH  62  63
ATOM     63  C   UNL     1     -11.186   7.096  13.015  1.00  0.00     0.000 C 
BRANCH  63  64
ATOM     64  C   UNL     1     -12.310   7.150  11.981  1.00  0.00    -0.003 C 
ATOM     65  C   UNL     1     -13.612   6.604  12.547  1.00  0.00     0.004 C 
ENDBRANCH  63  64
ENDBRANCH  62  63
ENDBRANCH  61  62
ENDBRANCH  58  61
ENDBRANCH  56  57
BRANCH  56  66
ATOM     66  C   UNL     1      -9.077   7.688   8.358  1.00  0.00     0.157 C 
BRANCH  66  67
ATOM     67  C   UNL     1      -9.902   8.941   8.433  1.00  0.00     0.305 C 
ATOM     68  O   UNL     1      -9.490  10.091   8.423  1.00  0.00    -0.252 OA
BRANCH  67  69
ATOM     69  O   UNL     1     -11.223   8.683   8.465  1.00  0.00    -0.481 OA
ATOM     70  H   UNL     1     -11.651   9.565   8.466  1.00  0.00     0.296 HD
ENDBRANCH  67  69
ENDBRANCH  66  67
ENDBRANCH  56  66
ENDBRANCH  53  56
ENDBRANCH  50  52
ENDBRANCH  47  50
ENDBRANCH  45  46
BRANCH  45  71
ATOM     71  C   UNL     1      -0.553   4.662  10.701  1.00  0.00     0.037 C 
BRANCH  71  72
ATOM     72  C   UNL     1      -0.346   5.716   9.611  1.00  0.00     0.026 C 
BRANCH  72  73
ATOM     73  C   UNL     1       0.128   5.085   8.303  1.00  0.00     0.146 C 
BRANCH  73  74
ATOM     74  N   UNL     1       0.133   6.126   7.280  1.00  0.00    -0.254 NA
ATOM     75  C   UNL     1      -0.771   6.079   6.373  1.00  0.00     0.185 C 
ATOM     76  N   UNL     1      -0.793   7.024   5.419  1.00  0.00    -0.370 N 
ATOM     77  N   UNL     1      -1.761   5.184   6.212  1.00  0.00    -0.370 N 
ATOM     78  H   UNL     1      -0.076   7.734   5.462  1.00  0.00     0.159 HD
ATOM     79  H   UNL     1      -1.375   6.972   4.602  1.00  0.00     0.159 HD
ATOM     80  H   UNL     1      -1.871   4.418   6.859  1.00  0.00     0.159 HD
ATOM     81  H   UNL     1      -2.486   5.315   5.526  1.00  0.00     0.159 HD
ENDBRANCH  73  74
ENDBRANCH  72  73
ENDBRANCH  71  72
ENDBRANCH  45  71
ENDBRANCH   3  45
TORSDOF 20
ENDMDL
MODEL 37
REMARK VINA RESULT:    -5.691      2.879      5.902
REMARK INTER + INTRA:         -23.982
REMARK INTER:                 -19.424
REMARK INTRA:                  -4.558
REMARK UNBOUND:                -7.644
REMARK SMILES CCCCCC(=O)N[C@H](CC(=O)O)C(=O)N[C@H]1C(=O)N[C@H](CCCN=C(N)N)C(=O)N[C@@H]2CC[C@H](O)N(C2=O)[C@@H](CC(C)C)C(=O)N(C)[C@@H](Cc2ccccc2)C(=O)N[C@H](C(C)C)C(=O)O[C@@H]1C
REMARK SMILES IDX 30 1 31 2 29 3 32 5 35 6 37 7 34 8 38 9 33 10 39 11 36 12
REMARK SMILES IDX 40 14 41 15 42 16 43 17 44 18 45 19 46 20 47 21 48 22 49 23
REMARK SMILES IDX 50 24 51 25 52 26 56 27 53 28 55 29 54 30 57 31 58 32 59 33
REMARK SMILES IDX 60 35 61 36 62 37 63 38 64 39 65 40 66 41 67 42 68 43 21 45
REMARK SMILES IDX 20 46 18 47 19 48 17 50 16 52 14 53 15 54 9 56 8 57 6 58
REMARK SMILES IDX 7 59 5 61 4 62 3 63 2 64 1 65 10 66 11 67 12 68 13 69 22 71
REMARK SMILES IDX 23 72 24 73 25 74 26 75 27 76 28 77
REMARK H PARENT 31 4 36 13 59 34 20 49 16 55 8 60 13 70 27 78 27 79 28 80
REMARK H PARENT 28 81
REMARK Flexibility Score:  259.900
ROOT
ATOM      1  O   UNL     1      -4.160   5.776   9.030  1.00  0.00    -0.273 OA
ATOM      2  N   UNL     1      -4.135   5.206  11.244  1.00  0.00    -0.343 N 
ATOM      3  C   UNL     1      -4.704   5.791  10.134  1.00  0.00     0.243 C 
ATOM      4  H   UNL     1      -4.619   5.225  12.134  1.00  0.00     0.164 HD
ENDROOT
BRANCH   2   5
ATOM      5  C   UNL     1      -2.792   4.641  11.180  1.00  0.00     0.171 C 
ATOM      6  C   UNL     1      -1.046   3.975   8.963  1.00  0.00     0.214 C 
ATOM      7  N   UNL     1      -1.945   2.972   9.485  1.00  0.00    -0.303 N 
ATOM      8  C   UNL     1      -0.591   4.979  10.011  1.00  0.00     0.057 C 
ATOM      9  C   UNL     1      -2.841   3.239  10.508  1.00  0.00     0.247 C 
ATOM     10  C   UNL     1      -1.795   5.658  10.626  1.00  0.00     0.040 C 
ATOM     11  O   UNL     1      -3.668   2.400  10.890  1.00  0.00    -0.272 OA
BRANCH   6  12
ATOM     12  O   UNL     1      -1.701   4.632   7.903  1.00  0.00    -0.373 OA
ATOM     13  H   UNL     1      -2.275   5.320   8.303  1.00  0.00     0.213 HD
ENDBRANCH   6  12
BRANCH   7  14
ATOM     14  C   UNL     1      -1.981   1.673   8.781  1.00  0.00     0.177 C 
BRANCH  14  15
ATOM     15  C   UNL     1      -1.431   1.690   7.342  1.00  0.00     0.038 C 
BRANCH  15  16
ATOM     16  C   UNL     1      -0.051   1.062   7.047  1.00  0.00    -0.015 C 
ATOM     17  C   UNL     1       0.786   1.915   6.090  1.00  0.00     0.007 C 
ATOM     18  C   UNL     1      -0.236  -0.325   6.418  1.00  0.00     0.007 C 
ENDBRANCH  15  16
ENDBRANCH  14  15
BRANCH  14  19
ATOM     19  C   UNL     1      -1.810   0.497   9.804  1.00  0.00     0.245 C 
ATOM     20  O   UNL     1      -0.808   0.535  10.538  1.00  0.00    -0.272 OA
BRANCH  19  21
ATOM     21  N   UNL     1      -2.637  -0.612   9.849  1.00  0.00    -0.332 N 
ATOM     22  C   UNL     1      -3.089  -1.276  11.059  1.00  0.00     0.147 C 
BRANCH  21  23
ATOM     23  C   UNL     1      -3.101  -1.188   8.557  1.00  0.00     0.178 C 
BRANCH  23  24
ATOM     24  C   UNL     1      -3.056  -2.728   8.484  1.00  0.00     0.070 C 
BRANCH  24  25
ATOM     25  C   UNL     1      -3.356  -3.363   7.146  1.00  0.00    -0.045 A 
ATOM     26  C   UNL     1      -4.660  -3.376   6.634  1.00  0.00     0.004 A 
ATOM     27  C   UNL     1      -2.328  -3.955   6.397  1.00  0.00     0.004 A 
ATOM     28  C   UNL     1      -4.932  -3.979   5.405  1.00  0.00     0.000 A 
ATOM     29  C   UNL     1      -2.601  -4.557   5.168  1.00  0.00     0.000 A 
ATOM     30  C   UNL     1      -3.904  -4.571   4.674  1.00  0.00     0.000 A 
ENDBRANCH  24  25
ENDBRANCH  23  24
BRANCH  23  31
ATOM     31  C   UNL     1      -4.415  -0.550   8.048  1.00  0.00     0.243 C 
ATOM     32  O   UNL     1      -4.521   0.043   6.978  1.00  0.00    -0.273 OA
ATOM     33  N   UNL     1      -5.427  -0.541   8.992  1.00  0.00    -0.341 N 
ATOM     34  H   UNL     1      -5.278  -1.047   9.869  1.00  0.00     0.164 HD
BRANCH  33  35
ATOM     35  C   UNL     1      -6.719   0.116   8.773  1.00  0.00     0.194 C 
BRANCH  35  36
ATOM     36  C   UNL     1      -7.312  -0.107   7.353  1.00  0.00     0.017 C 
ATOM     37  C   UNL     1      -7.600   1.230   6.650  1.00  0.00     0.010 C 
ATOM     38  C   UNL     1      -8.618  -0.911   7.364  1.00  0.00     0.010 C 
ENDBRANCH  35  36
BRANCH  35  39
ATOM     39  C   UNL     1      -6.698   1.621   9.163  1.00  0.00     0.329 C 
ATOM     40  O   UNL     1      -5.900   2.435   8.712  1.00  0.00    -0.250 OA
BRANCH  39  41
ATOM     41  O   UNL     1      -7.726   1.955  10.000  1.00  0.00    -0.458 OA
BRANCH  41  42
ATOM     42  C   UNL     1      -7.354   2.373  11.336  1.00  0.00     0.205 CG0
ATOM     43  C   UNL     1      -7.553   1.173  12.259  1.00  0.00     0.056 C 
ATOM     44  G   UNL     1      -8.231   3.576  11.736  1.00  0.00     0.000 G0
ENDBRANCH  41  42
ENDBRANCH  39  41
ENDBRANCH  35  39
ENDBRANCH  33  35
ENDBRANCH  23  31
ENDBRANCH  21  23
ENDBRANCH  19  21
ENDBRANCH  14  19
ENDBRANCH   7  14
ENDBRANCH   2   5
BRANCH   3  45
ATOM     45  C   UNL     1      -6.074   6.444  10.365  1.00  0.00     0.171 C 
BRANCH  45  46
ATOM     46  N   UNL     1      -7.013   5.342  10.530  1.00  0.00    -0.342 N 
ATOM     47  C   UNL     1      -7.332   4.826  11.761  1.00  0.00     0.247 C 
ATOM     48  O   UNL     1      -6.909   5.301  12.815  1.00  0.00    -0.273 OA
ATOM     49  H   UNL     1      -7.431   4.956   9.686  1.00  0.00     0.164 HD
BRANCH  47  50
ATOM     50  C   UNL     1      -8.241   3.589  11.731  1.00  0.00     0.212 CG0
ATOM     51  G   UNL     1      -7.367   2.377  11.352  1.00  0.00     0.000 G0
BRANCH  50  52
ATOM     52  N   UNL     1      -8.811   3.492  13.072  1.00  0.00    -0.339 N 
ATOM     53  C   UNL     1     -10.087   3.897  13.381  1.00  0.00     0.243 C 
ATOM     54  O   UNL     1     -10.832   4.423  12.559  1.00  0.00    -0.273 OA
ATOM     55  H   UNL     1      -8.205   3.167  13.822  1.00  0.00     0.164 HD
BRANCH  53  56
ATOM     56  C   UNL     1     -10.438   3.778  14.878  1.00  0.00     0.182 C 
BRANCH  56  57
ATOM     57  N   UNL     1      -9.348   4.288  15.716  1.00  0.00    -0.344 N 
ATOM     58  C   UNL     1      -9.108   5.631  15.875  1.00  0.00     0.220 C 
ATOM     59  O   UNL     1      -9.739   6.493  15.272  1.00  0.00    -0.275 OA
ATOM     60  H   UNL     1      -8.870   3.615  16.309  1.00  0.00     0.164 HD
BRANCH  58  61
ATOM     61  C   UNL     1      -7.969   5.930  16.832  1.00  0.00     0.100 C 
BRANCH  61  62
ATOM     62  C   UNL     1      -6.846   6.763  16.212  1.00  0.00     0.010 C 
BRANCH  62  63
ATOM     63  C   UNL     1      -5.502   6.646  16.942  1.00  0.00     0.000 C 
BRANCH  63  64
ATOM     64  C   UNL     1      -4.309   7.172  16.146  1.00  0.00    -0.003 C 
ATOM     65  C   UNL     1      -3.044   7.193  16.991  1.00  0.00     0.004 C 
ENDBRANCH  63  64
ENDBRANCH  62  63
ENDBRANCH  61  62
ENDBRANCH  58  61
ENDBRANCH  56  57
BRANCH  56  66
ATOM     66  C   UNL     1     -10.831   2.349  15.250  1.00  0.00     0.157 C 
BRANCH  66  67
ATOM     67  C   UNL     1      -9.703   1.636  15.939  1.00  0.00     0.305 C 
ATOM     68  O   UNL     1      -8.536   1.590  15.578  1.00  0.00    -0.252 OA
BRANCH  67  69
ATOM     69  O   UNL     1     -10.092   1.054  17.089  1.00  0.00    -0.481 OA
ATOM     70  H   UNL     1     -10.485   1.780  17.617  1.00  0.00     0.296 HD
ENDBRANCH  67  69
ENDBRANCH  66  67
ENDBRANCH  56  66
ENDBRANCH  53  56
ENDBRANCH  50  52
ENDBRANCH  47  50
ENDBRANCH  45  46
BRANCH  45  71
ATOM     71  C   UNL     1      -6.449   7.332   9.173  1.00  0.00     0.037 C 
BRANCH  71  72
ATOM     72  C   UNL     1      -7.334   8.510   9.589  1.00  0.00     0.026 C 
BRANCH  72  73
ATOM     73  C   UNL     1      -8.817   8.153   9.507  1.00  0.00     0.146 C 
BRANCH  73  74
ATOM     74  N   UNL     1      -9.229   7.653  10.815  1.00  0.00    -0.254 NA
ATOM     75  C   UNL     1     -10.425   7.903  11.202  1.00  0.00     0.185 C 
ATOM     76  N   UNL     1     -10.834   7.455  12.400  1.00  0.00    -0.370 N 
ATOM     77  N   UNL     1     -11.396   8.580  10.564  1.00  0.00    -0.370 N 
ATOM     78  H   UNL     1     -10.162   6.940  12.950  1.00  0.00     0.159 HD
ATOM     79  H   UNL     1     -11.700   7.732  12.829  1.00  0.00     0.159 HD
ATOM     80  H   UNL     1     -11.232   8.973   9.649  1.00  0.00     0.159 HD
ATOM     81  H   UNL     1     -12.337   8.614  10.919  1.00  0.00     0.159 HD
ENDBRANCH  73  74
ENDBRANCH  72  73
ENDBRANCH  71  72
ENDBRANCH  45  71
ENDBRANCH   3  45
TORSDOF 20
ENDMDL
MODEL 38
REMARK VINA RESULT:    -5.683      3.073      8.141
REMARK INTER + INTRA:         -23.958
REMARK INTER:                 -19.581
REMARK INTRA:                  -4.377
REMARK UNBOUND:                -7.644
REMARK SMILES CCCCCC(=O)N[C@H](CC(=O)O)C(=O)N[C@H]1C(=O)N[C@H](CCCN=C(N)N)C(=O)N[C@@H]2CC[C@H](O)N(C2=O)[C@@H](CC(C)C)C(=O)N(C)[C@@H](Cc2ccccc2)C(=O)N[C@H](C(C)C)C(=O)O[C@@H]1C
REMARK SMILES IDX 30 1 31 2 29 3 32 5 35 6 37 7 34 8 38 9 33 10 39 11 36 12
REMARK SMILES IDX 40 14 41 15 42 16 43 17 44 18 45 19 46 20 47 21 48 22 49 23
REMARK SMILES IDX 50 24 51 25 52 26 56 27 53 28 55 29 54 30 57 31 58 32 59 33
REMARK SMILES IDX 60 35 61 36 62 37 63 38 64 39 65 40 66 41 67 42 68 43 21 45
REMARK SMILES IDX 20 46 18 47 19 48 17 50 16 52 14 53 15 54 9 56 8 57 6 58
REMARK SMILES IDX 7 59 5 61 4 62 3 63 2 64 1 65 10 66 11 67 12 68 13 69 22 71
REMARK SMILES IDX 23 72 24 73 25 74 26 75 27 76 28 77
REMARK H PARENT 31 4 36 13 59 34 20 49 16 55 8 60 13 70 27 78 27 79 28 80
REMARK H PARENT 28 81
REMARK Flexibility Score:  259.900
ROOT
ATOM      1  O   UNL     1      -6.571   2.405   5.327  1.00  0.00    -0.273 OA
ATOM      2  N   UNL     1      -5.022   2.405   7.010  1.00  0.00    -0.343 N 
ATOM      3  C   UNL     1      -6.002   1.811   6.244  1.00  0.00     0.243 C 
ATOM      4  H   UNL     1      -4.565   1.881   7.746  1.00  0.00     0.164 HD
ENDROOT
BRANCH   2   5
ATOM      5  C   UNL     1      -4.701   3.817   6.840  1.00  0.00     0.171 C 
ATOM      6  C   UNL     1      -2.994   5.635   8.318  1.00  0.00     0.214 C 
ATOM      7  N   UNL     1      -4.387   5.517   8.679  1.00  0.00    -0.303 N 
ATOM      8  C   UNL     1      -2.731   5.380   6.842  1.00  0.00     0.057 C 
ATOM      9  C   UNL     1      -5.245   4.631   8.048  1.00  0.00     0.247 C 
ATOM     10  C   UNL     1      -3.232   4.004   6.463  1.00  0.00     0.040 C 
ATOM     11  O   UNL     1      -6.416   4.474   8.421  1.00  0.00    -0.272 OA
BRANCH   6  12
ATOM     12  O   UNL     1      -2.265   4.728   9.112  1.00  0.00    -0.373 OA
ATOM     13  H   UNL     1      -1.350   4.709   8.759  1.00  0.00     0.213 HD
ENDBRANCH   6  12
BRANCH   7  14
ATOM     14  C   UNL     1      -4.840   6.281   9.861  1.00  0.00     0.177 C 
BRANCH  14  15
ATOM     15  C   UNL     1      -6.145   7.077   9.667  1.00  0.00     0.038 C 
BRANCH  15  16
ATOM     16  C   UNL     1      -6.091   8.487   9.038  1.00  0.00    -0.015 C 
ATOM     17  C   UNL     1      -7.340   9.315   9.351  1.00  0.00     0.007 C 
ATOM     18  C   UNL     1      -5.962   8.369   7.514  1.00  0.00     0.007 C 
ENDBRANCH  15  16
ENDBRANCH  14  15
BRANCH  14  19
ATOM     19  C   UNL     1      -4.413   5.547  11.179  1.00  0.00     0.245 C 
ATOM     20  O   UNL     1      -3.348   5.914  11.703  1.00  0.00    -0.272 OA
BRANCH  19  21
ATOM     21  N   UNL     1      -5.087   4.462  11.711  1.00  0.00    -0.332 N 
ATOM     22  C   UNL     1      -4.776   3.067  11.452  1.00  0.00     0.147 C 
BRANCH  21  23
ATOM     23  C   UNL     1      -6.237   4.733  12.617  1.00  0.00     0.178 C 
BRANCH  23  24
ATOM     24  C   UNL     1      -6.266   6.155  13.216  1.00  0.00     0.070 C 
BRANCH  24  25
ATOM     25  C   UNL     1      -7.318   6.439  14.262  1.00  0.00    -0.045 A 
ATOM     26  C   UNL     1      -8.267   7.451  14.069  1.00  0.00     0.004 A 
ATOM     27  C   UNL     1      -7.354   5.693  15.450  1.00  0.00     0.004 A 
ATOM     28  C   UNL     1      -9.225   7.719  15.049  1.00  0.00     0.000 A 
ATOM     29  C   UNL     1      -8.314   5.962  16.427  1.00  0.00     0.000 A 
ATOM     30  C   UNL     1      -9.247   6.977  16.227  1.00  0.00     0.000 A 
ENDBRANCH  24  25
ENDBRANCH  23  24
BRANCH  23  31
ATOM     31  C   UNL     1      -7.587   4.240  12.044  1.00  0.00     0.243 C 
ATOM     32  O   UNL     1      -8.212   4.823  11.162  1.00  0.00    -0.273 OA
ATOM     33  N   UNL     1      -8.128   3.175  12.743  1.00  0.00    -0.341 N 
ATOM     34  H   UNL     1      -7.561   2.734  13.472  1.00  0.00     0.164 HD
BRANCH  33  35
ATOM     35  C   UNL     1      -9.453   2.620  12.453  1.00  0.00     0.194 C 
BRANCH  35  36
ATOM     36  C   UNL     1     -10.461   2.733  13.632  1.00  0.00     0.017 C 
ATOM     37  C   UNL     1     -10.182   1.670  14.709  1.00  0.00     0.010 C 
ATOM     38  C   UNL     1     -11.922   2.572  13.196  1.00  0.00     0.010 C 
ENDBRANCH  35  36
BRANCH  35  39
ATOM     39  C   UNL     1      -9.385   1.175  11.884  1.00  0.00     0.329 C 
ATOM     40  O   UNL     1     -10.263   0.666  11.198  1.00  0.00    -0.250 OA
BRANCH  39  41
ATOM     41  O   UNL     1      -8.195   0.563  12.163  1.00  0.00    -0.458 OA
BRANCH  41  42
ATOM     42  C   UNL     1      -7.803  -0.510  11.273  1.00  0.00     0.205 CG0
ATOM     43  C   UNL     1      -7.442  -1.712  12.143  1.00  0.00     0.056 C 
ATOM     44  G   UNL     1      -6.617  -0.028  10.414  1.00  0.00     0.000 G0
ENDBRANCH  41  42
ENDBRANCH  39  41
ENDBRANCH  35  39
ENDBRANCH  33  35
ENDBRANCH  23  31
ENDBRANCH  21  23
ENDBRANCH  19  21
ENDBRANCH  14  19
ENDBRANCH   7  14
ENDBRANCH   2   5
BRANCH   3  45
ATOM     45  C   UNL     1      -6.319   0.352   6.597  1.00  0.00     0.171 C 
BRANCH  45  46
ATOM     46  N   UNL     1      -6.063   0.228   8.026  1.00  0.00    -0.342 N 
ATOM     47  C   UNL     1      -7.058  -0.041   8.932  1.00  0.00     0.247 C 
ATOM     48  O   UNL     1      -8.222  -0.270   8.598  1.00  0.00    -0.273 OA
ATOM     49  H   UNL     1      -5.103   0.355   8.340  1.00  0.00     0.164 HD
BRANCH  47  50
ATOM     50  C   UNL     1      -6.624  -0.010  10.404  1.00  0.00     0.212 CG0
ATOM     51  G   UNL     1      -7.802  -0.533  11.250  1.00  0.00     0.000 G0
BRANCH  50  52
ATOM     52  N   UNL     1      -5.438  -0.859  10.478  1.00  0.00    -0.339 N 
ATOM     53  C   UNL     1      -5.353  -2.093   9.879  1.00  0.00     0.243 C 
ATOM     54  O   UNL     1      -6.294  -2.602   9.276  1.00  0.00    -0.273 OA
ATOM     55  H   UNL     1      -4.664  -0.541  11.057  1.00  0.00     0.164 HD
BRANCH  53  56
ATOM     56  C   UNL     1      -4.036  -2.841  10.168  1.00  0.00     0.182 C 
BRANCH  56  57
ATOM     57  N   UNL     1      -2.880  -2.073   9.697  1.00  0.00    -0.344 N 
ATOM     58  C   UNL     1      -2.145  -1.265  10.530  1.00  0.00     0.220 C 
ATOM     59  O   UNL     1      -2.445  -1.073  11.703  1.00  0.00    -0.275 OA
ATOM     60  H   UNL     1      -2.538  -2.281   8.763  1.00  0.00     0.164 HD
BRANCH  58  61
ATOM     61  C   UNL     1      -0.959  -0.613   9.843  1.00  0.00     0.100 C 
BRANCH  61  62
ATOM     62  C   UNL     1      -0.629  -1.217   8.478  1.00  0.00     0.010 C 
BRANCH  62  63
ATOM     63  C   UNL     1       0.130  -0.271   7.539  1.00  0.00     0.000 C 
BRANCH  63  64
ATOM     64  C   UNL     1      -0.531  -0.077   6.176  1.00  0.00    -0.003 C 
ATOM     65  C   UNL     1      -1.902   0.570   6.311  1.00  0.00     0.004 C 
ENDBRANCH  63  64
ENDBRANCH  62  63
ENDBRANCH  61  62
ENDBRANCH  58  61
ENDBRANCH  56  57
BRANCH  56  66
ATOM     66  C   UNL     1      -4.060  -4.257   9.595  1.00  0.00     0.157 C 
BRANCH  66  67
ATOM     67  C   UNL     1      -2.837  -4.529   8.766  1.00  0.00     0.305 C 
ATOM     68  O   UNL     1      -1.760  -4.946   9.163  1.00  0.00    -0.252 OA
BRANCH  67  69
ATOM     69  O   UNL     1      -3.049  -4.308   7.454  1.00  0.00    -0.481 OA
ATOM     70  H   UNL     1      -4.017  -4.408   7.337  1.00  0.00     0.296 HD
ENDBRANCH  67  69
ENDBRANCH  66  67
ENDBRANCH  56  66
ENDBRANCH  53  56
ENDBRANCH  50  52
ENDBRANCH  47  50
ENDBRANCH  45  46
BRANCH  45  71
ATOM     71  C   UNL     1      -5.436  -0.599   5.781  1.00  0.00     0.037 C 
BRANCH  71  72
ATOM     72  C   UNL     1      -6.140  -1.926   5.485  1.00  0.00     0.026 C 
BRANCH  72  73
ATOM     73  C   UNL     1      -5.706  -2.502   4.139  1.00  0.00     0.146 C 
BRANCH  73  74
ATOM     74  N   UNL     1      -5.379  -3.911   4.340  1.00  0.00    -0.254 NA
ATOM     75  C   UNL     1      -5.763  -4.748   3.448  1.00  0.00     0.185 C 
ATOM     76  N   UNL     1      -5.476  -6.051   3.604  1.00  0.00    -0.370 N 
ATOM     77  N   UNL     1      -6.446  -4.519   2.313  1.00  0.00    -0.370 N 
ATOM     78  H   UNL     1      -4.969  -6.310   4.438  1.00  0.00     0.159 HD
ATOM     79  H   UNL     1      -5.865  -6.776   3.028  1.00  0.00     0.159 HD
ATOM     80  H   UNL     1      -6.727  -3.583   2.062  1.00  0.00     0.159 HD
ATOM     81  H   UNL     1      -6.592  -5.244   1.629  1.00  0.00     0.159 HD
ENDBRANCH  73  74
ENDBRANCH  72  73
ENDBRANCH  71  72
ENDBRANCH  45  71
ENDBRANCH   3  45
TORSDOF 20
ENDMDL
MODEL 39
REMARK VINA RESULT:    -5.676      2.570      6.632
REMARK INTER + INTRA:         -23.937
REMARK INTER:                 -16.704
REMARK INTRA:                  -7.233
REMARK UNBOUND:                -7.644
REMARK SMILES CCCCCC(=O)N[C@H](CC(=O)O)C(=O)N[C@H]1C(=O)N[C@H](CCCN=C(N)N)C(=O)N[C@@H]2CC[C@H](O)N(C2=O)[C@@H](CC(C)C)C(=O)N(C)[C@@H](Cc2ccccc2)C(=O)N[C@H](C(C)C)C(=O)O[C@@H]1C
REMARK SMILES IDX 30 1 31 2 29 3 32 5 35 6 37 7 34 8 38 9 33 10 39 11 36 12
REMARK SMILES IDX 40 14 41 15 42 16 43 17 44 18 45 19 46 20 47 21 48 22 49 23
REMARK SMILES IDX 50 24 51 25 52 26 56 27 53 28 55 29 54 30 57 31 58 32 59 33
REMARK SMILES IDX 60 35 61 36 62 37 63 38 64 39 65 40 66 41 67 42 68 43 21 45
REMARK SMILES IDX 20 46 18 47 19 48 17 50 16 52 14 53 15 54 9 56 8 57 6 58
REMARK SMILES IDX 7 59 5 61 4 62 3 63 2 64 1 65 10 66 11 67 12 68 13 69 22 71
REMARK SMILES IDX 23 72 24 73 25 74 26 75 27 76 28 77
REMARK H PARENT 31 4 36 13 59 34 20 49 16 55 8 60 13 70 27 78 27 79 28 80
REMARK H PARENT 28 81
REMARK Flexibility Score:  259.900
ROOT
ATOM      1  O   UNL     1      -4.319   1.902   4.719  1.00  0.00    -0.273 OA
ATOM      2  N   UNL     1      -4.881   0.701   6.582  1.00  0.00    -0.343 N 
ATOM      3  C   UNL     1      -4.493   1.855   5.937  1.00  0.00     0.243 C 
ATOM      4  H   UNL     1      -5.029   0.703   7.584  1.00  0.00     0.164 HD
ENDROOT
BRANCH   2   5
ATOM      5  C   UNL     1      -4.989  -0.558   5.852  1.00  0.00     0.171 C 
ATOM      6  C   UNL     1      -5.650  -3.257   6.676  1.00  0.00     0.214 C 
ATOM      7  N   UNL     1      -4.269  -2.835   6.671  1.00  0.00    -0.303 N 
ATOM      8  C   UNL     1      -6.498  -2.556   5.627  1.00  0.00     0.057 C 
ATOM      9  C   UNL     1      -3.889  -1.545   6.337  1.00  0.00     0.247 C 
ATOM     10  C   UNL     1      -6.432  -1.059   5.831  1.00  0.00     0.040 C 
ATOM     11  O   UNL     1      -2.713  -1.166   6.418  1.00  0.00    -0.272 OA
BRANCH   6  12
ATOM     12  O   UNL     1      -6.167  -3.021   7.965  1.00  0.00    -0.373 OA
ATOM     13  H   UNL     1      -6.683  -3.816   8.218  1.00  0.00     0.213 HD
ENDBRANCH   6  12
BRANCH   7  14
ATOM     14  C   UNL     1      -3.271  -3.798   7.182  1.00  0.00     0.177 C 
BRANCH  14  15
ATOM     15  C   UNL     1      -2.119  -4.125   6.212  1.00  0.00     0.038 C 
BRANCH  15  16
ATOM     16  C   UNL     1      -2.279  -5.282   5.202  1.00  0.00    -0.015 C 
ATOM     17  C   UNL     1      -1.126  -5.345   4.196  1.00  0.00     0.007 C 
ATOM     18  C   UNL     1      -3.589  -5.111   4.421  1.00  0.00     0.007 C 
ENDBRANCH  15  16
ENDBRANCH  14  15
BRANCH  14  19
ATOM     19  C   UNL     1      -3.138  -3.668   8.738  1.00  0.00     0.245 C 
ATOM     20  O   UNL     1      -3.762  -4.495   9.424  1.00  0.00    -0.272 OA
BRANCH  19  21
ATOM     21  N   UNL     1      -2.468  -2.636   9.372  1.00  0.00    -0.332 N 
ATOM     22  C   UNL     1      -1.186  -2.088   8.965  1.00  0.00     0.147 C 
BRANCH  21  23
ATOM     23  C   UNL     1      -3.100  -2.034  10.579  1.00  0.00     0.178 C 
BRANCH  23  24
ATOM     24  C   UNL     1      -2.109  -1.412  11.583  1.00  0.00     0.070 C 
BRANCH  24  25
ATOM     25  C   UNL     1      -2.229   0.073  11.839  1.00  0.00    -0.045 A 
ATOM     26  C   UNL     1      -3.022   0.559  12.886  1.00  0.00     0.004 A 
ATOM     27  C   UNL     1      -1.548   0.988  11.023  1.00  0.00     0.004 A 
ATOM     28  C   UNL     1      -3.142   1.933  13.104  1.00  0.00     0.000 A 
ATOM     29  C   UNL     1      -1.667   2.361  11.243  1.00  0.00     0.000 A 
ATOM     30  C   UNL     1      -2.467   2.833  12.283  1.00  0.00     0.000 A 
ENDBRANCH  24  25
ENDBRANCH  23  24
BRANCH  23  31
ATOM     31  C   UNL     1      -4.327  -1.153  10.243  1.00  0.00     0.243 C 
ATOM     32  O   UNL     1      -4.336  -0.295   9.363  1.00  0.00    -0.273 OA
ATOM     33  N   UNL     1      -5.366  -1.285  11.147  1.00  0.00    -0.341 N 
ATOM     34  H   UNL     1      -5.298  -2.013  11.862  1.00  0.00     0.164 HD
BRANCH  33  35
ATOM     35  C   UNL     1      -6.579  -0.463  11.096  1.00  0.00     0.194 C 
BRANCH  35  36
ATOM     36  C   UNL     1      -7.674  -0.882  12.117  1.00  0.00     0.017 C 
ATOM     37  C   UNL     1      -7.633   0.002  13.376  1.00  0.00     0.010 C 
ATOM     38  C   UNL     1      -7.546  -2.340  12.576  1.00  0.00     0.010 C 
ENDBRANCH  35  36
BRANCH  35  39
ATOM     39  C   UNL     1      -7.149  -0.328   9.656  1.00  0.00     0.329 C 
ATOM     40  O   UNL     1      -7.695  -1.240   9.046  1.00  0.00    -0.250 OA
BRANCH  39  41
ATOM     41  O   UNL     1      -7.052   0.948   9.176  1.00  0.00    -0.458 OA
BRANCH  41  42
ATOM     42  C   UNL     1      -7.493   2.003  10.064  1.00  0.00     0.205 CG0
ATOM     43  C   UNL     1      -9.001   1.842  10.247  1.00  0.00     0.056 C 
ATOM     44  G   UNL     1      -7.116   3.361   9.440  1.00  0.00     0.000 G0
ENDBRANCH  41  42
ENDBRANCH  39  41
ENDBRANCH  35  39
ENDBRANCH  33  35
ENDBRANCH  23  31
ENDBRANCH  21  23
ENDBRANCH  19  21
ENDBRANCH  14  19
ENDBRANCH   7  14
ENDBRANCH   2   5
BRANCH   3  45
ATOM     45  C   UNL     1      -4.313   3.083   6.839  1.00  0.00     0.171 C 
BRANCH  45  46
ATOM     46  N   UNL     1      -5.588   3.262   7.521  1.00  0.00    -0.342 N 
ATOM     47  C   UNL     1      -5.692   3.314   8.888  1.00  0.00     0.247 C 
ATOM     48  O   UNL     1      -4.712   3.287   9.634  1.00  0.00    -0.273 OA
ATOM     49  H   UNL     1      -6.419   3.345   6.938  1.00  0.00     0.164 HD
BRANCH  47  50
ATOM     50  C   UNL     1      -7.127   3.381   9.429  1.00  0.00     0.212 CG0
ATOM     51  G   UNL     1      -7.463   2.004  10.035  1.00  0.00     0.000 G0
BRANCH  50  52
ATOM     52  N   UNL     1      -7.122   4.459  10.414  1.00  0.00    -0.339 N 
ATOM     53  C   UNL     1      -7.141   5.791  10.077  1.00  0.00     0.243 C 
ATOM     54  O   UNL     1      -7.109   6.179   8.912  1.00  0.00    -0.273 OA
ATOM     55  H   UNL     1      -7.036   4.203  11.395  1.00  0.00     0.164 HD
BRANCH  53  56
ATOM     56  C   UNL     1      -7.043   6.745  11.284  1.00  0.00     0.182 C 
BRANCH  56  57
ATOM     57  N   UNL     1      -7.034   5.999  12.546  1.00  0.00    -0.344 N 
ATOM     58  C   UNL     1      -5.884   5.473  13.082  1.00  0.00     0.220 C 
ATOM     59  O   UNL     1      -4.800   5.526  12.510  1.00  0.00    -0.275 OA
ATOM     60  H   UNL     1      -7.887   6.019  13.099  1.00  0.00     0.164 HD
BRANCH  58  61
ATOM     61  C   UNL     1      -6.101   4.792  14.421  1.00  0.00     0.100 C 
BRANCH  61  62
ATOM     62  C   UNL     1      -7.490   5.027  15.014  1.00  0.00     0.010 C 
BRANCH  62  63
ATOM     63  C   UNL     1      -8.275   3.741  15.302  1.00  0.00     0.000 C 
BRANCH  63  64
ATOM     64  C   UNL     1      -9.383   3.443  14.294  1.00  0.00    -0.003 C 
ATOM     65  C   UNL     1     -10.172   4.698  13.949  1.00  0.00     0.004 C 
ENDBRANCH  63  64
ENDBRANCH  62  63
ENDBRANCH  61  62
ENDBRANCH  58  61
ENDBRANCH  56  57
BRANCH  56  66
ATOM     66  C   UNL     1      -8.141   7.806  11.250  1.00  0.00     0.157 C 
BRANCH  66  67
ATOM     67  C   UNL     1      -8.672   8.085  12.627  1.00  0.00     0.305 C 
ATOM     68  O   UNL     1      -8.025   8.420  13.607  1.00  0.00    -0.252 OA
BRANCH  67  69
ATOM     69  O   UNL     1     -10.013   7.976  12.690  1.00  0.00    -0.481 OA
ATOM     70  H   UNL     1     -10.319   8.124  11.770  1.00  0.00     0.296 HD
ENDBRANCH  67  69
ENDBRANCH  66  67
ENDBRANCH  56  66
ENDBRANCH  53  56
ENDBRANCH  50  52
ENDBRANCH  47  50
ENDBRANCH  45  46
BRANCH  45  71
ATOM     71  C   UNL     1      -3.942   4.311   6.001  1.00  0.00     0.037 C 
BRANCH  71  72
ATOM     72  C   UNL     1      -2.529   4.813   6.309  1.00  0.00     0.026 C 
BRANCH  72  73
ATOM     73  C   UNL     1      -1.846   3.951   7.369  1.00  0.00     0.146 C 
BRANCH  73  74
ATOM     74  N   UNL     1      -0.623   3.409   6.784  1.00  0.00    -0.254 NA
ATOM     75  C   UNL     1      -0.447   2.141   6.831  1.00  0.00     0.185 C 
ATOM     76  N   UNL     1       0.668   1.613   6.301  1.00  0.00    -0.370 N 
ATOM     77  N   UNL     1      -1.247   1.196   7.356  1.00  0.00    -0.370 N 
ATOM     78  H   UNL     1       1.328   2.257   5.890  1.00  0.00     0.159 HD
ATOM     79  H   UNL     1       0.941   0.654   6.427  1.00  0.00     0.159 HD
ATOM     80  H   UNL     1      -2.124   1.446   7.787  1.00  0.00     0.159 HD
ATOM     81  H   UNL     1      -1.058   0.215   7.232  1.00  0.00     0.159 HD
ENDBRANCH  73  74
ENDBRANCH  72  73
ENDBRANCH  71  72
ENDBRANCH  45  71
ENDBRANCH   3  45
TORSDOF 20
ENDMDL
MODEL 40
REMARK VINA RESULT:    -5.657      2.881      6.399
REMARK INTER + INTRA:         -23.885
REMARK INTER:                 -19.381
REMARK INTRA:                  -4.504
REMARK UNBOUND:                -7.644
REMARK SMILES CCCCCC(=O)N[C@H](CC(=O)O)C(=O)N[C@H]1C(=O)N[C@H](CCCN=C(N)N)C(=O)N[C@@H]2CC[C@H](O)N(C2=O)[C@@H](CC(C)C)C(=O)N(C)[C@@H](Cc2ccccc2)C(=O)N[C@H](C(C)C)C(=O)O[C@@H]1C
REMARK SMILES IDX 30 1 31 2 29 3 32 5 35 6 37 7 34 8 38 9 33 10 39 11 36 12
REMARK SMILES IDX 40 14 41 15 42 16 43 17 44 18 45 19 46 20 47 21 48 22 49 23
REMARK SMILES IDX 50 24 51 25 52 26 56 27 53 28 55 29 54 30 57 31 58 32 59 33
REMARK SMILES IDX 60 35 61 36 62 37 63 38 64 39 65 40 66 41 67 42 68 43 21 45
REMARK SMILES IDX 20 46 18 47 19 48 17 50 16 52 14 53 15 54 9 56 8 57 6 58
REMARK SMILES IDX 7 59 5 61 4 62 3 63 2 64 1 65 10 66 11 67 12 68 13 69 22 71
REMARK SMILES IDX 23 72 24 73 25 74 26 75 27 76 28 77
REMARK H PARENT 31 4 36 13 59 34 20 49 16 55 8 60 13 70 27 78 27 79 28 80
REMARK H PARENT 28 81
REMARK Flexibility Score:  259.900
ROOT
ATOM      1  O   UNL     1      -3.869   5.026   7.549  1.00  0.00    -0.273 OA
ATOM      2  N   UNL     1      -2.417   5.607   9.217  1.00  0.00    -0.343 N 
ATOM      3  C   UNL     1      -3.623   5.692   8.555  1.00  0.00     0.243 C 
ATOM      4  H   UNL     1      -2.255   6.159  10.051  1.00  0.00     0.164 HD
ENDROOT
BRANCH   2   5
ATOM      5  C   UNL     1      -1.328   4.801   8.676  1.00  0.00     0.171 C 
ATOM      6  C   UNL     1      -1.167   2.963   6.441  1.00  0.00     0.214 C 
ATOM      7  N   UNL     1      -1.509   2.460   7.751  1.00  0.00    -0.303 N 
ATOM      8  C   UNL     1      -0.265   4.186   6.482  1.00  0.00     0.057 C 
ATOM      9  C   UNL     1      -1.652   3.290   8.851  1.00  0.00     0.247 C 
ATOM     10  C   UNL     1      -0.928   5.285   7.283  1.00  0.00     0.040 C 
ATOM     11  O   UNL     1      -2.030   2.864   9.950  1.00  0.00    -0.272 OA
BRANCH   6  12
ATOM     12  O   UNL     1      -2.369   3.260   5.767  1.00  0.00    -0.373 OA
ATOM     13  H   UNL     1      -2.975   2.503   5.914  1.00  0.00     0.213 HD
ENDBRANCH   6  12
BRANCH   7  14
ATOM     14  C   UNL     1      -1.849   1.025   7.850  1.00  0.00     0.177 C 
BRANCH  14  15
ATOM     15  C   UNL     1      -0.798   0.149   8.560  1.00  0.00     0.038 C 
BRANCH  15  16
ATOM     16  C   UNL     1      -0.411  -1.218   7.953  1.00  0.00    -0.015 C 
ATOM     17  C   UNL     1      -0.990  -1.419   6.550  1.00  0.00     0.007 C 
ATOM     18  C   UNL     1      -0.926  -2.349   8.852  1.00  0.00     0.007 C 
ENDBRANCH  15  16
ENDBRANCH  14  15
BRANCH  14  19
ATOM     19  C   UNL     1      -3.402   0.840   7.953  1.00  0.00     0.245 C 
ATOM     20  O   UNL     1      -4.106   1.718   7.426  1.00  0.00    -0.272 OA
BRANCH  19  21
ATOM     21  N   UNL     1      -4.013  -0.166   8.681  1.00  0.00    -0.332 N 
ATOM     22  C   UNL     1      -3.733  -0.492  10.068  1.00  0.00     0.147 C 
BRANCH  21  23
ATOM     23  C   UNL     1      -5.038  -0.999   7.993  1.00  0.00     0.178 C 
BRANCH  23  24
ATOM     24  C   UNL     1      -4.831  -2.521   8.130  1.00  0.00     0.070 C 
BRANCH  24  25
ATOM     25  C   UNL     1      -4.438  -3.278   6.882  1.00  0.00    -0.045 A 
ATOM     26  C   UNL     1      -3.343  -4.151   6.888  1.00  0.00     0.004 A 
ATOM     27  C   UNL     1      -5.166  -3.111   5.695  1.00  0.00     0.004 A 
ATOM     28  C   UNL     1      -2.976  -4.834   5.726  1.00  0.00     0.000 A 
ATOM     29  C   UNL     1      -4.799  -3.794   4.535  1.00  0.00     0.000 A 
ATOM     30  C   UNL     1      -3.702  -4.653   4.551  1.00  0.00     0.000 A 
ENDBRANCH  24  25
ENDBRANCH  23  24
BRANCH  23  31
ATOM     31  C   UNL     1      -6.484  -0.512   8.250  1.00  0.00     0.243 C 
ATOM     32  O   UNL     1      -7.102   0.233   7.495  1.00  0.00    -0.273 OA
ATOM     33  N   UNL     1      -6.962  -0.842   9.507  1.00  0.00    -0.341 N 
ATOM     34  H   UNL     1      -6.399  -1.462  10.094  1.00  0.00     0.164 HD
BRANCH  33  35
ATOM     35  C   UNL     1      -8.259  -0.384  10.013  1.00  0.00     0.194 C 
BRANCH  35  36
ATOM     36  C   UNL     1      -9.376  -0.320   8.932  1.00  0.00     0.017 C 
ATOM     37  C   UNL     1     -10.638   0.373   9.473  1.00  0.00     0.010 C 
ATOM     38  C   UNL     1      -9.796  -1.701   8.415  1.00  0.00     0.010 C 
ENDBRANCH  35  36
BRANCH  35  39
ATOM     39  C   UNL     1      -8.153   0.942  10.817  1.00  0.00     0.329 C 
ATOM     40  O   UNL     1      -8.429   1.047  12.006  1.00  0.00    -0.250 OA
BRANCH  39  41
ATOM     41  O   UNL     1      -7.634   1.963  10.069  1.00  0.00    -0.458 OA
BRANCH  41  42
ATOM     42  C   UNL     1      -6.426   2.579  10.577  1.00  0.00     0.205 CG0
ATOM     43  C   UNL     1      -5.929   1.716  11.735  1.00  0.00     0.056 C 
ATOM     44  G   UNL     1      -6.756   4.020  11.015  1.00  0.00     0.000 G0
ENDBRANCH  41  42
ENDBRANCH  39  41
ENDBRANCH  35  39
ENDBRANCH  33  35
ENDBRANCH  23  31
ENDBRANCH  21  23
ENDBRANCH  19  21
ENDBRANCH  14  19
ENDBRANCH   7  14
ENDBRANCH   2   5
BRANCH   3  45
ATOM     45  C   UNL     1      -4.644   6.658   9.171  1.00  0.00     0.171 C 
BRANCH  45  46
ATOM     46  N   UNL     1      -5.724   5.820   9.675  1.00  0.00    -0.342 N 
ATOM     47  C   UNL     1      -5.549   4.939  10.713  1.00  0.00     0.247 C 
ATOM     48  O   UNL     1      -4.492   4.845  11.339  1.00  0.00    -0.273 OA
ATOM     49  H   UNL     1      -6.632   5.907   9.222  1.00  0.00     0.164 HD
BRANCH  47  50
ATOM     50  C   UNL     1      -6.763   4.053  11.024  1.00  0.00     0.212 CG0
ATOM     51  G   UNL     1      -6.421   2.618  10.576  1.00  0.00     0.000 G0
BRANCH  50  52
ATOM     52  N   UNL     1      -6.973   4.172  12.465  1.00  0.00    -0.339 N 
ATOM     53  C   UNL     1      -8.188   4.479  13.028  1.00  0.00     0.243 C 
ATOM     54  O   UNL     1      -9.184   4.730  12.356  1.00  0.00    -0.273 OA
ATOM     55  H   UNL     1      -6.159   4.085  13.070  1.00  0.00     0.164 HD
BRANCH  53  56
ATOM     56  C   UNL     1      -8.146   4.636  14.562  1.00  0.00     0.182 C 
BRANCH  56  57
ATOM     57  N   UNL     1      -9.375   4.124  15.177  1.00  0.00    -0.344 N 
ATOM     58  C   UNL     1      -9.479   2.841  15.656  1.00  0.00     0.220 C 
ATOM     59  O   UNL     1      -8.582   2.014  15.538  1.00  0.00    -0.275 OA
ATOM     60  H   UNL     1     -10.103   4.803  15.385  1.00  0.00     0.164 HD
BRANCH  58  61
ATOM     61  C   UNL     1     -10.820   2.548  16.303  1.00  0.00     0.100 C 
BRANCH  61  62
ATOM     62  C   UNL     1     -11.415   1.198  15.903  1.00  0.00     0.010 C 
BRANCH  62  63
ATOM     63  C   UNL     1     -12.913   1.244  15.575  1.00  0.00     0.000 C 
BRANCH  63  64
ATOM     64  C   UNL     1     -13.768   0.294  16.412  1.00  0.00    -0.003 C 
ATOM     65  C   UNL     1     -13.214   0.146  17.822  1.00  0.00     0.004 C 
ENDBRANCH  63  64
ENDBRANCH  62  63
ENDBRANCH  61  62
ENDBRANCH  58  61
ENDBRANCH  56  57
BRANCH  56  66
ATOM     66  C   UNL     1      -7.855   6.079  14.969  1.00  0.00     0.157 C 
BRANCH  66  67
ATOM     67  C   UNL     1      -9.126   6.850  15.184  1.00  0.00     0.305 C 
ATOM     68  O   UNL     1      -9.719   7.529  14.360  1.00  0.00    -0.252 OA
BRANCH  67  69
ATOM     69  O   UNL     1      -9.620   6.686  16.426  1.00  0.00    -0.481 OA
ATOM     70  H   UNL     1      -8.879   6.304  16.942  1.00  0.00     0.296 HD
ENDBRANCH  67  69
ENDBRANCH  66  67
ENDBRANCH  56  66
ENDBRANCH  53  56
ENDBRANCH  50  52
ENDBRANCH  47  50
ENDBRANCH  45  46
BRANCH  45  71
ATOM     71  C   UNL     1      -5.144   7.650   8.115  1.00  0.00     0.037 C 
BRANCH  71  72
ATOM     72  C   UNL     1      -6.152   8.646   8.693  1.00  0.00     0.026 C 
BRANCH  72  73
ATOM     73  C   UNL     1      -7.585   8.137   8.554  1.00  0.00     0.146 C 
BRANCH  73  74
ATOM     74  N   UNL     1      -8.070   7.798   9.889  1.00  0.00    -0.254 NA
ATOM     75  C   UNL     1      -9.333   7.856  10.100  1.00  0.00     0.185 C 
ATOM     76  N   UNL     1      -9.810   7.548  11.317  1.00  0.00    -0.370 N 
ATOM     77  N   UNL     1     -10.318   8.193   9.248  1.00  0.00    -0.370 N 
ATOM     78  H   UNL     1      -9.134   7.290  12.021  1.00  0.00     0.159 HD
ATOM     79  H   UNL     1     -10.762   7.709  11.596  1.00  0.00     0.159 HD
ATOM     80  H   UNL     1     -10.108   8.445   8.294  1.00  0.00     0.159 HD
ATOM     81  H   UNL     1     -11.288   8.090   9.495  1.00  0.00     0.159 HD
ENDBRANCH  73  74
ENDBRANCH  72  73
ENDBRANCH  71  72
ENDBRANCH  45  71
ENDBRANCH   3  45
TORSDOF 20
ENDMDL
MODEL 41
REMARK VINA RESULT:    -5.651      3.083      5.953
REMARK INTER + INTRA:         -23.867
REMARK INTER:                 -19.040
REMARK INTRA:                  -4.826
REMARK UNBOUND:                -7.644
REMARK SMILES CCCCCC(=O)N[C@H](CC(=O)O)C(=O)N[C@H]1C(=O)N[C@H](CCCN=C(N)N)C(=O)N[C@@H]2CC[C@H](O)N(C2=O)[C@@H](CC(C)C)C(=O)N(C)[C@@H](Cc2ccccc2)C(=O)N[C@H](C(C)C)C(=O)O[C@@H]1C
REMARK SMILES IDX 30 1 31 2 29 3 32 5 35 6 37 7 34 8 38 9 33 10 39 11 36 12
REMARK SMILES IDX 40 14 41 15 42 16 43 17 44 18 45 19 46 20 47 21 48 22 49 23
REMARK SMILES IDX 50 24 51 25 52 26 56 27 53 28 55 29 54 30 57 31 58 32 59 33
REMARK SMILES IDX 60 35 61 36 62 37 63 38 64 39 65 40 66 41 67 42 68 43 21 45
REMARK SMILES IDX 20 46 18 47 19 48 17 50 16 52 14 53 15 54 9 56 8 57 6 58
REMARK SMILES IDX 7 59 5 61 4 62 3 63 2 64 1 65 10 66 11 67 12 68 13 69 22 71
REMARK SMILES IDX 23 72 24 73 25 74 26 75 27 76 28 77
REMARK H PARENT 31 4 36 13 59 34 20 49 16 55 8 60 13 70 27 78 27 79 28 80
REMARK H PARENT 28 81
REMARK Flexibility Score:  259.900
ROOT
ATOM      1  O   UNL     1      -4.997   4.437   8.385  1.00  0.00    -0.273 OA
ATOM      2  N   UNL     1      -4.556   3.980  10.582  1.00  0.00    -0.343 N 
ATOM      3  C   UNL     1      -5.347   4.470   9.565  1.00  0.00     0.243 C 
ATOM      4  H   UNL     1      -4.883   4.011  11.540  1.00  0.00     0.164 HD
ENDROOT
BRANCH   2   5
ATOM      5  C   UNL     1      -3.205   3.505  10.308  1.00  0.00     0.171 C 
ATOM      6  C   UNL     1      -1.755   3.018   7.846  1.00  0.00     0.214 C 
ATOM      7  N   UNL     1      -2.510   1.945   8.449  1.00  0.00    -0.303 N 
ATOM      8  C   UNL     1      -1.216   4.018   8.857  1.00  0.00     0.057 C 
ATOM      9  C   UNL     1      -3.266   2.123   9.596  1.00  0.00     0.247 C 
ATOM     10  C   UNL     1      -2.359   4.600   9.661  1.00  0.00     0.040 C 
ATOM     11  O   UNL     1      -3.980   1.223  10.058  1.00  0.00    -0.272 OA
BRANCH   6  12
ATOM     12  O   UNL     1      -2.591   3.664   6.914  1.00  0.00    -0.373 OA
ATOM     13  H   UNL     1      -2.071   3.777   6.090  1.00  0.00     0.213 HD
ENDBRANCH   6  12
BRANCH   7  14
ATOM     14  C   UNL     1      -2.569   0.668   7.707  1.00  0.00     0.177 C 
BRANCH  14  15
ATOM     15  C   UNL     1      -2.228  -0.587   8.535  1.00  0.00     0.038 C 
BRANCH  15  16
ATOM     16  C   UNL     1      -1.153  -1.569   8.019  1.00  0.00    -0.015 C 
ATOM     17  C   UNL     1      -0.626  -1.185   6.633  1.00  0.00     0.007 C 
ATOM     18  C   UNL     1      -1.741  -2.984   7.934  1.00  0.00     0.007 C 
ENDBRANCH  15  16
ENDBRANCH  14  15
BRANCH  14  19
ATOM     19  C   UNL     1      -3.655   0.743   6.579  1.00  0.00     0.245 C 
ATOM     20  O   UNL     1      -3.292   1.201   5.483  1.00  0.00    -0.272 OA
BRANCH  19  21
ATOM     21  N   UNL     1      -4.991   0.439   6.773  1.00  0.00    -0.332 N 
ATOM     22  C   UNL     1      -6.022   1.383   7.162  1.00  0.00     0.147 C 
BRANCH  21  23
ATOM     23  C   UNL     1      -5.417  -0.975   6.581  1.00  0.00     0.178 C 
BRANCH  23  24
ATOM     24  C   UNL     1      -4.419  -1.849   5.795  1.00  0.00     0.070 C 
BRANCH  24  25
ATOM     25  C   UNL     1      -4.999  -2.899   4.876  1.00  0.00    -0.045 A 
ATOM     26  C   UNL     1      -4.314  -4.096   4.631  1.00  0.00     0.004 A 
ATOM     27  C   UNL     1      -6.237  -2.686   4.250  1.00  0.00     0.004 A 
ATOM     28  C   UNL     1      -4.849  -5.054   3.767  1.00  0.00     0.000 A 
ATOM     29  C   UNL     1      -6.770  -3.645   3.388  1.00  0.00     0.000 A 
ATOM     30  C   UNL     1      -6.074  -4.828   3.145  1.00  0.00     0.000 A 
ENDBRANCH  24  25
ENDBRANCH  23  24
BRANCH  23  31
ATOM     31  C   UNL     1      -5.970  -1.620   7.874  1.00  0.00     0.243 C 
ATOM     32  O   UNL     1      -6.676  -2.625   7.893  1.00  0.00    -0.273 OA
ATOM     33  N   UNL     1      -5.753  -0.857   9.009  1.00  0.00    -0.341 N 
ATOM     34  H   UNL     1      -5.160  -0.027   8.930  1.00  0.00     0.164 HD
BRANCH  33  35
ATOM     35  C   UNL     1      -6.290  -1.212  10.326  1.00  0.00     0.194 C 
BRANCH  35  36
ATOM     36  C   UNL     1      -6.035  -2.690  10.738  1.00  0.00     0.017 C 
ATOM     37  C   UNL     1      -6.268  -2.898  12.244  1.00  0.00     0.010 C 
ATOM     38  C   UNL     1      -4.612  -3.168  10.423  1.00  0.00     0.010 C 
ENDBRANCH  35  36
BRANCH  35  39
ATOM     39  C   UNL     1      -7.784  -0.814  10.489  1.00  0.00     0.329 C 
ATOM     40  O   UNL     1      -8.653  -1.058   9.660  1.00  0.00    -0.250 OA
BRANCH  39  41
ATOM     41  O   UNL     1      -8.038  -0.237  11.702  1.00  0.00    -0.458 OA
BRANCH  41  42
ATOM     42  C   UNL     1      -7.309   0.977  12.000  1.00  0.00     0.205 CG0
ATOM     43  C   UNL     1      -6.639   0.783  13.359  1.00  0.00     0.056 C 
ATOM     44  G   UNL     1      -8.299   2.159  11.994  1.00  0.00     0.000 G0
ENDBRANCH  41  42
ENDBRANCH  39  41
ENDBRANCH  35  39
ENDBRANCH  33  35
ENDBRANCH  23  31
ENDBRANCH  21  23
ENDBRANCH  19  21
ENDBRANCH  14  19
ENDBRANCH   7  14
ENDBRANCH   2   5
BRANCH   3  45
ATOM     45  C   UNL     1      -6.703   5.040  10.003  1.00  0.00     0.171 C 
BRANCH  45  46
ATOM     46  N   UNL     1      -7.491   3.893  10.434  1.00  0.00    -0.342 N 
ATOM     47  C   UNL     1      -7.506   3.458  11.735  1.00  0.00     0.247 C 
ATOM     48  O   UNL     1      -6.916   4.044  12.643  1.00  0.00    -0.273 OA
ATOM     49  H   UNL     1      -8.040   3.412   9.724  1.00  0.00     0.164 HD
BRANCH  47  50
ATOM     50  C   UNL     1      -8.294   2.162  11.978  1.00  0.00     0.212 CG0
ATOM     51  G   UNL     1      -7.283   0.999  12.010  1.00  0.00     0.000 G0
BRANCH  50  52
ATOM     52  N   UNL     1      -8.987   2.360  13.248  1.00  0.00    -0.339 N 
ATOM     53  C   UNL     1     -10.213   2.970  13.354  1.00  0.00     0.243 C 
ATOM     54  O   UNL     1     -10.800   3.447  12.387  1.00  0.00    -0.273 OA
ATOM     55  H   UNL     1      -8.500   2.085  14.100  1.00  0.00     0.164 HD
BRANCH  53  56
ATOM     56  C   UNL     1     -10.705   3.143  14.805  1.00  0.00     0.182 C 
BRANCH  56  57
ATOM     57  N   UNL     1      -9.613   3.575  15.683  1.00  0.00    -0.344 N 
ATOM     58  C   UNL     1      -9.200   4.883  15.755  1.00  0.00     0.220 C 
ATOM     59  O   UNL     1      -9.663   5.765  15.040  1.00  0.00    -0.275 OA
ATOM     60  H   UNL     1      -9.274   2.899  16.363  1.00  0.00     0.164 HD
BRANCH  58  61
ATOM     61  C   UNL     1      -8.097   5.110  16.772  1.00  0.00     0.100 C 
BRANCH  61  62
ATOM     62  C   UNL     1      -7.820   6.586  17.062  1.00  0.00     0.010 C 
BRANCH  62  63
ATOM     63  C   UNL     1      -6.409   6.867  17.594  1.00  0.00     0.000 C 
BRANCH  63  64
ATOM     64  C   UNL     1      -5.450   7.443  16.553  1.00  0.00    -0.003 C 
ATOM     65  C   UNL     1      -4.003   7.109  16.886  1.00  0.00     0.004 C 
ENDBRANCH  63  64
ENDBRANCH  62  63
ENDBRANCH  61  62
ENDBRANCH  58  61
ENDBRANCH  56  57
BRANCH  56  66
ATOM     66  C   UNL     1     -11.392   1.878  15.318  1.00  0.00     0.157 C 
BRANCH  66  67
ATOM     67  C   UNL     1     -10.963   1.558  16.721  1.00  0.00     0.305 C 
ATOM     68  O   UNL     1     -11.609   1.733  17.743  1.00  0.00    -0.252 OA
BRANCH  67  69
ATOM     69  O   UNL     1      -9.749   0.977  16.764  1.00  0.00    -0.481 OA
ATOM     70  H   UNL     1      -9.930   0.032  16.954  1.00  0.00     0.296 HD
ENDBRANCH  67  69
ENDBRANCH  66  67
ENDBRANCH  56  66
ENDBRANCH  53  56
ENDBRANCH  50  52
ENDBRANCH  47  50
ENDBRANCH  45  46
BRANCH  45  71
ATOM     71  C   UNL     1      -7.371   5.781   8.840  1.00  0.00     0.037 C 
BRANCH  71  72
ATOM     72  C   UNL     1      -7.694   7.235   9.192  1.00  0.00     0.026 C 
BRANCH  72  73
ATOM     73  C   UNL     1      -7.784   7.439  10.703  1.00  0.00     0.146 C 
BRANCH  73  74
ATOM     74  N   UNL     1      -9.196   7.421  11.073  1.00  0.00    -0.254 NA
ATOM     75  C   UNL     1      -9.506   7.754  12.271  1.00  0.00     0.185 C 
ATOM     76  N   UNL     1     -10.797   7.749  12.641  1.00  0.00    -0.370 N 
ATOM     77  N   UNL     1      -8.700   8.130  13.279  1.00  0.00    -0.370 N 
ATOM     78  H   UNL     1     -11.472   7.470  11.942  1.00  0.00     0.159 HD
ATOM     79  H   UNL     1     -11.101   7.855  13.592  1.00  0.00     0.159 HD
ATOM     80  H   UNL     1      -7.701   8.184  13.145  1.00  0.00     0.159 HD
ATOM     81  H   UNL     1      -9.068   8.481  14.148  1.00  0.00     0.159 HD
ENDBRANCH  73  74
ENDBRANCH  72  73
ENDBRANCH  71  72
ENDBRANCH  45  71
ENDBRANCH   3  45
TORSDOF 20
ENDMDL
MODEL 42
REMARK VINA RESULT:    -5.640      3.599      6.640
REMARK INTER + INTRA:         -23.833
REMARK INTER:                 -19.344
REMARK INTRA:                  -4.490
REMARK UNBOUND:                -7.644
REMARK SMILES CCCCCC(=O)N[C@H](CC(=O)O)C(=O)N[C@H]1C(=O)N[C@H](CCCN=C(N)N)C(=O)N[C@@H]2CC[C@H](O)N(C2=O)[C@@H](CC(C)C)C(=O)N(C)[C@@H](Cc2ccccc2)C(=O)N[C@H](C(C)C)C(=O)O[C@@H]1C
REMARK SMILES IDX 30 1 31 2 29 3 32 5 35 6 37 7 34 8 38 9 33 10 39 11 36 12
REMARK SMILES IDX 40 14 41 15 42 16 43 17 44 18 45 19 46 20 47 21 48 22 49 23
REMARK SMILES IDX 50 24 51 25 52 26 56 27 53 28 55 29 54 30 57 31 58 32 59 33
REMARK SMILES IDX 60 35 61 36 62 37 63 38 64 39 65 40 66 41 67 42 68 43 21 45
REMARK SMILES IDX 20 46 18 47 19 48 17 50 16 52 14 53 15 54 9 56 8 57 6 58
REMARK SMILES IDX 7 59 5 61 4 62 3 63 2 64 1 65 10 66 11 67 12 68 13 69 22 71
REMARK SMILES IDX 23 72 24 73 25 74 26 75 27 76 28 77
REMARK H PARENT 31 4 36 13 59 34 20 49 16 55 8 60 13 70 27 78 27 79 28 80
REMARK H PARENT 28 81
REMARK Flexibility Score:  259.900
ROOT
ATOM      1  O   UNL     1     -11.852   2.514  11.096  1.00  0.00    -0.273 OA
ATOM      2  N   UNL     1      -9.845   1.531  11.585  1.00  0.00    -0.343 N 
ATOM      3  C   UNL     1     -10.891   2.388  11.856  1.00  0.00     0.243 C 
ATOM      4  H   UNL     1      -9.078   1.442  12.240  1.00  0.00     0.164 HD
ENDROOT
BRANCH   2   5
ATOM      5  C   UNL     1      -9.778   0.821  10.313  1.00  0.00     0.171 C 
ATOM      6  C   UNL     1      -8.516  -1.664   9.515  1.00  0.00     0.214 C 
ATOM      7  N   UNL     1      -7.784  -0.425   9.393  1.00  0.00    -0.303 N 
ATOM      8  C   UNL     1     -10.019  -1.494   9.360  1.00  0.00     0.057 C 
ATOM      9  C   UNL     1      -8.309   0.790   9.803  1.00  0.00     0.247 C 
ATOM     10  C   UNL     1     -10.531  -0.507  10.386  1.00  0.00     0.040 C 
ATOM     11  O   UNL     1      -7.644   1.835   9.775  1.00  0.00    -0.272 OA
BRANCH   6  12
ATOM     12  O   UNL     1      -8.210  -2.222  10.773  1.00  0.00    -0.373 OA
ATOM     13  H   UNL     1      -7.971  -1.478  11.366  1.00  0.00     0.213 HD
ENDBRANCH   6  12
BRANCH   7  14
ATOM     14  C   UNL     1      -6.379  -0.517   8.944  1.00  0.00     0.177 C 
BRANCH  14  15
ATOM     15  C   UNL     1      -5.551  -1.637   9.603  1.00  0.00     0.038 C 
BRANCH  15  16
ATOM     16  C   UNL     1      -5.370  -2.983   8.867  1.00  0.00    -0.015 C 
ATOM     17  C   UNL     1      -5.402  -4.180   9.822  1.00  0.00     0.007 C 
ATOM     18  C   UNL     1      -4.025  -2.993   8.129  1.00  0.00     0.007 C 
ENDBRANCH  15  16
ENDBRANCH  14  15
BRANCH  14  19
ATOM     19  C   UNL     1      -6.254  -0.056   7.450  1.00  0.00     0.245 C 
ATOM     20  O   UNL     1      -6.707  -0.828   6.588  1.00  0.00    -0.272 OA
BRANCH  19  21
ATOM     21  N   UNL     1      -5.581   1.084   7.049  1.00  0.00    -0.332 N 
ATOM     22  C   UNL     1      -6.202   2.292   6.535  1.00  0.00     0.147 C 
BRANCH  21  23
ATOM     23  C   UNL     1      -4.095   1.081   7.134  1.00  0.00     0.178 C 
BRANCH  23  24
ATOM     24  C   UNL     1      -3.377   1.717   5.926  1.00  0.00     0.070 C 
BRANCH  24  25
ATOM     25  C   UNL     1      -1.877   1.870   6.019  1.00  0.00    -0.045 A 
ATOM     26  C   UNL     1      -1.031   0.767   5.849  1.00  0.00     0.004 A 
ATOM     27  C   UNL     1      -1.309   3.126   6.284  1.00  0.00     0.004 A 
ATOM     28  C   UNL     1       0.354   0.914   5.954  1.00  0.00     0.000 A 
ATOM     29  C   UNL     1       0.075   3.271   6.387  1.00  0.00     0.000 A 
ATOM     30  C   UNL     1       0.905   2.165   6.225  1.00  0.00     0.000 A 
ENDBRANCH  24  25
ENDBRANCH  23  24
BRANCH  23  31
ATOM     31  C   UNL     1      -3.569   1.534   8.517  1.00  0.00     0.243 C 
ATOM     32  O   UNL     1      -3.018   0.787   9.321  1.00  0.00    -0.273 OA
ATOM     33  N   UNL     1      -3.940   2.825   8.853  1.00  0.00    -0.341 N 
ATOM     34  H   UNL     1      -4.403   3.398   8.143  1.00  0.00     0.164 HD
BRANCH  33  35
ATOM     35  C   UNL     1      -3.656   3.423  10.161  1.00  0.00     0.194 C 
BRANCH  35  36
ATOM     36  C   UNL     1      -2.211   3.167  10.675  1.00  0.00     0.017 C 
ATOM     37  C   UNL     1      -2.194   2.915  12.193  1.00  0.00     0.010 C 
ATOM     38  C   UNL     1      -1.254   4.332  10.393  1.00  0.00     0.010 C 
ENDBRANCH  35  36
BRANCH  35  39
ATOM     39  C   UNL     1      -4.725   3.060  11.229  1.00  0.00     0.329 C 
ATOM     40  O   UNL     1      -5.093   1.917  11.470  1.00  0.00    -0.250 OA
BRANCH  39  41
ATOM     41  O   UNL     1      -5.147   4.154  11.934  1.00  0.00    -0.458 OA
BRANCH  41  42
ATOM     42  C   UNL     1      -6.530   4.540  11.749  1.00  0.00     0.205 CG0
ATOM     43  C   UNL     1      -6.532   5.917  11.087  1.00  0.00     0.056 C 
ATOM     44  G   UNL     1      -7.226   4.547  13.125  1.00  0.00     0.000 G0
ENDBRANCH  41  42
ENDBRANCH  39  41
ENDBRANCH  35  39
ENDBRANCH  33  35
ENDBRANCH  23  31
ENDBRANCH  21  23
ENDBRANCH  19  21
ENDBRANCH  14  19
ENDBRANCH   7  14
ENDBRANCH   2   5
BRANCH   3  45
ATOM     45  C   UNL     1     -10.785   3.155  13.180  1.00  0.00     0.171 C 
BRANCH  45  46
ATOM     46  N   UNL     1      -9.362   3.390  13.387  1.00  0.00    -0.342 N 
ATOM     47  C   UNL     1      -8.736   4.536  12.966  1.00  0.00     0.247 C 
ATOM     48  O   UNL     1      -9.340   5.477  12.451  1.00  0.00    -0.273 OA
ATOM     49  H   UNL     1      -8.834   2.659  13.861  1.00  0.00     0.164 HD
BRANCH  47  50
ATOM     50  C   UNL     1      -7.213   4.553  13.158  1.00  0.00     0.212 CG0
ATOM     51  G   UNL     1      -6.565   4.555  11.759  1.00  0.00     0.000 G0
BRANCH  50  52
ATOM     52  N   UNL     1      -6.930   5.762  13.927  1.00  0.00    -0.339 N 
ATOM     53  C   UNL     1      -6.823   5.779  15.296  1.00  0.00     0.243 C 
ATOM     54  O   UNL     1      -7.010   4.782  15.988  1.00  0.00    -0.273 OA
ATOM     55  H   UNL     1      -6.875   6.643  13.419  1.00  0.00     0.164 HD
BRANCH  53  56
ATOM     56  C   UNL     1      -6.607   7.186  15.891  1.00  0.00     0.182 C 
BRANCH  56  57
ATOM     57  N   UNL     1      -5.543   7.173  16.900  1.00  0.00    -0.344 N 
ATOM     58  C   UNL     1      -4.225   7.394  16.583  1.00  0.00     0.220 C 
ATOM     59  O   UNL     1      -3.837   7.544  15.429  1.00  0.00    -0.275 OA
ATOM     60  H   UNL     1      -5.832   7.154  17.874  1.00  0.00     0.164 HD
BRANCH  58  61
ATOM     61  C   UNL     1      -3.307   7.393  17.791  1.00  0.00     0.100 C 
BRANCH  61  62
ATOM     62  C   UNL     1      -2.813   8.784  18.191  1.00  0.00     0.010 C 
BRANCH  62  63
ATOM     63  C   UNL     1      -2.921   9.833  17.076  1.00  0.00     0.000 C 
BRANCH  63  64
ATOM     64  C   UNL     1      -1.608  10.109  16.346  1.00  0.00    -0.003 C 
ATOM     65  C   UNL     1      -0.408   9.865  17.250  1.00  0.00     0.004 C 
ENDBRANCH  63  64
ENDBRANCH  62  63
ENDBRANCH  61  62
ENDBRANCH  58  61
ENDBRANCH  56  57
BRANCH  56  66
ATOM     66  C   UNL     1      -7.910   7.770  16.435  1.00  0.00     0.157 C 
BRANCH  66  67
ATOM     67  C   UNL     1      -7.655   8.663  17.614  1.00  0.00     0.305 C 
ATOM     68  O   UNL     1      -7.407   9.859  17.588  1.00  0.00    -0.252 OA
BRANCH  67  69
ATOM     69  O   UNL     1      -7.777   8.010  18.786  1.00  0.00    -0.481 OA
ATOM     70  H   UNL     1      -8.717   8.126  19.040  1.00  0.00     0.296 HD
ENDBRANCH  67  69
ENDBRANCH  66  67
ENDBRANCH  56  66
ENDBRANCH  53  56
ENDBRANCH  50  52
ENDBRANCH  47  50
ENDBRANCH  45  46
BRANCH  45  71
ATOM     71  C   UNL     1     -11.395   2.336  14.323  1.00  0.00     0.037 C 
BRANCH  71  72
ATOM     72  C   UNL     1     -10.649   2.544  15.643  1.00  0.00     0.026 C 
BRANCH  72  73
ATOM     73  C   UNL     1      -9.663   1.410  15.915  1.00  0.00     0.146 C 
BRANCH  73  74
ATOM     74  N   UNL     1      -9.536   0.626  14.691  1.00  0.00    -0.254 NA
ATOM     75  C   UNL     1      -8.415   0.046  14.465  1.00  0.00     0.185 C 
ATOM     76  N   UNL     1      -8.267  -0.684  13.347  1.00  0.00    -0.370 N 
ATOM     77  N   UNL     1      -7.296   0.050  15.210  1.00  0.00    -0.370 N 
ATOM     78  H   UNL     1      -9.061  -0.733  12.725  1.00  0.00     0.159 HD
ATOM     79  H   UNL     1      -7.383  -1.043  13.034  1.00  0.00     0.159 HD
ATOM     80  H   UNL     1      -7.262   0.556  16.083  1.00  0.00     0.159 HD
ATOM     81  H   UNL     1      -6.511  -0.539  14.988  1.00  0.00     0.159 HD
ENDBRANCH  73  74
ENDBRANCH  72  73
ENDBRANCH  71  72
ENDBRANCH  45  71
ENDBRANCH   3  45
TORSDOF 20
ENDMDL
MODEL 43
REMARK VINA RESULT:    -5.605      2.926      6.257
REMARK INTER + INTRA:         -23.734
REMARK INTER:                 -18.735
REMARK INTRA:                  -4.998
REMARK UNBOUND:                -7.644
REMARK SMILES CCCCCC(=O)N[C@H](CC(=O)O)C(=O)N[C@H]1C(=O)N[C@H](CCCN=C(N)N)C(=O)N[C@@H]2CC[C@H](O)N(C2=O)[C@@H](CC(C)C)C(=O)N(C)[C@@H](Cc2ccccc2)C(=O)N[C@H](C(C)C)C(=O)O[C@@H]1C
REMARK SMILES IDX 30 1 31 2 29 3 32 5 35 6 37 7 34 8 38 9 33 10 39 11 36 12
REMARK SMILES IDX 40 14 41 15 42 16 43 17 44 18 45 19 46 20 47 21 48 22 49 23
REMARK SMILES IDX 50 24 51 25 52 26 56 27 53 28 55 29 54 30 57 31 58 32 59 33
REMARK SMILES IDX 60 35 61 36 62 37 63 38 64 39 65 40 66 41 67 42 68 43 21 45
REMARK SMILES IDX 20 46 18 47 19 48 17 50 16 52 14 53 15 54 9 56 8 57 6 58
REMARK SMILES IDX 7 59 5 61 4 62 3 63 2 64 1 65 10 66 11 67 12 68 13 69 22 71
REMARK SMILES IDX 23 72 24 73 25 74 26 75 27 76 28 77
REMARK H PARENT 31 4 36 13 59 34 20 49 16 55 8 60 13 70 27 78 27 79 28 80
REMARK H PARENT 28 81
REMARK Flexibility Score:  259.900
ROOT
ATOM      1  O   UNL     1      -4.902   5.325   8.983  1.00  0.00    -0.273 OA
ATOM      2  N   UNL     1      -4.115   5.466  11.126  1.00  0.00    -0.343 N 
ATOM      3  C   UNL     1      -5.056   5.699  10.146  1.00  0.00     0.243 C 
ATOM      4  H   UNL     1      -4.282   5.776  12.075  1.00  0.00     0.164 HD
ENDROOT
BRANCH   2   5
ATOM      5  C   UNL     1      -2.829   4.864  10.792  1.00  0.00     0.171 C 
ATOM      6  C   UNL     1      -1.752   3.770   8.333  1.00  0.00     0.214 C 
ATOM      7  N   UNL     1      -2.447   2.900   9.253  1.00  0.00    -0.303 N 
ATOM      8  C   UNL     1      -1.049   4.931   9.017  1.00  0.00     0.057 C 
ATOM      9  C   UNL     1      -3.029   3.367  10.420  1.00  0.00     0.247 C 
ATOM     10  C   UNL     1      -2.051   5.740   9.812  1.00  0.00     0.040 C 
ATOM     11  O   UNL     1      -3.696   2.632  11.160  1.00  0.00    -0.272 OA
BRANCH   6  12
ATOM     12  O   UNL     1      -2.692   4.245   7.397  1.00  0.00    -0.373 OA
ATOM     13  H   UNL     1      -2.374   3.977   6.509  1.00  0.00     0.213 HD
ENDBRANCH   6  12
BRANCH   7  14
ATOM     14  C   UNL     1      -2.645   1.497   8.830  1.00  0.00     0.177 C 
BRANCH  14  15
ATOM     15  C   UNL     1      -1.571   0.506   9.319  1.00  0.00     0.038 C 
BRANCH  15  16
ATOM     16  C   UNL     1      -1.221  -0.726   8.455  1.00  0.00    -0.015 C 
ATOM     17  C   UNL     1      -1.111  -2.009   9.285  1.00  0.00     0.007 C 
ATOM     18  C   UNL     1       0.118  -0.497   7.744  1.00  0.00     0.007 C 
ENDBRANCH  15  16
ENDBRANCH  14  15
BRANCH  14  19
ATOM     19  C   UNL     1      -4.174   1.182   8.692  1.00  0.00     0.245 C 
ATOM     20  O   UNL     1      -4.882   2.062   8.174  1.00  0.00    -0.272 OA
BRANCH  19  21
ATOM     21  N   UNL     1      -4.777   0.048   9.207  1.00  0.00    -0.332 N 
ATOM     22  C   UNL     1      -4.546  -0.502  10.531  1.00  0.00     0.147 C 
BRANCH  21  23
ATOM     23  C   UNL     1      -5.738  -0.685   8.338  1.00  0.00     0.178 C 
BRANCH  23  24
ATOM     24  C   UNL     1      -5.428  -2.185   8.154  1.00  0.00     0.070 C 
BRANCH  24  25
ATOM     25  C   UNL     1      -5.266  -2.686   6.738  1.00  0.00    -0.045 A 
ATOM     26  C   UNL     1      -4.313  -3.665   6.428  1.00  0.00     0.004 A 
ATOM     27  C   UNL     1      -6.067  -2.170   5.709  1.00  0.00     0.004 A 
ATOM     28  C   UNL     1      -4.157  -4.110   5.114  1.00  0.00     0.000 A 
ATOM     29  C   UNL     1      -5.911  -2.617   4.396  1.00  0.00     0.000 A 
ATOM     30  C   UNL     1      -4.953  -3.585   4.099  1.00  0.00     0.000 A 
ENDBRANCH  24  25
ENDBRANCH  23  24
BRANCH  23  31
ATOM     31  C   UNL     1      -7.216  -0.360   8.663  1.00  0.00     0.243 C 
ATOM     32  O   UNL     1      -7.846   0.561   8.149  1.00  0.00    -0.273 OA
ATOM     33  N   UNL     1      -7.720  -1.086   9.728  1.00  0.00    -0.341 N 
ATOM     34  H   UNL     1      -7.146  -1.837  10.119  1.00  0.00     0.164 HD
BRANCH  33  35
ATOM     35  C   UNL     1      -9.056  -0.861  10.287  1.00  0.00     0.194 C 
BRANCH  35  36
ATOM     36  C   UNL     1     -10.186  -0.787   9.222  1.00  0.00     0.017 C 
ATOM     37  C   UNL     1     -11.577  -0.792   9.880  1.00  0.00     0.010 C 
ATOM     38  C   UNL     1     -10.149  -1.948   8.220  1.00  0.00     0.010 C 
ENDBRANCH  35  36
BRANCH  35  39
ATOM     39  C   UNL     1      -9.100   0.347  11.264  1.00  0.00     0.329 C 
ATOM     40  O   UNL     1      -9.054   0.245  12.484  1.00  0.00    -0.250 OA
BRANCH  39  41
ATOM     41  O   UNL     1      -9.108   1.547  10.607  1.00  0.00    -0.458 OA
BRANCH  41  42
ATOM     42  C   UNL     1      -8.082   2.494  10.990  1.00  0.00     0.205 CG0
ATOM     43  C   UNL     1      -7.087   1.751  11.880  1.00  0.00     0.056 C 
ATOM     44  G   UNL     1      -8.752   3.678  11.716  1.00  0.00     0.000 G0
ENDBRANCH  41  42
ENDBRANCH  39  41
ENDBRANCH  35  39
ENDBRANCH  33  35
ENDBRANCH  23  31
ENDBRANCH  21  23
ENDBRANCH  19  21
ENDBRANCH  14  19
ENDBRANCH   7  14
ENDBRANCH   2   5
BRANCH   3  45
ATOM     45  C   UNL     1      -6.319   6.437  10.610  1.00  0.00     0.171 C 
BRANCH  45  46
ATOM     46  N   UNL     1      -7.367   5.427  10.669  1.00  0.00    -0.342 N 
ATOM     47  C   UNL     1      -7.740   4.821  11.842  1.00  0.00     0.247 C 
ATOM     48  O   UNL     1      -7.271   5.137  12.936  1.00  0.00    -0.273 OA
ATOM     49  H   UNL     1      -7.821   5.176   9.793  1.00  0.00     0.164 HD
BRANCH  47  50
ATOM     50  C   UNL     1      -8.771   3.693  11.692  1.00  0.00     0.212 CG0
ATOM     51  G   UNL     1      -8.067   2.503  11.011  1.00  0.00     0.000 G0
BRANCH  50  52
ATOM     52  N   UNL     1      -9.225   3.397  13.048  1.00  0.00    -0.339 N 
ATOM     53  C   UNL     1     -10.512   3.611  13.479  1.00  0.00     0.243 C 
ATOM     54  O   UNL     1     -11.372   4.122  12.766  1.00  0.00    -0.273 OA
ATOM     55  H   UNL     1      -8.530   3.075  13.719  1.00  0.00     0.164 HD
BRANCH  53  56
ATOM     56  C   UNL     1     -10.733   3.304  14.974  1.00  0.00     0.182 C 
BRANCH  56  57
ATOM     57  N   UNL     1      -9.661   3.880  15.793  1.00  0.00    -0.344 N 
ATOM     58  C   UNL     1      -9.388   5.226  15.807  1.00  0.00     0.220 C 
ATOM     59  O   UNL     1      -9.968   6.028  15.084  1.00  0.00    -0.275 OA
ATOM     60  H   UNL     1      -9.227   3.268  16.479  1.00  0.00     0.164 HD
BRANCH  58  61
ATOM     61  C   UNL     1      -8.278   5.604  16.771  1.00  0.00     0.100 C 
BRANCH  61  62
ATOM     62  C   UNL     1      -6.880   5.541  16.156  1.00  0.00     0.010 C 
BRANCH  62  63
ATOM     63  C   UNL     1      -6.269   6.913  15.845  1.00  0.00     0.000 C 
BRANCH  63  64
ATOM     64  C   UNL     1      -4.771   6.879  15.547  1.00  0.00    -0.003 C 
ATOM     65  C   UNL     1      -3.949   7.078  16.813  1.00  0.00     0.004 C 
ENDBRANCH  63  64
ENDBRANCH  62  63
ENDBRANCH  61  62
ENDBRANCH  58  61
ENDBRANCH  56  57
BRANCH  56  66
ATOM     66  C   UNL     1     -10.904   1.806  15.218  1.00  0.00     0.157 C 
BRANCH  66  67
ATOM     67  C   UNL     1      -9.891   1.296  16.202  1.00  0.00     0.305 C 
ATOM     68  O   UNL     1      -9.996   1.277  17.419  1.00  0.00    -0.252 OA
BRANCH  67  69
ATOM     69  O   UNL     1      -8.804   0.782  15.596  1.00  0.00    -0.481 OA
ATOM     70  H   UNL     1      -8.116   1.476  15.684  1.00  0.00     0.296 HD
ENDBRANCH  67  69
ENDBRANCH  66  67
ENDBRANCH  56  66
ENDBRANCH  53  56
ENDBRANCH  50  52
ENDBRANCH  47  50
ENDBRANCH  45  46
BRANCH  45  71
ATOM     71  C   UNL     1      -6.671   7.561   9.629  1.00  0.00     0.037 C 
BRANCH  71  72
ATOM     72  C   UNL     1      -8.164   7.583   9.291  1.00  0.00     0.026 C 
BRANCH  72  73
ATOM     73  C   UNL     1      -8.928   8.551  10.191  1.00  0.00     0.146 C 
BRANCH  73  74
ATOM     74  N   UNL     1     -10.126   7.867  10.669  1.00  0.00    -0.254 NA
ATOM     75  C   UNL     1     -10.196   7.582  11.916  1.00  0.00     0.185 C 
ATOM     76  N   UNL     1     -11.286   6.953  12.386  1.00  0.00    -0.370 N 
ATOM     77  N   UNL     1      -9.301   7.824  12.890  1.00  0.00    -0.370 N 
ATOM     78  H   UNL     1     -12.007   6.727  11.716  1.00  0.00     0.159 HD
ATOM     79  H   UNL     1     -11.348   6.571  13.313  1.00  0.00     0.159 HD
ATOM     80  H   UNL     1      -8.432   8.295  12.684  1.00  0.00     0.159 HD
ATOM     81  H   UNL     1      -9.515   7.656  13.859  1.00  0.00     0.159 HD
ENDBRANCH  73  74
ENDBRANCH  72  73
ENDBRANCH  71  72
ENDBRANCH  45  71
ENDBRANCH   3  45
TORSDOF 20
ENDMDL
MODEL 44
REMARK VINA RESULT:    -5.600      3.024      8.106
REMARK INTER + INTRA:         -23.720
REMARK INTER:                 -20.516
REMARK INTRA:                  -3.204
REMARK UNBOUND:                -7.644
REMARK SMILES CCCCCC(=O)N[C@H](CC(=O)O)C(=O)N[C@H]1C(=O)N[C@H](CCCN=C(N)N)C(=O)N[C@@H]2CC[C@H](O)N(C2=O)[C@@H](CC(C)C)C(=O)N(C)[C@@H](Cc2ccccc2)C(=O)N[C@H](C(C)C)C(=O)O[C@@H]1C
REMARK SMILES IDX 30 1 31 2 29 3 32 5 35 6 37 7 34 8 38 9 33 10 39 11 36 12
REMARK SMILES IDX 40 14 41 15 42 16 43 17 44 18 45 19 46 20 47 21 48 22 49 23
REMARK SMILES IDX 50 24 51 25 52 26 56 27 53 28 55 29 54 30 57 31 58 32 59 33
REMARK SMILES IDX 60 35 61 36 62 37 63 38 64 39 65 40 66 41 67 42 68 43 21 45
REMARK SMILES IDX 20 46 18 47 19 48 17 50 16 52 14 53 15 54 9 56 8 57 6 58
REMARK SMILES IDX 7 59 5 61 4 62 3 63 2 64 1 65 10 66 11 67 12 68 13 69 22 71
REMARK SMILES IDX 23 72 24 73 25 74 26 75 27 76 28 77
REMARK H PARENT 31 4 36 13 59 34 20 49 16 55 8 60 13 70 27 78 27 79 28 80
REMARK H PARENT 28 81
REMARK Flexibility Score:  259.900
ROOT
ATOM      1  O   UNL     1      -1.334  -1.558   8.986  1.00  0.00    -0.273 OA
ATOM      2  N   UNL     1      -3.310  -0.619   9.650  1.00  0.00    -0.343 N 
ATOM      3  C   UNL     1      -2.488  -1.222   8.723  1.00  0.00     0.243 C 
ATOM      4  H   UNL     1      -4.260  -0.369   9.402  1.00  0.00     0.164 HD
ENDROOT
BRANCH   2   5
ATOM      5  C   UNL     1      -2.798  -0.243  10.963  1.00  0.00     0.171 C 
ATOM      6  C   UNL     1      -3.905  -0.444  13.635  1.00  0.00     0.214 C 
ATOM      7  N   UNL     1      -4.126   0.757  12.863  1.00  0.00    -0.303 N 
ATOM      8  C   UNL     1      -2.594  -1.140  13.304  1.00  0.00     0.057 C 
ATOM      9  C   UNL     1      -3.669   0.898  11.563  1.00  0.00     0.247 C 
ATOM     10  C   UNL     1      -2.551  -1.477  11.830  1.00  0.00     0.040 C 
ATOM     11  O   UNL     1      -3.936   1.894  10.878  1.00  0.00    -0.272 OA
BRANCH   6  12
ATOM     12  O   UNL     1      -4.993  -1.309  13.407  1.00  0.00    -0.373 OA
ATOM     13  H   UNL     1      -5.753  -0.750  13.138  1.00  0.00     0.213 HD
ENDBRANCH   6  12
BRANCH   7  14
ATOM     14  C   UNL     1      -4.995   1.790  13.464  1.00  0.00     0.177 C 
BRANCH  14  15
ATOM     15  C   UNL     1      -4.304   3.134  13.768  1.00  0.00     0.038 C 
BRANCH  15  16
ATOM     16  C   UNL     1      -5.157   4.349  14.195  1.00  0.00    -0.015 C 
ATOM     17  C   UNL     1      -5.335   5.365  13.063  1.00  0.00     0.007 C 
ATOM     18  C   UNL     1      -4.491   5.060  15.379  1.00  0.00     0.007 C 
ENDBRANCH  15  16
ENDBRANCH  14  15
BRANCH  14  19
ATOM     19  C   UNL     1      -6.469   1.622  12.958  1.00  0.00     0.245 C 
ATOM     20  O   UNL     1      -6.746   2.139  11.862  1.00  0.00    -0.272 OA
BRANCH  19  21
ATOM     21  N   UNL     1      -7.479   1.040  13.702  1.00  0.00    -0.332 N 
ATOM     22  C   UNL     1      -7.292   0.266  14.917  1.00  0.00     0.147 C 
BRANCH  21  23
ATOM     23  C   UNL     1      -8.880   1.204  13.224  1.00  0.00     0.178 C 
BRANCH  23  24
ATOM     24  C   UNL     1      -9.651   2.371  13.874  1.00  0.00     0.070 C 
BRANCH  24  25
ATOM     25  C   UNL     1     -10.955   2.036  14.561  1.00  0.00    -0.045 A 
ATOM     26  C   UNL     1     -12.176   2.168  13.886  1.00  0.00     0.004 A 
ATOM     27  C   UNL     1     -10.960   1.590  15.891  1.00  0.00     0.004 A 
ATOM     28  C   UNL     1     -13.378   1.873  14.533  1.00  0.00     0.000 A 
ATOM     29  C   UNL     1     -12.162   1.294  16.536  1.00  0.00     0.000 A 
ATOM     30  C   UNL     1     -13.371   1.438  15.857  1.00  0.00     0.000 A 
ENDBRANCH  24  25
ENDBRANCH  23  24
BRANCH  23  31
ATOM     31  C   UNL     1      -9.006   1.118  11.684  1.00  0.00     0.243 C 
ATOM     32  O   UNL     1      -9.659   1.904  11.003  1.00  0.00    -0.273 OA
ATOM     33  N   UNL     1      -8.467  -0.040  11.149  1.00  0.00    -0.341 N 
ATOM     34  H   UNL     1      -7.938  -0.660  11.768  1.00  0.00     0.164 HD
BRANCH  33  35
ATOM     35  C   UNL     1      -8.576  -0.391   9.731  1.00  0.00     0.194 C 
BRANCH  35  36
ATOM     36  C   UNL     1      -9.487  -1.618   9.448  1.00  0.00     0.017 C 
ATOM     37  C   UNL     1     -10.102  -1.546   8.040  1.00  0.00     0.010 C 
ATOM     38  C   UNL     1     -10.642  -1.756  10.447  1.00  0.00     0.010 C 
ENDBRANCH  35  36
BRANCH  35  39
ATOM     39  C   UNL     1      -7.190  -0.525   9.040  1.00  0.00     0.329 C 
ATOM     40  O   UNL     1      -6.481  -1.522   9.112  1.00  0.00    -0.250 OA
BRANCH  39  41
ATOM     41  O   UNL     1      -6.885   0.562   8.268  1.00  0.00    -0.458 OA
BRANCH  41  42
ATOM     42  C   UNL     1      -7.119   0.425   6.846  1.00  0.00     0.205 CG0
ATOM     43  C   UNL     1      -7.437  -1.044   6.578  1.00  0.00     0.056 C 
ATOM     44  G   UNL     1      -5.861   0.903   6.093  1.00  0.00     0.000 G0
ENDBRANCH  41  42
ENDBRANCH  39  41
ENDBRANCH  35  39
ENDBRANCH  33  35
ENDBRANCH  23  31
ENDBRANCH  21  23
ENDBRANCH  19  21
ENDBRANCH  14  19
ENDBRANCH   7  14
ENDBRANCH   2   5
BRANCH   3  45
ATOM     45  C   UNL     1      -3.119  -1.464   7.345  1.00  0.00     0.171 C 
BRANCH  45  46
ATOM     46  N   UNL     1      -4.191  -0.485   7.225  1.00  0.00    -0.342 N 
ATOM     47  C   UNL     1      -4.852  -0.258   6.044  1.00  0.00     0.247 C 
ATOM     48  O   UNL     1      -4.639  -0.912   5.023  1.00  0.00    -0.273 OA
ATOM     49  H   UNL     1      -4.438   0.040   8.062  1.00  0.00     0.164 HD
BRANCH  47  50
ATOM     50  C   UNL     1      -5.864   0.896   6.077  1.00  0.00     0.212 CG0
ATOM     51  G   UNL     1      -7.091   0.420   6.879  1.00  0.00     0.000 G0
BRANCH  50  52
ATOM     52  N   UNL     1      -5.162   2.012   6.705  1.00  0.00    -0.339 N 
ATOM     53  C   UNL     1      -4.413   2.926   6.003  1.00  0.00     0.243 C 
ATOM     54  O   UNL     1      -4.233   2.842   4.792  1.00  0.00    -0.273 OA
ATOM     55  H   UNL     1      -5.181   2.071   7.721  1.00  0.00     0.164 HD
BRANCH  53  56
ATOM     56  C   UNL     1      -3.695   3.963   6.891  1.00  0.00     0.182 C 
BRANCH  56  57
ATOM     57  N   UNL     1      -2.821   4.826   6.089  1.00  0.00    -0.344 N 
ATOM     58  C   UNL     1      -2.819   6.193   6.218  1.00  0.00     0.220 C 
ATOM     59  O   UNL     1      -3.596   6.792   6.955  1.00  0.00    -0.275 OA
ATOM     60  H   UNL     1      -2.096   4.368   5.544  1.00  0.00     0.164 HD
BRANCH  58  61
ATOM     61  C   UNL     1      -1.795   6.879   5.333  1.00  0.00     0.100 C 
BRANCH  61  62
ATOM     62  C   UNL     1      -0.355   6.721   5.821  1.00  0.00     0.010 C 
BRANCH  62  63
ATOM     63  C   UNL     1       0.694   7.358   4.900  1.00  0.00     0.000 C 
BRANCH  63  64
ATOM     64  C   UNL     1       0.609   6.902   3.444  1.00  0.00    -0.003 C 
ATOM     65  C   UNL     1       1.526   5.716   3.180  1.00  0.00     0.004 C 
ENDBRANCH  63  64
ENDBRANCH  62  63
ENDBRANCH  61  62
ENDBRANCH  58  61
ENDBRANCH  56  57
BRANCH  56  66
ATOM     66  C   UNL     1      -2.946   3.292   8.041  1.00  0.00     0.157 C 
BRANCH  66  67
ATOM     67  C   UNL     1      -2.501   4.301   9.061  1.00  0.00     0.305 C 
ATOM     68  O   UNL     1      -1.406   4.836   9.133  1.00  0.00    -0.252 OA
BRANCH  67  69
ATOM     69  O   UNL     1      -3.486   4.628   9.920  1.00  0.00    -0.481 OA
ATOM     70  H   UNL     1      -3.987   5.339   9.466  1.00  0.00     0.296 HD
ENDBRANCH  67  69
ENDBRANCH  66  67
ENDBRANCH  56  66
ENDBRANCH  53  56
ENDBRANCH  50  52
ENDBRANCH  47  50
ENDBRANCH  45  46
BRANCH  45  71
ATOM     71  C   UNL     1      -3.650  -2.899   7.246  1.00  0.00     0.037 C 
BRANCH  71  72
ATOM     72  C   UNL     1      -2.868  -3.733   6.228  1.00  0.00     0.026 C 
BRANCH  72  73
ATOM     73  C   UNL     1      -3.762  -4.766   5.546  1.00  0.00     0.146 C 
BRANCH  73  74
ATOM     74  N   UNL     1      -5.063  -4.147   5.312  1.00  0.00    -0.254 NA
ATOM     75  C   UNL     1      -5.398  -3.896   4.100  1.00  0.00     0.185 C 
ATOM     76  N   UNL     1      -6.589  -3.328   3.852  1.00  0.00    -0.370 N 
ATOM     77  N   UNL     1      -4.709  -4.125   2.969  1.00  0.00    -0.370 N 
ATOM     78  H   UNL     1      -7.169  -3.115   4.651  1.00  0.00     0.159 HD
ATOM     79  H   UNL     1      -6.856  -2.972   2.951  1.00  0.00     0.159 HD
ATOM     80  H   UNL     1      -3.795  -4.553   3.001  1.00  0.00     0.159 HD
ATOM     81  H   UNL     1      -5.123  -3.991   2.061  1.00  0.00     0.159 HD
ENDBRANCH  73  74
ENDBRANCH  72  73
ENDBRANCH  71  72
ENDBRANCH  45  71
ENDBRANCH   3  45
TORSDOF 20
ENDMDL
MODEL 45
REMARK VINA RESULT:    -5.582      3.273      9.228
REMARK INTER + INTRA:         -23.668
REMARK INTER:                 -18.743
REMARK INTRA:                  -4.925
REMARK UNBOUND:                -7.644
REMARK SMILES CCCCCC(=O)N[C@H](CC(=O)O)C(=O)N[C@H]1C(=O)N[C@H](CCCN=C(N)N)C(=O)N[C@@H]2CC[C@H](O)N(C2=O)[C@@H](CC(C)C)C(=O)N(C)[C@@H](Cc2ccccc2)C(=O)N[C@H](C(C)C)C(=O)O[C@@H]1C
REMARK SMILES IDX 30 1 31 2 29 3 32 5 35 6 37 7 34 8 38 9 33 10 39 11 36 12
REMARK SMILES IDX 40 14 41 15 42 16 43 17 44 18 45 19 46 20 47 21 48 22 49 23
REMARK SMILES IDX 50 24 51 25 52 26 56 27 53 28 55 29 54 30 57 31 58 32 59 33
REMARK SMILES IDX 60 35 61 36 62 37 63 38 64 39 65 40 66 41 67 42 68 43 21 45
REMARK SMILES IDX 20 46 18 47 19 48 17 50 16 52 14 53 15 54 9 56 8 57 6 58
REMARK SMILES IDX 7 59 5 61 4 62 3 63 2 64 1 65 10 66 11 67 12 68 13 69 22 71
REMARK SMILES IDX 23 72 24 73 25 74 26 75 27 76 28 77
REMARK H PARENT 31 4 36 13 59 34 20 49 16 55 8 60 13 70 27 78 27 79 28 80
REMARK H PARENT 28 81
REMARK Flexibility Score:  259.900
ROOT
ATOM      1  O   UNL     1      -3.867   2.339  12.830  1.00  0.00    -0.273 OA
ATOM      2  N   UNL     1      -3.990   2.130  10.555  1.00  0.00    -0.343 N 
ATOM      3  C   UNL     1      -3.954   1.619  11.835  1.00  0.00     0.243 C 
ATOM      4  H   UNL     1      -4.077   1.508   9.761  1.00  0.00     0.164 HD
ENDROOT
BRANCH   2   5
ATOM      5  C   UNL     1      -3.804   3.558  10.321  1.00  0.00     0.171 C 
ATOM      6  C   UNL     1      -4.164   5.888  12.009  1.00  0.00     0.214 C 
ATOM      7  N   UNL     1      -5.263   5.424  11.195  1.00  0.00    -0.303 N 
ATOM      8  C   UNL     1      -2.800   5.595  11.403  1.00  0.00     0.057 C 
ATOM      9  C   UNL     1      -5.175   4.289  10.406  1.00  0.00     0.247 C 
ATOM     10  C   UNL     1      -2.655   4.107  11.165  1.00  0.00     0.040 C 
ATOM     11  O   UNL     1      -6.148   3.849   9.779  1.00  0.00    -0.272 OA
BRANCH   6  12
ATOM     12  O   UNL     1      -4.280   5.282  13.276  1.00  0.00    -0.373 OA
ATOM     13  H   UNL     1      -4.598   5.972  13.896  1.00  0.00     0.213 HD
ENDBRANCH   6  12
BRANCH   7  14
ATOM     14  C   UNL     1      -6.553   6.129  11.347  1.00  0.00     0.177 C 
BRANCH  14  15
ATOM     15  C   UNL     1      -7.180   6.640  10.035  1.00  0.00     0.038 C 
BRANCH  15  16
ATOM     16  C   UNL     1      -6.642   7.936   9.389  1.00  0.00    -0.015 C 
ATOM     17  C   UNL     1      -7.735   8.725   8.663  1.00  0.00     0.007 C 
ATOM     18  C   UNL     1      -5.544   7.591   8.373  1.00  0.00     0.007 C 
ENDBRANCH  15  16
ENDBRANCH  14  15
BRANCH  14  19
ATOM     19  C   UNL     1      -7.349   5.549  12.567  1.00  0.00     0.245 C 
ATOM     20  O   UNL     1      -6.957   4.464  13.026  1.00  0.00    -0.272 OA
BRANCH  19  21
ATOM     21  N   UNL     1      -8.506   6.115  13.072  1.00  0.00    -0.332 N 
ATOM     22  C   UNL     1      -9.345   7.078  12.380  1.00  0.00     0.147 C 
BRANCH  21  23
ATOM     23  C   UNL     1      -8.933   5.721  14.443  1.00  0.00     0.178 C 
BRANCH  23  24
ATOM     24  C   UNL     1      -9.586   6.851  15.266  1.00  0.00     0.070 C 
BRANCH  24  25
ATOM     25  C   UNL     1      -8.815   7.366  16.459  1.00  0.00    -0.045 A 
ATOM     26  C   UNL     1      -8.733   6.616  17.639  1.00  0.00     0.004 A 
ATOM     27  C   UNL     1      -8.173   8.613  16.402  1.00  0.00     0.004 A 
ATOM     28  C   UNL     1      -8.033   7.108  18.743  1.00  0.00     0.000 A 
ATOM     29  C   UNL     1      -7.473   9.102  17.505  1.00  0.00     0.000 A 
ATOM     30  C   UNL     1      -7.406   8.350  18.677  1.00  0.00     0.000 A 
ENDBRANCH  24  25
ENDBRANCH  23  24
BRANCH  23  31
ATOM     31  C   UNL     1      -9.688   4.371  14.475  1.00  0.00     0.243 C 
ATOM     32  O   UNL     1     -10.743   4.160  13.881  1.00  0.00    -0.273 OA
ATOM     33  N   UNL     1      -9.169   3.468  15.387  1.00  0.00    -0.341 N 
ATOM     34  H   UNL     1      -8.291   3.703  15.856  1.00  0.00     0.164 HD
BRANCH  33  35
ATOM     35  C   UNL     1      -9.793   2.173  15.673  1.00  0.00     0.194 C 
BRANCH  35  36
ATOM     36  C   UNL     1     -10.217   1.986  17.157  1.00  0.00     0.017 C 
ATOM     37  C   UNL     1     -11.676   1.513  17.267  1.00  0.00     0.010 C 
ATOM     38  C   UNL     1     -10.086   3.268  17.989  1.00  0.00     0.010 C 
ENDBRANCH  35  36
BRANCH  35  39
ATOM     39  C   UNL     1      -8.948   0.976  15.156  1.00  0.00     0.329 C 
ATOM     40  O   UNL     1      -8.172   0.331  15.852  1.00  0.00    -0.250 OA
BRANCH  39  41
ATOM     41  O   UNL     1      -9.230   0.664  13.855  1.00  0.00    -0.458 OA
BRANCH  41  42
ATOM     42  C   UNL     1      -8.167   0.885  12.897  1.00  0.00     0.205 CG0
ATOM     43  C   UNL     1      -8.650   1.957  11.922  1.00  0.00     0.056 C 
ATOM     44  G   UNL     1      -7.852  -0.451  12.195  1.00  0.00     0.000 G0
ENDBRANCH  41  42
ENDBRANCH  39  41
ENDBRANCH  35  39
ENDBRANCH  33  35
ENDBRANCH  23  31
ENDBRANCH  21  23
ENDBRANCH  19  21
ENDBRANCH  14  19
ENDBRANCH   7  14
ENDBRANCH   2   5
BRANCH   3  45
ATOM     45  C   UNL     1      -4.051   0.090  11.934  1.00  0.00     0.171 C 
BRANCH  45  46
ATOM     46  N   UNL     1      -5.410  -0.189  12.381  1.00  0.00    -0.342 N 
ATOM     47  C   UNL     1      -6.468  -0.274  11.511  1.00  0.00     0.247 C 
ATOM     48  O   UNL     1      -6.337  -0.194  10.289  1.00  0.00    -0.273 OA
ATOM     49  H   UNL     1      -5.554  -0.319  13.380  1.00  0.00     0.164 HD
BRANCH  47  50
ATOM     50  C   UNL     1      -7.841  -0.451  12.174  1.00  0.00     0.212 CG0
ATOM     51  G   UNL     1      -8.176   0.861  12.911  1.00  0.00     0.000 G0
BRANCH  50  52
ATOM     52  N   UNL     1      -8.764  -0.752  11.083  1.00  0.00    -0.339 N 
ATOM     53  C   UNL     1      -9.621  -1.825  11.092  1.00  0.00     0.243 C 
ATOM     54  O   UNL     1      -9.639  -2.650  12.002  1.00  0.00    -0.273 OA
ATOM     55  H   UNL     1      -8.719  -0.168  10.250  1.00  0.00     0.164 HD
BRANCH  53  56
ATOM     56  C   UNL     1     -10.437  -1.988   9.794  1.00  0.00     0.182 C 
BRANCH  56  57
ATOM     57  N   UNL     1      -9.657  -1.569   8.625  1.00  0.00    -0.344 N 
ATOM     58  C   UNL     1      -8.540  -2.248   8.204  1.00  0.00     0.220 C 
ATOM     59  O   UNL     1      -8.076  -3.205   8.814  1.00  0.00    -0.275 OA
ATOM     60  H   UNL     1     -10.063  -0.847   8.036  1.00  0.00     0.164 HD
BRANCH  58  61
ATOM     61  C   UNL     1      -7.926  -1.671   6.941  1.00  0.00     0.100 C 
BRANCH  61  62
ATOM     62  C   UNL     1      -7.559  -0.191   7.055  1.00  0.00     0.010 C 
BRANCH  62  63
ATOM     63  C   UNL     1      -6.336   0.217   6.225  1.00  0.00     0.000 C 
BRANCH  63  64
ATOM     64  C   UNL     1      -5.330  -0.909   5.995  1.00  0.00    -0.003 C 
ATOM     65  C   UNL     1      -4.367  -1.041   7.167  1.00  0.00     0.004 C 
ENDBRANCH  63  64
ENDBRANCH  62  63
ENDBRANCH  61  62
ENDBRANCH  58  61
ENDBRANCH  56  57
BRANCH  56  66
ATOM     66  C   UNL     1     -11.780  -1.264   9.882  1.00  0.00     0.157 C 
BRANCH  66  67
ATOM     67  C   UNL     1     -11.597   0.176  10.267  1.00  0.00     0.305 C 
ATOM     68  O   UNL     1     -10.980   1.028   9.646  1.00  0.00    -0.252 OA
BRANCH  67  69
ATOM     69  O   UNL     1     -12.249   0.488  11.402  1.00  0.00    -0.481 OA
ATOM     70  H   UNL     1     -12.034   1.432  11.563  1.00  0.00     0.296 HD
ENDBRANCH  67  69
ENDBRANCH  66  67
ENDBRANCH  56  66
ENDBRANCH  53  56
ENDBRANCH  50  52
ENDBRANCH  47  50
ENDBRANCH  45  46
BRANCH  45  71
ATOM     71  C   UNL     1      -3.010  -0.448  12.921  1.00  0.00     0.037 C 
BRANCH  71  72
ATOM     72  C   UNL     1      -2.424  -1.787  12.466  1.00  0.00     0.026 C 
BRANCH  72  73
ATOM     73  C   UNL     1      -2.983  -2.212  11.110  1.00  0.00     0.146 C 
BRANCH  73  74
ATOM     74  N   UNL     1      -1.854  -2.511  10.234  1.00  0.00    -0.254 NA
ATOM     75  C   UNL     1      -1.354  -1.548   9.551  1.00  0.00     0.185 C 
ATOM     76  N   UNL     1      -0.314  -1.792   8.738  1.00  0.00    -0.370 N 
ATOM     77  N   UNL     1      -1.724  -0.256   9.516  1.00  0.00    -0.370 N 
ATOM     78  H   UNL     1       0.023  -2.744   8.699  1.00  0.00     0.159 HD
ATOM     79  H   UNL     1       0.034  -1.128   8.070  1.00  0.00     0.159 HD
ATOM     80  H   UNL     1      -2.492   0.074  10.081  1.00  0.00     0.159 HD
ATOM     81  H   UNL     1      -1.181   0.435   9.026  1.00  0.00     0.159 HD
ENDBRANCH  73  74
ENDBRANCH  72  73
ENDBRANCH  71  72
ENDBRANCH  45  71
ENDBRANCH   3  45
TORSDOF 20
ENDMDL
MODEL 46
REMARK VINA RESULT:    -5.519      3.498      9.717
REMARK INTER + INTRA:         -23.487
REMARK INTER:                 -19.321
REMARK INTRA:                  -4.166
REMARK UNBOUND:                -7.644
REMARK SMILES CCCCCC(=O)N[C@H](CC(=O)O)C(=O)N[C@H]1C(=O)N[C@H](CCCN=C(N)N)C(=O)N[C@@H]2CC[C@H](O)N(C2=O)[C@@H](CC(C)C)C(=O)N(C)[C@@H](Cc2ccccc2)C(=O)N[C@H](C(C)C)C(=O)O[C@@H]1C
REMARK SMILES IDX 30 1 31 2 29 3 32 5 35 6 37 7 34 8 38 9 33 10 39 11 36 12
REMARK SMILES IDX 40 14 41 15 42 16 43 17 44 18 45 19 46 20 47 21 48 22 49 23
REMARK SMILES IDX 50 24 51 25 52 26 56 27 53 28 55 29 54 30 57 31 58 32 59 33
REMARK SMILES IDX 60 35 61 36 62 37 63 38 64 39 65 40 66 41 67 42 68 43 21 45
REMARK SMILES IDX 20 46 18 47 19 48 17 50 16 52 14 53 15 54 9 56 8 57 6 58
REMARK SMILES IDX 7 59 5 61 4 62 3 63 2 64 1 65 10 66 11 67 12 68 13 69 22 71
REMARK SMILES IDX 23 72 24 73 25 74 26 75 27 76 28 77
REMARK H PARENT 31 4 36 13 59 34 20 49 16 55 8 60 13 70 27 78 27 79 28 80
REMARK H PARENT 28 81
REMARK Flexibility Score:  259.900
ROOT
ATOM      1  O   UNL     1      -5.677   3.102  12.011  1.00  0.00    -0.273 OA
ATOM      2  N   UNL     1      -5.521   5.252  11.246  1.00  0.00    -0.343 N 
ATOM      3  C   UNL     1      -5.462   3.884  11.085  1.00  0.00     0.243 C 
ATOM      4  H   UNL     1      -5.352   5.865  10.458  1.00  0.00     0.164 HD
ENDROOT
BRANCH   2   5
ATOM      5  C   UNL     1      -5.727   5.836  12.567  1.00  0.00     0.171 C 
ATOM      6  C   UNL     1      -6.786   4.764  15.044  1.00  0.00     0.214 C 
ATOM      7  N   UNL     1      -7.679   5.406  14.109  1.00  0.00    -0.303 N 
ATOM      8  C   UNL     1      -5.370   5.319  15.002  1.00  0.00     0.057 C 
ATOM      9  C   UNL     1      -7.249   5.894  12.886  1.00  0.00     0.247 C 
ATOM     10  C   UNL     1      -4.810   5.187  13.603  1.00  0.00     0.040 C 
ATOM     11  O   UNL     1      -8.035   6.364  12.054  1.00  0.00    -0.272 OA
BRANCH   6  12
ATOM     12  O   UNL     1      -6.782   3.384  14.759  1.00  0.00    -0.373 OA
ATOM     13  H   UNL     1      -6.645   3.291  13.792  1.00  0.00     0.213 HD
ENDBRANCH   6  12
BRANCH   7  14
ATOM     14  C   UNL     1      -9.120   5.395  14.442  1.00  0.00     0.177 C 
BRANCH  14  15
ATOM     15  C   UNL     1      -9.635   6.654  15.166  1.00  0.00     0.038 C 
BRANCH  15  16
ATOM     16  C   UNL     1      -8.779   7.296  16.280  1.00  0.00    -0.015 C 
ATOM     17  C   UNL     1      -9.052   6.679  17.655  1.00  0.00     0.007 C 
ATOM     18  C   UNL     1      -9.075   8.799  16.361  1.00  0.00     0.007 C 
ENDBRANCH  15  16
ENDBRANCH  14  15
BRANCH  14  19
ATOM     19  C   UNL     1      -9.919   4.571  13.375  1.00  0.00     0.245 C 
ATOM     20  O   UNL     1     -10.915   5.120  12.876  1.00  0.00    -0.272 OA
BRANCH  19  21
ATOM     21  N   UNL     1      -9.642   3.255  13.051  1.00  0.00    -0.332 N 
ATOM     22  C   UNL     1      -9.052   2.799  11.806  1.00  0.00     0.147 C 
BRANCH  21  23
ATOM     23  C   UNL     1      -9.985   2.206  14.052  1.00  0.00     0.178 C 
BRANCH  23  24
ATOM     24  C   UNL     1     -11.453   2.220  14.524  1.00  0.00     0.070 C 
BRANCH  24  25
ATOM     25  C   UNL     1     -11.741   1.646  15.892  1.00  0.00    -0.045 A 
ATOM     26  C   UNL     1     -12.933   0.956  16.144  1.00  0.00     0.004 A 
ATOM     27  C   UNL     1     -10.815   1.804  16.935  1.00  0.00     0.004 A 
ATOM     28  C   UNL     1     -13.200   0.443  17.416  1.00  0.00     0.000 A 
ATOM     29  C   UNL     1     -11.082   1.290  18.205  1.00  0.00     0.000 A 
ATOM     30  C   UNL     1     -12.276   0.613  18.445  1.00  0.00     0.000 A 
ENDBRANCH  24  25
ENDBRANCH  23  24
BRANCH  23  31
ATOM     31  C   UNL     1      -9.435   0.810  13.675  1.00  0.00     0.243 C 
ATOM     32  O   UNL     1     -10.113  -0.214  13.660  1.00  0.00    -0.273 OA
ATOM     33  N   UNL     1      -8.058   0.777  13.532  1.00  0.00    -0.341 N 
ATOM     34  H   UNL     1      -7.547   1.663  13.560  1.00  0.00     0.164 HD
BRANCH  33  35
ATOM     35  C   UNL     1      -7.309  -0.459  13.294  1.00  0.00     0.194 C 
BRANCH  35  36
ATOM     36  C   UNL     1      -5.983  -0.563  14.099  1.00  0.00     0.017 C 
ATOM     37  C   UNL     1      -6.236  -0.442  15.612  1.00  0.00     0.010 C 
ATOM     38  C   UNL     1      -4.958   0.512  13.718  1.00  0.00     0.010 C 
ENDBRANCH  35  36
BRANCH  35  39
ATOM     39  C   UNL     1      -7.093  -0.745  11.782  1.00  0.00     0.329 C 
ATOM     40  O   UNL     1      -7.948  -0.569  10.921  1.00  0.00    -0.250 OA
BRANCH  39  41
ATOM     41  O   UNL     1      -5.812  -1.135  11.504  1.00  0.00    -0.458 OA
BRANCH  41  42
ATOM     42  C   UNL     1      -5.504  -1.378  10.110  1.00  0.00     0.205 CG0
ATOM     43  C   UNL     1      -5.062  -2.835   9.991  1.00  0.00     0.056 C 
ATOM     44  G   UNL     1      -4.405  -0.390   9.670  1.00  0.00     0.000 G0
ENDBRANCH  41  42
ENDBRANCH  39  41
ENDBRANCH  35  39
ENDBRANCH  33  35
ENDBRANCH  23  31
ENDBRANCH  21  23
ENDBRANCH  19  21
ENDBRANCH  14  19
ENDBRANCH   7  14
ENDBRANCH   2   5
BRANCH   3  45
ATOM     45  C   UNL     1      -5.130   3.404   9.666  1.00  0.00     0.171 C 
BRANCH  45  46
ATOM     46  N   UNL     1      -4.538   2.082   9.826  1.00  0.00    -0.342 N 
ATOM     47  C   UNL     1      -5.088   0.956   9.267  1.00  0.00     0.247 C 
ATOM     48  O   UNL     1      -6.076   0.990   8.532  1.00  0.00    -0.273 OA
ATOM     49  H   UNL     1      -3.686   2.018  10.380  1.00  0.00     0.164 HD
BRANCH  47  50
ATOM     50  C   UNL     1      -4.398  -0.361   9.646  1.00  0.00     0.212 CG0
ATOM     51  G   UNL     1      -5.491  -1.346  10.106  1.00  0.00     0.000 G0
BRANCH  50  52
ATOM     52  N   UNL     1      -3.700  -0.797   8.439  1.00  0.00    -0.339 N 
ATOM     53  C   UNL     1      -2.366  -0.560   8.210  1.00  0.00     0.243 C 
ATOM     54  O   UNL     1      -1.666   0.086   8.985  1.00  0.00    -0.273 OA
ATOM     55  H   UNL     1      -4.252  -1.241   7.708  1.00  0.00     0.164 HD
BRANCH  53  56
ATOM     56  C   UNL     1      -1.873  -1.037   6.829  1.00  0.00     0.182 C 
BRANCH  56  57
ATOM     57  N   UNL     1      -2.101  -2.476   6.656  1.00  0.00    -0.344 N 
ATOM     58  C   UNL     1      -3.240  -2.976   6.075  1.00  0.00     0.220 C 
ATOM     59  O   UNL     1      -4.176  -2.262   5.728  1.00  0.00    -0.275 OA
ATOM     60  H   UNL     1      -1.312  -3.092   6.836  1.00  0.00     0.164 HD
BRANCH  58  61
ATOM     61  C   UNL     1      -3.236  -4.488   5.947  1.00  0.00     0.100 C 
BRANCH  61  62
ATOM     62  C   UNL     1      -3.056  -4.983   4.512  1.00  0.00     0.010 C 
BRANCH  62  63
ATOM     63  C   UNL     1      -4.267  -5.741   3.953  1.00  0.00     0.000 C 
BRANCH  63  64
ATOM     64  C   UNL     1      -5.551  -4.915   3.894  1.00  0.00    -0.003 C 
ATOM     65  C   UNL     1      -5.454  -3.813   2.849  1.00  0.00     0.004 C 
ENDBRANCH  63  64
ENDBRANCH  62  63
ENDBRANCH  61  62
ENDBRANCH  58  61
ENDBRANCH  56  57
BRANCH  56  66
ATOM     66  C   UNL     1      -0.413  -0.652   6.593  1.00  0.00     0.157 C 
BRANCH  66  67
ATOM     67  C   UNL     1      -0.306   0.689   5.927  1.00  0.00     0.305 C 
ATOM     68  O   UNL     1      -1.117   1.601   5.981  1.00  0.00    -0.252 OA
BRANCH  67  69
ATOM     69  O   UNL     1       0.855   0.839   5.262  1.00  0.00    -0.481 OA
ATOM     70  H   UNL     1       0.668   0.512   4.356  1.00  0.00     0.296 HD
ENDBRANCH  67  69
ENDBRANCH  66  67
ENDBRANCH  56  66
ENDBRANCH  53  56
ENDBRANCH  50  52
ENDBRANCH  47  50
ENDBRANCH  45  46
BRANCH  45  71
ATOM     71  C   UNL     1      -4.163   4.378   8.985  1.00  0.00     0.037 C 
BRANCH  71  72
ATOM     72  C   UNL     1      -2.864   3.693   8.553  1.00  0.00     0.026 C 
BRANCH  72  73
ATOM     73  C   UNL     1      -1.718   4.694   8.422  1.00  0.00     0.146 C 
BRANCH  73  74
ATOM     74  N   UNL     1      -1.979   5.794   9.345  1.00  0.00    -0.254 NA
ATOM     75  C   UNL     1      -1.076   6.075  10.212  1.00  0.00     0.185 C 
ATOM     76  N   UNL     1      -1.286   7.083  11.074  1.00  0.00    -0.370 N 
ATOM     77  N   UNL     1       0.118   5.490  10.408  1.00  0.00    -0.370 N 
ATOM     78  H   UNL     1      -2.166   7.573  11.000  1.00  0.00     0.159 HD
ATOM     79  H   UNL     1      -0.696   7.266  11.866  1.00  0.00     0.159 HD
ATOM     80  H   UNL     1       0.413   4.719   9.829  1.00  0.00     0.159 HD
ATOM     81  H   UNL     1       0.795   5.873  11.047  1.00  0.00     0.159 HD
ENDBRANCH  73  74
ENDBRANCH  72  73
ENDBRANCH  71  72
ENDBRANCH  45  71
ENDBRANCH   3  45
TORSDOF 20
ENDMDL
MODEL 47
REMARK VINA RESULT:    -5.490      3.247      8.522
REMARK INTER + INTRA:         -23.403
REMARK INTER:                 -18.501
REMARK INTRA:                  -4.902
REMARK UNBOUND:                -7.644
REMARK SMILES CCCCCC(=O)N[C@H](CC(=O)O)C(=O)N[C@H]1C(=O)N[C@H](CCCN=C(N)N)C(=O)N[C@@H]2CC[C@H](O)N(C2=O)[C@@H](CC(C)C)C(=O)N(C)[C@@H](Cc2ccccc2)C(=O)N[C@H](C(C)C)C(=O)O[C@@H]1C
REMARK SMILES IDX 30 1 31 2 29 3 32 5 35 6 37 7 34 8 38 9 33 10 39 11 36 12
REMARK SMILES IDX 40 14 41 15 42 16 43 17 44 18 45 19 46 20 47 21 48 22 49 23
REMARK SMILES IDX 50 24 51 25 52 26 56 27 53 28 55 29 54 30 57 31 58 32 59 33
REMARK SMILES IDX 60 35 61 36 62 37 63 38 64 39 65 40 66 41 67 42 68 43 21 45
REMARK SMILES IDX 20 46 18 47 19 48 17 50 16 52 14 53 15 54 9 56 8 57 6 58
REMARK SMILES IDX 7 59 5 61 4 62 3 63 2 64 1 65 10 66 11 67 12 68 13 69 22 71
REMARK SMILES IDX 23 72 24 73 25 74 26 75 27 76 28 77
REMARK H PARENT 31 4 36 13 59 34 20 49 16 55 8 60 13 70 27 78 27 79 28 80
REMARK H PARENT 28 81
REMARK Flexibility Score:  259.900
ROOT
ATOM      1  O   UNL     1      -9.781   7.514  12.141  1.00  0.00    -0.273 OA
ATOM      2  N   UNL     1      -8.730   5.499  12.402  1.00  0.00    -0.343 N 
ATOM      3  C   UNL     1      -9.022   6.650  11.701  1.00  0.00     0.243 C 
ATOM      4  H   UNL     1      -8.090   4.817  12.015  1.00  0.00     0.164 HD
ENDROOT
BRANCH   2   5
ATOM      5  C   UNL     1      -9.412   5.201  13.657  1.00  0.00     0.171 C 
ATOM      6  C   UNL     1      -9.247   2.969  15.499  1.00  0.00     0.214 C 
ATOM      7  N   UNL     1     -10.214   2.935  14.427  1.00  0.00    -0.303 N 
ATOM      8  C   UNL     1      -8.935   4.376  15.984  1.00  0.00     0.057 C 
ATOM      9  C   UNL     1     -10.311   3.943  13.482  1.00  0.00     0.247 C 
ATOM     10  C   UNL     1      -8.433   5.215  14.830  1.00  0.00     0.040 C 
ATOM     11  O   UNL     1     -11.083   3.866  12.517  1.00  0.00    -0.272 OA
BRANCH   6  12
ATOM     12  O   UNL     1      -8.075   2.334  15.042  1.00  0.00    -0.373 OA
ATOM     13  H   UNL     1      -7.659   2.936  14.389  1.00  0.00     0.213 HD
ENDBRANCH   6  12
BRANCH   7  14
ATOM     14  C   UNL     1     -11.012   1.699  14.283  1.00  0.00     0.177 C 
BRANCH  14  15
ATOM     15  C   UNL     1     -12.225   1.587  15.227  1.00  0.00     0.038 C 
BRANCH  15  16
ATOM     16  C   UNL     1     -12.270   0.454  16.276  1.00  0.00    -0.015 C 
ATOM     17  C   UNL     1     -13.666  -0.162  16.411  1.00  0.00     0.007 C 
ATOM     18  C   UNL     1     -11.851   0.999  17.647  1.00  0.00     0.007 C 
ENDBRANCH  15  16
ENDBRANCH  14  15
BRANCH  14  19
ATOM     19  C   UNL     1     -10.968   1.193  12.800  1.00  0.00     0.245 C 
ATOM     20  O   UNL     1     -12.052   0.870  12.286  1.00  0.00    -0.272 OA
BRANCH  19  21
ATOM     21  N   UNL     1      -9.798   0.986  12.090  1.00  0.00    -0.332 N 
ATOM     22  C   UNL     1      -9.260   1.874  11.075  1.00  0.00     0.147 C 
BRANCH  21  23
ATOM     23  C   UNL     1      -9.022  -0.253  12.374  1.00  0.00     0.178 C 
BRANCH  23  24
ATOM     24  C   UNL     1      -9.625  -1.542  11.780  1.00  0.00     0.070 C 
BRANCH  24  25
ATOM     25  C   UNL     1      -9.757  -1.612  10.276  1.00  0.00    -0.045 A 
ATOM     26  C   UNL     1     -10.954  -1.254   9.644  1.00  0.00     0.004 A 
ATOM     27  C   UNL     1      -8.677  -2.042   9.491  1.00  0.00     0.004 A 
ATOM     28  C   UNL     1     -11.073  -1.337   8.255  1.00  0.00     0.000 A 
ATOM     29  C   UNL     1      -8.798  -2.124   8.102  1.00  0.00     0.000 A 
ATOM     30  C   UNL     1      -9.997  -1.773   7.486  1.00  0.00     0.000 A 
ENDBRANCH  24  25
ENDBRANCH  23  24
BRANCH  23  31
ATOM     31  C   UNL     1      -7.502  -0.078  12.145  1.00  0.00     0.243 C 
ATOM     32  O   UNL     1      -6.814  -0.853  11.485  1.00  0.00    -0.273 OA
ATOM     33  N   UNL     1      -6.941   0.934  12.904  1.00  0.00    -0.341 N 
ATOM     34  H   UNL     1      -7.565   1.543  13.438  1.00  0.00     0.164 HD
BRANCH  33  35
ATOM     35  C   UNL     1      -5.500   1.201  12.939  1.00  0.00     0.194 C 
BRANCH  35  36
ATOM     36  C   UNL     1      -4.736   0.426  14.049  1.00  0.00     0.017 C 
ATOM     37  C   UNL     1      -3.729  -0.568  13.445  1.00  0.00     0.010 C 
ATOM     38  C   UNL     1      -5.663  -0.367  14.979  1.00  0.00     0.010 C 
ENDBRANCH  35  36
BRANCH  35  39
ATOM     39  C   UNL     1      -5.175   2.721  12.964  1.00  0.00     0.329 C 
ATOM     40  O   UNL     1      -5.337   3.441  13.943  1.00  0.00    -0.250 OA
BRANCH  39  41
ATOM     41  O   UNL     1      -4.605   3.151  11.798  1.00  0.00    -0.458 OA
BRANCH  41  42
ATOM     42  C   UNL     1      -5.498   3.315  10.670  1.00  0.00     0.205 CG0
ATOM     43  C   UNL     1      -5.317   2.098   9.767  1.00  0.00     0.056 C 
ATOM     44  G   UNL     1      -5.149   4.637   9.956  1.00  0.00     0.000 G0
ENDBRANCH  41  42
ENDBRANCH  39  41
ENDBRANCH  35  39
ENDBRANCH  33  35
ENDBRANCH  23  31
ENDBRANCH  21  23
ENDBRANCH  19  21
ENDBRANCH  14  19
ENDBRANCH   7  14
ENDBRANCH   2   5
BRANCH   3  45
ATOM     45  C   UNL     1      -8.318   6.790  10.345  1.00  0.00     0.171 C 
BRANCH  45  46
ATOM     46  N   UNL     1      -7.017   6.153  10.509  1.00  0.00    -0.342 N 
ATOM     47  C   UNL     1      -6.471   5.337   9.551  1.00  0.00     0.247 C 
ATOM     48  O   UNL     1      -7.002   5.142   8.457  1.00  0.00    -0.273 OA
ATOM     49  H   UNL     1      -6.516   6.334  11.378  1.00  0.00     0.164 HD
BRANCH  47  50
ATOM     50  C   UNL     1      -5.153   4.657   9.950  1.00  0.00     0.212 CG0
ATOM     51  G   UNL     1      -5.506   3.338  10.665  1.00  0.00     0.000 G0
BRANCH  50  52
ATOM     52  N   UNL     1      -4.423   4.460   8.702  1.00  0.00    -0.339 N 
ATOM     53  C   UNL     1      -3.150   4.931   8.488  1.00  0.00     0.243 C 
ATOM     54  O   UNL     1      -2.545   5.604   9.318  1.00  0.00    -0.273 OA
ATOM     55  H   UNL     1      -4.913   4.005   7.934  1.00  0.00     0.164 HD
BRANCH  53  56
ATOM     56  C   UNL     1      -2.617   4.676   7.063  1.00  0.00     0.182 C 
BRANCH  56  57
ATOM     57  N   UNL     1      -2.469   3.240   6.805  1.00  0.00    -0.344 N 
ATOM     58  C   UNL     1      -3.487   2.477   6.287  1.00  0.00     0.220 C 
ATOM     59  O   UNL     1      -4.609   2.924   6.073  1.00  0.00    -0.275 OA
ATOM     60  H   UNL     1      -1.531   2.855   6.872  1.00  0.00     0.164 HD
BRANCH  58  61
ATOM     61  C   UNL     1      -3.093   1.031   6.048  1.00  0.00     0.100 C 
BRANCH  61  62
ATOM     62  C   UNL     1      -3.613   0.066   7.113  1.00  0.00     0.010 C 
BRANCH  62  63
ATOM     63  C   UNL     1      -4.189  -1.239   6.549  1.00  0.00     0.000 C 
BRANCH  63  64
ATOM     64  C   UNL     1      -5.333  -1.042   5.556  1.00  0.00    -0.003 C 
ATOM     65  C   UNL     1      -5.575  -2.298   4.731  1.00  0.00     0.004 C 
ENDBRANCH  63  64
ENDBRANCH  62  63
ENDBRANCH  61  62
ENDBRANCH  58  61
ENDBRANCH  56  57
BRANCH  56  66
ATOM     66  C   UNL     1      -1.323   5.445   6.804  1.00  0.00     0.157 C 
BRANCH  66  67
ATOM     67  C   UNL     1      -0.121   4.561   6.976  1.00  0.00     0.305 C 
ATOM     68  O   UNL     1       0.282   4.068   8.019  1.00  0.00    -0.252 OA
BRANCH  67  69
ATOM     69  O   UNL     1       0.491   4.296   5.807  1.00  0.00    -0.481 OA
ATOM     70  H   UNL     1      -0.017   4.802   5.138  1.00  0.00     0.296 HD
ENDBRANCH  67  69
ENDBRANCH  66  67
ENDBRANCH  56  66
ENDBRANCH  53  56
ENDBRANCH  50  52
ENDBRANCH  47  50
ENDBRANCH  45  46
BRANCH  45  71
ATOM     71  C   UNL     1      -8.180   8.268   9.965  1.00  0.00     0.037 C 
BRANCH  71  72
ATOM     72  C   UNL     1      -9.055   8.638   8.765  1.00  0.00     0.026 C 
BRANCH  72  73
ATOM     73  C   UNL     1     -10.286   9.435   9.193  1.00  0.00     0.146 C 
BRANCH  73  74
ATOM     74  N   UNL     1     -11.468   8.656   8.839  1.00  0.00    -0.254 NA
ATOM     75  C   UNL     1     -12.375   8.504   9.732  1.00  0.00     0.185 C 
ATOM     76  N   UNL     1     -13.475   7.794   9.436  1.00  0.00    -0.370 N 
ATOM     77  N   UNL     1     -12.405   8.969  10.993  1.00  0.00    -0.370 N 
ATOM     78  H   UNL     1     -13.530   7.401   8.507  1.00  0.00     0.159 HD
ATOM     79  H   UNL     1     -14.154   7.512  10.121  1.00  0.00     0.159 HD
ATOM     80  H   UNL     1     -11.644   9.524  11.354  1.00  0.00     0.159 HD
ATOM     81  H   UNL     1     -13.227   8.883  11.568  1.00  0.00     0.159 HD
ENDBRANCH  73  74
ENDBRANCH  72  73
ENDBRANCH  71  72
ENDBRANCH  45  71
ENDBRANCH   3  45
TORSDOF 20
ENDMDL
MODEL 48
REMARK VINA RESULT:    -5.484      3.610      8.555
REMARK INTER + INTRA:         -23.388
REMARK INTER:                 -19.244
REMARK INTRA:                  -4.144
REMARK UNBOUND:                -7.644
REMARK SMILES CCCCCC(=O)N[C@H](CC(=O)O)C(=O)N[C@H]1C(=O)N[C@H](CCCN=C(N)N)C(=O)N[C@@H]2CC[C@H](O)N(C2=O)[C@@H](CC(C)C)C(=O)N(C)[C@@H](Cc2ccccc2)C(=O)N[C@H](C(C)C)C(=O)O[C@@H]1C
REMARK SMILES IDX 30 1 31 2 29 3 32 5 35 6 37 7 34 8 38 9 33 10 39 11 36 12
REMARK SMILES IDX 40 14 41 15 42 16 43 17 44 18 45 19 46 20 47 21 48 22 49 23
REMARK SMILES IDX 50 24 51 25 52 26 56 27 53 28 55 29 54 30 57 31 58 32 59 33
REMARK SMILES IDX 60 35 61 36 62 37 63 38 64 39 65 40 66 41 67 42 68 43 21 45
REMARK SMILES IDX 20 46 18 47 19 48 17 50 16 52 14 53 15 54 9 56 8 57 6 58
REMARK SMILES IDX 7 59 5 61 4 62 3 63 2 64 1 65 10 66 11 67 12 68 13 69 22 71
REMARK SMILES IDX 23 72 24 73 25 74 26 75 27 76 28 77
REMARK H PARENT 31 4 36 13 59 34 20 49 16 55 8 60 13 70 27 78 27 79 28 80
REMARK H PARENT 28 81
REMARK Flexibility Score:  259.900
ROOT
ATOM      1  O   UNL     1      -3.995   3.821   6.099  1.00  0.00    -0.273 OA
ATOM      2  N   UNL     1      -4.798   3.191   8.145  1.00  0.00    -0.343 N 
ATOM      3  C   UNL     1      -4.181   4.077   7.289  1.00  0.00     0.243 C 
ATOM      4  H   UNL     1      -4.948   3.442   9.115  1.00  0.00     0.164 HD
ENDROOT
BRANCH   2   5
ATOM      5  C   UNL     1      -5.154   1.850   7.696  1.00  0.00     0.171 C 
ATOM      6  C   UNL     1      -7.206  -0.021   8.529  1.00  0.00     0.214 C 
ATOM      7  N   UNL     1      -5.904  -0.071   9.152  1.00  0.00    -0.303 N 
ATOM      8  C   UNL     1      -7.166   0.468   7.090  1.00  0.00     0.057 C 
ATOM      9  C   UNL     1      -4.895   0.825   8.838  1.00  0.00     0.247 C 
ATOM     10  C   UNL     1      -6.531   1.840   7.033  1.00  0.00     0.040 C 
ATOM     11  O   UNL     1      -3.812   0.831   9.437  1.00  0.00    -0.272 OA
BRANCH   6  12
ATOM     12  O   UNL     1      -8.026   0.816   9.311  1.00  0.00    -0.373 OA
ATOM     13  H   UNL     1      -8.360   1.524   8.721  1.00  0.00     0.213 HD
ENDBRANCH   6  12
BRANCH   7  14
ATOM     14  C   UNL     1      -5.727  -1.034  10.260  1.00  0.00     0.177 C 
BRANCH  14  15
ATOM     15  C   UNL     1      -4.335  -1.691  10.342  1.00  0.00     0.038 C 
BRANCH  15  16
ATOM     16  C   UNL     1      -4.122  -3.100   9.745  1.00  0.00    -0.015 C 
ATOM     17  C   UNL     1      -2.845  -3.767  10.265  1.00  0.00     0.007 C 
ATOM     18  C   UNL     1      -4.028  -3.007   8.217  1.00  0.00     0.007 C 
ENDBRANCH  15  16
ENDBRANCH  14  15
BRANCH  14  19
ATOM     19  C   UNL     1      -6.608  -0.618  11.488  1.00  0.00     0.245 C 
ATOM     20  O   UNL     1      -7.723  -1.157  11.585  1.00  0.00    -0.272 OA
BRANCH  19  21
ATOM     21  N   UNL     1      -6.261   0.378  12.383  1.00  0.00    -0.332 N 
ATOM     22  C   UNL     1      -4.933   0.595  12.930  1.00  0.00     0.147 C 
BRANCH  21  23
ATOM     23  C   UNL     1      -7.332   1.306  12.841  1.00  0.00     0.178 C 
BRANCH  23  24
ATOM     24  C   UNL     1      -7.762   1.121  14.311  1.00  0.00     0.070 C 
BRANCH  24  25
ATOM     25  C   UNL     1      -9.242   1.176  14.607  1.00  0.00    -0.045 A 
ATOM     26  C   UNL     1      -9.708   1.559  15.871  1.00  0.00     0.004 A 
ATOM     27  C   UNL     1     -10.175   0.836  13.615  1.00  0.00     0.004 A 
ATOM     28  C   UNL     1     -11.077   1.591  16.142  1.00  0.00     0.000 A 
ATOM     29  C   UNL     1     -11.544   0.870  13.887  1.00  0.00     0.000 A 
ATOM     30  C   UNL     1     -11.994   1.244  15.152  1.00  0.00     0.000 A 
ENDBRANCH  24  25
ENDBRANCH  23  24
BRANCH  23  31
ATOM     31  C   UNL     1      -7.083   2.773  12.415  1.00  0.00     0.243 C 
ATOM     32  O   UNL     1      -6.343   3.104  11.492  1.00  0.00    -0.273 OA
ATOM     33  N   UNL     1      -7.625   3.702  13.287  1.00  0.00    -0.341 N 
ATOM     34  H   UNL     1      -8.228   3.365  14.041  1.00  0.00     0.164 HD
BRANCH  33  35
ATOM     35  C   UNL     1      -7.414   5.145  13.149  1.00  0.00     0.194 C 
BRANCH  35  36
ATOM     36  C   UNL     1      -6.869   5.833  14.432  1.00  0.00     0.017 C 
ATOM     37  C   UNL     1      -5.487   6.461  14.186  1.00  0.00     0.010 C 
ATOM     38  C   UNL     1      -6.733   4.874  15.620  1.00  0.00     0.010 C 
ENDBRANCH  35  36
BRANCH  35  39
ATOM     39  C   UNL     1      -8.661   5.880  12.581  1.00  0.00     0.329 C 
ATOM     40  O   UNL     1      -9.622   6.225  13.259  1.00  0.00    -0.250 OA
BRANCH  39  41
ATOM     41  O   UNL     1      -8.529   6.177  11.253  1.00  0.00    -0.458 OA
BRANCH  41  42
ATOM     42  C   UNL     1      -7.401   7.009  10.891  1.00  0.00     0.205 CG0
ATOM     43  C   UNL     1      -7.798   8.458  11.166  1.00  0.00     0.056 C 
ATOM     44  G   UNL     1      -7.063   6.761   9.408  1.00  0.00     0.000 G0
ENDBRANCH  41  42
ENDBRANCH  39  41
ENDBRANCH  35  39
ENDBRANCH  33  35
ENDBRANCH  23  31
ENDBRANCH  21  23
ENDBRANCH  19  21
ENDBRANCH  14  19
ENDBRANCH   7  14
ENDBRANCH   2   5
BRANCH   3  45
ATOM     45  C   UNL     1      -3.761   5.413   7.916  1.00  0.00     0.171 C 
BRANCH  45  46
ATOM     46  N   UNL     1      -5.000   6.133   8.175  1.00  0.00    -0.342 N 
ATOM     47  C   UNL     1      -5.697   6.001   9.350  1.00  0.00     0.247 C 
ATOM     48  O   UNL     1      -5.291   5.324  10.295  1.00  0.00    -0.273 OA
ATOM     49  H   UNL     1      -5.343   6.749   7.440  1.00  0.00     0.164 HD
BRANCH  47  50
ATOM     50  C   UNL     1      -7.043   6.739   9.395  1.00  0.00     0.212 CG0
ATOM     51  G   UNL     1      -7.388   6.992  10.876  1.00  0.00     0.000 G0
BRANCH  50  52
ATOM     52  N   UNL     1      -6.839   7.967   8.631  1.00  0.00    -0.339 N 
ATOM     53  C   UNL     1      -7.723   8.424   7.684  1.00  0.00     0.243 C 
ATOM     54  O   UNL     1      -8.734   7.802   7.368  1.00  0.00    -0.273 OA
ATOM     55  H   UNL     1      -5.964   8.469   8.769  1.00  0.00     0.164 HD
BRANCH  53  56
ATOM     56  C   UNL     1      -7.253   9.695   6.948  1.00  0.00     0.182 C 
BRANCH  56  57
ATOM     57  N   UNL     1      -7.377   9.537   5.495  1.00  0.00    -0.344 N 
ATOM     58  C   UNL     1      -8.155  10.370   4.729  1.00  0.00     0.220 C 
ATOM     59  O   UNL     1      -8.856  11.254   5.211  1.00  0.00    -0.275 OA
ATOM     60  H   UNL     1      -6.738   8.887   5.047  1.00  0.00     0.164 HD
BRANCH  58  61
ATOM     61  C   UNL     1      -8.088  10.059   3.245  1.00  0.00     0.100 C 
BRANCH  61  62
ATOM     62  C   UNL     1      -9.281  10.588   2.449  1.00  0.00     0.010 C 
BRANCH  62  63
ATOM     63  C   UNL     1      -9.429   9.970   1.053  1.00  0.00     0.000 C 
BRANCH  63  64
ATOM     64  C   UNL     1      -8.124   9.888   0.263  1.00  0.00    -0.003 C 
ATOM     65  C   UNL     1      -8.127  10.851  -0.915  1.00  0.00     0.004 C 
ENDBRANCH  63  64
ENDBRANCH  62  63
ENDBRANCH  61  62
ENDBRANCH  58  61
ENDBRANCH  56  57
BRANCH  56  66
ATOM     66  C   UNL     1      -5.839  10.094   7.367  1.00  0.00     0.157 C 
BRANCH  66  67
ATOM     67  C   UNL     1      -4.884  10.003   6.211  1.00  0.00     0.305 C 
ATOM     68  O   UNL     1      -4.338   8.995   5.789  1.00  0.00    -0.252 OA
BRANCH  67  69
ATOM     69  O   UNL     1      -4.701  11.191   5.604  1.00  0.00    -0.481 OA
ATOM     70  H   UNL     1      -3.742  11.374   5.696  1.00  0.00     0.296 HD
ENDBRANCH  67  69
ENDBRANCH  66  67
ENDBRANCH  56  66
ENDBRANCH  53  56
ENDBRANCH  50  52
ENDBRANCH  47  50
ENDBRANCH  45  46
BRANCH  45  71
ATOM     71  C   UNL     1      -2.846   6.187   6.960  1.00  0.00     0.037 C 
BRANCH  71  72
ATOM     72  C   UNL     1      -1.368   5.863   7.189  1.00  0.00     0.026 C 
BRANCH  72  73
ATOM     73  C   UNL     1      -0.599   5.795   5.871  1.00  0.00     0.146 C 
BRANCH  73  74
ATOM     74  N   UNL     1      -0.959   6.969   5.082  1.00  0.00    -0.254 NA
ATOM     75  C   UNL     1      -0.114   7.392   4.217  1.00  0.00     0.185 C 
ATOM     76  N   UNL     1      -0.417   8.470   3.475  1.00  0.00    -0.370 N 
ATOM     77  N   UNL     1       1.101   6.902   3.912  1.00  0.00    -0.370 N 
ATOM     78  H   UNL     1      -1.312   8.906   3.646  1.00  0.00     0.159 HD
ATOM     79  H   UNL     1       0.246   8.941   2.886  1.00  0.00     0.159 HD
ATOM     80  H   UNL     1       1.460   6.089   4.388  1.00  0.00     0.159 HD
ATOM     81  H   UNL     1       1.630   7.250   3.130  1.00  0.00     0.159 HD
ENDBRANCH  73  74
ENDBRANCH  72  73
ENDBRANCH  71  72
ENDBRANCH  45  71
ENDBRANCH   3  45
TORSDOF 20
ENDMDL
MODEL 49
REMARK VINA RESULT:    -5.426      3.150      8.488
REMARK INTER + INTRA:         -23.220
REMARK INTER:                 -19.737
REMARK INTRA:                  -3.483
REMARK UNBOUND:                -7.644
REMARK SMILES CCCCCC(=O)N[C@H](CC(=O)O)C(=O)N[C@H]1C(=O)N[C@H](CCCN=C(N)N)C(=O)N[C@@H]2CC[C@H](O)N(C2=O)[C@@H](CC(C)C)C(=O)N(C)[C@@H](Cc2ccccc2)C(=O)N[C@H](C(C)C)C(=O)O[C@@H]1C
REMARK SMILES IDX 30 1 31 2 29 3 32 5 35 6 37 7 34 8 38 9 33 10 39 11 36 12
REMARK SMILES IDX 40 14 41 15 42 16 43 17 44 18 45 19 46 20 47 21 48 22 49 23
REMARK SMILES IDX 50 24 51 25 52 26 56 27 53 28 55 29 54 30 57 31 58 32 59 33
REMARK SMILES IDX 60 35 61 36 62 37 63 38 64 39 65 40 66 41 67 42 68 43 21 45
REMARK SMILES IDX 20 46 18 47 19 48 17 50 16 52 14 53 15 54 9 56 8 57 6 58
REMARK SMILES IDX 7 59 5 61 4 62 3 63 2 64 1 65 10 66 11 67 12 68 13 69 22 71
REMARK SMILES IDX 23 72 24 73 25 74 26 75 27 76 28 77
REMARK H PARENT 31 4 36 13 59 34 20 49 16 55 8 60 13 70 27 78 27 79 28 80
REMARK H PARENT 28 81
REMARK Flexibility Score:  259.900
ROOT
ATOM      1  O   UNL     1      -8.821   7.784  12.601  1.00  0.00    -0.273 OA
ATOM      2  N   UNL     1      -8.583   5.514  12.446  1.00  0.00    -0.343 N 
ATOM      3  C   UNL     1      -8.433   6.800  11.971  1.00  0.00     0.243 C 
ATOM      4  H   UNL     1      -8.239   4.730  11.906  1.00  0.00     0.164 HD
ENDROOT
BRANCH   2   5
ATOM      5  C   UNL     1      -9.325   5.259  13.676  1.00  0.00     0.171 C 
ATOM      6  C   UNL     1      -9.390   3.006  15.498  1.00  0.00     0.214 C 
ATOM      7  N   UNL     1     -10.322   3.055  14.397  1.00  0.00    -0.303 N 
ATOM      8  C   UNL     1      -8.986   4.380  16.007  1.00  0.00     0.057 C 
ATOM      9  C   UNL     1     -10.312   4.076  13.460  1.00  0.00     0.247 C 
ATOM     10  C   UNL     1      -8.385   5.189  14.878  1.00  0.00     0.040 C 
ATOM     11  O   UNL     1     -11.057   4.067  12.471  1.00  0.00    -0.272 OA
BRANCH   6  12
ATOM     12  O   UNL     1      -8.256   2.287  15.071  1.00  0.00    -0.373 OA
ATOM     13  H   UNL     1      -8.522   1.345  15.004  1.00  0.00     0.213 HD
ENDBRANCH   6  12
BRANCH   7  14
ATOM     14  C   UNL     1     -11.208   1.885  14.215  1.00  0.00     0.177 C 
BRANCH  14  15
ATOM     15  C   UNL     1     -12.565   1.971  14.940  1.00  0.00     0.038 C 
BRANCH  15  16
ATOM     16  C   UNL     1     -12.718   1.349  16.346  1.00  0.00    -0.015 C 
ATOM     17  C   UNL     1     -11.383   0.860  16.916  1.00  0.00     0.007 C 
ATOM     18  C   UNL     1     -13.679   0.155  16.283  1.00  0.00     0.007 C 
ENDBRANCH  15  16
ENDBRANCH  14  15
BRANCH  14  19
ATOM     19  C   UNL     1     -10.971   1.237  12.807  1.00  0.00     0.245 C 
ATOM     20  O   UNL     1     -11.973   0.800  12.217  1.00  0.00    -0.272 OA
BRANCH  19  21
ATOM     21  N   UNL     1      -9.719   1.031  12.254  1.00  0.00    -0.332 N 
ATOM     22  C   UNL     1      -9.049   1.927  11.329  1.00  0.00     0.147 C 
BRANCH  21  23
ATOM     23  C   UNL     1      -8.993  -0.215  12.622  1.00  0.00     0.178 C 
BRANCH  23  24
ATOM     24  C   UNL     1      -9.608  -1.512  12.056  1.00  0.00     0.070 C 
BRANCH  24  25
ATOM     25  C   UNL     1      -9.681  -1.640  10.553  1.00  0.00    -0.045 A 
ATOM     26  C   UNL     1      -8.610  -2.175   9.825  1.00  0.00     0.004 A 
ATOM     27  C   UNL     1     -10.826  -1.217   9.862  1.00  0.00     0.004 A 
ATOM     28  C   UNL     1      -8.679  -2.274   8.434  1.00  0.00     0.000 A 
ATOM     29  C   UNL     1     -10.894  -1.317   8.471  1.00  0.00     0.000 A 
ATOM     30  C   UNL     1      -9.819  -1.843   7.758  1.00  0.00     0.000 A 
ENDBRANCH  24  25
ENDBRANCH  23  24
BRANCH  23  31
ATOM     31  C   UNL     1      -7.460  -0.093  12.452  1.00  0.00     0.243 C 
ATOM     32  O   UNL     1      -6.762  -0.933  11.890  1.00  0.00    -0.273 OA
ATOM     33  N   UNL     1      -6.908   0.965  13.155  1.00  0.00    -0.341 N 
ATOM     34  H   UNL     1      -7.540   1.629  13.608  1.00  0.00     0.164 HD
BRANCH  33  35
ATOM     35  C   UNL     1      -5.464   1.203  13.236  1.00  0.00     0.194 C 
BRANCH  35  36
ATOM     36  C   UNL     1      -4.732   0.316  14.281  1.00  0.00     0.017 C 
ATOM     37  C   UNL     1      -3.794  -0.695  13.598  1.00  0.00     0.010 C 
ATOM     38  C   UNL     1      -5.690  -0.479  15.177  1.00  0.00     0.010 C 
ENDBRANCH  35  36
BRANCH  35  39
ATOM     39  C   UNL     1      -5.115   2.708  13.406  1.00  0.00     0.329 C 
ATOM     40  O   UNL     1      -5.332   3.351  14.427  1.00  0.00    -0.250 OA
BRANCH  39  41
ATOM     41  O   UNL     1      -4.459   3.216  12.320  1.00  0.00    -0.458 OA
BRANCH  41  42
ATOM     42  C   UNL     1      -5.186   3.205  11.068  1.00  0.00     0.205 CG0
ATOM     43  C   UNL     1      -4.823   1.911  10.343  1.00  0.00     0.056 C 
ATOM     44  G   UNL     1      -4.798   4.461  10.262  1.00  0.00     0.000 G0
ENDBRANCH  41  42
ENDBRANCH  39  41
ENDBRANCH  35  39
ENDBRANCH  33  35
ENDBRANCH  23  31
ENDBRANCH  21  23
ENDBRANCH  19  21
ENDBRANCH  14  19
ENDBRANCH   7  14
ENDBRANCH   2   5
BRANCH   3  45
ATOM     45  C   UNL     1      -7.729   6.920  10.613  1.00  0.00     0.171 C 
BRANCH  45  46
ATOM     46  N   UNL     1      -6.473   6.195  10.754  1.00  0.00    -0.342 N 
ATOM     47  C   UNL     1      -6.097   5.198   9.890  1.00  0.00     0.247 C 
ATOM     48  O   UNL     1      -6.755   4.895   8.893  1.00  0.00    -0.273 OA
ATOM     49  H   UNL     1      -5.872   6.454  11.534  1.00  0.00     0.164 HD
BRANCH  47  50
ATOM     50  C   UNL     1      -4.804   4.463  10.268  1.00  0.00     0.212 CG0
ATOM     51  G   UNL     1      -5.198   3.206  11.068  1.00  0.00     0.000 G0
BRANCH  50  52
ATOM     52  N   UNL     1      -4.144   4.158   9.001  1.00  0.00    -0.339 N 
ATOM     53  C   UNL     1      -3.358   5.057   8.323  1.00  0.00     0.243 C 
ATOM     54  O   UNL     1      -3.192   6.212   8.706  1.00  0.00    -0.273 OA
ATOM     55  H   UNL     1      -4.334   3.253   8.575  1.00  0.00     0.164 HD
BRANCH  53  56
ATOM     56  C   UNL     1      -2.840   4.539   6.966  1.00  0.00     0.182 C 
BRANCH  56  57
ATOM     57  N   UNL     1      -1.731   5.364   6.476  1.00  0.00    -0.344 N 
ATOM     58  C   UNL     1      -0.423   5.117   6.816  1.00  0.00     0.220 C 
ATOM     59  O   UNL     1      -0.098   4.239   7.608  1.00  0.00    -0.275 OA
ATOM     60  H   UNL     1      -1.945   6.034   5.742  1.00  0.00     0.164 HD
BRANCH  58  61
ATOM     61  C   UNL     1       0.561   6.060   6.148  1.00  0.00     0.100 C 
BRANCH  61  62
ATOM     62  C   UNL     1      -0.055   6.902   5.031  1.00  0.00     0.010 C 
BRANCH  62  63
ATOM     63  C   UNL     1       0.950   7.793   4.289  1.00  0.00     0.000 C 
BRANCH  63  64
ATOM     64  C   UNL     1       1.363   7.264   2.917  1.00  0.00    -0.003 C 
ATOM     65  C   UNL     1       0.151   7.004   2.034  1.00  0.00     0.004 C 
ENDBRANCH  63  64
ENDBRANCH  62  63
ENDBRANCH  61  62
ENDBRANCH  58  61
ENDBRANCH  56  57
BRANCH  56  66
ATOM     66  C   UNL     1      -3.968   4.423   5.942  1.00  0.00     0.157 C 
BRANCH  66  67
ATOM     67  C   UNL     1      -4.300   2.986   5.660  1.00  0.00     0.305 C 
ATOM     68  O   UNL     1      -4.210   2.047   6.436  1.00  0.00    -0.252 OA
BRANCH  67  69
ATOM     69  O   UNL     1      -4.784   2.807   4.416  1.00  0.00    -0.481 OA
ATOM     70  H   UNL     1      -4.052   3.077   3.822  1.00  0.00     0.296 HD
ENDBRANCH  67  69
ENDBRANCH  66  67
ENDBRANCH  56  66
ENDBRANCH  53  56
ENDBRANCH  50  52
ENDBRANCH  47  50
ENDBRANCH  45  46
BRANCH  45  71
ATOM     71  C   UNL     1      -7.495   8.394  10.262  1.00  0.00     0.037 C 
BRANCH  71  72
ATOM     72  C   UNL     1      -8.140   8.778   8.929  1.00  0.00     0.026 C 
BRANCH  72  73
ATOM     73  C   UNL     1      -9.288   7.836   8.570  1.00  0.00     0.146 C 
BRANCH  73  74
ATOM     74  N   UNL     1     -10.488   8.646   8.381  1.00  0.00    -0.254 NA
ATOM     75  C   UNL     1     -11.330   8.701   9.346  1.00  0.00     0.185 C 
ATOM     76  N   UNL     1     -12.444   9.439   9.203  1.00  0.00    -0.370 N 
ATOM     77  N   UNL     1     -11.276   8.106  10.550  1.00  0.00    -0.370 N 
ATOM     78  H   UNL     1     -12.566   9.915   8.321  1.00  0.00     0.159 HD
ATOM     79  H   UNL     1     -13.211   9.415   9.851  1.00  0.00     0.159 HD
ATOM     80  H   UNL     1     -10.492   7.523  10.800  1.00  0.00     0.159 HD
ATOM     81  H   UNL     1     -11.944   8.317  11.274  1.00  0.00     0.159 HD
ENDBRANCH  73  74
ENDBRANCH  72  73
ENDBRANCH  71  72
ENDBRANCH  45  71
ENDBRANCH   3  45
TORSDOF 20
ENDMDL
MODEL 50
REMARK VINA RESULT:    -5.378      3.035      7.588
REMARK INTER + INTRA:         -23.081
REMARK INTER:                 -18.714
REMARK INTRA:                  -4.367
REMARK UNBOUND:                -7.644
REMARK SMILES CCCCCC(=O)N[C@H](CC(=O)O)C(=O)N[C@H]1C(=O)N[C@H](CCCN=C(N)N)C(=O)N[C@@H]2CC[C@H](O)N(C2=O)[C@@H](CC(C)C)C(=O)N(C)[C@@H](Cc2ccccc2)C(=O)N[C@H](C(C)C)C(=O)O[C@@H]1C
REMARK SMILES IDX 30 1 31 2 29 3 32 5 35 6 37 7 34 8 38 9 33 10 39 11 36 12
REMARK SMILES IDX 40 14 41 15 42 16 43 17 44 18 45 19 46 20 47 21 48 22 49 23
REMARK SMILES IDX 50 24 51 25 52 26 56 27 53 28 55 29 54 30 57 31 58 32 59 33
REMARK SMILES IDX 60 35 61 36 62 37 63 38 64 39 65 40 66 41 67 42 68 43 21 45
REMARK SMILES IDX 20 46 18 47 19 48 17 50 16 52 14 53 15 54 9 56 8 57 6 58
REMARK SMILES IDX 7 59 5 61 4 62 3 63 2 64 1 65 10 66 11 67 12 68 13 69 22 71
REMARK SMILES IDX 23 72 24 73 25 74 26 75 27 76 28 77
REMARK H PARENT 31 4 36 13 59 34 20 49 16 55 8 60 13 70 27 78 27 79 28 80
REMARK H PARENT 28 81
REMARK Flexibility Score:  259.900
ROOT
ATOM      1  O   UNL     1      -2.090  -0.799  10.816  1.00  0.00    -0.273 OA
ATOM      2  N   UNL     1      -3.997  -1.891  11.450  1.00  0.00    -0.343 N 
ATOM      3  C   UNL     1      -3.124  -0.825  11.486  1.00  0.00     0.243 C 
ATOM      4  H   UNL     1      -4.845  -1.872  12.003  1.00  0.00     0.164 HD
ENDROOT
BRANCH   2   5
ATOM      5  C   UNL     1      -3.668  -3.097  10.697  1.00  0.00     0.171 C 
ATOM      6  C   UNL     1      -1.780  -3.624   8.561  1.00  0.00     0.214 C 
ATOM      7  N   UNL     1      -3.131  -3.228   8.234  1.00  0.00    -0.303 N 
ATOM      8  C   UNL     1      -1.678  -4.392   9.869  1.00  0.00     0.057 C 
ATOM      9  C   UNL     1      -4.067  -2.913   9.205  1.00  0.00     0.247 C 
ATOM     10  C   UNL     1      -2.243  -3.558  10.999  1.00  0.00     0.040 C 
ATOM     11  O   UNL     1      -5.195  -2.491   8.916  1.00  0.00    -0.272 OA
BRANCH   6  12
ATOM     12  O   UNL     1      -0.991  -2.458   8.612  1.00  0.00    -0.373 OA
ATOM     13  H   UNL     1      -0.353  -2.575   9.348  1.00  0.00     0.213 HD
ENDBRANCH   6  12
BRANCH   7  14
ATOM     14  C   UNL     1      -3.443  -3.028   6.803  1.00  0.00     0.177 C 
BRANCH  14  15
ATOM     15  C   UNL     1      -4.211  -4.182   6.131  1.00  0.00     0.038 C 
BRANCH  15  16
ATOM     16  C   UNL     1      -3.874  -4.574   4.675  1.00  0.00    -0.015 C 
ATOM     17  C   UNL     1      -5.097  -5.092   3.912  1.00  0.00     0.007 C 
ATOM     18  C   UNL     1      -2.803  -5.672   4.668  1.00  0.00     0.007 C 
ENDBRANCH  15  16
ENDBRANCH  14  15
BRANCH  14  19
ATOM     19  C   UNL     1      -3.649  -1.503   6.501  1.00  0.00     0.245 C 
ATOM     20  O   UNL     1      -2.741  -0.734   6.857  1.00  0.00    -0.272 OA
BRANCH  19  21
ATOM     21  N   UNL     1      -4.813  -0.973   5.973  1.00  0.00    -0.332 N 
ATOM     22  C   UNL     1      -5.622  -1.583   4.933  1.00  0.00     0.147 C 
BRANCH  21  23
ATOM     23  C   UNL     1      -5.281   0.339   6.500  1.00  0.00     0.178 C 
BRANCH  23  24
ATOM     24  C   UNL     1      -4.897   1.556   5.634  1.00  0.00     0.070 C 
BRANCH  24  25
ATOM     25  C   UNL     1      -4.428   2.796   6.359  1.00  0.00    -0.045 A 
ATOM     26  C   UNL     1      -3.691   3.783   5.691  1.00  0.00     0.004 A 
ATOM     27  C   UNL     1      -4.722   2.974   7.720  1.00  0.00     0.004 A 
ATOM     28  C   UNL     1      -3.247   4.918   6.373  1.00  0.00     0.000 A 
ATOM     29  C   UNL     1      -4.278   4.110   8.399  1.00  0.00     0.000 A 
ATOM     30  C   UNL     1      -3.538   5.080   7.725  1.00  0.00     0.000 A 
ENDBRANCH  24  25
ENDBRANCH  23  24
BRANCH  23  31
ATOM     31  C   UNL     1      -6.756   0.311   6.967  1.00  0.00     0.243 C 
ATOM     32  O   UNL     1      -7.623   1.076   6.550  1.00  0.00    -0.273 OA
ATOM     33  N   UNL     1      -6.981  -0.535   8.040  1.00  0.00    -0.341 N 
ATOM     34  H   UNL     1      -6.218  -1.143   8.346  1.00  0.00     0.164 HD
BRANCH  33  35
ATOM     35  C   UNL     1      -8.274  -0.633   8.722  1.00  0.00     0.194 C 
BRANCH  35  36
ATOM     36  C   UNL     1      -9.480  -0.858   7.768  1.00  0.00     0.017 C 
ATOM     37  C   UNL     1     -10.764  -1.175   8.555  1.00  0.00     0.010 C 
ATOM     38  C   UNL     1      -9.257  -2.003   6.772  1.00  0.00     0.010 C 
ENDBRANCH  35  36
BRANCH  35  39
ATOM     39  C   UNL     1      -8.522   0.547   9.704  1.00  0.00     0.329 C 
ATOM     40  O   UNL     1      -8.507   1.727   9.376  1.00  0.00    -0.250 OA
BRANCH  39  41
ATOM     41  O   UNL     1      -8.847   0.118  10.961  1.00  0.00    -0.458 OA
BRANCH  41  42
ATOM     42  C   UNL     1      -7.742  -0.092  11.872  1.00  0.00     0.205 CG0
ATOM     43  C   UNL     1      -8.241  -1.009  12.987  1.00  0.00     0.056 C 
ATOM     44  G   UNL     1      -7.275   1.279  12.402  1.00  0.00     0.000 G0
ENDBRANCH  41  42
ENDBRANCH  39  41
ENDBRANCH  35  39
ENDBRANCH  33  35
ENDBRANCH  23  31
ENDBRANCH  21  23
ENDBRANCH  19  21
ENDBRANCH  14  19
ENDBRANCH   7  14
ENDBRANCH   2   5
BRANCH   3  45
ATOM     45  C   UNL     1      -3.539   0.334  12.401  1.00  0.00     0.171 C 
BRANCH  45  46
ATOM     46  N   UNL     1      -4.909   0.660  12.027  1.00  0.00    -0.342 N 
ATOM     47  C   UNL     1      -5.834   1.106  12.937  1.00  0.00     0.247 C 
ATOM     48  O   UNL     1      -5.557   1.333  14.115  1.00  0.00    -0.273 OA
ATOM     49  H   UNL     1      -5.166   0.540  11.049  1.00  0.00     0.164 HD
BRANCH  47  50
ATOM     50  C   UNL     1      -7.257   1.278  12.387  1.00  0.00     0.212 CG0
ATOM     51  G   UNL     1      -7.735  -0.101  11.889  1.00  0.00     0.000 G0
BRANCH  50  52
ATOM     52  N   UNL     1      -8.046   1.794  13.502  1.00  0.00    -0.339 N 
ATOM     53  C   UNL     1      -8.799   2.941  13.428  1.00  0.00     0.243 C 
ATOM     54  O   UNL     1      -8.824   3.653  12.428  1.00  0.00    -0.273 OA
ATOM     55  H   UNL     1      -7.979   1.308  14.394  1.00  0.00     0.164 HD
BRANCH  53  56
ATOM     56  C   UNL     1      -9.476   3.333  14.757  1.00  0.00     0.182 C 
BRANCH  56  57
ATOM     57  N   UNL     1     -10.776   2.670  14.902  1.00  0.00    -0.344 N 
ATOM     58  C   UNL     1     -10.915   1.453  15.523  1.00  0.00     0.220 C 
ATOM     59  O   UNL     1      -9.959   0.804  15.933  1.00  0.00    -0.275 OA
ATOM     60  H   UNL     1     -11.600   3.216  14.669  1.00  0.00     0.164 HD
BRANCH  58  61
ATOM     61  C   UNL     1     -12.356   0.984  15.611  1.00  0.00     0.100 C 
BRANCH  61  62
ATOM     62  C   UNL     1     -12.927   1.012  17.029  1.00  0.00     0.010 C 
BRANCH  62  63
ATOM     63  C   UNL     1     -12.827  -0.326  17.772  1.00  0.00     0.000 C 
BRANCH  63  64
ATOM     64  C   UNL     1     -14.104  -1.164  17.728  1.00  0.00    -0.003 C 
ATOM     65  C   UNL     1     -13.803  -2.644  17.921  1.00  0.00     0.004 C 
ENDBRANCH  63  64
ENDBRANCH  62  63
ENDBRANCH  61  62
ENDBRANCH  58  61
ENDBRANCH  56  57
BRANCH  56  66
ATOM     66  C   UNL     1      -9.584   4.850  14.903  1.00  0.00     0.157 C 
BRANCH  66  67
ATOM     67  C   UNL     1      -8.543   5.381  15.847  1.00  0.00     0.305 C 
ATOM     68  O   UNL     1      -8.466   5.168  17.048  1.00  0.00    -0.252 OA
BRANCH  67  69
ATOM     69  O   UNL     1      -7.610   6.119  15.217  1.00  0.00    -0.481 OA
ATOM     70  H   UNL     1      -6.849   6.141  15.836  1.00  0.00     0.296 HD
ENDBRANCH  67  69
ENDBRANCH  66  67
ENDBRANCH  56  66
ENDBRANCH  53  56
ENDBRANCH  50  52
ENDBRANCH  47  50
ENDBRANCH  45  46
BRANCH  45  71
ATOM     71  C   UNL     1      -2.600   1.530  12.206  1.00  0.00     0.037 C 
BRANCH  71  72
ATOM     72  C   UNL     1      -3.317   2.729  11.579  1.00  0.00     0.026 C 
BRANCH  72  73
ATOM     73  C   UNL     1      -2.828   4.048  12.172  1.00  0.00     0.146 C 
BRANCH  73  74
ATOM     74  N   UNL     1      -3.920   5.011  12.082  1.00  0.00    -0.254 NA
ATOM     75  C   UNL     1      -4.773   5.042  13.039  1.00  0.00     0.185 C 
ATOM     76  N   UNL     1      -5.788   5.919  12.985  1.00  0.00    -0.370 N 
ATOM     77  N   UNL     1      -4.817   4.295  14.156  1.00  0.00    -0.370 N 
ATOM     78  H   UNL     1      -5.834   6.516  12.172  1.00  0.00     0.159 HD
ATOM     79  H   UNL     1      -6.568   5.903  13.619  1.00  0.00     0.159 HD
ATOM     80  H   UNL     1      -4.112   3.595  14.333  1.00  0.00     0.159 HD
ATOM     81  H   UNL     1      -5.471   4.489  14.896  1.00  0.00     0.159 HD
ENDBRANCH  73  74
ENDBRANCH  72  73
ENDBRANCH  71  72
ENDBRANCH  45  71
ENDBRANCH   3  45
TORSDOF 20
ENDMDL
