MODEL 1
REMARK VINA RESULT:    -7.247      0.000      0.000
REMARK INTER + INTRA:         -19.511
REMARK INTER:                 -14.661
REMARK INTRA:                  -4.850
REMARK UNBOUND:                -4.850
REMARK SMILES CC[C@@H](C)[C@@H](NC(=O)[C@@H](O)Cc1ccc(O)c(Cl)c1)C(=O)N1[C@H](C(=O)NCCCCN=C(N)N)C[C@H]2CC[C@H](OS(=O)(=O)O)C[C@@H]21
REMARK SMILES IDX 22 1 36 2 46 3 35 4 23 5 45 6 37 7 39 8 38 9 20 10 21 11
REMARK SMILES IDX 5 12 6 13 7 14 8 15 9 17 11 18 12 19 17 20 19 21 15 22 14 23
REMARK SMILES IDX 13 24 18 25 16 26 10 28 3 30 4 31 2 32 1 33 24 34 25 35
REMARK SMILES IDX 26 36 27 38 28 39 29 40 30 41 31 42 32 43 33 44 34 45 40 50
REMARK SMILES IDX 41 51 42 52 43 53 44 54
REMARK H PARENT 6 16 16 27 10 29 26 37 33 46 33 47 34 48 34 49 44 55
ROOT
ATOM      1  N   UNL     1       6.219  -3.454   4.114  1.00  0.00    -0.326 N 
ATOM      2  C   UNL     1       4.957  -2.499   5.857  1.00  0.00     0.014 C 
ATOM      3  C   UNL     1       5.659  -3.790   5.426  1.00  0.00     0.091 C 
ATOM      4  C   UNL     1       4.441  -1.942   4.539  1.00  0.00     0.041 C 
ATOM      5  C   UNL     1       5.681  -2.151   3.651  1.00  0.00     0.175 C 
ATOM      6  C   UNL     1       6.618  -4.213   6.537  1.00  0.00     0.059 C 
ATOM      7  C   UNL     1       3.981  -2.764   6.986  1.00  0.00     0.008 C 
ATOM      8  C   UNL     1       6.139  -3.827   7.953  1.00  0.00     0.143 C 
ATOM      9  C   UNL     1       4.603  -3.712   8.032  1.00  0.00     0.034 C 
ENDROOT
BRANCH   1  10
ATOM     10  C   UNL     1       6.946  -4.235   3.232  1.00  0.00     0.246 C 
ATOM     11  O   UNL     1       6.555  -4.346   2.065  1.00  0.00    -0.272 OA
BRANCH  10  12
ATOM     12  C   UNL     1       8.256  -4.921   3.715  1.00  0.00     0.174 C 
BRANCH  12  13
ATOM     13  N   UNL     1       9.379  -3.991   3.597  1.00  0.00    -0.342 N 
ATOM     14  C   UNL     1      10.480  -3.974   4.423  1.00  0.00     0.249 C 
ATOM     15  O   UNL     1      10.657  -4.764   5.342  1.00  0.00    -0.272 OA
ATOM     16  H   UNL     1       9.301  -3.184   2.985  1.00  0.00     0.164 HD
BRANCH  14  17
ATOM     17  C   UNL     1      11.484  -2.862   4.052  1.00  0.00     0.207 C 
BRANCH  17  18
ATOM     18  C   UNL     1      10.901  -1.954   2.964  1.00  0.00     0.077 C 
BRANCH  18  19
ATOM     19  C   UNL     1      11.150  -0.492   3.259  1.00  0.00    -0.043 A 
ATOM     20  C   UNL     1      10.762   1.849   2.757  1.00  0.00     0.083 A 
ATOM     21  C   UNL     1      10.493   0.501   2.516  1.00  0.00     0.028 A 
ATOM     22  C   UNL     1      11.686   2.212   3.737  1.00  0.00     0.134 A 
ATOM     23  C   UNL     1      12.344   1.239   4.480  1.00  0.00     0.048 A 
ATOM     24  C   UNL     1      12.078  -0.111   4.240  1.00  0.00     0.008 A 
ATOM     25  Cl  UNL     1       9.945   3.056   1.834  1.00  0.00    -0.080 Cl
BRANCH  22  26
ATOM     26  O   UNL     1      11.991   3.520   4.002  1.00  0.00    -0.506 OA
ATOM     27  H   UNL     1      12.768   3.743   3.457  1.00  0.00     0.293 HD
ENDBRANCH  22  26
ENDBRANCH  18  19
ENDBRANCH  17  18
BRANCH  17  28
ATOM     28  O   UNL     1      12.727  -3.418   3.594  1.00  0.00    -0.383 OA
ATOM     29  H   UNL     1      12.497  -4.259   3.138  1.00  0.00     0.211 HD
ENDBRANCH  17  28
ENDBRANCH  14  17
ENDBRANCH  12  13
BRANCH  12  30
ATOM     30  C   UNL     1       8.527  -6.271   2.997  1.00  0.00     0.018 C 
ATOM     31  C   UNL     1       8.820  -7.383   4.016  1.00  0.00     0.010 C 
BRANCH  30  32
ATOM     32  C   UNL     1       9.662  -6.199   1.947  1.00  0.00     0.002 C 
ATOM     33  C   UNL     1       9.215  -5.892   0.524  1.00  0.00     0.004 C 
ENDBRANCH  30  32
ENDBRANCH  12  30
ENDBRANCH  10  12
ENDBRANCH   1  10
BRANCH   5  34
ATOM     34  C   UNL     1       6.726  -1.021   3.853  1.00  0.00     0.242 C 
ATOM     35  O   UNL     1       7.877  -1.248   4.225  1.00  0.00    -0.273 OA
ATOM     36  N   UNL     1       6.257   0.256   3.637  1.00  0.00    -0.354 N 
ATOM     37  H   UNL     1       5.263   0.389   3.448  1.00  0.00     0.163 HD
BRANCH  36  38
ATOM     38  C   UNL     1       7.140   1.402   3.570  1.00  0.00     0.116 C 
BRANCH  38  39
ATOM     39  C   UNL     1       7.124   2.148   4.902  1.00  0.00     0.023 C 
BRANCH  39  40
ATOM     40  C   UNL     1       8.474   2.103   5.611  1.00  0.00     0.026 C 
BRANCH  40  41
ATOM     41  C   UNL     1       8.518   0.956   6.620  1.00  0.00     0.146 C 
BRANCH  41  42
ATOM     42  N   UNL     1       8.222   1.462   7.954  1.00  0.00    -0.254 NA
ATOM     43  C   UNL     1       7.091   1.202   8.494  1.00  0.00     0.185 C 
ATOM     44  N   UNL     1       6.050   0.493   8.021  1.00  0.00    -0.370 N 
ATOM     45  N   UNL     1       6.836   1.681   9.722  1.00  0.00    -0.370 N 
ATOM     46  H   UNL     1       5.141   0.574   8.443  1.00  0.00     0.159 HD
ATOM     47  H   UNL     1       6.079   0.047   7.109  1.00  0.00     0.159 HD
ATOM     48  H   UNL     1       7.574   2.220  10.155  1.00  0.00     0.159 HD
ATOM     49  H   UNL     1       6.091   1.332  10.298  1.00  0.00     0.159 HD
ENDBRANCH  41  42
ENDBRANCH  40  41
ENDBRANCH  39  40
ENDBRANCH  38  39
ENDBRANCH  36  38
ENDBRANCH   5  34
BRANCH   8  50
ATOM     50  O   UNL     1       6.707  -2.576   8.339  1.00  0.00    -0.245 OA
BRANCH  50  51
ATOM     51  S   UNL     1       6.929  -2.247   9.916  1.00  0.00     0.397 S 
ATOM     52  O   UNL     1       7.352  -3.465  10.571  1.00  0.00    -0.169 OA
ATOM     53  O   UNL     1       5.814  -1.467  10.411  1.00  0.00    -0.169 OA
BRANCH  51  54
ATOM     54  O   UNL     1       8.224  -1.295   9.882  1.00  0.00    -0.264 OA
ATOM     55  H   UNL     1       7.995  -0.498   9.363  1.00  0.00     0.236 HD
ENDBRANCH  51  54
ENDBRANCH  50  51
ENDBRANCH   8  50
TORSDOF 19
ENDMDL
MODEL 2
REMARK VINA RESULT:    -7.123     11.429     14.272
REMARK INTER + INTRA:         -19.261
REMARK INTER:                 -16.268
REMARK INTRA:                  -2.993
REMARK UNBOUND:                -4.850
REMARK SMILES CC[C@@H](C)[C@@H](NC(=O)[C@@H](O)Cc1ccc(O)c(Cl)c1)C(=O)N1[C@H](C(=O)NCCCCN=C(N)N)C[C@H]2CC[C@H](OS(=O)(=O)O)C[C@@H]21
REMARK SMILES IDX 22 1 36 2 46 3 35 4 23 5 45 6 37 7 39 8 38 9 20 10 21 11
REMARK SMILES IDX 5 12 6 13 7 14 8 15 9 17 11 18 12 19 17 20 19 21 15 22 14 23
REMARK SMILES IDX 13 24 18 25 16 26 10 28 3 30 4 31 2 32 1 33 24 34 25 35
REMARK SMILES IDX 26 36 27 38 28 39 29 40 30 41 31 42 32 43 33 44 34 45 40 50
REMARK SMILES IDX 41 51 42 52 43 53 44 54
REMARK H PARENT 6 16 16 27 10 29 26 37 33 46 33 47 34 48 34 49 44 55
ROOT
ATOM      1  N   UNL     1      -1.581  -6.575   2.690  1.00  0.00    -0.326 N 
ATOM      2  C   UNL     1      -2.168  -5.111   4.438  1.00  0.00     0.014 C 
ATOM      3  C   UNL     1      -1.986  -5.185   2.919  1.00  0.00     0.091 C 
ATOM      4  C   UNL     1      -1.088  -6.051   4.951  1.00  0.00     0.041 C 
ATOM      5  C   UNL     1      -1.275  -7.234   3.983  1.00  0.00     0.175 C 
ATOM      6  C   UNL     1      -3.267  -4.685   2.254  1.00  0.00     0.059 C 
ATOM      7  C   UNL     1      -2.187  -3.671   4.912  1.00  0.00     0.008 C 
ATOM      8  C   UNL     1      -4.004  -3.597   3.064  1.00  0.00     0.143 C 
ATOM      9  C   UNL     1      -3.044  -2.799   3.970  1.00  0.00     0.034 C 
ENDROOT
BRANCH   1  10
ATOM     10  C   UNL     1      -1.258  -7.222   1.509  1.00  0.00     0.246 C 
ATOM     11  O   UNL     1      -0.837  -8.383   1.556  1.00  0.00    -0.272 OA
BRANCH  10  12
ATOM     12  C   UNL     1      -1.472  -6.493   0.151  1.00  0.00     0.174 C 
BRANCH  12  13
ATOM     13  N   UNL     1      -2.279  -7.325  -0.740  1.00  0.00    -0.342 N 
ATOM     14  C   UNL     1      -3.548  -7.015  -1.176  1.00  0.00     0.249 C 
ATOM     15  O   UNL     1      -4.137  -5.982  -0.883  1.00  0.00    -0.272 OA
ATOM     16  H   UNL     1      -1.988  -8.279  -0.939  1.00  0.00     0.164 HD
BRANCH  14  17
ATOM     17  C   UNL     1      -4.144  -8.104  -2.093  1.00  0.00     0.207 C 
BRANCH  17  18
ATOM     18  C   UNL     1      -4.704  -7.477  -3.374  1.00  0.00     0.077 C 
BRANCH  18  19
ATOM     19  C   UNL     1      -3.603  -7.056  -4.322  1.00  0.00    -0.043 A 
ATOM     20  C   UNL     1      -2.322  -7.418  -6.350  1.00  0.00     0.083 A 
ATOM     21  C   UNL     1      -3.370  -7.779  -5.502  1.00  0.00     0.028 A 
ATOM     22  C   UNL     1      -1.501  -6.338  -6.024  1.00  0.00     0.134 A 
ATOM     23  C   UNL     1      -1.720  -5.614  -4.858  1.00  0.00     0.048 A 
ATOM     24  C   UNL     1      -2.767  -5.974  -4.007  1.00  0.00     0.008 A 
ATOM     25  Cl  UNL     1      -2.051  -8.319  -7.795  1.00  0.00    -0.080 Cl
BRANCH  22  26
ATOM     26  O   UNL     1      -0.454  -5.954  -6.818  1.00  0.00    -0.506 OA
ATOM     27  H   UNL     1      -0.390  -6.612  -7.535  1.00  0.00     0.293 HD
ENDBRANCH  22  26
ENDBRANCH  18  19
ENDBRANCH  17  18
BRANCH  17  28
ATOM     28  O   UNL     1      -5.187  -8.831  -1.424  1.00  0.00    -0.383 OA
ATOM     29  H   UNL     1      -4.759  -9.276  -0.657  1.00  0.00     0.211 HD
ENDBRANCH  17  28
ENDBRANCH  14  17
ENDBRANCH  12  13
BRANCH  12  30
ATOM     30  C   UNL     1      -0.138  -6.043  -0.505  1.00  0.00     0.018 C 
ATOM     31  C   UNL     1      -0.350  -4.791  -1.371  1.00  0.00     0.010 C 
BRANCH  30  32
ATOM     32  C   UNL     1       0.552  -7.153  -1.334  1.00  0.00     0.002 C 
ATOM     33  C   UNL     1       1.869  -7.667  -0.767  1.00  0.00     0.004 C 
ENDBRANCH  30  32
ENDBRANCH  12  30
ENDBRANCH  10  12
ENDBRANCH   1  10
BRANCH   5  34
ATOM     34  C   UNL     1      -2.446  -8.153   4.423  1.00  0.00     0.242 C 
ATOM     35  O   UNL     1      -3.377  -8.439   3.669  1.00  0.00    -0.273 OA
ATOM     36  N   UNL     1      -2.397  -8.579   5.731  1.00  0.00    -0.354 N 
ATOM     37  H   UNL     1      -1.666  -8.212   6.341  1.00  0.00     0.163 HD
BRANCH  36  38
ATOM     38  C   UNL     1      -3.282  -9.605   6.244  1.00  0.00     0.116 C 
BRANCH  38  39
ATOM     39  C   UNL     1      -3.949  -9.120   7.528  1.00  0.00     0.023 C 
BRANCH  39  40
ATOM     40  C   UNL     1      -3.744  -7.627   7.763  1.00  0.00     0.026 C 
BRANCH  40  41
ATOM     41  C   UNL     1      -5.085  -6.893   7.786  1.00  0.00     0.146 C 
BRANCH  41  42
ATOM     42  N   UNL     1      -5.703  -6.955   6.468  1.00  0.00    -0.254 NA
ATOM     43  C   UNL     1      -6.854  -7.499   6.333  1.00  0.00     0.185 C 
ATOM     44  N   UNL     1      -7.657  -8.064   7.254  1.00  0.00    -0.370 N 
ATOM     45  N   UNL     1      -7.404  -7.550   5.109  1.00  0.00    -0.370 N 
ATOM     46  H   UNL     1      -8.413  -8.664   6.974  1.00  0.00     0.159 HD
ATOM     47  H   UNL     1      -7.400  -8.099   8.235  1.00  0.00     0.159 HD
ATOM     48  H   UNL     1      -6.867  -7.138   4.358  1.00  0.00     0.159 HD
ATOM     49  H   UNL     1      -8.380  -7.737   4.959  1.00  0.00     0.159 HD
ENDBRANCH  41  42
ENDBRANCH  40  41
ENDBRANCH  39  40
ENDBRANCH  38  39
ENDBRANCH  36  38
ENDBRANCH   5  34
BRANCH   8  50
ATOM     50  O   UNL     1      -5.010  -4.193   3.884  1.00  0.00    -0.245 OA
BRANCH  50  51
ATOM     51  S   UNL     1      -6.541  -3.651   3.797  1.00  0.00     0.397 S 
ATOM     52  O   UNL     1      -7.111  -4.120   2.554  1.00  0.00    -0.169 OA
ATOM     53  O   UNL     1      -6.584  -2.253   4.173  1.00  0.00    -0.169 OA
BRANCH  51  54
ATOM     54  O   UNL     1      -7.263  -4.499   4.957  1.00  0.00    -0.264 OA
ATOM     55  H   UNL     1      -7.781  -3.874   5.505  1.00  0.00     0.236 HD
ENDBRANCH  51  54
ENDBRANCH  50  51
ENDBRANCH   8  50
TORSDOF 19
ENDMDL
MODEL 3
REMARK VINA RESULT:    -6.753     11.290     14.118
REMARK INTER + INTRA:         -18.513
REMARK INTER:                 -15.355
REMARK INTRA:                  -3.157
REMARK UNBOUND:                -4.850
REMARK SMILES CC[C@@H](C)[C@@H](NC(=O)[C@@H](O)Cc1ccc(O)c(Cl)c1)C(=O)N1[C@H](C(=O)NCCCCN=C(N)N)C[C@H]2CC[C@H](OS(=O)(=O)O)C[C@@H]21
REMARK SMILES IDX 22 1 36 2 46 3 35 4 23 5 45 6 37 7 39 8 38 9 20 10 21 11
REMARK SMILES IDX 5 12 6 13 7 14 8 15 9 17 11 18 12 19 17 20 19 21 15 22 14 23
REMARK SMILES IDX 13 24 18 25 16 26 10 28 3 30 4 31 2 32 1 33 24 34 25 35
REMARK SMILES IDX 26 36 27 38 28 39 29 40 30 41 31 42 32 43 33 44 34 45 40 50
REMARK SMILES IDX 41 51 42 52 43 53 44 54
REMARK H PARENT 6 16 16 27 10 29 26 37 33 46 33 47 34 48 34 49 44 55
ROOT
ATOM      1  N   UNL     1      -0.977  -6.698   3.133  1.00  0.00    -0.326 N 
ATOM      2  C   UNL     1      -1.931  -5.019   4.480  1.00  0.00     0.014 C 
ATOM      3  C   UNL     1      -1.492  -5.328   3.046  1.00  0.00     0.091 C 
ATOM      4  C   UNL     1      -0.903  -5.768   5.314  1.00  0.00     0.041 C 
ATOM      5  C   UNL     1      -0.859  -7.106   4.554  1.00  0.00     0.175 C 
ATOM      6  C   UNL     1      -2.668  -5.054   2.111  1.00  0.00     0.059 C 
ATOM      7  C   UNL     1      -2.110  -3.527   4.683  1.00  0.00     0.008 C 
ATOM      8  C   UNL     1      -3.590  -3.912   2.590  1.00  0.00     0.143 C 
ATOM      9  C   UNL     1      -2.842  -2.898   3.479  1.00  0.00     0.034 C 
ENDROOT
BRANCH   1  10
ATOM     10  C   UNL     1      -0.425  -7.502   2.151  1.00  0.00     0.246 C 
ATOM     11  O   UNL     1       0.741  -7.892   2.279  1.00  0.00    -0.272 OA
BRANCH  10  12
ATOM     12  C   UNL     1      -1.293  -7.933   0.933  1.00  0.00     0.174 C 
BRANCH  12  13
ATOM     13  N   UNL     1      -1.416  -6.821  -0.009  1.00  0.00    -0.342 N 
ATOM     14  C   UNL     1      -0.492  -6.502  -0.979  1.00  0.00     0.249 C 
ATOM     15  O   UNL     1       0.534  -7.140  -1.180  1.00  0.00    -0.272 OA
ATOM     16  H   UNL     1      -2.132  -6.114   0.136  1.00  0.00     0.164 HD
BRANCH  14  17
ATOM     17  C   UNL     1      -0.899  -5.263  -1.805  1.00  0.00     0.207 C 
BRANCH  17  18
ATOM     18  C   UNL     1      -1.371  -5.681  -3.201  1.00  0.00     0.077 C 
BRANCH  18  19
ATOM     19  C   UNL     1      -2.821  -6.109  -3.200  1.00  0.00    -0.043 A 
ATOM     20  C   UNL     1      -4.627  -7.421  -4.150  1.00  0.00     0.083 A 
ATOM     21  C   UNL     1      -3.278  -7.065  -4.121  1.00  0.00     0.028 A 
ATOM     22  C   UNL     1      -5.525  -6.827  -3.263  1.00  0.00     0.134 A 
ATOM     23  C   UNL     1      -5.086  -5.879  -2.346  1.00  0.00     0.048 A 
ATOM     24  C   UNL     1      -3.737  -5.519  -2.316  1.00  0.00     0.008 A 
ATOM     25  Cl  UNL     1      -5.169  -8.597  -5.289  1.00  0.00    -0.080 Cl
BRANCH  22  26
ATOM     26  O   UNL     1      -6.859  -7.136  -3.261  1.00  0.00    -0.506 OA
ATOM     27  H   UNL     1      -7.336  -6.318  -3.032  1.00  0.00     0.293 HD
ENDBRANCH  22  26
ENDBRANCH  18  19
ENDBRANCH  17  18
BRANCH  17  28
ATOM     28  O   UNL     1       0.195  -4.341  -1.927  1.00  0.00    -0.383 OA
ATOM     29  H   UNL     1       0.704  -4.627  -2.720  1.00  0.00     0.211 HD
ENDBRANCH  17  28
ENDBRANCH  14  17
ENDBRANCH  12  13
BRANCH  12  30
ATOM     30  C   UNL     1      -2.672  -8.508   1.354  1.00  0.00     0.018 C 
ATOM     31  C   UNL     1      -2.572 -10.015   1.639  1.00  0.00     0.010 C 
BRANCH  30  32
ATOM     32  C   UNL     1      -3.798  -8.235   0.327  1.00  0.00     0.002 C 
ATOM     33  C   UNL     1      -3.917  -9.256  -0.797  1.00  0.00     0.004 C 
ENDBRANCH  30  32
ENDBRANCH  12  30
ENDBRANCH  10  12
ENDBRANCH   1  10
BRANCH   5  34
ATOM     34  C   UNL     1      -2.035  -8.034   4.960  1.00  0.00     0.242 C 
ATOM     35  O   UNL     1      -3.058  -8.133   4.283  1.00  0.00    -0.273 OA
ATOM     36  N   UNL     1      -1.874  -8.694   6.158  1.00  0.00    -0.354 N 
ATOM     37  H   UNL     1      -1.058  -8.479   6.732  1.00  0.00     0.163 HD
BRANCH  36  38
ATOM     38  C   UNL     1      -2.765  -9.754   6.582  1.00  0.00     0.116 C 
BRANCH  38  39
ATOM     39  C   UNL     1      -3.830  -9.192   7.521  1.00  0.00     0.023 C 
BRANCH  39  40
ATOM     40  C   UNL     1      -3.623  -7.710   7.815  1.00  0.00     0.026 C 
BRANCH  40  41
ATOM     41  C   UNL     1      -4.960  -6.968   7.828  1.00  0.00     0.146 C 
BRANCH  41  42
ATOM     42  N   UNL     1      -5.558  -7.006   6.500  1.00  0.00    -0.254 NA
ATOM     43  C   UNL     1      -6.767  -7.401   6.361  1.00  0.00     0.185 C 
ATOM     44  N   UNL     1      -7.653  -7.817   7.284  1.00  0.00    -0.370 N 
ATOM     45  N   UNL     1      -7.298  -7.433   5.128  1.00  0.00    -0.370 N 
ATOM     46  H   UNL     1      -8.477  -8.326   7.012  1.00  0.00     0.159 HD
ATOM     47  H   UNL     1      -7.421  -7.843   8.272  1.00  0.00     0.159 HD
ATOM     48  H   UNL     1      -6.699  -7.126   4.374  1.00  0.00     0.159 HD
ATOM     49  H   UNL     1      -8.287  -7.498   4.963  1.00  0.00     0.159 HD
ENDBRANCH  41  42
ENDBRANCH  40  41
ENDBRANCH  39  40
ENDBRANCH  38  39
ENDBRANCH  36  38
ENDBRANCH   5  34
BRANCH   8  50
ATOM     50  O   UNL     1      -4.685  -4.446   3.334  1.00  0.00    -0.245 OA
BRANCH  50  51
ATOM     51  S   UNL     1      -6.146  -3.738   3.231  1.00  0.00     0.397 S 
ATOM     52  O   UNL     1      -7.113  -4.618   3.850  1.00  0.00    -0.169 OA
ATOM     53  O   UNL     1      -6.341  -3.217   1.894  1.00  0.00    -0.169 OA
BRANCH  51  54
ATOM     54  O   UNL     1      -5.986  -2.490   4.232  1.00  0.00    -0.264 OA
ATOM     55  H   UNL     1      -5.096  -2.545   4.637  1.00  0.00     0.236 HD
ENDBRANCH  51  54
ENDBRANCH  50  51
ENDBRANCH   8  50
TORSDOF 19
ENDMDL
MODEL 4
REMARK VINA RESULT:    -6.694     11.120     14.099
REMARK INTER + INTRA:         -18.393
REMARK INTER:                 -16.316
REMARK INTRA:                  -2.077
REMARK UNBOUND:                -4.850
REMARK SMILES CC[C@@H](C)[C@@H](NC(=O)[C@@H](O)Cc1ccc(O)c(Cl)c1)C(=O)N1[C@H](C(=O)NCCCCN=C(N)N)C[C@H]2CC[C@H](OS(=O)(=O)O)C[C@@H]21
REMARK SMILES IDX 22 1 36 2 46 3 35 4 23 5 45 6 37 7 39 8 38 9 20 10 21 11
REMARK SMILES IDX 5 12 6 13 7 14 8 15 9 17 11 18 12 19 17 20 19 21 15 22 14 23
REMARK SMILES IDX 13 24 18 25 16 26 10 28 3 30 4 31 2 32 1 33 24 34 25 35
REMARK SMILES IDX 26 36 27 38 28 39 29 40 30 41 31 42 32 43 33 44 34 45 40 50
REMARK SMILES IDX 41 51 42 52 43 53 44 54
REMARK H PARENT 6 16 16 27 10 29 26 37 33 46 33 47 34 48 34 49 44 55
ROOT
ATOM      1  N   UNL     1      -1.547  -6.289   2.363  1.00  0.00    -0.326 N 
ATOM      2  C   UNL     1      -2.213  -4.482   3.717  1.00  0.00     0.014 C 
ATOM      3  C   UNL     1      -2.274  -5.018   2.284  1.00  0.00     0.091 C 
ATOM      4  C   UNL     1      -0.846  -4.951   4.193  1.00  0.00     0.041 C 
ATOM      5  C   UNL     1      -0.860  -6.401   3.674  1.00  0.00     0.175 C 
ATOM      6  C   UNL     1      -3.735  -5.046   1.841  1.00  0.00     0.059 C 
ATOM      7  C   UNL     1      -2.546  -3.004   3.758  1.00  0.00     0.008 C 
ATOM      8  C   UNL     1      -4.596  -3.928   2.468  1.00  0.00     0.143 C 
ATOM      9  C   UNL     1      -3.754  -2.694   2.849  1.00  0.00     0.034 C 
ENDROOT
BRANCH   1  10
ATOM     10  C   UNL     1      -1.261  -7.211   1.370  1.00  0.00     0.246 C 
ATOM     11  O   UNL     1      -1.879  -8.280   1.347  1.00  0.00    -0.272 OA
BRANCH  10  12
ATOM     12  C   UNL     1      -0.202  -6.864   0.284  1.00  0.00     0.174 C 
BRANCH  12  13
ATOM     13  N   UNL     1      -0.857  -6.684  -1.011  1.00  0.00    -0.342 N 
ATOM     14  C   UNL     1      -0.699  -5.589  -1.831  1.00  0.00     0.249 C 
ATOM     15  O   UNL     1       0.040  -4.646  -1.575  1.00  0.00    -0.272 OA
ATOM     16  H   UNL     1      -1.615  -7.305  -1.283  1.00  0.00     0.164 HD
BRANCH  14  17
ATOM     17  C   UNL     1      -1.538  -5.686  -3.123  1.00  0.00     0.207 C 
BRANCH  17  18
ATOM     18  C   UNL     1      -1.193  -6.966  -3.891  1.00  0.00     0.077 C 
BRANCH  18  19
ATOM     19  C   UNL     1      -1.932  -7.048  -5.207  1.00  0.00    -0.043 A 
ATOM     20  C   UNL     1      -3.978  -7.446  -6.450  1.00  0.00     0.083 A 
ATOM     21  C   UNL     1      -3.309  -7.322  -5.231  1.00  0.00     0.028 A 
ATOM     22  C   UNL     1      -3.279  -7.299  -7.648  1.00  0.00     0.134 A 
ATOM     23  C   UNL     1      -1.915  -7.028  -7.639  1.00  0.00     0.048 A 
ATOM     24  C   UNL     1      -1.243  -6.905  -6.421  1.00  0.00     0.008 A 
ATOM     25  Cl  UNL     1      -5.669  -7.783  -6.458  1.00  0.00    -0.080 Cl
BRANCH  22  26
ATOM     26  O   UNL     1      -3.889  -7.422  -8.867  1.00  0.00    -0.506 OA
ATOM     27  H   UNL     1      -3.940  -8.377  -9.059  1.00  0.00     0.293 HD
ENDBRANCH  22  26
ENDBRANCH  18  19
ENDBRANCH  17  18
BRANCH  17  28
ATOM     28  O   UNL     1      -1.316  -4.548  -3.971  1.00  0.00    -0.383 OA
ATOM     29  H   UNL     1      -1.367  -4.883  -4.895  1.00  0.00     0.211 HD
ENDBRANCH  17  28
ENDBRANCH  14  17
ENDBRANCH  12  13
BRANCH  12  30
ATOM     30  C   UNL     1       0.955  -7.897   0.223  1.00  0.00     0.018 C 
ATOM     31  C   UNL     1       1.988  -7.498  -0.842  1.00  0.00     0.010 C 
BRANCH  30  32
ATOM     32  C   UNL     1       0.479  -9.351  -0.015  1.00  0.00     0.002 C 
ATOM     33  C   UNL     1       1.415 -10.435   0.502  1.00  0.00     0.004 C 
ENDBRANCH  30  32
ENDBRANCH  12  30
ENDBRANCH  10  12
ENDBRANCH   1  10
BRANCH   5  34
ATOM     34  C   UNL     1      -1.644  -7.342   4.627  1.00  0.00     0.242 C 
ATOM     35  O   UNL     1      -2.746  -7.806   4.334  1.00  0.00    -0.273 OA
ATOM     36  N   UNL     1      -1.044  -7.576   5.843  1.00  0.00    -0.354 N 
ATOM     37  H   UNL     1      -0.189  -7.068   6.075  1.00  0.00     0.163 HD
BRANCH  36  38
ATOM     38  C   UNL     1      -1.523  -8.590   6.760  1.00  0.00     0.116 C 
BRANCH  38  39
ATOM     39  C   UNL     1      -2.415  -7.949   7.821  1.00  0.00     0.023 C 
BRANCH  39  40
ATOM     40  C   UNL     1      -3.871  -8.386   7.698  1.00  0.00     0.026 C 
BRANCH  40  41
ATOM     41  C   UNL     1      -4.788  -7.175   7.524  1.00  0.00     0.146 C 
BRANCH  41  42
ATOM     42  N   UNL     1      -5.500  -7.275   6.257  1.00  0.00    -0.254 NA
ATOM     43  C   UNL     1      -6.729  -7.634   6.249  1.00  0.00     0.185 C 
ATOM     44  N   UNL     1      -7.543  -7.959   7.270  1.00  0.00    -0.370 N 
ATOM     45  N   UNL     1      -7.367  -7.725   5.070  1.00  0.00    -0.370 N 
ATOM     46  H   UNL     1      -8.402  -8.454   7.104  1.00  0.00     0.159 HD
ATOM     47  H   UNL     1      -7.225  -7.931   8.234  1.00  0.00     0.159 HD
ATOM     48  H   UNL     1      -6.827  -7.489   4.249  1.00  0.00     0.159 HD
ATOM     49  H   UNL     1      -8.368  -7.765   4.995  1.00  0.00     0.159 HD
ENDBRANCH  41  42
ENDBRANCH  40  41
ENDBRANCH  39  40
ENDBRANCH  38  39
ENDBRANCH  36  38
ENDBRANCH   5  34
BRANCH   8  50
ATOM     50  O   UNL     1      -5.249  -4.412   3.643  1.00  0.00    -0.245 OA
BRANCH  50  51
ATOM     51  S   UNL     1      -6.779  -3.960   3.955  1.00  0.00     0.397 S 
ATOM     52  O   UNL     1      -7.237  -4.700   5.109  1.00  0.00    -0.169 OA
ATOM     53  O   UNL     1      -7.539  -3.930   2.722  1.00  0.00    -0.169 OA
BRANCH  51  54
ATOM     54  O   UNL     1      -6.586  -2.444   4.455  1.00  0.00    -0.264 OA
ATOM     55  H   UNL     1      -6.239  -1.923   3.702  1.00  0.00     0.236 HD
ENDBRANCH  51  54
ENDBRANCH  50  51
ENDBRANCH   8  50
TORSDOF 19
ENDMDL
MODEL 5
REMARK VINA RESULT:    -6.693      1.804      2.398
REMARK INTER + INTRA:         -18.390
REMARK INTER:                 -13.894
REMARK INTRA:                  -4.496
REMARK UNBOUND:                -4.850
REMARK SMILES CC[C@@H](C)[C@@H](NC(=O)[C@@H](O)Cc1ccc(O)c(Cl)c1)C(=O)N1[C@H](C(=O)NCCCCN=C(N)N)C[C@H]2CC[C@H](OS(=O)(=O)O)C[C@@H]21
REMARK SMILES IDX 22 1 36 2 46 3 35 4 23 5 45 6 37 7 39 8 38 9 20 10 21 11
REMARK SMILES IDX 5 12 6 13 7 14 8 15 9 17 11 18 12 19 17 20 19 21 15 22 14 23
REMARK SMILES IDX 13 24 18 25 16 26 10 28 3 30 4 31 2 32 1 33 24 34 25 35
REMARK SMILES IDX 26 36 27 38 28 39 29 40 30 41 31 42 32 43 33 44 34 45 40 50
REMARK SMILES IDX 41 51 42 52 43 53 44 54
REMARK H PARENT 6 16 16 27 10 29 26 37 33 46 33 47 34 48 34 49 44 55
ROOT
ATOM      1  N   UNL     1       6.776  -4.106   4.403  1.00  0.00    -0.326 N 
ATOM      2  C   UNL     1       5.299  -2.714   5.596  1.00  0.00     0.014 C 
ATOM      3  C   UNL     1       5.884  -4.129   5.566  1.00  0.00     0.091 C 
ATOM      4  C   UNL     1       5.188  -2.366   4.119  1.00  0.00     0.041 C 
ATOM      5  C   UNL     1       6.556  -2.866   3.619  1.00  0.00     0.175 C 
ATOM      6  C   UNL     1       6.489  -4.430   6.936  1.00  0.00     0.059 C 
ATOM      7  C   UNL     1       4.060  -2.658   6.467  1.00  0.00     0.008 C 
ATOM      8  C   UNL     1       5.756  -3.736   8.105  1.00  0.00     0.143 C 
ATOM      9  C   UNL     1       4.278  -3.451   7.774  1.00  0.00     0.034 C 
ENDROOT
BRANCH   1  10
ATOM     10  C   UNL     1       7.564  -5.111   3.869  1.00  0.00     0.246 C 
ATOM     11  O   UNL     1       7.233  -5.630   2.798  1.00  0.00    -0.272 OA
BRANCH  10  12
ATOM     12  C   UNL     1       8.869  -5.535   4.604  1.00  0.00     0.174 C 
BRANCH  12  13
ATOM     13  N   UNL     1      10.035  -5.011   3.894  1.00  0.00    -0.342 N 
ATOM     14  C   UNL     1      10.646  -5.621   2.822  1.00  0.00     0.249 C 
ATOM     15  O   UNL     1      10.259  -6.669   2.321  1.00  0.00    -0.272 OA
ATOM     16  H   UNL     1      10.559  -4.235   4.290  1.00  0.00     0.164 HD
BRANCH  14  17
ATOM     17  C   UNL     1      11.865  -4.829   2.302  1.00  0.00     0.207 C 
BRANCH  17  18
ATOM     18  C   UNL     1      11.407  -3.569   1.558  1.00  0.00     0.077 C 
BRANCH  18  19
ATOM     19  C   UNL     1      12.183  -2.346   1.995  1.00  0.00    -0.043 A 
ATOM     20  C   UNL     1      12.427  -0.420   3.449  1.00  0.00     0.083 A 
ATOM     21  C   UNL     1      11.737  -1.576   3.080  1.00  0.00     0.028 A 
ATOM     22  C   UNL     1      13.562  -0.027   2.738  1.00  0.00     0.134 A 
ATOM     23  C   UNL     1      14.014  -0.782   1.662  1.00  0.00     0.048 A 
ATOM     24  C   UNL     1      13.324  -1.938   1.289  1.00  0.00     0.008 A 
ATOM     25  Cl  UNL     1      11.864   0.514   4.785  1.00  0.00    -0.080 Cl
BRANCH  22  26
ATOM     26  O   UNL     1      14.265   1.103   3.056  1.00  0.00    -0.506 OA
ATOM     27  H   UNL     1      14.123   1.735   2.327  1.00  0.00     0.293 HD
ENDBRANCH  22  26
ENDBRANCH  18  19
ENDBRANCH  17  18
BRANCH  17  28
ATOM     28  O   UNL     1      12.670  -5.633   1.425  1.00  0.00    -0.383 OA
ATOM     29  H   UNL     1      12.133  -6.433   1.221  1.00  0.00     0.211 HD
ENDBRANCH  17  28
ENDBRANCH  14  17
ENDBRANCH  12  13
BRANCH  12  30
ATOM     30  C   UNL     1       8.956  -7.068   4.836  1.00  0.00     0.018 C 
ATOM     31  C   UNL     1       7.597  -7.631   5.281  1.00  0.00     0.010 C 
BRANCH  30  32
ATOM     32  C   UNL     1      10.059  -7.483   5.840  1.00  0.00     0.002 C 
ATOM     33  C   UNL     1       9.843  -7.017   7.274  1.00  0.00     0.004 C 
ENDBRANCH  30  32
ENDBRANCH  12  30
ENDBRANCH  10  12
ENDBRANCH   1  10
BRANCH   5  34
ATOM     34  C   UNL     1       7.680  -1.832   3.897  1.00  0.00     0.242 C 
ATOM     35  O   UNL     1       8.610  -2.064   4.669  1.00  0.00    -0.273 OA
ATOM     36  N   UNL     1       7.531  -0.620   3.262  1.00  0.00    -0.354 N 
ATOM     37  H   UNL     1       6.677  -0.445   2.731  1.00  0.00     0.163 HD
BRANCH  36  38
ATOM     38  C   UNL     1       8.584   0.374   3.236  1.00  0.00     0.116 C 
BRANCH  38  39
ATOM     39  C   UNL     1       7.983   1.760   3.011  1.00  0.00     0.023 C 
BRANCH  39  40
ATOM     40  C   UNL     1       8.271   2.714   4.166  1.00  0.00     0.026 C 
BRANCH  40  41
ATOM     41  C   UNL     1       8.591   1.938   5.443  1.00  0.00     0.146 C 
BRANCH  41  42
ATOM     42  N   UNL     1       7.365   1.697   6.193  1.00  0.00    -0.254 NA
ATOM     43  C   UNL     1       7.259   0.643   6.912  1.00  0.00     0.185 C 
ATOM     44  N   UNL     1       8.137  -0.357   7.117  1.00  0.00    -0.370 N 
ATOM     45  N   UNL     1       6.119   0.437   7.592  1.00  0.00    -0.370 N 
ATOM     46  H   UNL     1       7.833  -1.234   7.504  1.00  0.00     0.159 HD
ATOM     47  H   UNL     1       9.057  -0.354   6.688  1.00  0.00     0.159 HD
ATOM     48  H   UNL     1       5.407   1.148   7.499  1.00  0.00     0.159 HD
ATOM     49  H   UNL     1       6.047  -0.223   8.346  1.00  0.00     0.159 HD
ENDBRANCH  41  42
ENDBRANCH  40  41
ENDBRANCH  39  40
ENDBRANCH  38  39
ENDBRANCH  36  38
ENDBRANCH   5  34
BRANCH   8  50
ATOM     50  O   UNL     1       6.397  -2.500   8.420  1.00  0.00    -0.245 OA
BRANCH  50  51
ATOM     51  S   UNL     1       6.770  -2.160   9.966  1.00  0.00     0.397 S 
ATOM     52  O   UNL     1       8.087  -1.562   9.987  1.00  0.00    -0.169 OA
ATOM     53  O   UNL     1       6.436  -3.290  10.807  1.00  0.00    -0.169 OA
BRANCH  51  54
ATOM     54  O   UNL     1       5.744  -0.969  10.305  1.00  0.00    -0.264 OA
ATOM     55  H   UNL     1       6.243  -0.128  10.278  1.00  0.00     0.236 HD
ENDBRANCH  51  54
ENDBRANCH  50  51
ENDBRANCH   8  50
TORSDOF 19
ENDMDL
MODEL 6
REMARK VINA RESULT:    -6.693     11.011     13.886
REMARK INTER + INTRA:         -18.390
REMARK INTER:                 -14.830
REMARK INTRA:                  -3.560
REMARK UNBOUND:                -4.850
REMARK SMILES CC[C@@H](C)[C@@H](NC(=O)[C@@H](O)Cc1ccc(O)c(Cl)c1)C(=O)N1[C@H](C(=O)NCCCCN=C(N)N)C[C@H]2CC[C@H](OS(=O)(=O)O)C[C@@H]21
REMARK SMILES IDX 22 1 36 2 46 3 35 4 23 5 45 6 37 7 39 8 38 9 20 10 21 11
REMARK SMILES IDX 5 12 6 13 7 14 8 15 9 17 11 18 12 19 17 20 19 21 15 22 14 23
REMARK SMILES IDX 13 24 18 25 16 26 10 28 3 30 4 31 2 32 1 33 24 34 25 35
REMARK SMILES IDX 26 36 27 38 28 39 29 40 30 41 31 42 32 43 33 44 34 45 40 50
REMARK SMILES IDX 41 51 42 52 43 53 44 54
REMARK H PARENT 6 16 16 27 10 29 26 37 33 46 33 47 34 48 34 49 44 55
ROOT
ATOM      1  N   UNL     1      -1.707  -6.740   4.451  1.00  0.00    -0.326 N 
ATOM      2  C   UNL     1      -2.311  -4.494   4.816  1.00  0.00     0.014 C 
ATOM      3  C   UNL     1      -2.222  -5.571   3.732  1.00  0.00     0.091 C 
ATOM      4  C   UNL     1      -1.118  -4.814   5.704  1.00  0.00     0.041 C 
ATOM      5  C   UNL     1      -1.259  -6.344   5.809  1.00  0.00     0.175 C 
ATOM      6  C   UNL     1      -3.584  -5.683   3.049  1.00  0.00     0.059 C 
ATOM      7  C   UNL     1      -2.430  -3.114   4.201  1.00  0.00     0.008 C 
ATOM      8  C   UNL     1      -4.363  -4.351   2.995  1.00  0.00     0.143 C 
ATOM      9  C   UNL     1      -3.423  -3.129   3.020  1.00  0.00     0.034 C 
ENDROOT
BRANCH   1  10
ATOM     10  C   UNL     1      -1.404  -8.007   3.983  1.00  0.00     0.246 C 
ATOM     11  O   UNL     1      -1.905  -8.990   4.541  1.00  0.00    -0.272 OA
BRANCH  10  12
ATOM     12  C   UNL     1      -0.477  -8.166   2.744  1.00  0.00     0.174 C 
BRANCH  12  13
ATOM     13  N   UNL     1      -1.275  -8.492   1.562  1.00  0.00    -0.342 N 
ATOM     14  C   UNL     1      -1.534  -7.629   0.521  1.00  0.00     0.249 C 
ATOM     15  O   UNL     1      -1.095  -6.488   0.456  1.00  0.00    -0.272 OA
ATOM     16  H   UNL     1      -1.831  -9.344   1.549  1.00  0.00     0.164 HD
BRANCH  14  17
ATOM     17  C   UNL     1      -2.423  -8.263  -0.571  1.00  0.00     0.207 C 
BRANCH  17  18
ATOM     18  C   UNL     1      -3.244  -7.185  -1.286  1.00  0.00     0.077 C 
BRANCH  18  19
ATOM     19  C   UNL     1      -2.662  -6.841  -2.638  1.00  0.00    -0.043 A 
ATOM     20  C   UNL     1      -1.727  -7.540  -4.765  1.00  0.00     0.083 A 
ATOM     21  C   UNL     1      -2.309  -7.859  -3.537  1.00  0.00     0.028 A 
ATOM     22  C   UNL     1      -1.493  -6.206  -5.100  1.00  0.00     0.134 A 
ATOM     23  C   UNL     1      -1.838  -5.187  -4.219  1.00  0.00     0.048 A 
ATOM     24  C   UNL     1      -2.419  -5.504  -2.989  1.00  0.00     0.008 A 
ATOM     25  Cl  UNL     1      -1.299  -8.805  -5.856  1.00  0.00    -0.080 Cl
BRANCH  22  26
ATOM     26  O   UNL     1      -0.915  -5.844  -6.287  1.00  0.00    -0.506 OA
ATOM     27  H   UNL     1      -0.682  -6.671  -6.748  1.00  0.00     0.293 HD
ENDBRANCH  22  26
ENDBRANCH  18  19
ENDBRANCH  17  18
BRANCH  17  28
ATOM     28  O   UNL     1      -3.310  -9.245  -0.010  1.00  0.00    -0.383 OA
ATOM     29  H   UNL     1      -3.632  -8.866   0.839  1.00  0.00     0.211 HD
ENDBRANCH  17  28
ENDBRANCH  14  17
ENDBRANCH  12  13
BRANCH  12  30
ATOM     30  C   UNL     1       0.672  -9.183   2.981  1.00  0.00     0.018 C 
ATOM     31  C   UNL     1       1.489  -8.803   4.226  1.00  0.00     0.010 C 
BRANCH  30  32
ATOM     32  C   UNL     1       1.611  -9.355   1.761  1.00  0.00     0.002 C 
ATOM     33  C   UNL     1       1.577 -10.727   1.102  1.00  0.00     0.004 C 
ENDBRANCH  30  32
ENDBRANCH  12  30
ENDBRANCH  10  12
ENDBRANCH   1  10
BRANCH   5  34
ATOM     34  C   UNL     1      -2.310  -6.750   6.876  1.00  0.00     0.242 C 
ATOM     35  O   UNL     1      -2.197  -6.440   8.062  1.00  0.00    -0.273 OA
ATOM     36  N   UNL     1      -3.347  -7.526   6.410  1.00  0.00    -0.354 N 
ATOM     37  H   UNL     1      -3.323  -7.850   5.442  1.00  0.00     0.163 HD
BRANCH  36  38
ATOM     38  C   UNL     1      -4.519  -7.812   7.211  1.00  0.00     0.116 C 
BRANCH  38  39
ATOM     39  C   UNL     1      -5.504  -6.649   7.123  1.00  0.00     0.023 C 
BRANCH  39  40
ATOM     40  C   UNL     1      -6.834  -7.058   6.500  1.00  0.00     0.026 C 
BRANCH  40  41
ATOM     41  C   UNL     1      -6.668  -7.347   5.008  1.00  0.00     0.146 C 
BRANCH  41  42
ATOM     42  N   UNL     1      -6.900  -8.762   4.751  1.00  0.00    -0.254 NA
ATOM     43  C   UNL     1      -6.022  -9.443   4.115  1.00  0.00     0.185 C 
ATOM     44  N   UNL     1      -4.836  -9.063   3.604  1.00  0.00    -0.370 N 
ATOM     45  N   UNL     1      -6.257 -10.745   3.885  1.00  0.00    -0.370 N 
ATOM     46  H   UNL     1      -4.365  -9.634   2.924  1.00  0.00     0.159 HD
ATOM     47  H   UNL     1      -4.494  -8.112   3.701  1.00  0.00     0.159 HD
ATOM     48  H   UNL     1      -7.126 -11.114   4.245  1.00  0.00     0.159 HD
ATOM     49  H   UNL     1      -5.535 -11.388   3.613  1.00  0.00     0.159 HD
ENDBRANCH  41  42
ENDBRANCH  40  41
ENDBRANCH  39  40
ENDBRANCH  38  39
ENDBRANCH  36  38
ENDBRANCH   5  34
BRANCH   8  50
ATOM     50  O   UNL     1      -5.255  -4.259   4.107  1.00  0.00    -0.245 OA
BRANCH  50  51
ATOM     51  S   UNL     1      -6.722  -3.586   3.906  1.00  0.00     0.397 S 
ATOM     52  O   UNL     1      -7.484  -3.809   5.114  1.00  0.00    -0.169 OA
ATOM     53  O   UNL     1      -7.244  -3.940   2.602  1.00  0.00    -0.169 OA
BRANCH  51  54
ATOM     54  O   UNL     1      -6.373  -2.017   3.891  1.00  0.00    -0.264 OA
ATOM     55  H   UNL     1      -6.326  -1.730   2.956  1.00  0.00     0.236 HD
ENDBRANCH  51  54
ENDBRANCH  50  51
ENDBRANCH   8  50
TORSDOF 19
ENDMDL
MODEL 7
REMARK VINA RESULT:    -6.308     11.972     15.177
REMARK INTER + INTRA:         -17.612
REMARK INTER:                 -14.461
REMARK INTRA:                  -3.151
REMARK UNBOUND:                -4.850
REMARK SMILES CC[C@@H](C)[C@@H](NC(=O)[C@@H](O)Cc1ccc(O)c(Cl)c1)C(=O)N1[C@H](C(=O)NCCCCN=C(N)N)C[C@H]2CC[C@H](OS(=O)(=O)O)C[C@@H]21
REMARK SMILES IDX 22 1 36 2 46 3 35 4 23 5 45 6 37 7 39 8 38 9 20 10 21 11
REMARK SMILES IDX 5 12 6 13 7 14 8 15 9 17 11 18 12 19 17 20 19 21 15 22 14 23
REMARK SMILES IDX 13 24 18 25 16 26 10 28 3 30 4 31 2 32 1 33 24 34 25 35
REMARK SMILES IDX 26 36 27 38 28 39 29 40 30 41 31 42 32 43 33 44 34 45 40 50
REMARK SMILES IDX 41 51 42 52 43 53 44 54
REMARK H PARENT 6 16 16 27 10 29 26 37 33 46 33 47 34 48 34 49 44 55
ROOT
ATOM      1  N   UNL     1      -1.961  -6.484   1.362  1.00  0.00    -0.326 N 
ATOM      2  C   UNL     1      -2.119  -5.038   3.213  1.00  0.00     0.014 C 
ATOM      3  C   UNL     1      -2.417  -5.136   1.714  1.00  0.00     0.091 C 
ATOM      4  C   UNL     1      -0.841  -5.850   3.355  1.00  0.00     0.041 C 
ATOM      5  C   UNL     1      -1.198  -7.073   2.490  1.00  0.00     0.175 C 
ATOM      6  C   UNL     1      -3.887  -4.786   1.490  1.00  0.00     0.059 C 
ATOM      7  C   UNL     1      -2.139  -3.595   3.677  1.00  0.00     0.008 C 
ATOM      8  C   UNL     1      -4.441  -3.756   2.497  1.00  0.00     0.143 C 
ATOM      9  C   UNL     1      -3.334  -2.841   3.058  1.00  0.00     0.034 C 
ENDROOT
BRANCH   1  10
ATOM     10  C   UNL     1      -1.960  -7.128   0.137  1.00  0.00     0.246 C 
ATOM     11  O   UNL     1      -1.618  -8.314   0.081  1.00  0.00    -0.272 OA
BRANCH  10  12
ATOM     12  C   UNL     1      -2.428  -6.361  -1.134  1.00  0.00     0.174 C 
BRANCH  12  13
ATOM     13  N   UNL     1      -3.382  -7.176  -1.886  1.00  0.00    -0.342 N 
ATOM     14  C   UNL     1      -4.623  -6.754  -2.305  1.00  0.00     0.249 C 
ATOM     15  O   UNL     1      -5.060  -5.625  -2.117  1.00  0.00    -0.272 OA
ATOM     16  H   UNL     1      -3.225  -8.176  -1.980  1.00  0.00     0.164 HD
BRANCH  14  17
ATOM     17  C   UNL     1      -5.401  -7.852  -3.061  1.00  0.00     0.207 C 
BRANCH  17  18
ATOM     18  C   UNL     1      -5.675  -7.418  -4.505  1.00  0.00     0.077 C 
BRANCH  18  19
ATOM     19  C   UNL     1      -4.584  -7.879  -5.446  1.00  0.00    -0.043 A 
ATOM     20  C   UNL     1      -3.388  -7.662  -7.545  1.00  0.00     0.083 A 
ATOM     21  C   UNL     1      -4.361  -7.205  -6.656  1.00  0.00     0.028 A 
ATOM     22  C   UNL     1      -2.634  -8.794  -7.232  1.00  0.00     0.134 A 
ATOM     23  C   UNL     1      -2.845  -9.472  -6.037  1.00  0.00     0.048 A 
ATOM     24  C   UNL     1      -3.820  -9.017  -5.146  1.00  0.00     0.008 A 
ATOM     25  Cl  UNL     1      -3.129  -6.820  -9.027  1.00  0.00    -0.080 Cl
BRANCH  22  26
ATOM     26  O   UNL     1      -1.676  -9.287  -8.077  1.00  0.00    -0.506 OA
ATOM     27  H   UNL     1      -0.835  -9.274  -7.584  1.00  0.00     0.293 HD
ENDBRANCH  22  26
ENDBRANCH  18  19
ENDBRANCH  17  18
BRANCH  17  28
ATOM     28  O   UNL     1      -6.647  -8.146  -2.408  1.00  0.00    -0.383 OA
ATOM     29  H   UNL     1      -6.595  -9.090  -2.135  1.00  0.00     0.211 HD
ENDBRANCH  17  28
ENDBRANCH  14  17
ENDBRANCH  12  13
BRANCH  12  30
ATOM     30  C   UNL     1      -1.243  -5.874  -2.012  1.00  0.00     0.018 C 
ATOM     31  C   UNL     1      -0.422  -4.804  -1.276  1.00  0.00     0.010 C 
BRANCH  30  32
ATOM     32  C   UNL     1      -1.675  -5.351  -3.403  1.00  0.00     0.002 C 
ATOM     33  C   UNL     1      -1.373  -6.281  -4.571  1.00  0.00     0.004 C 
ENDBRANCH  30  32
ENDBRANCH  12  30
ENDBRANCH  10  12
ENDBRANCH   1  10
BRANCH   5  34
ATOM     34  C   UNL     1      -2.069  -8.092   3.271  1.00  0.00     0.242 C 
ATOM     35  O   UNL     1      -1.815  -8.424   4.429  1.00  0.00    -0.273 OA
ATOM     36  N   UNL     1      -3.114  -8.637   2.559  1.00  0.00    -0.354 N 
ATOM     37  H   UNL     1      -3.202  -8.413   1.567  1.00  0.00     0.163 HD
BRANCH  36  38
ATOM     38  C   UNL     1      -4.148  -9.432   3.188  1.00  0.00     0.116 C 
BRANCH  38  39
ATOM     39  C   UNL     1      -5.174  -8.517   3.851  1.00  0.00     0.023 C 
BRANCH  39  40
ATOM     40  C   UNL     1      -6.353  -9.289   4.435  1.00  0.00     0.026 C 
BRANCH  40  41
ATOM     41  C   UNL     1      -6.744  -8.730   5.803  1.00  0.00     0.146 C 
BRANCH  41  42
ATOM     42  N   UNL     1      -5.544  -8.409   6.565  1.00  0.00    -0.254 NA
ATOM     43  C   UNL     1      -5.566  -7.443   7.403  1.00  0.00     0.185 C 
ATOM     44  N   UNL     1      -6.568  -6.607   7.735  1.00  0.00    -0.370 N 
ATOM     45  N   UNL     1      -4.449  -7.160   8.093  1.00  0.00    -0.370 N 
ATOM     46  H   UNL     1      -6.379  -5.748   8.222  1.00  0.00     0.159 HD
ATOM     47  H   UNL     1      -7.490  -6.689   7.317  1.00  0.00     0.159 HD
ATOM     48  H   UNL     1      -3.648  -7.749   7.909  1.00  0.00     0.159 HD
ATOM     49  H   UNL     1      -4.449  -6.591   8.920  1.00  0.00     0.159 HD
ENDBRANCH  41  42
ENDBRANCH  40  41
ENDBRANCH  39  40
ENDBRANCH  38  39
ENDBRANCH  36  38
ENDBRANCH   5  34
BRANCH   8  50
ATOM     50  O   UNL     1      -5.071  -4.427   3.589  1.00  0.00    -0.245 OA
BRANCH  50  51
ATOM     51  S   UNL     1      -6.623  -4.097   3.946  1.00  0.00     0.397 S 
ATOM     52  O   UNL     1      -7.018  -4.947   5.047  1.00  0.00    -0.169 OA
ATOM     53  O   UNL     1      -7.399  -4.028   2.725  1.00  0.00    -0.169 OA
BRANCH  51  54
ATOM     54  O   UNL     1      -6.520  -2.612   4.553  1.00  0.00    -0.264 OA
ATOM     55  H   UNL     1      -5.654  -2.241   4.287  1.00  0.00     0.236 HD
ENDBRANCH  51  54
ENDBRANCH  50  51
ENDBRANCH   8  50
TORSDOF 19
ENDMDL
MODEL 8
REMARK VINA RESULT:    -6.187      3.286      6.384
REMARK INTER + INTRA:         -17.367
REMARK INTER:                 -13.646
REMARK INTRA:                  -3.721
REMARK UNBOUND:                -4.850
REMARK SMILES CC[C@@H](C)[C@@H](NC(=O)[C@@H](O)Cc1ccc(O)c(Cl)c1)C(=O)N1[C@H](C(=O)NCCCCN=C(N)N)C[C@H]2CC[C@H](OS(=O)(=O)O)C[C@@H]21
REMARK SMILES IDX 22 1 36 2 46 3 35 4 23 5 45 6 37 7 39 8 38 9 20 10 21 11
REMARK SMILES IDX 5 12 6 13 7 14 8 15 9 17 11 18 12 19 17 20 19 21 15 22 14 23
REMARK SMILES IDX 13 24 18 25 16 26 10 28 3 30 4 31 2 32 1 33 24 34 25 35
REMARK SMILES IDX 26 36 27 38 28 39 29 40 30 41 31 42 32 43 33 44 34 45 40 50
REMARK SMILES IDX 41 51 42 52 43 53 44 54
REMARK H PARENT 6 16 16 27 10 29 26 37 33 46 33 47 34 48 34 49 44 55
ROOT
ATOM      1  N   UNL     1       9.032  -4.526   3.522  1.00  0.00    -0.326 N 
ATOM      2  C   UNL     1       7.339  -5.270   2.064  1.00  0.00     0.014 C 
ATOM      3  C   UNL     1       8.860  -5.179   2.221  1.00  0.00     0.091 C 
ATOM      4  C   UNL     1       6.856  -3.996   2.739  1.00  0.00     0.041 C 
ATOM      5  C   UNL     1       7.727  -4.012   4.008  1.00  0.00     0.175 C 
ATOM      6  C   UNL     1       9.450  -6.575   2.027  1.00  0.00     0.059 C 
ATOM      7  C   UNL     1       6.957  -5.539   0.622  1.00  0.00     0.008 C 
ATOM      8  C   UNL     1       8.654  -7.454   1.039  1.00  0.00     0.143 C 
ATOM      9  C   UNL     1       7.881  -6.610   0.005  1.00  0.00     0.034 C 
ENDROOT
BRANCH   1  10
ATOM     10  C   UNL     1      10.190  -4.162   4.186  1.00  0.00     0.246 C 
ATOM     11  O   UNL     1      10.506  -4.764   5.218  1.00  0.00    -0.272 OA
BRANCH  10  12
ATOM     12  C   UNL     1      11.090  -3.037   3.599  1.00  0.00     0.174 C 
BRANCH  12  13
ATOM     13  N   UNL     1      10.285  -1.848   3.321  1.00  0.00    -0.342 N 
ATOM     14  C   UNL     1      10.487  -0.608   3.883  1.00  0.00     0.249 C 
ATOM     15  O   UNL     1      11.393  -0.354   4.667  1.00  0.00    -0.272 OA
ATOM     16  H   UNL     1       9.408  -1.941   2.814  1.00  0.00     0.164 HD
BRANCH  14  17
ATOM     17  C   UNL     1       9.459   0.439   3.402  1.00  0.00     0.207 C 
BRANCH  17  18
ATOM     18  C   UNL     1       8.170  -0.249   2.942  1.00  0.00     0.077 C 
BRANCH  18  19
ATOM     19  C   UNL     1       6.966   0.235   3.719  1.00  0.00    -0.043 A 
ATOM     20  C   UNL     1       4.819  -0.204   4.760  1.00  0.00     0.083 A 
ATOM     21  C   UNL     1       5.952  -0.663   4.086  1.00  0.00     0.028 A 
ATOM     22  C   UNL     1       4.692   1.151   5.069  1.00  0.00     0.134 A 
ATOM     23  C   UNL     1       5.689   2.051   4.711  1.00  0.00     0.048 A 
ATOM     24  C   UNL     1       6.823   1.595   4.035  1.00  0.00     0.008 A 
ATOM     25  Cl  UNL     1       3.584  -1.322   5.202  1.00  0.00    -0.080 Cl
BRANCH  22  26
ATOM     26  O   UNL     1       3.596   1.650   5.718  1.00  0.00    -0.506 OA
ATOM     27  H   UNL     1       3.928   2.135   6.496  1.00  0.00     0.293 HD
ENDBRANCH  22  26
ENDBRANCH  18  19
ENDBRANCH  17  18
BRANCH  17  28
ATOM     28  O   UNL     1       9.989   1.227   2.325  1.00  0.00    -0.383 OA
ATOM     29  H   UNL     1      10.960   1.277   2.476  1.00  0.00     0.211 HD
ENDBRANCH  17  28
ENDBRANCH  14  17
ENDBRANCH  12  13
BRANCH  12  30
ATOM     30  C   UNL     1      11.904  -3.504   2.361  1.00  0.00     0.018 C 
ATOM     31  C   UNL     1      12.623  -4.831   2.650  1.00  0.00     0.010 C 
BRANCH  30  32
ATOM     32  C   UNL     1      12.916  -2.450   1.849  1.00  0.00     0.002 C 
ATOM     33  C   UNL     1      13.898  -1.930   2.891  1.00  0.00     0.004 C 
ENDBRANCH  30  32
ENDBRANCH  12  30
ENDBRANCH  10  12
ENDBRANCH   1  10
BRANCH   5  34
ATOM     34  C   UNL     1       7.137  -4.950   5.095  1.00  0.00     0.242 C 
ATOM     35  O   UNL     1       6.911  -6.141   4.884  1.00  0.00    -0.273 OA
ATOM     36  N   UNL     1       6.836  -4.341   6.293  1.00  0.00    -0.354 N 
ATOM     37  H   UNL     1       6.934  -3.327   6.367  1.00  0.00     0.163 HD
BRANCH  36  38
ATOM     38  C   UNL     1       6.484  -5.096   7.477  1.00  0.00     0.116 C 
BRANCH  38  39
ATOM     39  C   UNL     1       5.458  -4.321   8.301  1.00  0.00     0.023 C 
BRANCH  39  40
ATOM     40  C   UNL     1       5.328  -2.869   7.853  1.00  0.00     0.026 C 
BRANCH  40  41
ATOM     41  C   UNL     1       6.215  -1.958   8.702  1.00  0.00     0.146 C 
BRANCH  41  42
ATOM     42  N   UNL     1       7.368  -1.528   7.923  1.00  0.00    -0.254 NA
ATOM     43  C   UNL     1       7.520  -0.286   7.649  1.00  0.00     0.185 C 
ATOM     44  N   UNL     1       6.754   0.771   7.974  1.00  0.00    -0.370 N 
ATOM     45  N   UNL     1       8.587   0.089   6.926  1.00  0.00    -0.370 N 
ATOM     46  H   UNL     1       6.858   1.647   7.490  1.00  0.00     0.159 HD
ATOM     47  H   UNL     1       5.912   0.668   8.532  1.00  0.00     0.159 HD
ATOM     48  H   UNL     1       9.222  -0.647   6.647  1.00  0.00     0.159 HD
ATOM     49  H   UNL     1       8.901   1.042   6.874  1.00  0.00     0.159 HD
ENDBRANCH  41  42
ENDBRANCH  40  41
ENDBRANCH  39  40
ENDBRANCH  38  39
ENDBRANCH  36  38
ENDBRANCH   5  34
BRANCH   8  50
ATOM     50  O   UNL     1       7.720  -8.268   1.750  1.00  0.00    -0.245 OA
BRANCH  50  51
ATOM     51  S   UNL     1       7.688  -9.872   1.485  1.00  0.00     0.397 S 
ATOM     52  O   UNL     1       6.441 -10.386   2.005  1.00  0.00    -0.169 OA
ATOM     53  O   UNL     1       8.962 -10.452   1.856  1.00  0.00    -0.169 OA
BRANCH  51  54
ATOM     54  O   UNL     1       7.558  -9.945  -0.116  1.00  0.00    -0.264 OA
ATOM     55  H   UNL     1       7.486 -10.889  -0.367  1.00  0.00     0.236 HD
ENDBRANCH  51  54
ENDBRANCH  50  51
ENDBRANCH   8  50
TORSDOF 19
ENDMDL
MODEL 9
REMARK VINA RESULT:    -6.148     11.566     14.631
REMARK INTER + INTRA:         -17.287
REMARK INTER:                 -13.608
REMARK INTRA:                  -3.679
REMARK UNBOUND:                -4.850
REMARK SMILES CC[C@@H](C)[C@@H](NC(=O)[C@@H](O)Cc1ccc(O)c(Cl)c1)C(=O)N1[C@H](C(=O)NCCCCN=C(N)N)C[C@H]2CC[C@H](OS(=O)(=O)O)C[C@@H]21
REMARK SMILES IDX 22 1 36 2 46 3 35 4 23 5 45 6 37 7 39 8 38 9 20 10 21 11
REMARK SMILES IDX 5 12 6 13 7 14 8 15 9 17 11 18 12 19 17 20 19 21 15 22 14 23
REMARK SMILES IDX 13 24 18 25 16 26 10 28 3 30 4 31 2 32 1 33 24 34 25 35
REMARK SMILES IDX 26 36 27 38 28 39 29 40 30 41 31 42 32 43 33 44 34 45 40 50
REMARK SMILES IDX 41 51 42 52 43 53 44 54
REMARK H PARENT 6 16 16 27 10 29 26 37 33 46 33 47 34 48 34 49 44 55
ROOT
ATOM      1  N   UNL     1      -2.445  -6.187   5.058  1.00  0.00    -0.326 N 
ATOM      2  C   UNL     1      -3.627  -7.065   6.896  1.00  0.00     0.014 C 
ATOM      3  C   UNL     1      -3.807  -6.281   5.592  1.00  0.00     0.091 C 
ATOM      4  C   UNL     1      -2.272  -6.584   7.391  1.00  0.00     0.041 C 
ATOM      5  C   UNL     1      -1.467  -6.639   6.079  1.00  0.00     0.175 C 
ATOM      6  C   UNL     1      -4.868  -6.985   4.748  1.00  0.00     0.059 C 
ATOM      7  C   UNL     1      -4.841  -6.914   7.790  1.00  0.00     0.008 C 
ATOM      8  C   UNL     1      -5.959  -7.690   5.584  1.00  0.00     0.143 C 
ATOM      9  C   UNL     1      -6.142  -7.037   6.968  1.00  0.00     0.034 C 
ENDROOT
BRANCH   1  10
ATOM     10  C   UNL     1      -1.983  -5.572   3.907  1.00  0.00     0.246 C 
ATOM     11  O   UNL     1      -0.771  -5.370   3.778  1.00  0.00    -0.272 OA
BRANCH  10  12
ATOM     12  C   UNL     1      -2.991  -5.187   2.786  1.00  0.00     0.174 C 
BRANCH  12  13
ATOM     13  N   UNL     1      -2.525  -5.702   1.499  1.00  0.00    -0.342 N 
ATOM     14  C   UNL     1      -2.794  -6.960   1.006  1.00  0.00     0.249 C 
ATOM     15  O   UNL     1      -3.484  -7.787   1.588  1.00  0.00    -0.272 OA
ATOM     16  H   UNL     1      -1.817  -5.191   0.979  1.00  0.00     0.164 HD
BRANCH  14  17
ATOM     17  C   UNL     1      -2.146  -7.210  -0.372  1.00  0.00     0.207 C 
BRANCH  17  18
ATOM     18  C   UNL     1      -3.213  -7.220  -1.471  1.00  0.00     0.077 C 
BRANCH  18  19
ATOM     19  C   UNL     1      -2.628  -6.891  -2.826  1.00  0.00    -0.043 A 
ATOM     20  C   UNL     1      -1.729  -7.613  -4.960  1.00  0.00     0.083 A 
ATOM     21  C   UNL     1      -2.315  -7.917  -3.731  1.00  0.00     0.028 A 
ATOM     22  C   UNL     1      -1.451  -6.286  -5.292  1.00  0.00     0.134 A 
ATOM     23  C   UNL     1      -1.756  -5.260  -4.406  1.00  0.00     0.048 A 
ATOM     24  C   UNL     1      -2.341  -5.562  -3.174  1.00  0.00     0.008 A 
ATOM     25  Cl  UNL     1      -1.351  -8.888  -6.059  1.00  0.00    -0.080 Cl
BRANCH  22  26
ATOM     26  O   UNL     1      -0.868  -5.940  -6.481  1.00  0.00    -0.506 OA
ATOM     27  H   UNL     1      -0.235  -5.224  -6.285  1.00  0.00     0.293 HD
ENDBRANCH  22  26
ENDBRANCH  18  19
ENDBRANCH  17  18
BRANCH  17  28
ATOM     28  O   UNL     1      -1.432  -8.457  -0.390  1.00  0.00    -0.383 OA
ATOM     29  H   UNL     1      -1.363  -8.717  -1.336  1.00  0.00     0.211 HD
ENDBRANCH  17  28
ENDBRANCH  14  17
ENDBRANCH  12  13
BRANCH  12  30
ATOM     30  C   UNL     1      -3.288  -3.664   2.742  1.00  0.00     0.018 C 
ATOM     31  C   UNL     1      -2.886  -2.991   4.064  1.00  0.00     0.010 C 
BRANCH  30  32
ATOM     32  C   UNL     1      -4.760  -3.328   2.401  1.00  0.00     0.002 C 
ATOM     33  C   UNL     1      -5.620  -2.894   3.581  1.00  0.00     0.004 C 
ENDBRANCH  30  32
ENDBRANCH  12  30
ENDBRANCH  10  12
ENDBRANCH   1  10
BRANCH   5  34
ATOM     34  C   UNL     1      -0.974  -8.078   5.770  1.00  0.00     0.242 C 
ATOM     35  O   UNL     1      -1.115  -9.007   6.565  1.00  0.00    -0.273 OA
ATOM     36  N   UNL     1      -0.321  -8.228   4.567  1.00  0.00    -0.354 N 
ATOM     37  H   UNL     1      -0.129  -7.397   4.005  1.00  0.00     0.163 HD
BRANCH  36  38
ATOM     38  C   UNL     1       0.011  -9.528   4.024  1.00  0.00     0.116 C 
BRANCH  38  39
ATOM     39  C   UNL     1      -0.820  -9.796   2.772  1.00  0.00     0.023 C 
BRANCH  39  40
ATOM     40  C   UNL     1      -2.125 -10.521   3.083  1.00  0.00     0.026 C 
BRANCH  40  41
ATOM     41  C   UNL     1      -2.647 -11.253   1.846  1.00  0.00     0.146 C 
BRANCH  41  42
ATOM     42  N   UNL     1      -3.990 -11.755   2.101  1.00  0.00    -0.254 NA
ATOM     43  C   UNL     1      -4.996 -11.178   1.559  1.00  0.00     0.185 C 
ATOM     44  N   UNL     1      -5.043 -10.114   0.736  1.00  0.00    -0.370 N 
ATOM     45  N   UNL     1      -6.227 -11.653   1.810  1.00  0.00    -0.370 N 
ATOM     46  H   UNL     1      -5.906  -9.621   0.584  1.00  0.00     0.159 HD
ATOM     47  H   UNL     1      -4.199  -9.638   0.431  1.00  0.00     0.159 HD
ATOM     48  H   UNL     1      -6.280 -12.461   2.416  1.00  0.00     0.159 HD
ATOM     49  H   UNL     1      -7.026 -11.416   1.251  1.00  0.00     0.159 HD
ENDBRANCH  41  42
ENDBRANCH  40  41
ENDBRANCH  39  40
ENDBRANCH  38  39
ENDBRANCH  36  38
ENDBRANCH   5  34
BRANCH   8  50
ATOM     50  O   UNL     1      -5.619  -9.064   5.772  1.00  0.00    -0.245 OA
BRANCH  50  51
ATOM     51  S   UNL     1      -6.623 -10.222   5.228  1.00  0.00     0.397 S 
ATOM     52  O   UNL     1      -7.186  -9.771   3.975  1.00  0.00    -0.169 OA
ATOM     53  O   UNL     1      -7.461 -10.689   6.313  1.00  0.00    -0.169 OA
BRANCH  51  54
ATOM     54  O   UNL     1      -5.599 -11.403   4.848  1.00  0.00    -0.264 OA
ATOM     55  H   UNL     1      -6.104 -12.094   4.373  1.00  0.00     0.236 HD
ENDBRANCH  51  54
ENDBRANCH  50  51
ENDBRANCH   8  50
TORSDOF 19
ENDMDL
MODEL 10
REMARK VINA RESULT:    -6.034      3.222      5.976
REMARK INTER + INTRA:         -17.058
REMARK INTER:                 -13.179
REMARK INTRA:                  -3.879
REMARK UNBOUND:                -4.850
REMARK SMILES CC[C@@H](C)[C@@H](NC(=O)[C@@H](O)Cc1ccc(O)c(Cl)c1)C(=O)N1[C@H](C(=O)NCCCCN=C(N)N)C[C@H]2CC[C@H](OS(=O)(=O)O)C[C@@H]21
REMARK SMILES IDX 22 1 36 2 46 3 35 4 23 5 45 6 37 7 39 8 38 9 20 10 21 11
REMARK SMILES IDX 5 12 6 13 7 14 8 15 9 17 11 18 12 19 17 20 19 21 15 22 14 23
REMARK SMILES IDX 13 24 18 25 16 26 10 28 3 30 4 31 2 32 1 33 24 34 25 35
REMARK SMILES IDX 26 36 27 38 28 39 29 40 30 41 31 42 32 43 33 44 34 45 40 50
REMARK SMILES IDX 41 51 42 52 43 53 44 54
REMARK H PARENT 6 16 16 27 10 29 26 37 33 46 33 47 34 48 34 49 44 55
ROOT
ATOM      1  N   UNL     1       7.199  -3.943   4.474  1.00  0.00    -0.326 N 
ATOM      2  C   UNL     1       5.378  -2.798   5.431  1.00  0.00     0.014 C 
ATOM      3  C   UNL     1       6.143  -4.125   5.474  1.00  0.00     0.091 C 
ATOM      4  C   UNL     1       5.462  -2.411   3.963  1.00  0.00     0.041 C 
ATOM      5  C   UNL     1       6.947  -2.712   3.686  1.00  0.00     0.175 C 
ATOM      6  C   UNL     1       6.553  -4.400   6.920  1.00  0.00     0.059 C 
ATOM      7  C   UNL     1       4.019  -2.935   6.088  1.00  0.00     0.008 C 
ATOM      8  C   UNL     1       5.556  -3.851   7.963  1.00  0.00     0.143 C 
ATOM      9  C   UNL     1       4.126  -3.744   7.398  1.00  0.00     0.034 C 
ENDROOT
BRANCH   1  10
ATOM     10  C   UNL     1       8.189  -4.818   4.060  1.00  0.00     0.246 C 
ATOM     11  O   UNL     1       9.313  -4.739   4.568  1.00  0.00    -0.272 OA
BRANCH  10  12
ATOM     12  C   UNL     1       7.856  -5.906   2.999  1.00  0.00     0.174 C 
BRANCH  12  13
ATOM     13  N   UNL     1       8.527  -7.160   3.342  1.00  0.00    -0.342 N 
ATOM     14  C   UNL     1       8.015  -8.128   4.176  1.00  0.00     0.249 C 
ATOM     15  O   UNL     1       6.914  -8.057   4.708  1.00  0.00    -0.272 OA
ATOM     16  H   UNL     1       9.508  -7.287   3.103  1.00  0.00     0.164 HD
BRANCH  14  17
ATOM     17  C   UNL     1       8.971  -9.327   4.354  1.00  0.00     0.207 C 
BRANCH  17  18
ATOM     18  C   UNL     1       8.437 -10.553   3.608  1.00  0.00     0.077 C 
BRANCH  18  19
ATOM     19  C   UNL     1       9.105 -10.728   2.263  1.00  0.00    -0.043 A 
ATOM     20  C   UNL     1      10.700  -9.981   0.595  1.00  0.00     0.083 A 
ATOM     21  C   UNL     1      10.120  -9.847   1.857  1.00  0.00     0.028 A 
ATOM     22  C   UNL     1      10.272 -10.991  -0.267  1.00  0.00     0.134 A 
ATOM     23  C   UNL     1       9.268 -11.870   0.122  1.00  0.00     0.048 A 
ATOM     24  C   UNL     1       8.684 -11.737   1.384  1.00  0.00     0.008 A 
ATOM     25  Cl  UNL     1      11.945  -8.888   0.113  1.00  0.00    -0.080 Cl
BRANCH  22  26
ATOM     26  O   UNL     1      10.803 -11.154  -1.518  1.00  0.00    -0.506 OA
ATOM     27  H   UNL     1      10.508 -10.392  -2.050  1.00  0.00     0.293 HD
ENDBRANCH  22  26
ENDBRANCH  18  19
ENDBRANCH  17  18
BRANCH  17  28
ATOM     28  O   UNL     1       9.141  -9.651   5.744  1.00  0.00    -0.383 OA
ATOM     29  H   UNL     1      10.093  -9.503   5.943  1.00  0.00     0.211 HD
ENDBRANCH  17  28
ENDBRANCH  14  17
ENDBRANCH  12  13
BRANCH  12  30
ATOM     30  C   UNL     1       8.167  -5.445   1.549  1.00  0.00     0.018 C 
ATOM     31  C   UNL     1       6.939  -5.630   0.643  1.00  0.00     0.010 C 
BRANCH  30  32
ATOM     32  C   UNL     1       9.399  -6.145   0.925  1.00  0.00     0.002 C 
ATOM     33  C   UNL     1      10.541  -5.219   0.528  1.00  0.00     0.004 C 
ENDBRANCH  30  32
ENDBRANCH  12  30
ENDBRANCH  10  12
ENDBRANCH   1  10
BRANCH   5  34
ATOM     34  C   UNL     1       7.864  -1.555   4.164  1.00  0.00     0.242 C 
ATOM     35  O   UNL     1       8.409  -1.560   5.268  1.00  0.00    -0.273 OA
ATOM     36  N   UNL     1       7.979  -0.498   3.288  1.00  0.00    -0.354 N 
ATOM     37  H   UNL     1       7.408  -0.497   2.442  1.00  0.00     0.163 HD
BRANCH  36  38
ATOM     38  C   UNL     1       8.953   0.557   3.474  1.00  0.00     0.116 C 
BRANCH  38  39
ATOM     39  C   UNL     1       8.301   1.915   3.224  1.00  0.00     0.023 C 
BRANCH  39  40
ATOM     40  C   UNL     1       8.338   2.814   4.455  1.00  0.00     0.026 C 
BRANCH  40  41
ATOM     41  C   UNL     1       7.310   2.359   5.490  1.00  0.00     0.146 C 
BRANCH  41  42
ATOM     42  N   UNL     1       7.956   2.195   6.786  1.00  0.00    -0.254 NA
ATOM     43  C   UNL     1       7.683   1.171   7.505  1.00  0.00     0.185 C 
ATOM     44  N   UNL     1       6.848   0.144   7.266  1.00  0.00    -0.370 N 
ATOM     45  N   UNL     1       8.286   1.041   8.698  1.00  0.00    -0.370 N 
ATOM     46  H   UNL     1       6.546  -0.457   8.014  1.00  0.00     0.159 HD
ATOM     47  H   UNL     1       6.319   0.077   6.401  1.00  0.00     0.159 HD
ATOM     48  H   UNL     1       8.939   1.770   8.953  1.00  0.00     0.159 HD
ATOM     49  H   UNL     1       8.309   0.173   9.203  1.00  0.00     0.159 HD
ENDBRANCH  41  42
ENDBRANCH  40  41
ENDBRANCH  39  40
ENDBRANCH  38  39
ENDBRANCH  36  38
ENDBRANCH   5  34
BRANCH   8  50
ATOM     50  O   UNL     1       5.969  -2.556   8.401  1.00  0.00    -0.245 OA
BRANCH  50  51
ATOM     51  S   UNL     1       6.103  -2.251   9.993  1.00  0.00     0.397 S 
ATOM     52  O   UNL     1       5.011  -2.916  10.668  1.00  0.00    -0.169 OA
ATOM     53  O   UNL     1       6.378  -0.844  10.198  1.00  0.00    -0.169 OA
BRANCH  51  54
ATOM     54  O   UNL     1       7.426  -3.077  10.383  1.00  0.00    -0.264 OA
ATOM     55  H   UNL     1       7.772  -3.489   9.565  1.00  0.00     0.236 HD
ENDBRANCH  51  54
ENDBRANCH  50  51
ENDBRANCH   8  50
TORSDOF 19
ENDMDL
