MODEL 1
REMARK VINA RESULT:    -6.802      0.000      0.000
REMARK INTER + INTRA:         -27.827
REMARK INTER:                 -20.322
REMARK INTRA:                  -7.505
REMARK UNBOUND:                -7.505
REMARK SMILES C=C1C(=O)N[C@H](C)C(=O)N[C@@H](CC(C)C)C(=O)N[C@@H](C(=O)O)[C@H](C)C(=O)N[C@@H](CCCN=C(N)N)C(=O)N[C@@H](/C=C/C(C)=C/[C@H](C)[C@H](Cc2ccccc2)OC)[C@H](C)C(=O)N[C@@H](C(=O)O)CCC(=O)N1C
REMARK SMILES IDX 39 1 38 2 37 3 36 4 28 6 27 7 25 8 26 9 23 11 24 12 19 13
REMARK SMILES IDX 18 14 16 15 17 16 11 18 10 19 8 20 9 21 12 24 13 25 14 26
REMARK SMILES IDX 15 27 20 28 21 29 22 30 29 32 30 33 31 34 32 35 33 36 34 37
REMARK SMILES IDX 35 38 57 43 58 44 59 45 60 46 61 47 62 49 66 50 67 51 68 52
REMARK SMILES IDX 69 53 70 54 71 55 2 56 1 57 3 58 4 59 5 60 6 62 7 63 63 65
REMARK SMILES IDX 64 66 65 67 40 69 41 70 42 71 44 72 43 73 45 74 46 75 47 76
REMARK SMILES IDX 55 77 56 78 48 79 49 80 50 81 54 82 51 83 53 84 52 85
REMARK H PARENT 38 5 27 10 18 17 10 22 22 31 34 39 34 40 35 41 35 42 61 48
REMARK H PARENT 5 61 65 68
REMARK Flexibility Score:  369.900
ROOT
ATOM      1  C   UNL     1       6.329  -1.770   1.245  1.00  0.00     0.117 C 
ENDROOT
BRANCH   1   2
ATOM      2  N   UNL     1       7.250  -2.682   1.923  1.00  0.00    -0.347 N 
ATOM      3  O   UNL     1       9.074  -1.290   1.994  1.00  0.00    -0.273 OA
ATOM      4  C   UNL     1       8.525  -2.335   2.327  1.00  0.00     0.243 C 
ATOM      5  H   UNL     1       6.938  -3.611   2.165  1.00  0.00     0.164 HD
BRANCH   4   6
ATOM      6  C   UNL     1       9.262  -3.459   3.100  1.00  0.00     0.171 C 
BRANCH   6   7
ATOM      7  N   UNL     1      10.262  -4.107   2.237  1.00  0.00    -0.344 N 
ATOM      8  C   UNL     1      10.252  -5.473   2.054  1.00  0.00     0.226 C 
ATOM      9  O   UNL     1       9.441  -6.207   2.606  1.00  0.00    -0.275 OA
ATOM     10  H   UNL     1      10.988  -3.541   1.817  1.00  0.00     0.164 HD
BRANCH   8  11
ATOM     11  C   UNL     1      11.311  -5.983   1.093  1.00  0.00     0.109 C 
ATOM     12  C   UNL     1      11.830  -4.836   0.225  1.00  0.00     0.021 C 
BRANCH  11  13
ATOM     13  C   UNL     1      12.399  -6.748   1.873  1.00  0.00     0.204 C 
BRANCH  13  14
ATOM     14  N   UNL     1      11.830  -7.788   2.736  1.00  0.00    -0.340 N 
ATOM     15  C   UNL     1      12.281  -8.029   4.015  1.00  0.00     0.243 C 
ATOM     16  O   UNL     1      13.154  -7.346   4.547  1.00  0.00    -0.273 OA
ATOM     17  H   UNL     1      11.213  -8.484   2.307  1.00  0.00     0.164 HD
BRANCH  15  18
ATOM     18  C   UNL     1      11.677  -9.304   4.655  1.00  0.00     0.171 C 
BRANCH  18  19
ATOM     19  N   UNL     1      12.784 -10.238   4.852  1.00  0.00    -0.343 N 
ATOM     20  C   UNL     1      13.445 -10.819   3.787  1.00  0.00     0.242 CG0
ATOM     21  O   UNL     1      13.049 -10.683   2.632  1.00  0.00    -0.273 OA
ATOM     22  H   UNL     1      13.074 -10.473   5.794  1.00  0.00     0.164 HD
ATOM     23  G   UNL     1      14.636 -11.714   4.189  1.00  0.00     0.000 G0
ENDBRANCH  18  19
BRANCH  18  24
ATOM     24  C   UNL     1      10.982  -8.968   5.980  1.00  0.00     0.038 C 
BRANCH  24  25
ATOM     25  C   UNL     1       9.758  -8.038   5.848  1.00  0.00    -0.015 C 
ATOM     26  C   UNL     1       9.381  -7.375   7.173  1.00  0.00     0.007 C 
ATOM     27  C   UNL     1       8.564  -8.832   5.311  1.00  0.00     0.007 C 
ENDBRANCH  24  25
ENDBRANCH  18  24
ENDBRANCH  15  18
ENDBRANCH  13  14
BRANCH  13  28
ATOM     28  C   UNL     1      13.430  -7.425   0.966  1.00  0.00     0.327 C 
ATOM     29  O   UNL     1      14.530  -6.985   0.668  1.00  0.00    -0.250 OA
BRANCH  28  30
ATOM     30  O   UNL     1      12.970  -8.556   0.394  1.00  0.00    -0.480 OA
ATOM     31  H   UNL     1      12.006  -8.540   0.569  1.00  0.00     0.296 HD
ENDBRANCH  28  30
ENDBRANCH  13  28
ENDBRANCH  11  13
ENDBRANCH   8  11
ENDBRANCH   6   7
BRANCH   6  32
ATOM     32  C   UNL     1       9.921  -2.861   4.348  1.00  0.00     0.037 C 
BRANCH  32  33
ATOM     33  C   UNL     1      10.087  -3.898   5.468  1.00  0.00     0.026 C 
BRANCH  33  34
ATOM     34  C   UNL     1      11.475  -4.539   5.471  1.00  0.00     0.146 C 
BRANCH  34  35
ATOM     35  N   UNL     1      12.313  -3.840   6.436  1.00  0.00    -0.254 NA
ATOM     36  C   UNL     1      13.274  -3.112   6.002  1.00  0.00     0.185 C 
ATOM     37  N   UNL     1      14.049  -2.459   6.882  1.00  0.00    -0.370 N 
ATOM     38  N   UNL     1      13.652  -2.882   4.732  1.00  0.00    -0.370 N 
ATOM     39  H   UNL     1      13.820  -2.574   7.861  1.00  0.00     0.159 HD
ATOM     40  H   UNL     1      14.702  -1.741   6.622  1.00  0.00     0.159 HD
ATOM     41  H   UNL     1      14.512  -2.400   4.524  1.00  0.00     0.159 HD
ATOM     42  H   UNL     1      13.168  -3.321   3.965  1.00  0.00     0.159 HD
ENDBRANCH  34  35
ENDBRANCH  33  34
ENDBRANCH  32  33
ENDBRANCH   6  32
ENDBRANCH   4   6
ENDBRANCH   1   2
BRANCH   1  43
ATOM     43  C   UNL     1       5.005  -1.707   2.061  1.00  0.00     0.102 C 
ATOM     44  C   UNL     1       3.995  -0.686   1.510  1.00  0.00     0.020 C 
BRANCH  43  45
ATOM     45  C   UNL     1       5.288  -1.555   3.558  1.00  0.00     0.225 C 
ATOM     46  O   UNL     1       5.439  -2.511   4.313  1.00  0.00    -0.275 OA
ATOM     47  N   UNL     1       5.271  -0.264   4.036  1.00  0.00    -0.342 N 
ATOM     48  H   UNL     1       5.298   0.510   3.387  1.00  0.00     0.164 HD
BRANCH  47  49
ATOM     49  C   UNL     1       5.561   0.036   5.441  1.00  0.00     0.192 C 
BRANCH  49  50
ATOM     50  C   UNL     1       4.928   1.377   5.822  1.00  0.00     0.047 C 
BRANCH  50  51
ATOM     51  C   UNL     1       3.502   1.525   5.272  1.00  0.00     0.103 C 
BRANCH  51  52
ATOM     52  C   UNL     1       2.711   2.601   6.012  1.00  0.00     0.226 C 
ATOM     53  O   UNL     1       2.382   2.418   7.186  1.00  0.00    -0.275 OA
BRANCH  52  54
ATOM     54  N   UNL     1       2.467   3.795   5.308  1.00  0.00    -0.311 N 
ATOM     55  C   UNL     1       1.442   3.857   4.258  1.00  0.00     0.153 C 
BRANCH  54  56
ATOM     56  C   UNL     1       3.186   4.969   5.586  1.00  0.00     0.102 C 
ATOM     57  C   UNL     1       4.273   5.381   4.913  1.00  0.00     0.043 C 
BRANCH  56  58
ATOM     58  C   UNL     1       2.740   5.911   6.680  1.00  0.00     0.268 C 
ATOM     59  O   UNL     1       3.186   7.043   6.811  1.00  0.00    -0.268 OA
ATOM     60  N   UNL     1       1.740   5.391   7.466  1.00  0.00    -0.339 N 
ATOM     61  H   UNL     1       1.433   4.440   7.298  1.00  0.00     0.164 HD
BRANCH  60  62
ATOM     62  C   UNL     1       1.118   6.158   8.544  1.00  0.00     0.168 CG0
ATOM     63  C   UNL     1      -0.193   6.784   8.085  1.00  0.00     0.041 C 
ATOM     64  G   UNL     1       2.098   7.244   9.037  1.00  0.00     0.000 G0
ENDBRANCH  60  62
ENDBRANCH  56  58
ENDBRANCH  54  56
ENDBRANCH  52  54
ENDBRANCH  51  52
ENDBRANCH  50  51
ENDBRANCH  49  50
BRANCH  49  65
ATOM     65  C   UNL     1       7.073   0.093   5.709  1.00  0.00     0.326 C 
ATOM     66  O   UNL     1       7.597   0.168   6.811  1.00  0.00    -0.250 OA
BRANCH  65  67
ATOM     67  O   UNL     1       7.842   0.115   4.598  1.00  0.00    -0.480 OA
ATOM     68  H   UNL     1       8.552   0.754   4.821  1.00  0.00     0.296 HD
ENDBRANCH  65  67
ENDBRANCH  49  65
ENDBRANCH  47  49
ENDBRANCH  43  45
ENDBRANCH   1  43
BRANCH   1  69
ATOM     69  C   UNL     1       6.277  -2.219  -0.203  1.00  0.00    -0.001 C 
ATOM     70  C   UNL     1       6.151  -3.475  -0.666  1.00  0.00     0.001 C 
BRANCH  70  71
ATOM     71  C   UNL     1       6.080  -3.894  -2.067  1.00  0.00    -0.055 C 
ATOM     72  C   UNL     1       6.968  -4.819  -2.491  1.00  0.00    -0.018 C 
ATOM     73  C   UNL     1       5.018  -3.271  -2.934  1.00  0.00     0.044 C 
BRANCH  72  74
ATOM     74  C   UNL     1       7.128  -5.437  -3.872  1.00  0.00     0.038 C 
ATOM     75  C   UNL     1       7.206  -6.957  -3.681  1.00  0.00     0.015 C 
BRANCH  74  76
ATOM     76  C   UNL     1       8.370  -4.802  -4.564  1.00  0.00     0.128 C 
BRANCH  76  77
ATOM     77  O   UNL     1       7.946  -3.880  -5.583  1.00  0.00    -0.381 OA
ATOM     78  C   UNL     1       8.039  -2.517  -5.194  1.00  0.00     0.195 C 
ENDBRANCH  76  77
BRANCH  76  79
ATOM     79  C   UNL     1       9.390  -4.178  -3.579  1.00  0.00     0.068 C 
BRANCH  79  80
ATOM     80  C   UNL     1      10.732  -4.853  -3.430  1.00  0.00    -0.045 A 
ATOM     81  C   UNL     1      11.922  -4.156  -3.679  1.00  0.00     0.004 A 
ATOM     82  C   UNL     1      10.808  -6.205  -3.064  1.00  0.00     0.004 A 
ATOM     83  C   UNL     1      13.159  -4.791  -3.553  1.00  0.00     0.000 A 
ATOM     84  C   UNL     1      12.046  -6.839  -2.938  1.00  0.00     0.000 A 
ATOM     85  C   UNL     1      13.221  -6.132  -3.181  1.00  0.00     0.000 A 
ENDBRANCH  79  80
ENDBRANCH  76  79
ENDBRANCH  74  76
ENDBRANCH  72  74
ENDBRANCH  70  71
ENDBRANCH   1  69
TORSDOF 17
ENDMDL
MODEL 2
REMARK VINA RESULT:    -6.621      2.498     12.453
REMARK INTER + INTRA:         -27.286
REMARK INTER:                 -19.620
REMARK INTRA:                  -7.666
REMARK UNBOUND:                -7.505
REMARK SMILES C=C1C(=O)N[C@H](C)C(=O)N[C@@H](CC(C)C)C(=O)N[C@@H](C(=O)O)[C@H](C)C(=O)N[C@@H](CCCN=C(N)N)C(=O)N[C@@H](/C=C/C(C)=C/[C@H](C)[C@H](Cc2ccccc2)OC)[C@H](C)C(=O)N[C@@H](C(=O)O)CCC(=O)N1C
REMARK SMILES IDX 39 1 38 2 37 3 36 4 28 6 27 7 25 8 26 9 23 11 24 12 19 13
REMARK SMILES IDX 18 14 16 15 17 16 11 18 10 19 8 20 9 21 12 24 13 25 14 26
REMARK SMILES IDX 15 27 20 28 21 29 22 30 29 32 30 33 31 34 32 35 33 36 34 37
REMARK SMILES IDX 35 38 57 43 58 44 59 45 60 46 61 47 62 49 66 50 67 51 68 52
REMARK SMILES IDX 69 53 70 54 71 55 2 56 1 57 3 58 4 59 5 60 6 62 7 63 63 65
REMARK SMILES IDX 64 66 65 67 40 69 41 70 42 71 44 72 43 73 45 74 46 75 47 76
REMARK SMILES IDX 55 77 56 78 48 79 49 80 50 81 54 82 51 83 53 84 52 85
REMARK H PARENT 38 5 27 10 18 17 10 22 22 31 34 39 34 40 35 41 35 42 61 48
REMARK H PARENT 5 61 65 68
REMARK Flexibility Score:  369.900
ROOT
ATOM      1  C   UNL     1       7.367  -2.716   5.542  1.00  0.00     0.117 C 
ENDROOT
BRANCH   1   2
ATOM      2  N   UNL     1       6.235  -1.949   5.020  1.00  0.00    -0.347 N 
ATOM      3  O   UNL     1       4.553  -3.167   5.999  1.00  0.00    -0.273 OA
ATOM      4  C   UNL     1       4.918  -2.182   5.366  1.00  0.00     0.243 C 
ATOM      5  H   UNL     1       6.408  -1.166   4.408  1.00  0.00     0.164 HD
BRANCH   4   6
ATOM      6  C   UNL     1       3.921  -1.172   4.741  1.00  0.00     0.171 C 
BRANCH   6   7
ATOM      7  N   UNL     1       4.221   0.195   5.196  1.00  0.00    -0.344 N 
ATOM      8  C   UNL     1       3.212   1.029   5.628  1.00  0.00     0.226 C 
ATOM      9  O   UNL     1       2.034   0.692   5.634  1.00  0.00    -0.275 OA
ATOM     10  H   UNL     1       5.174   0.532   5.142  1.00  0.00     0.164 HD
BRANCH   8  11
ATOM     11  C   UNL     1       3.689   2.386   6.116  1.00  0.00     0.109 C 
ATOM     12  C   UNL     1       5.143   2.613   5.703  1.00  0.00     0.021 C 
BRANCH  11  13
ATOM     13  C   UNL     1       2.706   3.480   5.654  1.00  0.00     0.204 C 
BRANCH  13  14
ATOM     14  N   UNL     1       1.402   3.366   6.316  1.00  0.00    -0.340 N 
ATOM     15  C   UNL     1       0.207   3.496   5.642  1.00  0.00     0.243 C 
ATOM     16  O   UNL     1       0.149   3.657   4.425  1.00  0.00    -0.273 OA
ATOM     17  H   UNL     1       1.380   3.384   7.339  1.00  0.00     0.164 HD
BRANCH  15  18
ATOM     18  C   UNL     1      -1.027   3.546   6.576  1.00  0.00     0.171 C 
BRANCH  18  19
ATOM     19  N   UNL     1      -1.316   4.959   6.813  1.00  0.00    -0.343 N 
ATOM     20  C   UNL     1      -0.574   5.717   7.698  1.00  0.00     0.242 CG0
ATOM     21  O   UNL     1       0.277   5.208   8.424  1.00  0.00    -0.273 OA
ATOM     22  H   UNL     1      -2.086   5.398   6.321  1.00  0.00     0.164 HD
ATOM     23  G   UNL     1      -0.976   7.205   7.755  1.00  0.00     0.000 G0
ENDBRANCH  18  19
BRANCH  18  24
ATOM     24  C   UNL     1      -2.221   2.827   5.935  1.00  0.00     0.038 C 
BRANCH  24  25
ATOM     25  C   UNL     1      -2.699   1.570   6.692  1.00  0.00    -0.015 C 
ATOM     26  C   UNL     1      -2.832   1.808   8.196  1.00  0.00     0.007 C 
ATOM     27  C   UNL     1      -1.726   0.415   6.437  1.00  0.00     0.007 C 
ENDBRANCH  24  25
ENDBRANCH  18  24
ENDBRANCH  15  18
ENDBRANCH  13  14
BRANCH  13  28
ATOM     28  C   UNL     1       3.221   4.900   5.909  1.00  0.00     0.327 C 
ATOM     29  O   UNL     1       3.748   5.636   5.088  1.00  0.00    -0.250 OA
BRANCH  28  30
ATOM     30  O   UNL     1       3.149   5.264   7.205  1.00  0.00    -0.480 OA
ATOM     31  H   UNL     1       4.085   5.349   7.484  1.00  0.00     0.296 HD
ENDBRANCH  28  30
ENDBRANCH  13  28
ENDBRANCH  11  13
ENDBRANCH   8  11
ENDBRANCH   6   7
BRANCH   6  32
ATOM     32  C   UNL     1       3.998  -1.270   3.214  1.00  0.00     0.037 C 
BRANCH  32  33
ATOM     33  C   UNL     1       4.568   0.006   2.580  1.00  0.00     0.026 C 
BRANCH  33  34
ATOM     34  C   UNL     1       3.753   0.475   1.373  1.00  0.00     0.146 C 
BRANCH  34  35
ATOM     35  N   UNL     1       3.512   1.906   1.497  1.00  0.00    -0.254 NA
ATOM     36  C   UNL     1       2.452   2.301   2.096  1.00  0.00     0.185 C 
ATOM     37  N   UNL     1       2.222   3.618   2.220  1.00  0.00    -0.370 N 
ATOM     38  N   UNL     1       1.474   1.566   2.656  1.00  0.00    -0.370 N 
ATOM     39  H   UNL     1       2.921   4.239   1.832  1.00  0.00     0.159 HD
ATOM     40  H   UNL     1       1.514   4.005   2.820  1.00  0.00     0.159 HD
ATOM     41  H   UNL     1       0.620   1.993   2.975  1.00  0.00     0.159 HD
ATOM     42  H   UNL     1       1.507   0.559   2.623  1.00  0.00     0.159 HD
ENDBRANCH  34  35
ENDBRANCH  33  34
ENDBRANCH  32  33
ENDBRANCH   6  32
ENDBRANCH   4   6
ENDBRANCH   1   2
BRANCH   1  43
ATOM     43  C   UNL     1       8.393  -1.725   6.162  1.00  0.00     0.102 C 
ATOM     44  C   UNL     1       7.848  -0.294   6.313  1.00  0.00     0.020 C 
BRANCH  43  45
ATOM     45  C   UNL     1       9.740  -1.803   5.439  1.00  0.00     0.225 C 
ATOM     46  O   UNL     1       9.981  -1.194   4.400  1.00  0.00    -0.275 OA
ATOM     47  N   UNL     1      10.651  -2.683   5.977  1.00  0.00    -0.342 N 
ATOM     48  H   UNL     1      10.499  -3.056   6.903  1.00  0.00     0.164 HD
BRANCH  47  49
ATOM     49  C   UNL     1      11.995  -2.837   5.411  1.00  0.00     0.192 C 
BRANCH  49  50
ATOM     50  C   UNL     1      12.191  -4.278   4.933  1.00  0.00     0.047 C 
BRANCH  50  51
ATOM     51  C   UNL     1      10.948  -5.145   5.176  1.00  0.00     0.103 C 
BRANCH  51  52
ATOM     52  C   UNL     1      11.081  -5.998   6.436  1.00  0.00     0.226 C 
ATOM     53  O   UNL     1      11.023  -5.462   7.545  1.00  0.00    -0.275 OA
BRANCH  52  54
ATOM     54  N   UNL     1      11.190  -7.388   6.243  1.00  0.00    -0.311 N 
ATOM     55  C   UNL     1      11.260  -8.307   7.387  1.00  0.00     0.153 C 
BRANCH  54  56
ATOM     56  C   UNL     1      11.230  -7.948   4.956  1.00  0.00     0.102 C 
ATOM     57  C   UNL     1      10.154  -8.182   4.186  1.00  0.00     0.043 C 
BRANCH  56  58
ATOM     58  C   UNL     1      12.547  -8.299   4.303  1.00  0.00     0.268 C 
ATOM     59  O   UNL     1      13.632  -8.058   4.814  1.00  0.00    -0.268 OA
ATOM     60  N   UNL     1      12.398  -8.971   3.114  1.00  0.00    -0.339 N 
ATOM     61  H   UNL     1      11.463  -9.122   2.753  1.00  0.00     0.164 HD
BRANCH  60  62
ATOM     62  C   UNL     1      13.543  -9.460   2.347  1.00  0.00     0.168 CG0
ATOM     63  C   UNL     1      13.948  -8.459   1.272  1.00  0.00     0.041 C 
ATOM     64  G   UNL     1      13.199 -10.826   1.719  1.00  0.00     0.000 G0
ENDBRANCH  60  62
ENDBRANCH  56  58
ENDBRANCH  54  56
ENDBRANCH  52  54
ENDBRANCH  51  52
ENDBRANCH  50  51
ENDBRANCH  49  50
BRANCH  49  65
ATOM     65  C   UNL     1      13.085  -2.488   6.436  1.00  0.00     0.326 C 
ATOM     66  O   UNL     1      14.023  -3.207   6.749  1.00  0.00    -0.250 OA
BRANCH  65  67
ATOM     67  O   UNL     1      12.916  -1.299   7.056  1.00  0.00    -0.480 OA
ATOM     68  H   UNL     1      12.201  -0.868   6.540  1.00  0.00     0.296 HD
ENDBRANCH  65  67
ENDBRANCH  49  65
ENDBRANCH  47  49
ENDBRANCH  43  45
ENDBRANCH   1  43
BRANCH   1  69
ATOM     69  C   UNL     1       7.817  -3.627   4.414  1.00  0.00    -0.001 C 
ATOM     70  C   UNL     1       7.618  -3.454   3.096  1.00  0.00     0.001 C 
BRANCH  70  71
ATOM     71  C   UNL     1       8.076  -4.330   2.015  1.00  0.00    -0.055 C 
ATOM     72  C   UNL     1       9.405  -4.414   1.795  1.00  0.00    -0.018 C 
ATOM     73  C   UNL     1       7.033  -5.082   1.230  1.00  0.00     0.044 C 
BRANCH  72  74
ATOM     74  C   UNL     1      10.160  -5.233   0.759  1.00  0.00     0.038 C 
ATOM     75  C   UNL     1      11.462  -5.708   1.418  1.00  0.00     0.015 C 
BRANCH  74  76
ATOM     76  C   UNL     1      10.354  -4.367  -0.521  1.00  0.00     0.128 C 
BRANCH  76  77
ATOM     77  O   UNL     1      11.464  -3.470  -0.343  1.00  0.00    -0.381 OA
ATOM     78  C   UNL     1      12.382  -3.476  -1.428  1.00  0.00     0.195 C 
ENDBRANCH  76  77
BRANCH  76  79
ATOM     79  C   UNL     1      10.453  -5.191  -1.829  1.00  0.00     0.068 C 
BRANCH  79  80
ATOM     80  C   UNL     1       9.180  -5.451  -2.598  1.00  0.00    -0.045 A 
ATOM     81  C   UNL     1       9.191  -6.207  -3.778  1.00  0.00     0.004 A 
ATOM     82  C   UNL     1       7.963  -4.913  -2.154  1.00  0.00     0.004 A 
ATOM     83  C   UNL     1       8.012  -6.431  -4.491  1.00  0.00     0.000 A 
ATOM     84  C   UNL     1       6.784  -5.137  -2.869  1.00  0.00     0.000 A 
ATOM     85  C   UNL     1       6.808  -5.897  -4.036  1.00  0.00     0.000 A 
ENDBRANCH  79  80
ENDBRANCH  76  79
ENDBRANCH  74  76
ENDBRANCH  72  74
ENDBRANCH  70  71
ENDBRANCH   1  69
TORSDOF 17
ENDMDL
MODEL 3
REMARK VINA RESULT:    -6.548      4.096     10.953
REMARK INTER + INTRA:         -27.068
REMARK INTER:                 -18.708
REMARK INTRA:                  -8.360
REMARK UNBOUND:                -7.505
REMARK SMILES C=C1C(=O)N[C@H](C)C(=O)N[C@@H](CC(C)C)C(=O)N[C@@H](C(=O)O)[C@H](C)C(=O)N[C@@H](CCCN=C(N)N)C(=O)N[C@@H](/C=C/C(C)=C/[C@H](C)[C@H](Cc2ccccc2)OC)[C@H](C)C(=O)N[C@@H](C(=O)O)CCC(=O)N1C
REMARK SMILES IDX 39 1 38 2 37 3 36 4 28 6 27 7 25 8 26 9 23 11 24 12 19 13
REMARK SMILES IDX 18 14 16 15 17 16 11 18 10 19 8 20 9 21 12 24 13 25 14 26
REMARK SMILES IDX 15 27 20 28 21 29 22 30 29 32 30 33 31 34 32 35 33 36 34 37
REMARK SMILES IDX 35 38 57 43 58 44 59 45 60 46 61 47 62 49 66 50 67 51 68 52
REMARK SMILES IDX 69 53 70 54 71 55 2 56 1 57 3 58 4 59 5 60 6 62 7 63 63 65
REMARK SMILES IDX 64 66 65 67 40 69 41 70 42 71 44 72 43 73 45 74 46 75 47 76
REMARK SMILES IDX 55 77 56 78 48 79 49 80 50 81 54 82 51 83 53 84 52 85
REMARK H PARENT 38 5 27 10 18 17 10 22 22 31 34 39 34 40 35 41 35 42 61 48
REMARK H PARENT 5 61 65 68
REMARK Flexibility Score:  369.900
ROOT
ATOM      1  C   UNL     1      10.397  -4.380   3.272  1.00  0.00     0.117 C 
ENDROOT
BRANCH   1   2
ATOM      2  N   UNL     1       9.388  -3.594   2.560  1.00  0.00    -0.347 N 
ATOM      3  O   UNL     1       7.564  -4.227   3.802  1.00  0.00    -0.273 OA
ATOM      4  C   UNL     1       8.063  -3.510   2.941  1.00  0.00     0.243 C 
ATOM      5  H   UNL     1       9.667  -3.033   1.769  1.00  0.00     0.164 HD
BRANCH   4   6
ATOM      6  C   UNL     1       7.224  -2.542   2.068  1.00  0.00     0.171 C 
BRANCH   6   7
ATOM      7  N   UNL     1       6.816  -3.200   0.817  1.00  0.00    -0.344 N 
ATOM      8  C   UNL     1       7.583  -3.082  -0.322  1.00  0.00     0.226 C 
ATOM      9  O   UNL     1       8.612  -2.417  -0.359  1.00  0.00    -0.275 OA
ATOM     10  H   UNL     1       5.938  -3.702   0.790  1.00  0.00     0.164 HD
BRANCH   8  11
ATOM     11  C   UNL     1       7.058  -3.863  -1.514  1.00  0.00     0.109 C 
ATOM     12  C   UNL     1       7.074  -5.361  -1.210  1.00  0.00     0.021 C 
BRANCH  11  13
ATOM     13  C   UNL     1       5.687  -3.303  -1.941  1.00  0.00     0.204 C 
BRANCH  13  14
ATOM     14  N   UNL     1       5.811  -2.259  -2.963  1.00  0.00    -0.340 N 
ATOM     15  C   UNL     1       4.877  -1.259  -3.130  1.00  0.00     0.243 C 
ATOM     16  O   UNL     1       3.901  -1.138  -2.391  1.00  0.00    -0.273 OA
ATOM     17  H   UNL     1       6.510  -2.388  -3.700  1.00  0.00     0.164 HD
BRANCH  15  18
ATOM     18  C   UNL     1       5.109  -0.400  -4.397  1.00  0.00     0.171 C 
BRANCH  18  19
ATOM     19  N   UNL     1       4.921   0.993  -3.998  1.00  0.00    -0.343 N 
ATOM     20  C   UNL     1       3.789   1.704  -4.347  1.00  0.00     0.242 CG0
ATOM     21  O   UNL     1       2.951   1.242  -5.119  1.00  0.00    -0.273 OA
ATOM     22  H   UNL     1       5.640   1.457  -3.456  1.00  0.00     0.164 HD
ATOM     23  G   UNL     1       3.731   3.133  -3.770  1.00  0.00     0.000 G0
ENDBRANCH  18  19
BRANCH  18  24
ATOM     24  C   UNL     1       6.515  -0.638  -4.962  1.00  0.00     0.038 C 
BRANCH  24  25
ATOM     25  C   UNL     1       6.699  -0.212  -6.434  1.00  0.00    -0.015 C 
ATOM     26  C   UNL     1       7.280  -1.331  -7.299  1.00  0.00     0.007 C 
ATOM     27  C   UNL     1       7.607   1.018  -6.505  1.00  0.00     0.007 C 
ENDBRANCH  24  25
ENDBRANCH  18  24
ENDBRANCH  15  18
ENDBRANCH  13  14
BRANCH  13  28
ATOM     28  C   UNL     1       4.745  -4.374  -2.499  1.00  0.00     0.327 C 
ATOM     29  O   UNL     1       4.649  -4.714  -3.668  1.00  0.00    -0.250 OA
BRANCH  28  30
ATOM     30  O   UNL     1       3.898  -4.867  -1.573  1.00  0.00    -0.480 OA
ATOM     31  H   UNL     1       3.961  -4.235  -0.827  1.00  0.00     0.296 HD
ENDBRANCH  28  30
ENDBRANCH  13  28
ENDBRANCH  11  13
ENDBRANCH   8  11
ENDBRANCH   6   7
BRANCH   6  32
ATOM     32  C   UNL     1       6.001  -2.076   2.866  1.00  0.00     0.037 C 
BRANCH  32  33
ATOM     33  C   UNL     1       6.014  -0.562   3.116  1.00  0.00     0.026 C 
BRANCH  33  34
ATOM     34  C   UNL     1       5.894  -0.212   4.600  1.00  0.00     0.146 C 
BRANCH  34  35
ATOM     35  N   UNL     1       6.529  -1.263   5.383  1.00  0.00    -0.254 NA
ATOM     36  C   UNL     1       7.612  -0.993   6.011  1.00  0.00     0.185 C 
ATOM     37  N   UNL     1       8.203  -1.952   6.739  1.00  0.00    -0.370 N 
ATOM     38  N   UNL     1       8.292   0.167   6.061  1.00  0.00    -0.370 N 
ATOM     39  H   UNL     1       7.745  -2.854   6.760  1.00  0.00     0.159 HD
ATOM     40  H   UNL     1       8.947  -1.776   7.392  1.00  0.00     0.159 HD
ATOM     41  H   UNL     1       9.208   0.216   6.477  1.00  0.00     0.159 HD
ATOM     42  H   UNL     1       7.971   0.972   5.546  1.00  0.00     0.159 HD
ENDBRANCH  34  35
ENDBRANCH  33  34
ENDBRANCH  32  33
ENDBRANCH   6  32
ENDBRANCH   4   6
ENDBRANCH   1   2
BRANCH   1  43
ATOM     43  C   UNL     1      10.823  -3.599   4.548  1.00  0.00     0.102 C 
ATOM     44  C   UNL     1      12.254  -3.040   4.474  1.00  0.00     0.020 C 
BRANCH  43  45
ATOM     45  C   UNL     1      10.539  -4.414   5.813  1.00  0.00     0.225 C 
ATOM     46  O   UNL     1      11.228  -4.343   6.826  1.00  0.00    -0.275 OA
ATOM     47  N   UNL     1       9.504  -5.316   5.716  1.00  0.00    -0.342 N 
ATOM     48  H   UNL     1       8.858  -5.255   4.942  1.00  0.00     0.164 HD
BRANCH  47  49
ATOM     49  C   UNL     1       9.095  -6.139   6.859  1.00  0.00     0.192 C 
BRANCH  49  50
ATOM     50  C   UNL     1       9.221  -7.620   6.497  1.00  0.00     0.047 C 
BRANCH  50  51
ATOM     51  C   UNL     1       9.150  -7.857   4.982  1.00  0.00     0.103 C 
BRANCH  51  52
ATOM     52  C   UNL     1       9.917  -9.109   4.561  1.00  0.00     0.226 C 
ATOM     53  O   UNL     1       9.299 -10.107   4.187  1.00  0.00    -0.275 OA
BRANCH  52  54
ATOM     54  N   UNL     1      11.321  -9.011   4.556  1.00  0.00    -0.311 N 
ATOM     55  C   UNL     1      11.999  -7.895   3.884  1.00  0.00     0.153 C 
BRANCH  54  56
ATOM     56  C   UNL     1      12.124  -9.971   5.195  1.00  0.00     0.102 C 
ATOM     57  C   UNL     1      12.953 -10.821   4.568  1.00  0.00     0.043 C 
BRANCH  56  58
ATOM     58  C   UNL     1      12.144 -10.085   6.702  1.00  0.00     0.268 C 
ATOM     59  O   UNL     1      11.255 -10.628   7.343  1.00  0.00    -0.268 OA
ATOM     60  N   UNL     1      13.289  -9.577   7.267  1.00  0.00    -0.339 N 
ATOM     61  H   UNL     1      13.973  -9.134   6.667  1.00  0.00     0.164 HD
BRANCH  60  62
ATOM     62  C   UNL     1      13.542  -9.642   8.706  1.00  0.00     0.168 CG0
ATOM     63  C   UNL     1      12.899  -8.465   9.428  1.00  0.00     0.041 C 
ATOM     64  G   UNL     1      15.063  -9.675   8.962  1.00  0.00     0.000 G0
ENDBRANCH  60  62
ENDBRANCH  56  58
ENDBRANCH  54  56
ENDBRANCH  52  54
ENDBRANCH  51  52
ENDBRANCH  50  51
ENDBRANCH  49  50
BRANCH  49  65
ATOM     65  C   UNL     1       7.649  -5.840   7.284  1.00  0.00     0.326 C 
ATOM     66  O   UNL     1       6.925  -6.593   7.919  1.00  0.00    -0.250 OA
BRANCH  65  67
ATOM     67  O   UNL     1       7.166  -4.655   6.848  1.00  0.00    -0.480 OA
ATOM     68  H   UNL     1       6.631  -4.331   7.604  1.00  0.00     0.296 HD
ENDBRANCH  65  67
ENDBRANCH  49  65
ENDBRANCH  47  49
ENDBRANCH  43  45
ENDBRANCH   1  43
BRANCH   1  69
ATOM     69  C   UNL     1      11.455  -4.742   2.246  1.00  0.00    -0.001 C 
ATOM     70  C   UNL     1      11.568  -4.275   0.989  1.00  0.00     0.001 C 
BRANCH  70  71
ATOM     71  C   UNL     1      12.606  -4.616   0.015  1.00  0.00    -0.055 C 
ATOM     72  C   UNL     1      12.314  -4.461  -1.294  1.00  0.00    -0.018 C 
ATOM     73  C   UNL     1      13.930  -5.106   0.541  1.00  0.00     0.044 C 
BRANCH  72  74
ATOM     74  C   UNL     1      13.184  -4.728  -2.513  1.00  0.00     0.038 C 
ATOM     75  C   UNL     1      13.422  -3.380  -3.204  1.00  0.00     0.015 C 
BRANCH  74  76
ATOM     76  C   UNL     1      12.488  -5.802  -3.400  1.00  0.00     0.128 C 
BRANCH  76  77
ATOM     77  O   UNL     1      13.359  -6.933  -3.576  1.00  0.00    -0.381 OA
ATOM     78  C   UNL     1      14.360  -7.044  -2.574  1.00  0.00     0.195 C 
ENDBRANCH  76  77
BRANCH  76  79
ATOM     79  C   UNL     1      11.075  -6.205  -2.909  1.00  0.00     0.068 C 
BRANCH  79  80
ATOM     80  C   UNL     1       9.885  -5.710  -3.695  1.00  0.00    -0.045 A 
ATOM     81  C   UNL     1       8.851  -6.580  -4.065  1.00  0.00     0.004 A 
ATOM     82  C   UNL     1       9.811  -4.367  -4.095  1.00  0.00     0.004 A 
ATOM     83  C   UNL     1       7.761  -6.117  -4.805  1.00  0.00     0.000 A 
ATOM     84  C   UNL     1       8.721  -3.905  -4.836  1.00  0.00     0.000 A 
ATOM     85  C   UNL     1       7.696  -4.780  -5.189  1.00  0.00     0.000 A 
ENDBRANCH  79  80
ENDBRANCH  76  79
ENDBRANCH  74  76
ENDBRANCH  72  74
ENDBRANCH  70  71
ENDBRANCH   1  69
TORSDOF 17
ENDMDL
MODEL 4
REMARK VINA RESULT:    -6.545      2.796     12.215
REMARK INTER + INTRA:         -27.059
REMARK INTER:                 -19.799
REMARK INTRA:                  -7.259
REMARK UNBOUND:                -7.505
REMARK SMILES C=C1C(=O)N[C@H](C)C(=O)N[C@@H](CC(C)C)C(=O)N[C@@H](C(=O)O)[C@H](C)C(=O)N[C@@H](CCCN=C(N)N)C(=O)N[C@@H](/C=C/C(C)=C/[C@H](C)[C@H](Cc2ccccc2)OC)[C@H](C)C(=O)N[C@@H](C(=O)O)CCC(=O)N1C
REMARK SMILES IDX 39 1 38 2 37 3 36 4 28 6 27 7 25 8 26 9 23 11 24 12 19 13
REMARK SMILES IDX 18 14 16 15 17 16 11 18 10 19 8 20 9 21 12 24 13 25 14 26
REMARK SMILES IDX 15 27 20 28 21 29 22 30 29 32 30 33 31 34 32 35 33 36 34 37
REMARK SMILES IDX 35 38 57 43 58 44 59 45 60 46 61 47 62 49 66 50 67 51 68 52
REMARK SMILES IDX 69 53 70 54 71 55 2 56 1 57 3 58 4 59 5 60 6 62 7 63 63 65
REMARK SMILES IDX 64 66 65 67 40 69 41 70 42 71 44 72 43 73 45 74 46 75 47 76
REMARK SMILES IDX 55 77 56 78 48 79 49 80 50 81 54 82 51 83 53 84 52 85
REMARK H PARENT 38 5 27 10 18 17 10 22 22 31 34 39 34 40 35 41 35 42 61 48
REMARK H PARENT 5 61 65 68
REMARK Flexibility Score:  369.900
ROOT
ATOM      1  C   UNL     1       7.245  -3.067   1.763  1.00  0.00     0.117 C 
ENDROOT
BRANCH   1   2
ATOM      2  N   UNL     1       6.157  -2.093   1.850  1.00  0.00    -0.347 N 
ATOM      3  O   UNL     1       5.801  -2.221   4.114  1.00  0.00    -0.273 OA
ATOM      4  C   UNL     1       5.582  -1.679   3.036  1.00  0.00     0.243 C 
ATOM      5  H   UNL     1       5.825  -1.646   1.008  1.00  0.00     0.164 HD
BRANCH   4   6
ATOM      6  C   UNL     1       4.510  -0.574   2.856  1.00  0.00     0.171 C 
BRANCH   6   7
ATOM      7  N   UNL     1       4.539   0.360   3.993  1.00  0.00    -0.344 N 
ATOM      8  C   UNL     1       3.434   0.519   4.800  1.00  0.00     0.226 C 
ATOM      9  O   UNL     1       2.382  -0.079   4.606  1.00  0.00    -0.275 OA
ATOM     10  H   UNL     1       5.367   0.922   4.145  1.00  0.00     0.164 HD
BRANCH   8  11
ATOM     11  C   UNL     1       3.639   1.477   5.961  1.00  0.00     0.109 C 
ATOM     12  C   UNL     1       5.103   1.911   6.031  1.00  0.00     0.021 C 
BRANCH  11  13
ATOM     13  C   UNL     1       2.624   2.633   5.870  1.00  0.00     0.204 C 
BRANCH  13  14
ATOM     14  N   UNL     1       1.238   2.153   5.890  1.00  0.00    -0.340 N 
ATOM     15  C   UNL     1       0.253   2.677   5.083  1.00  0.00     0.243 C 
ATOM     16  O   UNL     1       0.480   3.545   4.242  1.00  0.00    -0.273 OA
ATOM     17  H   UNL     1       0.952   1.547   6.664  1.00  0.00     0.164 HD
BRANCH  15  18
ATOM     18  C   UNL     1      -1.167   2.162   5.425  1.00  0.00     0.171 C 
BRANCH  18  19
ATOM     19  N   UNL     1      -1.887   2.044   4.158  1.00  0.00    -0.343 N 
ATOM     20  C   UNL     1      -2.903   2.915   3.814  1.00  0.00     0.242 CG0
ATOM     21  O   UNL     1      -3.337   3.743   4.610  1.00  0.00    -0.273 OA
ATOM     22  H   UNL     1      -1.641   1.301   3.514  1.00  0.00     0.164 HD
ATOM     23  G   UNL     1      -3.490   2.683   2.406  1.00  0.00     0.000 G0
ENDBRANCH  18  19
BRANCH  18  24
ATOM     24  C   UNL     1      -1.093   0.816   6.156  1.00  0.00     0.038 C 
BRANCH  24  25
ATOM     25  C   UNL     1      -1.863   0.765   7.492  1.00  0.00    -0.015 C 
ATOM     26  C   UNL     1      -3.165   1.565   7.448  1.00  0.00     0.007 C 
ATOM     27  C   UNL     1      -0.973   1.291   8.621  1.00  0.00     0.007 C 
ENDBRANCH  24  25
ENDBRANCH  18  24
ENDBRANCH  15  18
ENDBRANCH  13  14
BRANCH  13  28
ATOM     28  C   UNL     1       2.767   3.654   7.002  1.00  0.00     0.327 C 
ATOM     29  O   UNL     1       2.326   3.542   8.136  1.00  0.00    -0.250 OA
BRANCH  28  30
ATOM     30  O   UNL     1       3.354   4.802   6.608  1.00  0.00    -0.480 OA
ATOM     31  H   UNL     1       4.306   4.663   6.794  1.00  0.00     0.296 HD
ENDBRANCH  28  30
ENDBRANCH  13  28
ENDBRANCH  11  13
ENDBRANCH   8  11
ENDBRANCH   6   7
BRANCH   6  32
ATOM     32  C   UNL     1       4.761   0.162   1.536  1.00  0.00     0.037 C 
BRANCH  32  33
ATOM     33  C   UNL     1       3.733  -0.211   0.459  1.00  0.00     0.026 C 
BRANCH  33  34
ATOM     34  C   UNL     1       2.526  -0.954   1.035  1.00  0.00     0.146 C 
BRANCH  34  35
ATOM     35  N   UNL     1       1.313  -0.417   0.435  1.00  0.00    -0.254 NA
ATOM     36  C   UNL     1       0.708   0.544   1.028  1.00  0.00     0.185 C 
ATOM     37  N   UNL     1      -0.408   1.050   0.481  1.00  0.00    -0.370 N 
ATOM     38  N   UNL     1       1.029   1.164   2.177  1.00  0.00    -0.370 N 
ATOM     39  H   UNL     1      -0.711   0.642  -0.395  1.00  0.00     0.159 HD
ATOM     40  H   UNL     1      -0.838   1.907   0.786  1.00  0.00     0.159 HD
ATOM     41  H   UNL     1       0.396   1.814   2.613  1.00  0.00     0.159 HD
ATOM     42  H   UNL     1       1.838   0.876   2.706  1.00  0.00     0.159 HD
ENDBRANCH  34  35
ENDBRANCH  33  34
ENDBRANCH  32  33
ENDBRANCH   6  32
ENDBRANCH   4   6
ENDBRANCH   1   2
BRANCH   1  43
ATOM     43  C   UNL     1       8.591  -2.333   2.031  1.00  0.00     0.102 C 
ATOM     44  C   UNL     1       9.627  -2.527   0.912  1.00  0.00     0.020 C 
BRANCH  43  45
ATOM     45  C   UNL     1       9.122  -2.651   3.432  1.00  0.00     0.225 C 
ATOM     46  O   UNL     1      10.069  -2.058   3.941  1.00  0.00    -0.275 OA
ATOM     47  N   UNL     1       8.526  -3.719   4.062  1.00  0.00    -0.342 N 
ATOM     48  H   UNL     1       7.660  -4.094   3.702  1.00  0.00     0.164 HD
BRANCH  47  49
ATOM     49  C   UNL     1       8.907  -4.117   5.421  1.00  0.00     0.192 C 
BRANCH  49  50
ATOM     50  C   UNL     1       9.339  -5.585   5.426  1.00  0.00     0.047 C 
BRANCH  50  51
ATOM     51  C   UNL     1      10.313  -5.909   4.285  1.00  0.00     0.103 C 
BRANCH  51  52
ATOM     52  C   UNL     1      11.694  -6.303   4.805  1.00  0.00     0.226 C 
ATOM     53  O   UNL     1      12.625  -5.498   4.736  1.00  0.00    -0.275 OA
BRANCH  52  54
ATOM     54  N   UNL     1      11.798  -7.568   5.413  1.00  0.00    -0.311 N 
ATOM     55  C   UNL     1      11.955  -7.697   6.867  1.00  0.00     0.153 C 
BRANCH  54  56
ATOM     56  C   UNL     1      11.750  -8.751   4.656  1.00  0.00     0.102 C 
ATOM     57  C   UNL     1      10.682  -9.560   4.562  1.00  0.00     0.043 C 
BRANCH  56  58
ATOM     58  C   UNL     1      12.933  -9.188   3.824  1.00  0.00     0.268 C 
ATOM     59  O   UNL     1      14.081  -8.833   4.055  1.00  0.00    -0.268 OA
ATOM     60  N   UNL     1      12.596 -10.073   2.828  1.00  0.00    -0.339 N 
ATOM     61  H   UNL     1      11.619 -10.308   2.696  1.00  0.00     0.164 HD
BRANCH  60  62
ATOM     62  C   UNL     1      13.597 -10.670   1.946  1.00  0.00     0.168 CG0
ATOM     63  C   UNL     1      13.648  -9.944   0.607  1.00  0.00     0.041 C 
ATOM     64  G   UNL     1      13.281 -12.166   1.744  1.00  0.00     0.000 G0
ENDBRANCH  60  62
ENDBRANCH  56  58
ENDBRANCH  54  56
ENDBRANCH  52  54
ENDBRANCH  51  52
ENDBRANCH  50  51
ENDBRANCH  49  50
BRANCH  49  65
ATOM     65  C   UNL     1       7.751  -3.923   6.414  1.00  0.00     0.326 C 
ATOM     66  O   UNL     1       7.048  -4.814   6.869  1.00  0.00    -0.250 OA
BRANCH  65  67
ATOM     67  O   UNL     1       7.494  -2.636   6.736  1.00  0.00    -0.480 OA
ATOM     68  H   UNL     1       6.717  -2.409   6.180  1.00  0.00     0.296 HD
ENDBRANCH  65  67
ENDBRANCH  49  65
ENDBRANCH  47  49
ENDBRANCH  43  45
ENDBRANCH   1  43
BRANCH   1  69
ATOM     69  C   UNL     1       7.057  -3.796   0.445  1.00  0.00    -0.001 C 
ATOM     70  C   UNL     1       6.164  -3.520  -0.521  1.00  0.00     0.001 C 
BRANCH  70  71
ATOM     71  C   UNL     1       6.007  -4.218  -1.799  1.00  0.00    -0.055 C 
ATOM     72  C   UNL     1       7.116  -4.723  -2.379  1.00  0.00    -0.018 C 
ATOM     73  C   UNL     1       4.618  -4.330  -2.371  1.00  0.00     0.044 C 
BRANCH  72  74
ATOM     74  C   UNL     1       7.255  -5.488  -3.687  1.00  0.00     0.038 C 
ATOM     75  C   UNL     1       6.933  -6.958  -3.388  1.00  0.00     0.015 C 
BRANCH  74  76
ATOM     76  C   UNL     1       8.678  -5.237  -4.266  1.00  0.00     0.128 C 
BRANCH  76  77
ATOM     77  O   UNL     1       8.581  -4.557  -5.529  1.00  0.00    -0.381 OA
ATOM     78  C   UNL     1       9.149  -3.254  -5.521  1.00  0.00     0.195 C 
ENDBRANCH  76  77
BRANCH  76  79
ATOM     79  C   UNL     1       9.644  -4.533  -3.279  1.00  0.00     0.068 C 
BRANCH  79  80
ATOM     80  C   UNL     1      10.675  -5.381  -2.575  1.00  0.00    -0.045 A 
ATOM     81  C   UNL     1      10.805  -5.349  -1.180  1.00  0.00     0.004 A 
ATOM     82  C   UNL     1      11.545  -6.197  -3.314  1.00  0.00     0.004 A 
ATOM     83  C   UNL     1      11.771  -6.125  -0.537  1.00  0.00     0.000 A 
ATOM     84  C   UNL     1      12.511  -6.972  -2.670  1.00  0.00     0.000 A 
ATOM     85  C   UNL     1      12.623  -6.938  -1.282  1.00  0.00     0.000 A 
ENDBRANCH  79  80
ENDBRANCH  76  79
ENDBRANCH  74  76
ENDBRANCH  72  74
ENDBRANCH  70  71
ENDBRANCH   1  69
TORSDOF 17
ENDMDL
MODEL 5
REMARK VINA RESULT:    -6.430      2.606     12.388
REMARK INTER + INTRA:         -26.717
REMARK INTER:                 -19.725
REMARK INTRA:                  -6.992
REMARK UNBOUND:                -7.505
REMARK SMILES C=C1C(=O)N[C@H](C)C(=O)N[C@@H](CC(C)C)C(=O)N[C@@H](C(=O)O)[C@H](C)C(=O)N[C@@H](CCCN=C(N)N)C(=O)N[C@@H](/C=C/C(C)=C/[C@H](C)[C@H](Cc2ccccc2)OC)[C@H](C)C(=O)N[C@@H](C(=O)O)CCC(=O)N1C
REMARK SMILES IDX 39 1 38 2 37 3 36 4 28 6 27 7 25 8 26 9 23 11 24 12 19 13
REMARK SMILES IDX 18 14 16 15 17 16 11 18 10 19 8 20 9 21 12 24 13 25 14 26
REMARK SMILES IDX 15 27 20 28 21 29 22 30 29 32 30 33 31 34 32 35 33 36 34 37
REMARK SMILES IDX 35 38 57 43 58 44 59 45 60 46 61 47 62 49 66 50 67 51 68 52
REMARK SMILES IDX 69 53 70 54 71 55 2 56 1 57 3 58 4 59 5 60 6 62 7 63 63 65
REMARK SMILES IDX 64 66 65 67 40 69 41 70 42 71 44 72 43 73 45 74 46 75 47 76
REMARK SMILES IDX 55 77 56 78 48 79 49 80 50 81 54 82 51 83 53 84 52 85
REMARK H PARENT 38 5 27 10 18 17 10 22 22 31 34 39 34 40 35 41 35 42 61 48
REMARK H PARENT 5 61 65 68
REMARK Flexibility Score:  369.900
ROOT
ATOM      1  C   UNL     1       7.322  -2.527   5.451  1.00  0.00     0.117 C 
ENDROOT
BRANCH   1   2
ATOM      2  N   UNL     1       6.150  -1.792   4.973  1.00  0.00    -0.347 N 
ATOM      3  O   UNL     1       4.542  -3.059   6.012  1.00  0.00    -0.273 OA
ATOM      4  C   UNL     1       4.854  -2.063   5.368  1.00  0.00     0.243 C 
ATOM      5  H   UNL     1       6.278  -1.005   4.356  1.00  0.00     0.164 HD
BRANCH   4   6
ATOM      6  C   UNL     1       3.806  -1.083   4.782  1.00  0.00     0.171 C 
BRANCH   6   7
ATOM      7  N   UNL     1       4.154   0.306   5.123  1.00  0.00    -0.344 N 
ATOM      8  C   UNL     1       3.190   1.182   5.572  1.00  0.00     0.226 C 
ATOM      9  O   UNL     1       2.012   0.864   5.688  1.00  0.00    -0.275 OA
ATOM     10  H   UNL     1       5.104   0.624   4.977  1.00  0.00     0.164 HD
BRANCH   8  11
ATOM     11  C   UNL     1       3.716   2.559   5.934  1.00  0.00     0.109 C 
ATOM     12  C   UNL     1       5.096   2.775   5.313  1.00  0.00     0.021 C 
BRANCH  11  13
ATOM     13  C   UNL     1       2.668   3.630   5.571  1.00  0.00     0.204 C 
BRANCH  13  14
ATOM     14  N   UNL     1       1.670   3.807   6.630  1.00  0.00    -0.340 N 
ATOM     15  C   UNL     1       0.313   3.784   6.392  1.00  0.00     0.243 C 
ATOM     16  O   UNL     1      -0.158   3.552   5.280  1.00  0.00    -0.273 OA
ATOM     17  H   UNL     1       1.990   4.151   7.539  1.00  0.00     0.164 HD
BRANCH  15  18
ATOM     18  C   UNL     1      -0.538   4.199   7.617  1.00  0.00     0.171 C 
BRANCH  18  19
ATOM     19  N   UNL     1      -1.046   5.540   7.339  1.00  0.00    -0.343 N 
ATOM     20  C   UNL     1      -0.408   6.673   7.806  1.00  0.00     0.242 CG0
ATOM     21  O   UNL     1       0.538   6.602   8.587  1.00  0.00    -0.273 OA
ATOM     22  H   UNL     1      -1.894   5.648   6.793  1.00  0.00     0.164 HD
ATOM     23  G   UNL     1      -1.046   8.000   7.345  1.00  0.00     0.000 G0
ENDBRANCH  18  19
BRANCH  18  24
ATOM     24  C   UNL     1      -1.680   3.201   7.846  1.00  0.00     0.038 C 
BRANCH  24  25
ATOM     25  C   UNL     1      -1.225   1.752   8.119  1.00  0.00    -0.015 C 
ATOM     26  C   UNL     1      -2.372   0.747   8.002  1.00  0.00     0.007 C 
ATOM     27  C   UNL     1      -0.601   1.662   9.514  1.00  0.00     0.007 C 
ENDBRANCH  24  25
ENDBRANCH  18  24
ENDBRANCH  15  18
ENDBRANCH  13  14
BRANCH  13  28
ATOM     28  C   UNL     1       3.281   5.005   5.291  1.00  0.00     0.327 C 
ATOM     29  O   UNL     1       3.668   5.808   6.127  1.00  0.00    -0.250 OA
BRANCH  28  30
ATOM     30  O   UNL     1       3.262   5.337   3.984  1.00  0.00    -0.480 OA
ATOM     31  H   UNL     1       2.540   5.996   3.914  1.00  0.00     0.296 HD
ENDBRANCH  28  30
ENDBRANCH  13  28
ENDBRANCH  11  13
ENDBRANCH   8  11
ENDBRANCH   6   7
BRANCH   6  32
ATOM     32  C   UNL     1       3.734  -1.272   3.263  1.00  0.00     0.037 C 
BRANCH  32  33
ATOM     33  C   UNL     1       2.339  -0.957   2.705  1.00  0.00     0.026 C 
BRANCH  33  34
ATOM     34  C   UNL     1       2.375   0.104   1.604  1.00  0.00     0.146 C 
BRANCH  34  35
ATOM     35  N   UNL     1       1.489   1.199   1.978  1.00  0.00    -0.254 NA
ATOM     36  C   UNL     1       2.000   2.351   2.208  1.00  0.00     0.185 C 
ATOM     37  N   UNL     1       1.193   3.368   2.548  1.00  0.00    -0.370 N 
ATOM     38  N   UNL     1       3.290   2.728   2.159  1.00  0.00    -0.370 N 
ATOM     39  H   UNL     1       0.202   3.165   2.595  1.00  0.00     0.159 HD
ATOM     40  H   UNL     1       1.489   4.328   2.573  1.00  0.00     0.159 HD
ATOM     41  H   UNL     1       3.581   3.631   2.497  1.00  0.00     0.159 HD
ATOM     42  H   UNL     1       4.011   2.061   1.932  1.00  0.00     0.159 HD
ENDBRANCH  34  35
ENDBRANCH  33  34
ENDBRANCH  32  33
ENDBRANCH   6  32
ENDBRANCH   4   6
ENDBRANCH   1   2
BRANCH   1  43
ATOM     43  C   UNL     1       8.329  -1.509   6.060  1.00  0.00     0.102 C 
ATOM     44  C   UNL     1       7.757  -0.088   6.195  1.00  0.00     0.020 C 
BRANCH  43  45
ATOM     45  C   UNL     1       9.678  -1.570   5.336  1.00  0.00     0.225 C 
ATOM     46  O   UNL     1       9.908  -0.963   4.295  1.00  0.00    -0.275 OA
ATOM     47  N   UNL     1      10.603  -2.433   5.879  1.00  0.00    -0.342 N 
ATOM     48  H   UNL     1      10.457  -2.803   6.808  1.00  0.00     0.164 HD
BRANCH  47  49
ATOM     49  C   UNL     1      11.949  -2.568   5.314  1.00  0.00     0.192 C 
BRANCH  49  50
ATOM     50  C   UNL     1      12.140  -3.987   4.774  1.00  0.00     0.047 C 
BRANCH  50  51
ATOM     51  C   UNL     1      11.572  -5.052   5.723  1.00  0.00     0.103 C 
BRANCH  51  52
ATOM     52  C   UNL     1      11.765  -6.466   5.179  1.00  0.00     0.226 C 
ATOM     53  O   UNL     1      12.898  -6.861   4.895  1.00  0.00    -0.275 OA
BRANCH  52  54
ATOM     54  N   UNL     1      10.614  -7.273   5.107  1.00  0.00    -0.311 N 
ATOM     55  C   UNL     1       9.406  -6.806   4.413  1.00  0.00     0.153 C 
BRANCH  54  56
ATOM     56  C   UNL     1      10.578  -8.551   5.688  1.00  0.00     0.102 C 
ATOM     57  C   UNL     1      10.518  -9.705   5.004  1.00  0.00     0.043 C 
BRANCH  56  58
ATOM     58  C   UNL     1      10.653  -8.723   7.187  1.00  0.00     0.268 C 
ATOM     59  O   UNL     1       9.724  -8.461   7.939  1.00  0.00    -0.268 OA
ATOM     60  N   UNL     1      11.844  -9.264   7.610  1.00  0.00    -0.339 N 
ATOM     61  H   UNL     1      12.568  -9.443   6.924  1.00  0.00     0.164 HD
BRANCH  60  62
ATOM     62  C   UNL     1      12.104  -9.573   9.015  1.00  0.00     0.168 CG0
ATOM     63  C   UNL     1      12.901  -8.458   9.682  1.00  0.00     0.041 C 
ATOM     64  G   UNL     1      12.854 -10.917   9.119  1.00  0.00     0.000 G0
ENDBRANCH  60  62
ENDBRANCH  56  58
ENDBRANCH  54  56
ENDBRANCH  52  54
ENDBRANCH  51  52
ENDBRANCH  50  51
ENDBRANCH  49  50
BRANCH  49  65
ATOM     65  C   UNL     1      13.035  -2.270   6.359  1.00  0.00     0.326 C 
ATOM     66  O   UNL     1      14.064  -2.911   6.516  1.00  0.00    -0.250 OA
BRANCH  65  67
ATOM     67  O   UNL     1      12.755  -1.238   7.185  1.00  0.00    -0.480 OA
ATOM     68  H   UNL     1      11.836  -0.992   6.945  1.00  0.00     0.296 HD
ENDBRANCH  65  67
ENDBRANCH  49  65
ENDBRANCH  47  49
ENDBRANCH  43  45
ENDBRANCH   1  43
BRANCH   1  69
ATOM     69  C   UNL     1       7.772  -3.404   4.297  1.00  0.00    -0.001 C 
ATOM     70  C   UNL     1       7.494  -3.243   2.992  1.00  0.00     0.001 C 
BRANCH  70  71
ATOM     71  C   UNL     1       7.952  -4.084   1.884  1.00  0.00    -0.055 C 
ATOM     72  C   UNL     1       9.280  -4.287   1.759  1.00  0.00    -0.018 C 
ATOM     73  C   UNL     1       6.909  -4.669   0.969  1.00  0.00     0.044 C 
BRANCH  72  74
ATOM     74  C   UNL     1      10.035  -5.106   0.722  1.00  0.00     0.038 C 
ATOM     75  C   UNL     1      11.296  -5.650   1.405  1.00  0.00     0.015 C 
BRANCH  74  76
ATOM     76  C   UNL     1      10.302  -4.213  -0.525  1.00  0.00     0.128 C 
BRANCH  76  77
ATOM     77  O   UNL     1      11.361  -3.282  -0.245  1.00  0.00    -0.381 OA
ATOM     78  C   UNL     1      12.328  -3.188  -1.282  1.00  0.00     0.195 C 
ENDBRANCH  76  77
BRANCH  76  79
ATOM     79  C   UNL     1      10.535  -5.010  -1.833  1.00  0.00     0.068 C 
BRANCH  79  80
ATOM     80  C   UNL     1       9.334  -5.328  -2.691  1.00  0.00    -0.045 A 
ATOM     81  C   UNL     1       8.033  -5.094  -2.228  1.00  0.00     0.004 A 
ATOM     82  C   UNL     1       9.505  -5.894  -3.964  1.00  0.00     0.004 A 
ATOM     83  C   UNL     1       6.927  -5.404  -3.022  1.00  0.00     0.000 A 
ATOM     84  C   UNL     1       8.398  -6.205  -4.757  1.00  0.00     0.000 A 
ATOM     85  C   UNL     1       7.110  -5.958  -4.287  1.00  0.00     0.000 A 
ENDBRANCH  79  80
ENDBRANCH  76  79
ENDBRANCH  74  76
ENDBRANCH  72  74
ENDBRANCH  70  71
ENDBRANCH   1  69
TORSDOF 17
ENDMDL
MODEL 6
REMARK VINA RESULT:    -6.375      2.568     12.178
REMARK INTER + INTRA:         -26.551
REMARK INTER:                 -18.112
REMARK INTRA:                  -8.439
REMARK UNBOUND:                -7.505
REMARK SMILES C=C1C(=O)N[C@H](C)C(=O)N[C@@H](CC(C)C)C(=O)N[C@@H](C(=O)O)[C@H](C)C(=O)N[C@@H](CCCN=C(N)N)C(=O)N[C@@H](/C=C/C(C)=C/[C@H](C)[C@H](Cc2ccccc2)OC)[C@H](C)C(=O)N[C@@H](C(=O)O)CCC(=O)N1C
REMARK SMILES IDX 39 1 38 2 37 3 36 4 28 6 27 7 25 8 26 9 23 11 24 12 19 13
REMARK SMILES IDX 18 14 16 15 17 16 11 18 10 19 8 20 9 21 12 24 13 25 14 26
REMARK SMILES IDX 15 27 20 28 21 29 22 30 29 32 30 33 31 34 32 35 33 36 34 37
REMARK SMILES IDX 35 38 57 43 58 44 59 45 60 46 61 47 62 49 66 50 67 51 68 52
REMARK SMILES IDX 69 53 70 54 71 55 2 56 1 57 3 58 4 59 5 60 6 62 7 63 63 65
REMARK SMILES IDX 64 66 65 67 40 69 41 70 42 71 44 72 43 73 45 74 46 75 47 76
REMARK SMILES IDX 55 77 56 78 48 79 49 80 50 81 54 82 51 83 53 84 52 85
REMARK H PARENT 38 5 27 10 18 17 10 22 22 31 34 39 34 40 35 41 35 42 61 48
REMARK H PARENT 5 61 65 68
REMARK Flexibility Score:  369.900
ROOT
ATOM      1  C   UNL     1       7.976  -1.499   3.422  1.00  0.00     0.117 C 
ENDROOT
BRANCH   1   2
ATOM      2  N   UNL     1       6.631  -1.115   3.852  1.00  0.00    -0.347 N 
ATOM      3  O   UNL     1       7.080  -0.852   6.088  1.00  0.00    -0.273 OA
ATOM      4  C   UNL     1       6.311  -0.733   5.140  1.00  0.00     0.243 C 
ATOM      5  H   UNL     1       5.888  -1.073   3.172  1.00  0.00     0.164 HD
BRANCH   4   6
ATOM      6  C   UNL     1       4.835  -0.292   5.311  1.00  0.00     0.171 C 
BRANCH   6   7
ATOM      7  N   UNL     1       4.639   1.067   4.781  1.00  0.00    -0.344 N 
ATOM      8  C   UNL     1       4.584   2.151   5.630  1.00  0.00     0.226 C 
ATOM      9  O   UNL     1       4.669   2.042   6.847  1.00  0.00    -0.275 OA
ATOM     10  H   UNL     1       4.497   1.190   3.786  1.00  0.00     0.164 HD
BRANCH   8  11
ATOM     11  C   UNL     1       4.433   3.489   4.927  1.00  0.00     0.109 C 
ATOM     12  C   UNL     1       4.654   3.321   3.424  1.00  0.00     0.021 C 
BRANCH  11  13
ATOM     13  C   UNL     1       3.088   4.134   5.317  1.00  0.00     0.204 C 
BRANCH  13  14
ATOM     14  N   UNL     1       2.248   3.226   6.103  1.00  0.00    -0.340 N 
ATOM     15  C   UNL     1       0.903   3.051   5.860  1.00  0.00     0.243 C 
ATOM     16  O   UNL     1       0.324   3.602   4.925  1.00  0.00    -0.273 OA
ATOM     17  H   UNL     1       2.627   2.859   6.980  1.00  0.00     0.164 HD
BRANCH  15  18
ATOM     18  C   UNL     1       0.182   2.210   6.942  1.00  0.00     0.171 C 
BRANCH  18  19
ATOM     19  N   UNL     1      -0.429   3.157   7.871  1.00  0.00    -0.343 N 
ATOM     20  C   UNL     1       0.301   3.776   8.867  1.00  0.00     0.242 CG0
ATOM     21  O   UNL     1       1.465   3.461   9.102  1.00  0.00    -0.273 OA
ATOM     22  H   UNL     1      -1.418   3.365   7.791  1.00  0.00     0.164 HD
ATOM     23  G   UNL     1      -0.496   4.802   9.698  1.00  0.00     0.000 G0
ENDBRANCH  18  19
BRANCH  18  24
ATOM     24  C   UNL     1      -0.867   1.291   6.304  1.00  0.00     0.038 C 
BRANCH  24  25
ATOM     25  C   UNL     1      -2.214   1.233   7.054  1.00  0.00    -0.015 C 
ATOM     26  C   UNL     1      -2.227   0.169   8.152  1.00  0.00     0.007 C 
ATOM     27  C   UNL     1      -3.346   0.961   6.060  1.00  0.00     0.007 C 
ENDBRANCH  24  25
ENDBRANCH  18  24
ENDBRANCH  15  18
ENDBRANCH  13  14
BRANCH  13  28
ATOM     28  C   UNL     1       3.250   5.422   6.130  1.00  0.00     0.327 C 
ATOM     29  O   UNL     1       3.524   6.527   5.687  1.00  0.00    -0.250 OA
BRANCH  28  30
ATOM     30  O   UNL     1       3.174   5.219   7.461  1.00  0.00    -0.480 OA
ATOM     31  H   UNL     1       2.267   4.875   7.601  1.00  0.00     0.296 HD
ENDBRANCH  28  30
ENDBRANCH  13  28
ENDBRANCH  11  13
ENDBRANCH   8  11
ENDBRANCH   6   7
BRANCH   6  32
ATOM     32  C   UNL     1       3.924  -1.295   4.595  1.00  0.00     0.037 C 
BRANCH  32  33
ATOM     33  C   UNL     1       2.560  -0.688   4.239  1.00  0.00     0.026 C 
BRANCH  33  34
ATOM     34  C   UNL     1       2.354  -0.557   2.729  1.00  0.00     0.146 C 
BRANCH  34  35
ATOM     35  N   UNL     1       2.402   0.853   2.369  1.00  0.00    -0.254 NA
ATOM     36  C   UNL     1       1.323   1.542   2.436  1.00  0.00     0.185 C 
ATOM     37  N   UNL     1       1.357   2.843   2.112  1.00  0.00    -0.370 N 
ATOM     38  N   UNL     1       0.091   1.148   2.803  1.00  0.00    -0.370 N 
ATOM     39  H   UNL     1       2.255   3.219   1.834  1.00  0.00     0.159 HD
ATOM     40  H   UNL     1       0.606   3.484   2.303  1.00  0.00     0.159 HD
ATOM     41  H   UNL     1      -0.706   1.750   2.681  1.00  0.00     0.159 HD
ATOM     42  H   UNL     1      -0.086   0.189   3.059  1.00  0.00     0.159 HD
ENDBRANCH  34  35
ENDBRANCH  33  34
ENDBRANCH  32  33
ENDBRANCH   6  32
ENDBRANCH   4   6
ENDBRANCH   1   2
BRANCH   1  43
ATOM     43  C   UNL     1       8.821  -0.207   3.228  1.00  0.00     0.102 C 
ATOM     44  C   UNL     1       8.974   0.208   1.755  1.00  0.00     0.020 C 
BRANCH  43  45
ATOM     45  C   UNL     1      10.148  -0.298   3.988  1.00  0.00     0.225 C 
ATOM     46  O   UNL     1      11.109   0.428   3.750  1.00  0.00    -0.275 OA
ATOM     47  N   UNL     1      10.235  -1.319   4.907  1.00  0.00    -0.342 N 
ATOM     48  H   UNL     1       9.397  -1.803   5.198  1.00  0.00     0.164 HD
BRANCH  47  49
ATOM     49  C   UNL     1      11.431  -1.505   5.734  1.00  0.00     0.192 C 
BRANCH  49  50
ATOM     50  C   UNL     1      11.634  -2.995   6.017  1.00  0.00     0.047 C 
BRANCH  50  51
ATOM     51  C   UNL     1      10.811  -3.884   5.074  1.00  0.00     0.103 C 
BRANCH  51  52
ATOM     52  C   UNL     1      11.698  -4.727   4.160  1.00  0.00     0.226 C 
ATOM     53  O   UNL     1      12.898  -4.464   4.063  1.00  0.00    -0.275 OA
BRANCH  52  54
ATOM     54  N   UNL     1      11.084  -5.824   3.529  1.00  0.00    -0.311 N 
ATOM     55  C   UNL     1       9.748  -6.281   3.937  1.00  0.00     0.153 C 
BRANCH  54  56
ATOM     56  C   UNL     1      11.718  -6.519   2.486  1.00  0.00     0.102 C 
ATOM     57  C   UNL     1      11.628  -6.201   1.184  1.00  0.00     0.043 C 
BRANCH  56  58
ATOM     58  C   UNL     1      12.622  -7.695   2.774  1.00  0.00     0.268 C 
ATOM     59  O   UNL     1      13.018  -7.975   3.898  1.00  0.00    -0.268 OA
ATOM     60  N   UNL     1      12.896  -8.451   1.660  1.00  0.00    -0.339 N 
ATOM     61  H   UNL     1      12.539  -8.145   0.763  1.00  0.00     0.164 HD
BRANCH  60  62
ATOM     62  C   UNL     1      13.701  -9.671   1.726  1.00  0.00     0.168 CG0
ATOM     63  C   UNL     1      13.695 -10.402   0.389  1.00  0.00     0.041 C 
ATOM     64  G   UNL     1      13.166 -10.583   2.849  1.00  0.00     0.000 G0
ENDBRANCH  60  62
ENDBRANCH  56  58
ENDBRANCH  54  56
ENDBRANCH  52  54
ENDBRANCH  51  52
ENDBRANCH  50  51
ENDBRANCH  49  50
BRANCH  49  65
ATOM     65  C   UNL     1      11.323  -0.745   7.066  1.00  0.00     0.326 C 
ATOM     66  O   UNL     1      10.289  -0.322   7.561  1.00  0.00    -0.250 OA
BRANCH  65  67
ATOM     67  O   UNL     1      12.506  -0.501   7.673  1.00  0.00    -0.480 OA
ATOM     68  H   UNL     1      12.930  -1.385   7.715  1.00  0.00     0.296 HD
ENDBRANCH  65  67
ENDBRANCH  49  65
ENDBRANCH  47  49
ENDBRANCH  43  45
ENDBRANCH   1  43
BRANCH   1  69
ATOM     69  C   UNL     1       7.793  -2.440   2.245  1.00  0.00    -0.001 C 
ATOM     70  C   UNL     1       8.673  -3.340   1.774  1.00  0.00     0.001 C 
BRANCH  70  71
ATOM     71  C   UNL     1       8.476  -4.258   0.650  1.00  0.00    -0.055 C 
ATOM     72  C   UNL     1       9.107  -3.975  -0.509  1.00  0.00    -0.018 C 
ATOM     73  C   UNL     1       7.591  -5.457   0.869  1.00  0.00     0.044 C 
BRANCH  72  74
ATOM     74  C   UNL     1       9.092  -4.738  -1.826  1.00  0.00     0.038 C 
ATOM     75  C   UNL     1      10.552  -4.955  -2.241  1.00  0.00     0.015 C 
BRANCH  74  76
ATOM     76  C   UNL     1       8.231  -3.947  -2.854  1.00  0.00     0.128 C 
BRANCH  76  77
ATOM     77  O   UNL     1       7.023  -4.670  -3.143  1.00  0.00    -0.381 OA
ATOM     78  C   UNL     1       7.103  -6.058  -2.845  1.00  0.00     0.195 C 
ENDBRANCH  76  77
BRANCH  76  79
ATOM     79  C   UNL     1       7.966  -2.474  -2.451  1.00  0.00     0.068 C 
BRANCH  79  80
ATOM     80  C   UNL     1       6.539  -2.061  -2.181  1.00  0.00    -0.045 A 
ATOM     81  C   UNL     1       5.750  -1.488  -3.188  1.00  0.00     0.004 A 
ATOM     82  C   UNL     1       5.988  -2.219  -0.901  1.00  0.00     0.004 A 
ATOM     83  C   UNL     1       4.436  -1.096  -2.925  1.00  0.00     0.000 A 
ATOM     84  C   UNL     1       4.674  -1.825  -0.639  1.00  0.00     0.000 A 
ATOM     85  C   UNL     1       3.898  -1.265  -1.652  1.00  0.00     0.000 A 
ENDBRANCH  79  80
ENDBRANCH  76  79
ENDBRANCH  74  76
ENDBRANCH  72  74
ENDBRANCH  70  71
ENDBRANCH   1  69
TORSDOF 17
ENDMDL
MODEL 7
REMARK VINA RESULT:    -6.371      2.532      4.285
REMARK INTER + INTRA:         -26.540
REMARK INTER:                 -18.436
REMARK INTRA:                  -8.105
REMARK UNBOUND:                -7.505
REMARK SMILES C=C1C(=O)N[C@H](C)C(=O)N[C@@H](CC(C)C)C(=O)N[C@@H](C(=O)O)[C@H](C)C(=O)N[C@@H](CCCN=C(N)N)C(=O)N[C@@H](/C=C/C(C)=C/[C@H](C)[C@H](Cc2ccccc2)OC)[C@H](C)C(=O)N[C@@H](C(=O)O)CCC(=O)N1C
REMARK SMILES IDX 39 1 38 2 37 3 36 4 28 6 27 7 25 8 26 9 23 11 24 12 19 13
REMARK SMILES IDX 18 14 16 15 17 16 11 18 10 19 8 20 9 21 12 24 13 25 14 26
REMARK SMILES IDX 15 27 20 28 21 29 22 30 29 32 30 33 31 34 32 35 33 36 34 37
REMARK SMILES IDX 35 38 57 43 58 44 59 45 60 46 61 47 62 49 66 50 67 51 68 52
REMARK SMILES IDX 69 53 70 54 71 55 2 56 1 57 3 58 4 59 5 60 6 62 7 63 63 65
REMARK SMILES IDX 64 66 65 67 40 69 41 70 42 71 44 72 43 73 45 74 46 75 47 76
REMARK SMILES IDX 55 77 56 78 48 79 49 80 50 81 54 82 51 83 53 84 52 85
REMARK H PARENT 38 5 27 10 18 17 10 22 22 31 34 39 34 40 35 41 35 42 61 48
REMARK H PARENT 5 61 65 68
REMARK Flexibility Score:  369.900
ROOT
ATOM      1  C   UNL     1       7.432  -1.553   1.429  1.00  0.00     0.117 C 
ENDROOT
BRANCH   1   2
ATOM      2  N   UNL     1       7.217  -2.497   2.526  1.00  0.00    -0.347 N 
ATOM      3  O   UNL     1       9.386  -2.613   3.270  1.00  0.00    -0.273 OA
ATOM      4  C   UNL     1       8.198  -2.882   3.419  1.00  0.00     0.243 C 
ATOM      5  H   UNL     1       6.291  -2.863   2.689  1.00  0.00     0.164 HD
BRANCH   4   6
ATOM      6  C   UNL     1       7.687  -3.824   4.539  1.00  0.00     0.171 C 
BRANCH   6   7
ATOM      7  N   UNL     1       8.742  -4.054   5.538  1.00  0.00    -0.344 N 
ATOM      8  C   UNL     1       9.248  -5.319   5.748  1.00  0.00     0.226 C 
ATOM      9  O   UNL     1       8.839  -6.302   5.142  1.00  0.00    -0.275 OA
ATOM     10  H   UNL     1       9.058  -3.278   6.106  1.00  0.00     0.164 HD
BRANCH   8  11
ATOM     11  C   UNL     1      10.368  -5.383   6.772  1.00  0.00     0.109 C 
ATOM     12  C   UNL     1      10.253  -6.665   7.597  1.00  0.00     0.021 C 
BRANCH  11  13
ATOM     13  C   UNL     1      11.727  -5.182   6.072  1.00  0.00     0.204 C 
BRANCH  13  14
ATOM     14  N   UNL     1      11.692  -5.605   4.668  1.00  0.00    -0.340 N 
ATOM     15  C   UNL     1      12.401  -6.687   4.194  1.00  0.00     0.243 C 
ATOM     16  O   UNL     1      13.067  -7.413   4.930  1.00  0.00    -0.273 OA
ATOM     17  H   UNL     1      11.285  -4.962   3.983  1.00  0.00     0.164 HD
BRANCH  15  18
ATOM     18  C   UNL     1      12.376  -6.815   2.651  1.00  0.00     0.171 C 
BRANCH  18  19
ATOM     19  N   UNL     1      12.481  -8.241   2.348  1.00  0.00    -0.343 N 
ATOM     20  C   UNL     1      13.651  -8.801   1.871  1.00  0.00     0.242 CG0
ATOM     21  O   UNL     1      14.614  -8.107   1.554  1.00  0.00    -0.273 OA
ATOM     22  H   UNL     1      11.674  -8.839   2.484  1.00  0.00     0.164 HD
ATOM     23  G   UNL     1      13.594 -10.331   1.685  1.00  0.00     0.000 G0
ENDBRANCH  18  19
BRANCH  18  24
ATOM     24  C   UNL     1      11.088  -6.212   2.078  1.00  0.00     0.038 C 
BRANCH  24  25
ATOM     25  C   UNL     1      11.223  -5.643   0.650  1.00  0.00    -0.015 C 
ATOM     26  C   UNL     1      12.660  -5.245   0.312  1.00  0.00     0.007 C 
ATOM     27  C   UNL     1      10.302  -4.430   0.490  1.00  0.00     0.007 C 
ENDBRANCH  24  25
ENDBRANCH  18  24
ENDBRANCH  15  18
ENDBRANCH  13  14
BRANCH  13  28
ATOM     28  C   UNL     1      12.210  -3.729   6.097  1.00  0.00     0.327 C 
ATOM     29  O   UNL     1      11.714  -2.792   5.489  1.00  0.00    -0.250 OA
BRANCH  28  30
ATOM     30  O   UNL     1      13.355  -3.564   6.789  1.00  0.00    -0.480 OA
ATOM     31  H   UNL     1      13.124  -2.916   7.487  1.00  0.00     0.296 HD
ENDBRANCH  28  30
ENDBRANCH  13  28
ENDBRANCH  11  13
ENDBRANCH   8  11
ENDBRANCH   6   7
BRANCH   6  32
ATOM     32  C   UNL     1       6.444  -3.207   5.187  1.00  0.00     0.037 C 
BRANCH  32  33
ATOM     33  C   UNL     1       6.767  -2.519   6.521  1.00  0.00     0.026 C 
BRANCH  33  34
ATOM     34  C   UNL     1       7.188  -1.060   6.341  1.00  0.00     0.146 C 
BRANCH  34  35
ATOM     35  N   UNL     1       8.557  -0.904   6.812  1.00  0.00    -0.254 NA
ATOM     36  C   UNL     1       9.410  -0.334   6.044  1.00  0.00     0.185 C 
ATOM     37  N   UNL     1      10.673  -0.180   6.470  1.00  0.00    -0.370 N 
ATOM     38  N   UNL     1       9.232   0.166   4.809  1.00  0.00    -0.370 N 
ATOM     39  H   UNL     1      10.884  -0.523   7.399  1.00  0.00     0.159 HD
ATOM     40  H   UNL     1      11.349   0.403   6.008  1.00  0.00     0.159 HD
ATOM     41  H   UNL     1      10.015   0.466   4.251  1.00  0.00     0.159 HD
ATOM     42  H   UNL     1       8.334   0.106   4.355  1.00  0.00     0.159 HD
ENDBRANCH  34  35
ENDBRANCH  33  34
ENDBRANCH  32  33
ENDBRANCH   6  32
ENDBRANCH   4   6
ENDBRANCH   1   2
BRANCH   1  43
ATOM     43  C   UNL     1       6.656  -0.242   1.745  1.00  0.00     0.102 C 
ATOM     44  C   UNL     1       6.046  -0.216   3.156  1.00  0.00     0.020 C 
BRANCH  43  45
ATOM     45  C   UNL     1       5.659   0.089   0.630  1.00  0.00     0.225 C 
ATOM     46  O   UNL     1       6.002   0.426  -0.499  1.00  0.00    -0.275 OA
ATOM     47  N   UNL     1       4.333   0.076   0.999  1.00  0.00    -0.342 N 
ATOM     48  H   UNL     1       4.062  -0.346   1.876  1.00  0.00     0.164 HD
BRANCH  47  49
ATOM     49  C   UNL     1       3.265   0.338   0.029  1.00  0.00     0.192 C 
BRANCH  49  50
ATOM     50  C   UNL     1       2.860   1.812   0.096  1.00  0.00     0.047 C 
BRANCH  50  51
ATOM     51  C   UNL     1       3.233   2.458   1.437  1.00  0.00     0.103 C 
BRANCH  51  52
ATOM     52  C   UNL     1       2.001   2.775   2.284  1.00  0.00     0.226 C 
ATOM     53  O   UNL     1       0.881   2.730   1.771  1.00  0.00    -0.275 OA
BRANCH  52  54
ATOM     54  N   UNL     1       2.228   3.030   3.649  1.00  0.00    -0.311 N 
ATOM     55  C   UNL     1       2.833   4.293   4.092  1.00  0.00     0.153 C 
BRANCH  54  56
ATOM     56  C   UNL     1       1.879   2.094   4.637  1.00  0.00     0.102 C 
ATOM     57  C   UNL     1       2.753   1.339   5.322  1.00  0.00     0.043 C 
BRANCH  56  58
ATOM     58  C   UNL     1       0.438   1.896   5.043  1.00  0.00     0.268 C 
ATOM     59  O   UNL     1      -0.045   0.798   5.287  1.00  0.00    -0.268 OA
ATOM     60  N   UNL     1      -0.253   3.077   5.175  1.00  0.00    -0.339 N 
ATOM     61  H   UNL     1       0.217   3.945   4.944  1.00  0.00     0.164 HD
BRANCH  60  62
ATOM     62  C   UNL     1      -1.645   3.120   5.621  1.00  0.00     0.168 CG0
ATOM     63  C   UNL     1      -2.598   3.162   4.433  1.00  0.00     0.041 C 
ATOM     64  G   UNL     1      -1.858   4.343   6.535  1.00  0.00     0.000 G0
ENDBRANCH  60  62
ENDBRANCH  56  58
ENDBRANCH  54  56
ENDBRANCH  52  54
ENDBRANCH  51  52
ENDBRANCH  50  51
ENDBRANCH  49  50
BRANCH  49  65
ATOM     65  C   UNL     1       2.033  -0.542   0.292  1.00  0.00     0.326 C 
ATOM     66  O   UNL     1       2.044  -1.756   0.436  1.00  0.00    -0.250 OA
BRANCH  65  67
ATOM     67  O   UNL     1       0.857   0.124   0.300  1.00  0.00    -0.480 OA
ATOM     68  H   UNL     1       0.603   0.157  -0.648  1.00  0.00     0.296 HD
ENDBRANCH  65  67
ENDBRANCH  49  65
ENDBRANCH  47  49
ENDBRANCH  43  45
ENDBRANCH   1  43
BRANCH   1  69
ATOM     69  C   UNL     1       7.110  -2.307   0.152  1.00  0.00    -0.001 C 
ATOM     70  C   UNL     1       6.748  -3.597   0.033  1.00  0.00     0.001 C 
BRANCH  70  71
ATOM     71  C   UNL     1       6.419  -4.308  -1.204  1.00  0.00    -0.055 C 
ATOM     72  C   UNL     1       7.441  -4.780  -1.947  1.00  0.00    -0.018 C 
ATOM     73  C   UNL     1       4.963  -4.469  -1.554  1.00  0.00     0.044 C 
BRANCH  72  74
ATOM     74  C   UNL     1       7.402  -5.550  -3.260  1.00  0.00     0.038 C 
ATOM     75  C   UNL     1       6.877  -6.956  -2.945  1.00  0.00     0.015 C 
BRANCH  74  76
ATOM     76  C   UNL     1       8.819  -5.511  -3.906  1.00  0.00     0.128 C 
BRANCH  76  77
ATOM     77  O   UNL     1       8.739  -4.959  -5.231  1.00  0.00    -0.381 OA
ATOM     78  C   UNL     1       8.451  -3.567  -5.253  1.00  0.00     0.195 C 
ENDBRANCH  76  77
BRANCH  76  79
ATOM     79  C   UNL     1       9.891  -4.815  -3.030  1.00  0.00     0.068 C 
BRANCH  79  80
ATOM     80  C   UNL     1      11.327  -5.249  -3.193  1.00  0.00    -0.045 A 
ATOM     81  C   UNL     1      11.716  -6.571  -2.939  1.00  0.00     0.004 A 
ATOM     82  C   UNL     1      12.307  -4.321  -3.578  1.00  0.00     0.004 A 
ATOM     83  C   UNL     1      13.050  -6.961  -3.078  1.00  0.00     0.000 A 
ATOM     84  C   UNL     1      13.641  -4.711  -3.717  1.00  0.00     0.000 A 
ATOM     85  C   UNL     1      14.011  -6.031  -3.469  1.00  0.00     0.000 A 
ENDBRANCH  79  80
ENDBRANCH  76  79
ENDBRANCH  74  76
ENDBRANCH  72  74
ENDBRANCH  70  71
ENDBRANCH   1  69
TORSDOF 17
ENDMDL
MODEL 8
REMARK VINA RESULT:    -6.334      2.366      4.316
REMARK INTER + INTRA:         -26.428
REMARK INTER:                 -19.213
REMARK INTRA:                  -7.216
REMARK UNBOUND:                -7.505
REMARK SMILES C=C1C(=O)N[C@H](C)C(=O)N[C@@H](CC(C)C)C(=O)N[C@@H](C(=O)O)[C@H](C)C(=O)N[C@@H](CCCN=C(N)N)C(=O)N[C@@H](/C=C/C(C)=C/[C@H](C)[C@H](Cc2ccccc2)OC)[C@H](C)C(=O)N[C@@H](C(=O)O)CCC(=O)N1C
REMARK SMILES IDX 39 1 38 2 37 3 36 4 28 6 27 7 25 8 26 9 23 11 24 12 19 13
REMARK SMILES IDX 18 14 16 15 17 16 11 18 10 19 8 20 9 21 12 24 13 25 14 26
REMARK SMILES IDX 15 27 20 28 21 29 22 30 29 32 30 33 31 34 32 35 33 36 34 37
REMARK SMILES IDX 35 38 57 43 58 44 59 45 60 46 61 47 62 49 66 50 67 51 68 52
REMARK SMILES IDX 69 53 70 54 71 55 2 56 1 57 3 58 4 59 5 60 6 62 7 63 63 65
REMARK SMILES IDX 64 66 65 67 40 69 41 70 42 71 44 72 43 73 45 74 46 75 47 76
REMARK SMILES IDX 55 77 56 78 48 79 49 80 50 81 54 82 51 83 53 84 52 85
REMARK H PARENT 38 5 27 10 18 17 10 22 22 31 34 39 34 40 35 41 35 42 61 48
REMARK H PARENT 5 61 65 68
REMARK Flexibility Score:  369.900
ROOT
ATOM      1  C   UNL     1       7.369  -0.900   4.506  1.00  0.00     0.117 C 
ENDROOT
BRANCH   1   2
ATOM      2  N   UNL     1       8.417  -1.861   4.850  1.00  0.00    -0.347 N 
ATOM      3  O   UNL     1       8.887  -1.072   6.954  1.00  0.00    -0.273 OA
ATOM      4  C   UNL     1       9.030  -1.927   6.086  1.00  0.00     0.243 C 
ATOM      5  H   UNL     1       8.688  -2.559   4.174  1.00  0.00     0.164 HD
BRANCH   4   6
ATOM      6  C   UNL     1      10.044  -3.092   6.217  1.00  0.00     0.171 C 
BRANCH   6   7
ATOM      7  N   UNL     1       9.340  -4.383   6.279  1.00  0.00    -0.344 N 
ATOM      8  C   UNL     1       9.911  -5.465   6.912  1.00  0.00     0.226 C 
ATOM      9  O   UNL     1      11.022  -5.419   7.426  1.00  0.00    -0.275 OA
ATOM     10  H   UNL     1       8.449  -4.479   5.807  1.00  0.00     0.164 HD
BRANCH   8  11
ATOM     11  C   UNL     1       9.037  -6.707   6.938  1.00  0.00     0.109 C 
ATOM     12  C   UNL     1       7.678  -6.381   7.557  1.00  0.00     0.021 C 
BRANCH  11  13
ATOM     13  C   UNL     1       8.976  -7.332   5.530  1.00  0.00     0.204 C 
BRANCH  13  14
ATOM     14  N   UNL     1      10.228  -7.147   4.789  1.00  0.00    -0.340 N 
ATOM     15  C   UNL     1      10.272  -6.634   3.511  1.00  0.00     0.243 C 
ATOM     16  O   UNL     1       9.268  -6.238   2.923  1.00  0.00    -0.273 OA
ATOM     17  H   UNL     1      11.073  -7.592   5.156  1.00  0.00     0.164 HD
BRANCH  15  18
ATOM     18  C   UNL     1      11.672  -6.726   2.856  1.00  0.00     0.171 C 
BRANCH  18  19
ATOM     19  N   UNL     1      11.992  -8.148   2.749  1.00  0.00    -0.343 N 
ATOM     20  C   UNL     1      12.940  -8.745   3.557  1.00  0.00     0.242 CG0
ATOM     21  O   UNL     1      13.651  -8.085   4.310  1.00  0.00    -0.273 OA
ATOM     22  H   UNL     1      11.511  -8.715   2.059  1.00  0.00     0.164 HD
ATOM     23  G   UNL     1      13.083 -10.268   3.353  1.00  0.00     0.000 G0
ENDBRANCH  18  19
BRANCH  18  24
ATOM     24  C   UNL     1      11.673  -6.045   1.482  1.00  0.00     0.038 C 
BRANCH  24  25
ATOM     25  C   UNL     1      12.853  -5.080   1.242  1.00  0.00    -0.015 C 
ATOM     26  C   UNL     1      12.438  -3.612   1.342  1.00  0.00     0.007 C 
ATOM     27  C   UNL     1      13.467  -5.349  -0.134  1.00  0.00     0.007 C 
ENDBRANCH  24  25
ENDBRANCH  18  24
ENDBRANCH  15  18
ENDBRANCH  13  14
BRANCH  13  28
ATOM     28  C   UNL     1       8.677  -8.834   5.548  1.00  0.00     0.327 C 
ATOM     29  O   UNL     1       7.570  -9.350   5.562  1.00  0.00    -0.250 OA
BRANCH  28  30
ATOM     30  O   UNL     1       9.785  -9.592   5.669  1.00  0.00    -0.480 OA
ATOM     31  H   UNL     1       9.633 -10.341   5.055  1.00  0.00     0.296 HD
ENDBRANCH  28  30
ENDBRANCH  13  28
ENDBRANCH  11  13
ENDBRANCH   8  11
ENDBRANCH   6   7
BRANCH   6  32
ATOM     32  C   UNL     1      11.012  -3.053   5.029  1.00  0.00     0.037 C 
BRANCH  32  33
ATOM     33  C   UNL     1      12.478  -2.985   5.478  1.00  0.00     0.026 C 
BRANCH  33  34
ATOM     34  C   UNL     1      13.116  -1.625   5.189  1.00  0.00     0.146 C 
BRANCH  34  35
ATOM     35  N   UNL     1      12.174  -0.577   5.558  1.00  0.00    -0.254 NA
ATOM     36  C   UNL     1      12.153  -0.170   6.773  1.00  0.00     0.185 C 
ATOM     37  N   UNL     1      11.293   0.799   7.123  1.00  0.00    -0.370 N 
ATOM     38  N   UNL     1      12.897  -0.581   7.815  1.00  0.00    -0.370 N 
ATOM     39  H   UNL     1      10.703   1.169   6.389  1.00  0.00     0.159 HD
ATOM     40  H   UNL     1      11.334   1.288   8.000  1.00  0.00     0.159 HD
ATOM     41  H   UNL     1      12.690  -0.282   8.753  1.00  0.00     0.159 HD
ATOM     42  H   UNL     1      13.576  -1.318   7.701  1.00  0.00     0.159 HD
ENDBRANCH  34  35
ENDBRANCH  33  34
ENDBRANCH  32  33
ENDBRANCH   6  32
ENDBRANCH   4   6
ENDBRANCH   1   2
BRANCH   1  43
ATOM     43  C   UNL     1       6.175  -1.097   5.485  1.00  0.00     0.102 C 
ATOM     44  C   UNL     1       5.094  -2.050   4.948  1.00  0.00     0.020 C 
BRANCH  43  45
ATOM     45  C   UNL     1       5.631   0.251   5.966  1.00  0.00     0.225 C 
ATOM     46  O   UNL     1       6.196   0.939   6.812  1.00  0.00    -0.275 OA
ATOM     47  N   UNL     1       4.404   0.611   5.457  1.00  0.00    -0.342 N 
ATOM     48  H   UNL     1       4.029   0.117   4.659  1.00  0.00     0.164 HD
BRANCH  47  49
ATOM     49  C   UNL     1       3.777   1.890   5.802  1.00  0.00     0.192 C 
BRANCH  49  50
ATOM     50  C   UNL     1       2.256   1.767   5.680  1.00  0.00     0.047 C 
BRANCH  50  51
ATOM     51  C   UNL     1       1.518   2.861   6.464  1.00  0.00     0.103 C 
BRANCH  51  52
ATOM     52  C   UNL     1       0.359   2.296   7.283  1.00  0.00     0.226 C 
ATOM     53  O   UNL     1       0.522   2.045   8.479  1.00  0.00    -0.275 OA
BRANCH  52  54
ATOM     54  N   UNL     1      -0.874   2.166   6.618  1.00  0.00    -0.311 N 
ATOM     55  C   UNL     1      -1.415   0.843   6.279  1.00  0.00     0.153 C 
BRANCH  54  56
ATOM     56  C   UNL     1      -1.635   3.292   6.259  1.00  0.00     0.102 C 
ATOM     57  C   UNL     1      -2.104   3.541   5.026  1.00  0.00     0.043 C 
BRANCH  56  58
ATOM     58  C   UNL     1      -2.032   4.320   7.292  1.00  0.00     0.268 C 
ATOM     59  O   UNL     1      -2.856   4.103   8.170  1.00  0.00    -0.268 OA
ATOM     60  N   UNL     1      -1.327   5.495   7.184  1.00  0.00    -0.339 N 
ATOM     61  H   UNL     1      -0.668   5.599   6.421  1.00  0.00     0.164 HD
BRANCH  60  62
ATOM     62  C   UNL     1      -1.508   6.602   8.121  1.00  0.00     0.168 CG0
ATOM     63  C   UNL     1      -2.541   7.595   7.602  1.00  0.00     0.041 C 
ATOM     64  G   UNL     1      -0.155   7.300   8.366  1.00  0.00     0.000 G0
ENDBRANCH  60  62
ENDBRANCH  56  58
ENDBRANCH  54  56
ENDBRANCH  52  54
ENDBRANCH  51  52
ENDBRANCH  50  51
ENDBRANCH  49  50
BRANCH  49  65
ATOM     65  C   UNL     1       4.270   3.027   4.892  1.00  0.00     0.326 C 
ATOM     66  O   UNL     1       3.757   3.364   3.835  1.00  0.00    -0.250 OA
BRANCH  65  67
ATOM     67  O   UNL     1       5.400   3.636   5.314  1.00  0.00    -0.480 OA
ATOM     68  H   UNL     1       6.063   3.390   4.633  1.00  0.00     0.296 HD
ENDBRANCH  65  67
ENDBRANCH  49  65
ENDBRANCH  47  49
ENDBRANCH  43  45
ENDBRANCH   1  43
BRANCH   1  69
ATOM     69  C   UNL     1       7.127  -1.051   3.015  1.00  0.00    -0.001 C 
ATOM     70  C   UNL     1       7.237  -2.171   2.279  1.00  0.00     0.001 C 
BRANCH  70  71
ATOM     71  C   UNL     1       6.980  -2.310   0.844  1.00  0.00    -0.055 C 
ATOM     72  C   UNL     1       6.522  -3.499   0.400  1.00  0.00    -0.018 C 
ATOM     73  C   UNL     1       7.237  -1.113  -0.034  1.00  0.00     0.044 C 
BRANCH  72  74
ATOM     74  C   UNL     1       6.169  -3.927  -1.017  1.00  0.00     0.038 C 
ATOM     75  C   UNL     1       4.646  -4.103  -1.071  1.00  0.00     0.015 C 
BRANCH  74  76
ATOM     76  C   UNL     1       6.987  -5.204  -1.373  1.00  0.00     0.128 C 
BRANCH  76  77
ATOM     77  O   UNL     1       7.027  -5.378  -2.799  1.00  0.00    -0.381 OA
ATOM     78  C   UNL     1       6.917  -6.734  -3.212  1.00  0.00     0.195 C 
ENDBRANCH  76  77
BRANCH  76  79
ATOM     79  C   UNL     1       8.392  -5.252  -0.722  1.00  0.00     0.068 C 
BRANCH  79  80
ATOM     80  C   UNL     1       9.550  -4.668  -1.495  1.00  0.00    -0.045 A 
ATOM     81  C   UNL     1      10.304  -5.458  -2.372  1.00  0.00     0.004 A 
ATOM     82  C   UNL     1       9.907  -3.322  -1.324  1.00  0.00     0.004 A 
ATOM     83  C   UNL     1      11.383  -4.914  -3.073  1.00  0.00     0.000 A 
ATOM     84  C   UNL     1      10.985  -2.778  -2.025  1.00  0.00     0.000 A 
ATOM     85  C   UNL     1      11.722  -3.574  -2.900  1.00  0.00     0.000 A 
ENDBRANCH  79  80
ENDBRANCH  76  79
ENDBRANCH  74  76
ENDBRANCH  72  74
ENDBRANCH  70  71
ENDBRANCH   1  69
TORSDOF 17
ENDMDL
MODEL 9
REMARK VINA RESULT:    -6.327      3.016      4.690
REMARK INTER + INTRA:         -26.409
REMARK INTER:                 -19.497
REMARK INTRA:                  -6.911
REMARK UNBOUND:                -7.505
REMARK SMILES C=C1C(=O)N[C@H](C)C(=O)N[C@@H](CC(C)C)C(=O)N[C@@H](C(=O)O)[C@H](C)C(=O)N[C@@H](CCCN=C(N)N)C(=O)N[C@@H](/C=C/C(C)=C/[C@H](C)[C@H](Cc2ccccc2)OC)[C@H](C)C(=O)N[C@@H](C(=O)O)CCC(=O)N1C
REMARK SMILES IDX 39 1 38 2 37 3 36 4 28 6 27 7 25 8 26 9 23 11 24 12 19 13
REMARK SMILES IDX 18 14 16 15 17 16 11 18 10 19 8 20 9 21 12 24 13 25 14 26
REMARK SMILES IDX 15 27 20 28 21 29 22 30 29 32 30 33 31 34 32 35 33 36 34 37
REMARK SMILES IDX 35 38 57 43 58 44 59 45 60 46 61 47 62 49 66 50 67 51 68 52
REMARK SMILES IDX 69 53 70 54 71 55 2 56 1 57 3 58 4 59 5 60 6 62 7 63 63 65
REMARK SMILES IDX 64 66 65 67 40 69 41 70 42 71 44 72 43 73 45 74 46 75 47 76
REMARK SMILES IDX 55 77 56 78 48 79 49 80 50 81 54 82 51 83 53 84 52 85
REMARK H PARENT 38 5 27 10 18 17 10 22 22 31 34 39 34 40 35 41 35 42 61 48
REMARK H PARENT 5 61 65 68
REMARK Flexibility Score:  369.900
ROOT
ATOM      1  C   UNL     1       8.087  -1.694   4.585  1.00  0.00     0.117 C 
ENDROOT
BRANCH   1   2
ATOM      2  N   UNL     1       8.897  -2.874   4.280  1.00  0.00    -0.347 N 
ATOM      3  O   UNL     1      10.931  -1.823   4.113  1.00  0.00    -0.273 OA
ATOM      4  C   UNL     1      10.273  -2.857   4.158  1.00  0.00     0.243 C 
ATOM      5  H   UNL     1       8.449  -3.774   4.197  1.00  0.00     0.164 HD
BRANCH   4   6
ATOM      6  C   UNL     1      10.895  -4.256   3.918  1.00  0.00     0.171 C 
BRANCH   6   7
ATOM      7  N   UNL     1      11.059  -4.506   2.477  1.00  0.00    -0.344 N 
ATOM      8  C   UNL     1      10.813  -5.755   1.948  1.00  0.00     0.226 C 
ATOM      9  O   UNL     1      10.474  -6.709   2.637  1.00  0.00    -0.275 OA
ATOM     10  H   UNL     1      11.402  -3.760   1.886  1.00  0.00     0.164 HD
BRANCH   8  11
ATOM     11  C   UNL     1      10.974  -5.837   0.440  1.00  0.00     0.109 C 
ATOM     12  C   UNL     1      10.651  -4.486  -0.198  1.00  0.00     0.021 C 
BRANCH  11  13
ATOM     13  C   UNL     1      12.366  -6.402   0.094  1.00  0.00     0.204 C 
BRANCH  13  14
ATOM     14  N   UNL     1      12.555  -7.760   0.613  1.00  0.00    -0.340 N 
ATOM     15  C   UNL     1      13.759  -8.211   1.108  1.00  0.00     0.243 C 
ATOM     16  O   UNL     1      14.747  -7.485   1.206  1.00  0.00    -0.273 OA
ATOM     17  H   UNL     1      11.826  -8.453   0.422  1.00  0.00     0.164 HD
BRANCH  15  18
ATOM     18  C   UNL     1      13.777  -9.731   1.402  1.00  0.00     0.171 C 
BRANCH  18  19
ATOM     19  N   UNL     1      14.509 -10.362   0.306  1.00  0.00    -0.343 N 
ATOM     20  C   UNL     1      13.885 -10.725  -0.873  1.00  0.00     0.242 CG0
ATOM     21  O   UNL     1      12.665 -10.657  -1.003  1.00  0.00    -0.273 OA
ATOM     22  H   UNL     1      15.500 -10.546   0.410  1.00  0.00     0.164 HD
ATOM     23  G   UNL     1      14.834 -11.303  -1.943  1.00  0.00     0.000 G0
ENDBRANCH  18  19
BRANCH  18  24
ATOM     24  C   UNL     1      14.440 -10.013   2.756  1.00  0.00     0.038 C 
BRANCH  24  25
ATOM     25  C   UNL     1      13.676  -9.457   3.976  1.00  0.00    -0.015 C 
ATOM     26  C   UNL     1      14.392  -9.744   5.296  1.00  0.00     0.007 C 
ATOM     27  C   UNL     1      12.266 -10.053   4.015  1.00  0.00     0.007 C 
ENDBRANCH  24  25
ENDBRANCH  18  24
ENDBRANCH  15  18
ENDBRANCH  13  14
BRANCH  13  28
ATOM     28  C   UNL     1      12.641  -6.449  -1.412  1.00  0.00     0.327 C 
ATOM     29  O   UNL     1      12.174  -7.250  -2.208  1.00  0.00    -0.250 OA
BRANCH  28  30
ATOM     30  O   UNL     1      13.577  -5.562  -1.807  1.00  0.00    -0.480 OA
ATOM     31  H   UNL     1      13.966  -5.964  -2.612  1.00  0.00     0.296 HD
ENDBRANCH  28  30
ENDBRANCH  13  28
ENDBRANCH  11  13
ENDBRANCH   8  11
ENDBRANCH   6   7
BRANCH   6  32
ATOM     32  C   UNL     1      12.242  -4.340   4.645  1.00  0.00     0.037 C 
BRANCH  32  33
ATOM     33  C   UNL     1      12.121  -5.026   6.012  1.00  0.00     0.026 C 
BRANCH  33  34
ATOM     34  C   UNL     1      12.544  -6.495   5.970  1.00  0.00     0.146 C 
BRANCH  34  35
ATOM     35  N   UNL     1      11.760  -7.239   6.946  1.00  0.00    -0.254 NA
ATOM     36  C   UNL     1      10.622  -7.707   6.592  1.00  0.00     0.185 C 
ATOM     37  N   UNL     1       9.893  -8.398   7.482  1.00  0.00    -0.370 N 
ATOM     38  N   UNL     1      10.003  -7.614   5.401  1.00  0.00    -0.370 N 
ATOM     39  H   UNL     1      10.298  -8.522   8.402  1.00  0.00     0.159 HD
ATOM     40  H   UNL     1       9.083  -8.940   7.237  1.00  0.00     0.159 HD
ATOM     41  H   UNL     1       9.046  -7.906   5.287  1.00  0.00     0.159 HD
ATOM     42  H   UNL     1      10.429  -7.107   4.641  1.00  0.00     0.159 HD
ENDBRANCH  34  35
ENDBRANCH  33  34
ENDBRANCH  32  33
ENDBRANCH   6  32
ENDBRANCH   4   6
ENDBRANCH   1   2
BRANCH   1  43
ATOM     43  C   UNL     1       7.250  -1.986   5.864  1.00  0.00     0.102 C 
ATOM     44  C   UNL     1       7.233  -3.472   6.258  1.00  0.00     0.020 C 
BRANCH  43  45
ATOM     45  C   UNL     1       5.859  -1.352   5.767  1.00  0.00     0.225 C 
ATOM     46  O   UNL     1       4.828  -2.011   5.665  1.00  0.00    -0.275 OA
ATOM     47  N   UNL     1       5.837   0.022   5.706  1.00  0.00    -0.342 N 
ATOM     48  H   UNL     1       6.668   0.547   5.942  1.00  0.00     0.164 HD
BRANCH  47  49
ATOM     49  C   UNL     1       4.575   0.767   5.647  1.00  0.00     0.192 C 
BRANCH  49  50
ATOM     50  C   UNL     1       4.216   1.056   4.188  1.00  0.00     0.047 C 
BRANCH  50  51
ATOM     51  C   UNL     1       3.069   0.170   3.684  1.00  0.00     0.103 C 
BRANCH  51  52
ATOM     52  C   UNL     1       1.721   0.887   3.744  1.00  0.00     0.226 C 
ATOM     53  O   UNL     1       0.885   0.544   4.582  1.00  0.00    -0.275 OA
BRANCH  52  54
ATOM     54  N   UNL     1       1.549   1.971   2.864  1.00  0.00    -0.311 N 
ATOM     55  C   UNL     1       1.177   3.301   3.367  1.00  0.00     0.153 C 
BRANCH  54  56
ATOM     56  C   UNL     1       1.730   1.826   1.479  1.00  0.00     0.102 C 
ATOM     57  C   UNL     1       2.764   2.325   0.783  1.00  0.00     0.043 C 
BRANCH  56  58
ATOM     58  C   UNL     1       0.753   1.026   0.649  1.00  0.00     0.268 C 
ATOM     59  O   UNL     1       0.906  -0.161   0.395  1.00  0.00    -0.268 OA
ATOM     60  N   UNL     1      -0.352   1.750   0.268  1.00  0.00    -0.339 N 
ATOM     61  H   UNL     1      -0.398   2.732   0.511  1.00  0.00     0.164 HD
BRANCH  60  62
ATOM     62  C   UNL     1      -1.451   1.152  -0.488  1.00  0.00     0.168 CG0
ATOM     63  C   UNL     1      -1.471   1.665  -1.922  1.00  0.00     0.041 C 
ATOM     64  G   UNL     1      -2.789   1.455   0.219  1.00  0.00     0.000 G0
ENDBRANCH  60  62
ENDBRANCH  56  58
ENDBRANCH  54  56
ENDBRANCH  52  54
ENDBRANCH  51  52
ENDBRANCH  50  51
ENDBRANCH  49  50
BRANCH  49  65
ATOM     65  C   UNL     1       4.662   2.091   6.422  1.00  0.00     0.326 C 
ATOM     66  O   UNL     1       4.171   3.154   6.070  1.00  0.00    -0.250 OA
BRANCH  65  67
ATOM     67  O   UNL     1       5.399   2.035   7.554  1.00  0.00    -0.480 OA
ATOM     68  H   UNL     1       6.321   1.958   7.225  1.00  0.00     0.296 HD
ENDBRANCH  65  67
ENDBRANCH  49  65
ENDBRANCH  47  49
ENDBRANCH  43  45
ENDBRANCH   1  43
BRANCH   1  69
ATOM     69  C   UNL     1       7.363  -1.334   3.301  1.00  0.00    -0.001 C 
ATOM     70  C   UNL     1       6.754  -2.171   2.443  1.00  0.00     0.001 C 
BRANCH  70  71
ATOM     71  C   UNL     1       6.039  -1.809   1.218  1.00  0.00    -0.055 C 
ATOM     72  C   UNL     1       5.816  -2.783   0.310  1.00  0.00    -0.018 C 
ATOM     73  C   UNL     1       5.597  -0.378   1.059  1.00  0.00     0.044 C 
BRANCH  72  74
ATOM     74  C   UNL     1       5.107  -2.703  -1.034  1.00  0.00     0.038 C 
ATOM     75  C   UNL     1       4.270  -3.979  -1.181  1.00  0.00     0.015 C 
BRANCH  74  76
ATOM     76  C   UNL     1       6.171  -2.488  -2.150  1.00  0.00     0.128 C 
BRANCH  76  77
ATOM     77  O   UNL     1       6.543  -1.101  -2.214  1.00  0.00    -0.381 OA
ATOM     78  C   UNL     1       5.661  -0.309  -2.998  1.00  0.00     0.195 C 
ENDBRANCH  76  77
BRANCH  76  79
ATOM     79  C   UNL     1       7.395  -3.432  -2.043  1.00  0.00     0.068 C 
BRANCH  79  80
ATOM     80  C   UNL     1       7.533  -4.530  -3.069  1.00  0.00    -0.045 A 
ATOM     81  C   UNL     1       8.087  -4.274  -4.331  1.00  0.00     0.004 A 
ATOM     82  C   UNL     1       7.080  -5.827  -2.783  1.00  0.00     0.004 A 
ATOM     83  C   UNL     1       8.198  -5.292  -5.280  1.00  0.00     0.000 A 
ATOM     84  C   UNL     1       7.191  -6.844  -3.734  1.00  0.00     0.000 A 
ATOM     85  C   UNL     1       7.751  -6.577  -4.981  1.00  0.00     0.000 A 
ENDBRANCH  79  80
ENDBRANCH  76  79
ENDBRANCH  74  76
ENDBRANCH  72  74
ENDBRANCH  70  71
ENDBRANCH   1  69
TORSDOF 17
ENDMDL
MODEL 10
REMARK VINA RESULT:    -6.320      2.487     12.547
REMARK INTER + INTRA:         -26.386
REMARK INTER:                 -19.248
REMARK INTRA:                  -7.138
REMARK UNBOUND:                -7.505
REMARK SMILES C=C1C(=O)N[C@H](C)C(=O)N[C@@H](CC(C)C)C(=O)N[C@@H](C(=O)O)[C@H](C)C(=O)N[C@@H](CCCN=C(N)N)C(=O)N[C@@H](/C=C/C(C)=C/[C@H](C)[C@H](Cc2ccccc2)OC)[C@H](C)C(=O)N[C@@H](C(=O)O)CCC(=O)N1C
REMARK SMILES IDX 39 1 38 2 37 3 36 4 28 6 27 7 25 8 26 9 23 11 24 12 19 13
REMARK SMILES IDX 18 14 16 15 17 16 11 18 10 19 8 20 9 21 12 24 13 25 14 26
REMARK SMILES IDX 15 27 20 28 21 29 22 30 29 32 30 33 31 34 32 35 33 36 34 37
REMARK SMILES IDX 35 38 57 43 58 44 59 45 60 46 61 47 62 49 66 50 67 51 68 52
REMARK SMILES IDX 69 53 70 54 71 55 2 56 1 57 3 58 4 59 5 60 6 62 7 63 63 65
REMARK SMILES IDX 64 66 65 67 40 69 41 70 42 71 44 72 43 73 45 74 46 75 47 76
REMARK SMILES IDX 55 77 56 78 48 79 49 80 50 81 54 82 51 83 53 84 52 85
REMARK H PARENT 38 5 27 10 18 17 10 22 22 31 34 39 34 40 35 41 35 42 61 48
REMARK H PARENT 5 61 65 68
REMARK Flexibility Score:  369.900
ROOT
ATOM      1  C   UNL     1       7.402  -2.481   5.682  1.00  0.00     0.117 C 
ENDROOT
BRANCH   1   2
ATOM      2  N   UNL     1       6.216  -1.752   5.232  1.00  0.00    -0.347 N 
ATOM      3  O   UNL     1       4.631  -3.200   6.044  1.00  0.00    -0.273 OA
ATOM      4  C   UNL     1       4.919  -2.125   5.529  1.00  0.00     0.243 C 
ATOM      5  H   UNL     1       6.330  -0.894   4.712  1.00  0.00     0.164 HD
BRANCH   4   6
ATOM      6  C   UNL     1       3.850  -1.133   5.006  1.00  0.00     0.171 C 
BRANCH   6   7
ATOM      7  N   UNL     1       4.238   0.253   5.313  1.00  0.00    -0.344 N 
ATOM      8  C   UNL     1       3.287   1.191   5.650  1.00  0.00     0.226 C 
ATOM      9  O   UNL     1       2.090   0.933   5.689  1.00  0.00    -0.275 OA
ATOM     10  H   UNL     1       5.211   0.520   5.226  1.00  0.00     0.164 HD
BRANCH   8  11
ATOM     11  C   UNL     1       3.851   2.559   5.992  1.00  0.00     0.109 C 
ATOM     12  C   UNL     1       5.232   2.731   5.360  1.00  0.00     0.021 C 
BRANCH  11  13
ATOM     13  C   UNL     1       2.828   3.652   5.624  1.00  0.00     0.204 C 
BRANCH  13  14
ATOM     14  N   UNL     1       1.686   3.671   6.545  1.00  0.00    -0.340 N 
ATOM     15  C   UNL     1       0.386   3.836   6.120  1.00  0.00     0.243 C 
ATOM     16  O   UNL     1       0.084   3.918   4.931  1.00  0.00    -0.273 OA
ATOM     17  H   UNL     1       1.878   3.761   7.546  1.00  0.00     0.164 HD
BRANCH  15  18
ATOM     18  C   UNL     1      -0.623   4.033   7.279  1.00  0.00     0.171 C 
BRANCH  18  19
ATOM     19  N   UNL     1      -0.938   5.460   7.322  1.00  0.00    -0.343 N 
ATOM     20  C   UNL     1      -0.068   6.382   7.872  1.00  0.00     0.242 CG0
ATOM     21  O   UNL     1       0.947   6.032   8.469  1.00  0.00    -0.273 OA
ATOM     22  H   UNL     1      -1.820   5.786   6.944  1.00  0.00     0.164 HD
ATOM     23  G   UNL     1      -0.537   7.847   7.756  1.00  0.00     0.000 G0
ENDBRANCH  18  19
BRANCH  18  24
ATOM     24  C   UNL     1      -1.881   3.187   7.051  1.00  0.00     0.038 C 
BRANCH  24  25
ATOM     25  C   UNL     1      -1.627   1.667   6.960  1.00  0.00    -0.015 C 
ATOM     26  C   UNL     1      -2.842   0.901   6.436  1.00  0.00     0.007 C 
ATOM     27  C   UNL     1      -1.232   1.127   8.337  1.00  0.00     0.007 C 
ENDBRANCH  24  25
ENDBRANCH  18  24
ENDBRANCH  15  18
ENDBRANCH  13  14
BRANCH  13  28
ATOM     28  C   UNL     1       3.427   5.061   5.615  1.00  0.00     0.327 C 
ATOM     29  O   UNL     1       3.885   5.645   4.645  1.00  0.00    -0.250 OA
BRANCH  28  30
ATOM     30  O   UNL     1       3.523   5.603   6.846  1.00  0.00    -0.480 OA
ATOM     31  H   UNL     1       2.682   6.092   6.960  1.00  0.00     0.296 HD
ENDBRANCH  28  30
ENDBRANCH  13  28
ENDBRANCH  11  13
ENDBRANCH   8  11
ENDBRANCH   6   7
BRANCH   6  32
ATOM     32  C   UNL     1       3.677  -1.331   3.495  1.00  0.00     0.037 C 
BRANCH  32  33
ATOM     33  C   UNL     1       2.199  -1.408   3.087  1.00  0.00     0.026 C 
BRANCH  33  34
ATOM     34  C   UNL     1       1.903  -0.618   1.811  1.00  0.00     0.146 C 
BRANCH  34  35
ATOM     35  N   UNL     1       2.164   0.793   2.060  1.00  0.00    -0.254 NA
ATOM     36  C   UNL     1       1.173   1.568   2.300  1.00  0.00     0.185 C 
ATOM     37  N   UNL     1       1.403   2.869   2.536  1.00  0.00    -0.370 N 
ATOM     38  N   UNL     1      -0.137   1.271   2.357  1.00  0.00    -0.370 N 
ATOM     39  H   UNL     1       2.369   3.170   2.521  1.00  0.00     0.159 HD
ATOM     40  H   UNL     1       0.709   3.499   2.899  1.00  0.00     0.159 HD
ATOM     41  H   UNL     1      -0.834   1.996   2.416  1.00  0.00     0.159 HD
ATOM     42  H   UNL     1      -0.458   0.331   2.184  1.00  0.00     0.159 HD
ENDBRANCH  34  35
ENDBRANCH  33  34
ENDBRANCH  32  33
ENDBRANCH   6  32
ENDBRANCH   4   6
ENDBRANCH   1   2
BRANCH   1  43
ATOM     43  C   UNL     1       8.415  -1.460   6.276  1.00  0.00     0.102 C 
ATOM     44  C   UNL     1       7.846  -0.037   6.403  1.00  0.00     0.020 C 
BRANCH  43  45
ATOM     45  C   UNL     1       9.759  -1.530   5.545  1.00  0.00     0.225 C 
ATOM     46  O   UNL     1      10.026  -0.838   4.566  1.00  0.00    -0.275 OA
ATOM     47  N   UNL     1      10.630  -2.494   5.997  1.00  0.00    -0.342 N 
ATOM     48  H   UNL     1      10.461  -2.944   6.886  1.00  0.00     0.164 HD
BRANCH  47  49
ATOM     49  C   UNL     1      11.967  -2.652   5.416  1.00  0.00     0.192 C 
BRANCH  49  50
ATOM     50  C   UNL     1      12.140  -4.085   4.907  1.00  0.00     0.047 C 
BRANCH  50  51
ATOM     51  C   UNL     1      11.073  -5.035   5.468  1.00  0.00     0.103 C 
BRANCH  51  52
ATOM     52  C   UNL     1      11.690  -6.184   6.263  1.00  0.00     0.226 C 
ATOM     53  O   UNL     1      12.794  -6.038   6.790  1.00  0.00    -0.275 OA
BRANCH  52  54
ATOM     54  N   UNL     1      10.900  -7.340   6.408  1.00  0.00    -0.311 N 
ATOM     55  C   UNL     1      10.148  -7.592   7.645  1.00  0.00     0.153 C 
BRANCH  54  56
ATOM     56  C   UNL     1      10.797  -8.290   5.379  1.00  0.00     0.102 C 
ATOM     57  C   UNL     1       9.734  -8.436   4.571  1.00  0.00     0.043 C 
BRANCH  56  58
ATOM     58  C   UNL     1      11.943  -9.224   5.068  1.00  0.00     0.268 C 
ATOM     59  O   UNL     1      12.102 -10.300   5.629  1.00  0.00    -0.268 OA
ATOM     60  N   UNL     1      12.747  -8.772   4.049  1.00  0.00    -0.339 N 
ATOM     61  H   UNL     1      12.554  -7.864   3.642  1.00  0.00     0.164 HD
BRANCH  60  62
ATOM     62  C   UNL     1      13.878  -9.550   3.545  1.00  0.00     0.168 CG0
ATOM     63  C   UNL     1      13.564 -10.152   2.181  1.00  0.00     0.041 C 
ATOM     64  G   UNL     1      14.238 -10.654   4.560  1.00  0.00     0.000 G0
ENDBRANCH  60  62
ENDBRANCH  56  58
ENDBRANCH  54  56
ENDBRANCH  52  54
ENDBRANCH  51  52
ENDBRANCH  50  51
ENDBRANCH  49  50
BRANCH  49  65
ATOM     65  C   UNL     1      13.070  -2.338   6.438  1.00  0.00     0.326 C 
ATOM     66  O   UNL     1      14.024  -3.057   6.697  1.00  0.00    -0.250 OA
BRANCH  65  67
ATOM     67  O   UNL     1      12.895  -1.184   7.120  1.00  0.00    -0.480 OA
ATOM     68  H   UNL     1      12.738  -0.520   6.415  1.00  0.00     0.296 HD
ENDBRANCH  65  67
ENDBRANCH  49  65
ENDBRANCH  47  49
ENDBRANCH  43  45
ENDBRANCH   1  43
BRANCH   1  69
ATOM     69  C   UNL     1       7.835  -3.349   4.514  1.00  0.00    -0.001 C 
ATOM     70  C   UNL     1       7.643  -3.111   3.204  1.00  0.00     0.001 C 
BRANCH  70  71
ATOM     71  C   UNL     1       8.084  -3.946   2.085  1.00  0.00    -0.055 C 
ATOM     72  C   UNL     1       9.324  -4.475   2.148  1.00  0.00    -0.018 C 
ATOM     73  C   UNL     1       7.121  -4.161   0.947  1.00  0.00     0.044 C 
BRANCH  72  74
ATOM     74  C   UNL     1      10.040  -5.371   1.148  1.00  0.00     0.038 C 
ATOM     75  C   UNL     1      11.056  -6.207   1.935  1.00  0.00     0.015 C 
BRANCH  74  76
ATOM     76  C   UNL     1      10.655  -4.481   0.028  1.00  0.00     0.128 C 
BRANCH  76  77
ATOM     77  O   UNL     1      12.039  -4.218   0.314  1.00  0.00    -0.381 OA
ATOM     78  C   UNL     1      12.305  -2.865   0.658  1.00  0.00     0.195 C 
ENDBRANCH  76  77
BRANCH  76  79
ATOM     79  C   UNL     1      10.432  -5.027  -1.405  1.00  0.00     0.068 C 
BRANCH  79  80
ATOM     80  C   UNL     1      11.651  -5.356  -2.233  1.00  0.00    -0.045 A 
ATOM     81  C   UNL     1      12.148  -6.664  -2.298  1.00  0.00     0.004 A 
ATOM     82  C   UNL     1      12.324  -4.344  -2.933  1.00  0.00     0.004 A 
ATOM     83  C   UNL     1      13.284  -6.958  -3.056  1.00  0.00     0.000 A 
ATOM     84  C   UNL     1      13.460  -4.638  -3.690  1.00  0.00     0.000 A 
ATOM     85  C   UNL     1      13.939  -5.945  -3.752  1.00  0.00     0.000 A 
ENDBRANCH  79  80
ENDBRANCH  76  79
ENDBRANCH  74  76
ENDBRANCH  72  74
ENDBRANCH  70  71
ENDBRANCH   1  69
TORSDOF 17
ENDMDL
MODEL 11
REMARK VINA RESULT:    -6.315      2.179      2.712
REMARK INTER + INTRA:         -26.373
REMARK INTER:                 -20.253
REMARK INTRA:                  -6.120
REMARK UNBOUND:                -7.505
REMARK SMILES C=C1C(=O)N[C@H](C)C(=O)N[C@@H](CC(C)C)C(=O)N[C@@H](C(=O)O)[C@H](C)C(=O)N[C@@H](CCCN=C(N)N)C(=O)N[C@@H](/C=C/C(C)=C/[C@H](C)[C@H](Cc2ccccc2)OC)[C@H](C)C(=O)N[C@@H](C(=O)O)CCC(=O)N1C
REMARK SMILES IDX 39 1 38 2 37 3 36 4 28 6 27 7 25 8 26 9 23 11 24 12 19 13
REMARK SMILES IDX 18 14 16 15 17 16 11 18 10 19 8 20 9 21 12 24 13 25 14 26
REMARK SMILES IDX 15 27 20 28 21 29 22 30 29 32 30 33 31 34 32 35 33 36 34 37
REMARK SMILES IDX 35 38 57 43 58 44 59 45 60 46 61 47 62 49 66 50 67 51 68 52
REMARK SMILES IDX 69 53 70 54 71 55 2 56 1 57 3 58 4 59 5 60 6 62 7 63 63 65
REMARK SMILES IDX 64 66 65 67 40 69 41 70 42 71 44 72 43 73 45 74 46 75 47 76
REMARK SMILES IDX 55 77 56 78 48 79 49 80 50 81 54 82 51 83 53 84 52 85
REMARK H PARENT 38 5 27 10 18 17 10 22 22 31 34 39 34 40 35 41 35 42 61 48
REMARK H PARENT 5 61 65 68
REMARK Flexibility Score:  369.900
ROOT
ATOM      1  C   UNL     1       6.444  -1.759   1.061  1.00  0.00     0.117 C 
ENDROOT
BRANCH   1   2
ATOM      2  N   UNL     1       7.298  -2.681   1.811  1.00  0.00    -0.347 N 
ATOM      3  O   UNL     1       9.067  -1.259   2.155  1.00  0.00    -0.273 OA
ATOM      4  C   UNL     1       8.507  -2.327   2.379  1.00  0.00     0.243 C 
ATOM      5  H   UNL     1       6.981  -3.624   1.977  1.00  0.00     0.164 HD
BRANCH   4   6
ATOM      6  C   UNL     1       9.170  -3.466   3.193  1.00  0.00     0.171 C 
BRANCH   6   7
ATOM      7  N   UNL     1      10.219  -4.124   2.397  1.00  0.00    -0.344 N 
ATOM      8  C   UNL     1       9.953  -5.286   1.707  1.00  0.00     0.226 C 
ATOM      9  O   UNL     1       8.858  -5.835   1.736  1.00  0.00    -0.275 OA
ATOM     10  H   UNL     1      11.155  -3.737   2.403  1.00  0.00     0.164 HD
BRANCH   8  11
ATOM     11  C   UNL     1      11.121  -5.811   0.890  1.00  0.00     0.109 C 
ATOM     12  C   UNL     1      11.690  -4.697   0.011  1.00  0.00     0.021 C 
BRANCH  11  13
ATOM     13  C   UNL     1      12.146  -6.489   1.822  1.00  0.00     0.204 C 
BRANCH  13  14
ATOM     14  N   UNL     1      11.498  -7.296   2.860  1.00  0.00    -0.340 N 
ATOM     15  C   UNL     1      11.930  -7.319   4.168  1.00  0.00     0.243 C 
ATOM     16  O   UNL     1      12.855  -6.615   4.571  1.00  0.00    -0.273 OA
ATOM     17  H   UNL     1      10.828  -8.011   2.564  1.00  0.00     0.164 HD
BRANCH  15  18
ATOM     18  C   UNL     1      11.229  -8.396   5.033  1.00  0.00     0.171 C 
BRANCH  18  19
ATOM     19  N   UNL     1      11.091  -9.583   4.191  1.00  0.00    -0.343 N 
ATOM     20  C   UNL     1      12.191 -10.281   3.730  1.00  0.00     0.242 CG0
ATOM     21  O   UNL     1      13.334  -9.862   3.894  1.00  0.00    -0.273 OA
ATOM     22  H   UNL     1      10.165  -9.904   3.932  1.00  0.00     0.164 HD
ATOM     23  G   UNL     1      11.847 -11.550   2.924  1.00  0.00     0.000 G0
ENDBRANCH  18  19
BRANCH  18  24
ATOM     24  C   UNL     1      12.047  -8.693   6.295  1.00  0.00     0.038 C 
BRANCH  24  25
ATOM     25  C   UNL     1      11.628  -7.883   7.540  1.00  0.00    -0.015 C 
ATOM     26  C   UNL     1      12.144  -8.499   8.841  1.00  0.00     0.007 C 
ATOM     27  C   UNL     1      10.102  -7.773   7.593  1.00  0.00     0.007 C 
ENDBRANCH  24  25
ENDBRANCH  18  24
ENDBRANCH  15  18
ENDBRANCH  13  14
BRANCH  13  28
ATOM     28  C   UNL     1      13.123  -7.404   1.079  1.00  0.00     0.327 C 
ATOM     29  O   UNL     1      14.338  -7.418   1.204  1.00  0.00    -0.250 OA
BRANCH  28  30
ATOM     30  O   UNL     1      12.525  -8.164   0.139  1.00  0.00    -0.480 OA
ATOM     31  H   UNL     1      11.922  -7.546  -0.323  1.00  0.00     0.296 HD
ENDBRANCH  28  30
ENDBRANCH  13  28
ENDBRANCH  11  13
ENDBRANCH   8  11
ENDBRANCH   6   7
BRANCH   6  32
ATOM     32  C   UNL     1       9.749  -2.888   4.489  1.00  0.00     0.037 C 
BRANCH  32  33
ATOM     33  C   UNL     1      10.209  -3.986   5.459  1.00  0.00     0.026 C 
BRANCH  33  34
ATOM     34  C   UNL     1      11.517  -3.630   6.167  1.00  0.00     0.146 C 
BRANCH  34  35
ATOM     35  N   UNL     1      12.486  -3.192   5.172  1.00  0.00    -0.254 NA
ATOM     36  C   UNL     1      13.605  -2.714   5.573  1.00  0.00     0.185 C 
ATOM     37  N   UNL     1      14.507  -2.312   4.665  1.00  0.00    -0.370 N 
ATOM     38  N   UNL     1      14.047  -2.540   6.831  1.00  0.00    -0.370 N 
ATOM     39  H   UNL     1      14.252  -2.420   3.692  1.00  0.00     0.159 HD
ATOM     40  H   UNL     1      15.463  -2.092   4.889  1.00  0.00     0.159 HD
ATOM     41  H   UNL     1      14.891  -2.024   7.020  1.00  0.00     0.159 HD
ATOM     42  H   UNL     1      13.465  -2.784   7.617  1.00  0.00     0.159 HD
ENDBRANCH  34  35
ENDBRANCH  33  34
ENDBRANCH  32  33
ENDBRANCH   6  32
ENDBRANCH   4   6
ENDBRANCH   1   2
BRANCH   1  43
ATOM     43  C   UNL     1       5.186  -1.440   1.919  1.00  0.00     0.102 C 
ATOM     44  C   UNL     1       3.899  -1.302   1.089  1.00  0.00     0.020 C 
BRANCH  43  45
ATOM     45  C   UNL     1       5.448  -0.261   2.861  1.00  0.00     0.225 C 
ATOM     46  O   UNL     1       6.191  -0.334   3.835  1.00  0.00    -0.275 OA
ATOM     47  N   UNL     1       4.717   0.876   2.604  1.00  0.00    -0.342 N 
ATOM     48  H   UNL     1       4.232   0.970   1.722  1.00  0.00     0.164 HD
BRANCH  47  49
ATOM     49  C   UNL     1       4.889   2.094   3.401  1.00  0.00     0.192 C 
BRANCH  49  50
ATOM     50  C   UNL     1       3.580   2.427   4.121  1.00  0.00     0.047 C 
BRANCH  50  51
ATOM     51  C   UNL     1       3.256   1.422   5.235  1.00  0.00     0.103 C 
BRANCH  51  52
ATOM     52  C   UNL     1       1.753   1.293   5.473  1.00  0.00     0.226 C 
ATOM     53  O   UNL     1       1.271   1.667   6.544  1.00  0.00    -0.275 OA
BRANCH  52  54
ATOM     54  N   UNL     1       0.987   0.813   4.395  1.00  0.00    -0.311 N 
ATOM     55  C   UNL     1       1.284  -0.485   3.775  1.00  0.00     0.153 C 
BRANCH  54  56
ATOM     56  C   UNL     1      -0.091   1.550   3.877  1.00  0.00     0.102 C 
ATOM     57  C   UNL     1      -0.310   1.776   2.571  1.00  0.00     0.043 C 
BRANCH  56  58
ATOM     58  C   UNL     1      -1.148   2.125   4.791  1.00  0.00     0.268 C 
ATOM     59  O   UNL     1      -1.394   3.322   4.859  1.00  0.00    -0.268 OA
ATOM     60  N   UNL     1      -1.844   1.164   5.483  1.00  0.00    -0.339 N 
ATOM     61  H   UNL     1      -1.571   0.194   5.379  1.00  0.00     0.164 HD
BRANCH  60  62
ATOM     62  C   UNL     1      -2.953   1.498   6.377  1.00  0.00     0.168 CG0
ATOM     63  C   UNL     1      -4.294   1.298   5.683  1.00  0.00     0.041 C 
ATOM     64  G   UNL     1      -2.802   2.953   6.866  1.00  0.00     0.000 G0
ENDBRANCH  60  62
ENDBRANCH  56  58
ENDBRANCH  54  56
ENDBRANCH  52  54
ENDBRANCH  51  52
ENDBRANCH  50  51
ENDBRANCH  49  50
BRANCH  49  65
ATOM     65  C   UNL     1       5.308   3.288   2.529  1.00  0.00     0.326 C 
ATOM     66  O   UNL     1       5.296   3.314   1.307  1.00  0.00    -0.250 OA
BRANCH  65  67
ATOM     67  O   UNL     1       5.774   4.353   3.218  1.00  0.00    -0.480 OA
ATOM     68  H   UNL     1       5.539   5.117   2.649  1.00  0.00     0.296 HD
ENDBRANCH  65  67
ENDBRANCH  49  65
ENDBRANCH  47  49
ENDBRANCH  43  45
ENDBRANCH   1  43
BRANCH   1  69
ATOM     69  C   UNL     1       6.258  -2.377  -0.313  1.00  0.00    -0.001 C 
ATOM     70  C   UNL     1       6.244  -3.685  -0.626  1.00  0.00     0.001 C 
BRANCH  70  71
ATOM     71  C   UNL     1       6.042  -4.270  -1.953  1.00  0.00    -0.055 C 
ATOM     72  C   UNL     1       7.117  -4.793  -2.579  1.00  0.00    -0.018 C 
ATOM     73  C   UNL     1       4.647  -4.253  -2.522  1.00  0.00     0.044 C 
BRANCH  72  74
ATOM     74  C   UNL     1       7.207  -5.461  -3.943  1.00  0.00     0.038 C 
ATOM     75  C   UNL     1       7.262  -6.975  -3.704  1.00  0.00     0.015 C 
BRANCH  74  76
ATOM     76  C   UNL     1       8.430  -4.876  -4.708  1.00  0.00     0.128 C 
BRANCH  76  77
ATOM     77  O   UNL     1       7.981  -4.049  -5.794  1.00  0.00    -0.381 OA
ATOM     78  C   UNL     1       8.114  -2.656  -5.544  1.00  0.00     0.195 C 
ENDBRANCH  76  77
BRANCH  76  79
ATOM     79  C   UNL     1       9.460  -4.162  -3.796  1.00  0.00     0.068 C 
BRANCH  79  80
ATOM     80  C   UNL     1      10.787  -4.842  -3.560  1.00  0.00    -0.045 A 
ATOM     81  C   UNL     1      11.992  -4.139  -3.691  1.00  0.00     0.004 A 
ATOM     82  C   UNL     1      10.834  -6.205  -3.230  1.00  0.00     0.004 A 
ATOM     83  C   UNL     1      13.215  -4.779  -3.485  1.00  0.00     0.000 A 
ATOM     84  C   UNL     1      12.058  -6.844  -3.024  1.00  0.00     0.000 A 
ATOM     85  C   UNL     1      13.248  -6.131  -3.150  1.00  0.00     0.000 A 
ENDBRANCH  79  80
ENDBRANCH  76  79
ENDBRANCH  74  76
ENDBRANCH  72  74
ENDBRANCH  70  71
ENDBRANCH   1  69
TORSDOF 17
ENDMDL
MODEL 12
REMARK VINA RESULT:    -6.310      2.321     11.652
REMARK INTER + INTRA:         -26.356
REMARK INTER:                 -19.965
REMARK INTRA:                  -6.391
REMARK UNBOUND:                -7.505
REMARK SMILES C=C1C(=O)N[C@H](C)C(=O)N[C@@H](CC(C)C)C(=O)N[C@@H](C(=O)O)[C@H](C)C(=O)N[C@@H](CCCN=C(N)N)C(=O)N[C@@H](/C=C/C(C)=C/[C@H](C)[C@H](Cc2ccccc2)OC)[C@H](C)C(=O)N[C@@H](C(=O)O)CCC(=O)N1C
REMARK SMILES IDX 39 1 38 2 37 3 36 4 28 6 27 7 25 8 26 9 23 11 24 12 19 13
REMARK SMILES IDX 18 14 16 15 17 16 11 18 10 19 8 20 9 21 12 24 13 25 14 26
REMARK SMILES IDX 15 27 20 28 21 29 22 30 29 32 30 33 31 34 32 35 33 36 34 37
REMARK SMILES IDX 35 38 57 43 58 44 59 45 60 46 61 47 62 49 66 50 67 51 68 52
REMARK SMILES IDX 69 53 70 54 71 55 2 56 1 57 3 58 4 59 5 60 6 62 7 63 63 65
REMARK SMILES IDX 64 66 65 67 40 69 41 70 42 71 44 72 43 73 45 74 46 75 47 76
REMARK SMILES IDX 55 77 56 78 48 79 49 80 50 81 54 82 51 83 53 84 52 85
REMARK H PARENT 38 5 27 10 18 17 10 22 22 31 34 39 34 40 35 41 35 42 61 48
REMARK H PARENT 5 61 65 68
REMARK Flexibility Score:  369.900
ROOT
ATOM      1  C   UNL     1       6.913  -2.462   2.436  1.00  0.00     0.117 C 
ENDROOT
BRANCH   1   2
ATOM      2  N   UNL     1       5.698  -1.855   2.981  1.00  0.00    -0.347 N 
ATOM      3  O   UNL     1       6.060  -2.359   5.191  1.00  0.00    -0.273 OA
ATOM      4  C   UNL     1       5.413  -1.772   4.330  1.00  0.00     0.243 C 
ATOM      5  H   UNL     1       5.038  -1.421   2.353  1.00  0.00     0.164 HD
BRANCH   4   6
ATOM      6  C   UNL     1       4.103  -1.005   4.644  1.00  0.00     0.171 C 
BRANCH   6   7
ATOM      7  N   UNL     1       4.188   0.380   4.154  1.00  0.00    -0.344 N 
ATOM      8  C   UNL     1       4.537   1.406   5.005  1.00  0.00     0.226 C 
ATOM      9  O   UNL     1       4.767   1.228   6.195  1.00  0.00    -0.275 OA
ATOM     10  H   UNL     1       3.940   0.577   3.193  1.00  0.00     0.164 HD
BRANCH   8  11
ATOM     11  C   UNL     1       4.634   2.767   4.337  1.00  0.00     0.109 C 
ATOM     12  C   UNL     1       4.914   2.601   2.844  1.00  0.00     0.021 C 
BRANCH  11  13
ATOM     13  C   UNL     1       3.384   3.604   4.674  1.00  0.00     0.204 C 
BRANCH  13  14
ATOM     14  N   UNL     1       2.490   2.910   5.607  1.00  0.00    -0.340 N 
ATOM     15  C   UNL     1       1.241   2.454   5.247  1.00  0.00     0.243 C 
ATOM     16  O   UNL     1       0.810   2.543   4.098  1.00  0.00    -0.273 OA
ATOM     17  H   UNL     1       2.721   2.939   6.604  1.00  0.00     0.164 HD
BRANCH  15  18
ATOM     18  C   UNL     1       0.400   1.944   6.443  1.00  0.00     0.171 C 
BRANCH  18  19
ATOM     19  N   UNL     1       0.048   3.118   7.238  1.00  0.00    -0.343 N 
ATOM     20  C   UNL     1       0.205   3.144   8.611  1.00  0.00     0.242 CG0
ATOM     21  O   UNL     1       0.522   2.138   9.241  1.00  0.00    -0.273 OA
ATOM     22  H   UNL     1      -0.329   3.938   6.775  1.00  0.00     0.164 HD
ATOM     23  G   UNL     1      -0.145   4.495   9.267  1.00  0.00     0.000 G0
ENDBRANCH  18  19
BRANCH  18  24
ATOM     24  C   UNL     1      -0.849   1.203   5.951  1.00  0.00     0.038 C 
BRANCH  24  25
ATOM     25  C   UNL     1      -2.068   1.298   6.893  1.00  0.00    -0.015 C 
ATOM     26  C   UNL     1      -2.102   0.169   7.923  1.00  0.00     0.007 C 
ATOM     27  C   UNL     1      -3.358   1.282   6.068  1.00  0.00     0.007 C 
ENDBRANCH  24  25
ENDBRANCH  18  24
ENDBRANCH  15  18
ENDBRANCH  13  14
BRANCH  13  28
ATOM     28  C   UNL     1       3.716   4.965   5.291  1.00  0.00     0.327 C 
ATOM     29  O   UNL     1       4.619   5.713   4.948  1.00  0.00    -0.250 OA
BRANCH  28  30
ATOM     30  O   UNL     1       2.970   5.249   6.378  1.00  0.00    -0.480 OA
ATOM     31  H   UNL     1       3.048   4.451   6.940  1.00  0.00     0.296 HD
ENDBRANCH  28  30
ENDBRANCH  13  28
ENDBRANCH  11  13
ENDBRANCH   8  11
ENDBRANCH   6   7
BRANCH   6  32
ATOM     32  C   UNL     1       2.922  -1.741   4.002  1.00  0.00     0.037 C 
BRANCH  32  33
ATOM     33  C   UNL     1       1.956  -0.780   3.295  1.00  0.00     0.026 C 
BRANCH  33  34
ATOM     34  C   UNL     1       2.025  -0.896   1.772  1.00  0.00     0.146 C 
BRANCH  34  35
ATOM     35  N   UNL     1       3.213  -0.196   1.302  1.00  0.00    -0.254 NA
ATOM     36  C   UNL     1       3.816  -0.640   0.262  1.00  0.00     0.185 C 
ATOM     37  N   UNL     1       4.908  -0.000  -0.183  1.00  0.00    -0.370 N 
ATOM     38  N   UNL     1       3.512  -1.705  -0.500  1.00  0.00    -0.370 N 
ATOM     39  H   UNL     1       5.196   0.821   0.334  1.00  0.00     0.159 HD
ATOM     40  H   UNL     1       5.330  -0.177  -1.079  1.00  0.00     0.159 HD
ATOM     41  H   UNL     1       4.144  -2.034  -1.211  1.00  0.00     0.159 HD
ATOM     42  H   UNL     1       2.723  -2.290  -0.273  1.00  0.00     0.159 HD
ENDBRANCH  34  35
ENDBRANCH  33  34
ENDBRANCH  32  33
ENDBRANCH   6  32
ENDBRANCH   4   6
ENDBRANCH   1   2
BRANCH   1  43
ATOM     43  C   UNL     1       8.077  -1.436   2.561  1.00  0.00     0.102 C 
ATOM     44  C   UNL     1       8.420  -0.735   1.235  1.00  0.00     0.020 C 
BRANCH  43  45
ATOM     45  C   UNL     1       9.286  -2.059   3.265  1.00  0.00     0.225 C 
ATOM     46  O   UNL     1      10.330  -2.340   2.683  1.00  0.00    -0.275 OA
ATOM     47  N   UNL     1       9.100  -2.379   4.590  1.00  0.00    -0.342 N 
ATOM     48  H   UNL     1       8.302  -2.008   5.087  1.00  0.00     0.164 HD
BRANCH  47  49
ATOM     49  C   UNL     1      10.181  -2.948   5.400  1.00  0.00     0.192 C 
BRANCH  49  50
ATOM     50  C   UNL     1       9.739  -4.297   5.973  1.00  0.00     0.047 C 
BRANCH  50  51
ATOM     51  C   UNL     1      10.928  -5.225   6.259  1.00  0.00     0.103 C 
BRANCH  51  52
ATOM     52  C   UNL     1      11.783  -5.463   5.016  1.00  0.00     0.226 C 
ATOM     53  O   UNL     1      12.898  -4.944   4.935  1.00  0.00    -0.275 OA
BRANCH  52  54
ATOM     54  N   UNL     1      11.257  -6.342   4.052  1.00  0.00    -0.311 N 
ATOM     55  C   UNL     1      10.654  -5.833   2.813  1.00  0.00     0.153 C 
BRANCH  54  56
ATOM     56  C   UNL     1      11.292  -7.735   4.234  1.00  0.00     0.102 C 
ATOM     57  C   UNL     1      10.271  -8.475   4.695  1.00  0.00     0.043 C 
BRANCH  56  58
ATOM     58  C   UNL     1      12.520  -8.533   3.865  1.00  0.00     0.268 C 
ATOM     59  O   UNL     1      13.638  -8.276   4.289  1.00  0.00    -0.268 OA
ATOM     60  N   UNL     1      12.241  -9.613   3.061  1.00  0.00    -0.339 N 
ATOM     61  H   UNL     1      11.289  -9.751   2.744  1.00  0.00     0.164 HD
BRANCH  60  62
ATOM     62  C   UNL     1      13.274 -10.556   2.637  1.00  0.00     0.168 CG0
ATOM     63  C   UNL     1      13.756 -10.240   1.226  1.00  0.00     0.041 C 
ATOM     64  G   UNL     1      12.726 -11.995   2.717  1.00  0.00     0.000 G0
ENDBRANCH  60  62
ENDBRANCH  56  58
ENDBRANCH  54  56
ENDBRANCH  52  54
ENDBRANCH  51  52
ENDBRANCH  50  51
ENDBRANCH  49  50
BRANCH  49  65
ATOM     65  C   UNL     1      10.580  -2.012   6.552  1.00  0.00     0.326 C 
ATOM     66  O   UNL     1       9.815  -1.301   7.187  1.00  0.00    -0.250 OA
BRANCH  65  67
ATOM     67  O   UNL     1      11.906  -1.967   6.809  1.00  0.00    -0.480 OA
ATOM     68  H   UNL     1      12.114  -2.878   7.111  1.00  0.00     0.296 HD
ENDBRANCH  65  67
ENDBRANCH  49  65
ENDBRANCH  47  49
ENDBRANCH  43  45
ENDBRANCH   1  43
BRANCH   1  69
ATOM     69  C   UNL     1       6.545  -2.989   1.062  1.00  0.00    -0.001 C 
ATOM     70  C   UNL     1       6.987  -4.114   0.473  1.00  0.00     0.001 C 
BRANCH  70  71
ATOM     71  C   UNL     1       6.608  -4.624  -0.846  1.00  0.00    -0.055 C 
ATOM     72  C   UNL     1       7.599  -4.993  -1.686  1.00  0.00    -0.018 C 
ATOM     73  C   UNL     1       5.139  -4.709  -1.171  1.00  0.00     0.044 C 
BRANCH  72  74
ATOM     74  C   UNL     1       7.506  -5.554  -3.098  1.00  0.00     0.038 C 
ATOM     75  C   UNL     1       6.896  -6.956  -2.989  1.00  0.00     0.015 C 
BRANCH  74  76
ATOM     76  C   UNL     1       8.919  -5.505  -3.749  1.00  0.00     0.128 C 
BRANCH  76  77
ATOM     77  O   UNL     1       8.859  -4.800  -5.000  1.00  0.00    -0.381 OA
ATOM     78  C   UNL     1       8.054  -3.629  -4.957  1.00  0.00     0.195 C 
ENDBRANCH  76  77
BRANCH  76  79
ATOM     79  C   UNL     1      10.028  -4.967  -2.810  1.00  0.00     0.068 C 
BRANCH  79  80
ATOM     80  C   UNL     1      11.459  -5.328  -3.126  1.00  0.00    -0.045 A 
ATOM     81  C   UNL     1      11.933  -6.633  -2.940  1.00  0.00     0.004 A 
ATOM     82  C   UNL     1      12.350  -4.347  -3.587  1.00  0.00     0.004 A 
ATOM     83  C   UNL     1      13.262  -6.956  -3.221  1.00  0.00     0.000 A 
ATOM     84  C   UNL     1      13.680  -4.670  -3.867  1.00  0.00     0.000 A 
ATOM     85  C   UNL     1      14.135  -5.974  -3.686  1.00  0.00     0.000 A 
ENDBRANCH  79  80
ENDBRANCH  76  79
ENDBRANCH  74  76
ENDBRANCH  72  74
ENDBRANCH  70  71
ENDBRANCH   1  69
TORSDOF 17
ENDMDL
MODEL 13
REMARK VINA RESULT:    -6.257      2.771     12.245
REMARK INTER + INTRA:         -26.198
REMARK INTER:                 -18.235
REMARK INTRA:                  -7.962
REMARK UNBOUND:                -7.505
REMARK SMILES C=C1C(=O)N[C@H](C)C(=O)N[C@@H](CC(C)C)C(=O)N[C@@H](C(=O)O)[C@H](C)C(=O)N[C@@H](CCCN=C(N)N)C(=O)N[C@@H](/C=C/C(C)=C/[C@H](C)[C@H](Cc2ccccc2)OC)[C@H](C)C(=O)N[C@@H](C(=O)O)CCC(=O)N1C
REMARK SMILES IDX 39 1 38 2 37 3 36 4 28 6 27 7 25 8 26 9 23 11 24 12 19 13
REMARK SMILES IDX 18 14 16 15 17 16 11 18 10 19 8 20 9 21 12 24 13 25 14 26
REMARK SMILES IDX 15 27 20 28 21 29 22 30 29 32 30 33 31 34 32 35 33 36 34 37
REMARK SMILES IDX 35 38 57 43 58 44 59 45 60 46 61 47 62 49 66 50 67 51 68 52
REMARK SMILES IDX 69 53 70 54 71 55 2 56 1 57 3 58 4 59 5 60 6 62 7 63 63 65
REMARK SMILES IDX 64 66 65 67 40 69 41 70 42 71 44 72 43 73 45 74 46 75 47 76
REMARK SMILES IDX 55 77 56 78 48 79 49 80 50 81 54 82 51 83 53 84 52 85
REMARK H PARENT 38 5 27 10 18 17 10 22 22 31 34 39 34 40 35 41 35 42 61 48
REMARK H PARENT 5 61 65 68
REMARK Flexibility Score:  369.900
ROOT
ATOM      1  C   UNL     1       7.271  -2.630   5.289  1.00  0.00     0.117 C 
ENDROOT
BRANCH   1   2
ATOM      2  N   UNL     1       6.306  -1.770   4.604  1.00  0.00    -0.347 N 
ATOM      3  O   UNL     1       4.392  -2.813   5.322  1.00  0.00    -0.273 OA
ATOM      4  C   UNL     1       4.936  -1.875   4.749  1.00  0.00     0.243 C 
ATOM      5  H   UNL     1       6.641  -1.016   4.024  1.00  0.00     0.164 HD
BRANCH   4   6
ATOM      6  C   UNL     1       4.143  -0.787   3.982  1.00  0.00     0.171 C 
BRANCH   6   7
ATOM      7  N   UNL     1       4.195   0.494   4.705  1.00  0.00    -0.344 N 
ATOM      8  C   UNL     1       3.069   1.005   5.311  1.00  0.00     0.226 C 
ATOM      9  O   UNL     1       1.980   0.445   5.262  1.00  0.00    -0.275 OA
ATOM     10  H   UNL     1       5.061   1.019   4.709  1.00  0.00     0.164 HD
BRANCH   8  11
ATOM     11  C   UNL     1       3.298   2.305   6.062  1.00  0.00     0.109 C 
ATOM     12  C   UNL     1       4.790   2.504   6.327  1.00  0.00     0.021 C 
BRANCH  11  13
ATOM     13  C   UNL     1       2.612   3.467   5.315  1.00  0.00     0.204 C 
BRANCH  13  14
ATOM     14  N   UNL     1       3.135   3.633   3.955  1.00  0.00    -0.340 N 
ATOM     15  C   UNL     1       3.720   4.801   3.516  1.00  0.00     0.243 C 
ATOM     16  O   UNL     1       3.901   5.767   4.254  1.00  0.00    -0.273 OA
ATOM     17  H   UNL     1       2.882   2.931   3.254  1.00  0.00     0.164 HD
BRANCH  15  18
ATOM     18  C   UNL     1       4.004   4.816   1.994  1.00  0.00     0.171 C 
BRANCH  18  19
ATOM     19  N   UNL     1       3.707   6.168   1.526  1.00  0.00    -0.343 N 
ATOM     20  C   UNL     1       2.773   6.408   0.536  1.00  0.00     0.242 CG0
ATOM     21  O   UNL     1       2.248   5.489  -0.089  1.00  0.00    -0.273 OA
ATOM     22  H   UNL     1       4.200   6.955   1.932  1.00  0.00     0.164 HD
ATOM     23  G   UNL     1       2.538   7.901   0.231  1.00  0.00     0.000 G0
ENDBRANCH  18  19
BRANCH  18  24
ATOM     24  C   UNL     1       5.462   4.432   1.711  1.00  0.00     0.038 C 
BRANCH  24  25
ATOM     25  C   UNL     1       5.642   3.312   0.664  1.00  0.00    -0.015 C 
ATOM     26  C   UNL     1       4.323   2.623   0.312  1.00  0.00     0.007 C 
ATOM     27  C   UNL     1       6.641   2.276   1.186  1.00  0.00     0.007 C 
ENDBRANCH  24  25
ENDBRANCH  18  24
ENDBRANCH  15  18
ENDBRANCH  13  14
BRANCH  13  28
ATOM     28  C   UNL     1       1.094   3.298   5.201  1.00  0.00     0.327 C 
ATOM     29  O   UNL     1       0.412   3.544   4.218  1.00  0.00    -0.250 OA
BRANCH  28  30
ATOM     30  O   UNL     1       0.512   2.944   6.365  1.00  0.00    -0.480 OA
ATOM     31  H   UNL     1       0.279   2.001   6.240  1.00  0.00     0.296 HD
ENDBRANCH  28  30
ENDBRANCH  13  28
ENDBRANCH  11  13
ENDBRANCH   8  11
ENDBRANCH   6   7
BRANCH   6  32
ATOM     32  C   UNL     1       4.721  -0.643   2.570  1.00  0.00     0.037 C 
BRANCH  32  33
ATOM     33  C   UNL     1       3.739  -1.118   1.490  1.00  0.00     0.026 C 
BRANCH  33  34
ATOM     34  C   UNL     1       2.279  -0.924   1.901  1.00  0.00     0.146 C 
BRANCH  34  35
ATOM     35  N   UNL     1       1.810   0.352   1.379  1.00  0.00    -0.254 NA
ATOM     36  C   UNL     1       0.840   0.941   1.974  1.00  0.00     0.185 C 
ATOM     37  N   UNL     1       0.403   2.119   1.503  1.00  0.00    -0.370 N 
ATOM     38  N   UNL     1       0.149   0.545   3.058  1.00  0.00    -0.370 N 
ATOM     39  H   UNL     1       0.881   2.490   0.692  1.00  0.00     0.159 HD
ATOM     40  H   UNL     1      -0.226   2.720   2.007  1.00  0.00     0.159 HD
ATOM     41  H   UNL     1      -0.685   1.028   3.349  1.00  0.00     0.159 HD
ATOM     42  H   UNL     1       0.360  -0.332   3.508  1.00  0.00     0.159 HD
ENDBRANCH  34  35
ENDBRANCH  33  34
ENDBRANCH  32  33
ENDBRANCH   6  32
ENDBRANCH   4   6
ENDBRANCH   1   2
BRANCH   1  43
ATOM     43  C   UNL     1       8.278  -1.729   6.060  1.00  0.00     0.102 C 
ATOM     44  C   UNL     1       7.716  -0.339   6.404  1.00  0.00     0.020 C 
BRANCH  43  45
ATOM     45  C   UNL     1       9.637  -1.693   5.354  1.00  0.00     0.225 C 
ATOM     46  O   UNL     1       9.844  -1.044   4.332  1.00  0.00    -0.275 OA
ATOM     47  N   UNL     1      10.603  -2.515   5.886  1.00  0.00    -0.342 N 
ATOM     48  H   UNL     1      10.467  -2.919   6.802  1.00  0.00     0.164 HD
BRANCH  47  49
ATOM     49  C   UNL     1      11.961  -2.557   5.335  1.00  0.00     0.192 C 
BRANCH  49  50
ATOM     50  C   UNL     1      12.180  -3.886   4.607  1.00  0.00     0.047 C 
BRANCH  50  51
ATOM     51  C   UNL     1      11.153  -4.950   5.017  1.00  0.00     0.103 C 
BRANCH  51  52
ATOM     52  C   UNL     1      11.817  -6.277   5.381  1.00  0.00     0.226 C 
ATOM     53  O   UNL     1      12.748  -6.292   6.188  1.00  0.00    -0.275 OA
BRANCH  52  54
ATOM     54  N   UNL     1      11.256  -7.435   4.811  1.00  0.00    -0.311 N 
ATOM     55  C   UNL     1       9.909  -7.414   4.225  1.00  0.00     0.153 C 
BRANCH  54  56
ATOM     56  C   UNL     1      11.962  -8.650   4.777  1.00  0.00     0.102 C 
ATOM     57  C   UNL     1      11.651  -9.740   5.496  1.00  0.00     0.043 C 
BRANCH  56  58
ATOM     58  C   UNL     1      13.143  -8.833   3.853  1.00  0.00     0.268 C 
ATOM     59  O   UNL     1      14.304  -8.829   4.241  1.00  0.00    -0.268 OA
ATOM     60  N   UNL     1      12.778  -9.070   2.549  1.00  0.00    -0.339 N 
ATOM     61  H   UNL     1      11.795  -9.047   2.307  1.00  0.00     0.164 HD
BRANCH  60  62
ATOM     62  C   UNL     1      13.762  -9.338   1.501  1.00  0.00     0.168 CG0
ATOM     63  C   UNL     1      13.284  -8.808   0.155  1.00  0.00     0.041 C 
ATOM     64  G   UNL     1      14.037 -10.854   1.425  1.00  0.00     0.000 G0
ENDBRANCH  60  62
ENDBRANCH  56  58
ENDBRANCH  54  56
ENDBRANCH  52  54
ENDBRANCH  51  52
ENDBRANCH  50  51
ENDBRANCH  49  50
BRANCH  49  65
ATOM     65  C   UNL     1      13.023  -2.399   6.435  1.00  0.00     0.326 C 
ATOM     66  O   UNL     1      13.902  -3.207   6.696  1.00  0.00    -0.250 OA
BRANCH  65  67
ATOM     67  O   UNL     1      12.898  -1.280   7.183  1.00  0.00    -0.480 OA
ATOM     68  H   UNL     1      11.965  -1.011   7.041  1.00  0.00     0.296 HD
ENDBRANCH  65  67
ENDBRANCH  49  65
ENDBRANCH  47  49
ENDBRANCH  43  45
ENDBRANCH   1  43
BRANCH   1  69
ATOM     69  C   UNL     1       7.801  -3.591   4.241  1.00  0.00    -0.001 C 
ATOM     70  C   UNL     1       7.672  -3.496   2.906  1.00  0.00     0.001 C 
BRANCH  70  71
ATOM     71  C   UNL     1       8.207  -4.419   1.902  1.00  0.00    -0.055 C 
ATOM     72  C   UNL     1       9.504  -4.286   1.555  1.00  0.00    -0.018 C 
ATOM     73  C   UNL     1       7.274  -5.457   1.335  1.00  0.00     0.044 C 
BRANCH  72  74
ATOM     74  C   UNL     1      10.322  -5.093   0.557  1.00  0.00     0.038 C 
ATOM     75  C   UNL     1      11.420  -5.814   1.348  1.00  0.00     0.015 C 
BRANCH  74  76
ATOM     76  C   UNL     1      10.841  -4.136  -0.556  1.00  0.00     0.128 C 
BRANCH  76  77
ATOM     77  O   UNL     1      11.956  -4.734  -1.238  1.00  0.00    -0.381 OA
ATOM     78  C   UNL     1      12.984  -3.811  -1.572  1.00  0.00     0.195 C 
ENDBRANCH  76  77
BRANCH  76  79
ATOM     79  C   UNL     1       9.738  -3.643  -1.527  1.00  0.00     0.068 C 
BRANCH  79  80
ATOM     80  C   UNL     1       8.973  -4.680  -2.314  1.00  0.00    -0.045 A 
ATOM     81  C   UNL     1       9.594  -5.416  -3.331  1.00  0.00     0.004 A 
ATOM     82  C   UNL     1       7.613  -4.903  -2.054  1.00  0.00     0.004 A 
ATOM     83  C   UNL     1       8.876  -6.364  -4.064  1.00  0.00     0.000 A 
ATOM     84  C   UNL     1       6.896  -5.851  -2.787  1.00  0.00     0.000 A 
ATOM     85  C   UNL     1       7.527  -6.582  -3.791  1.00  0.00     0.000 A 
ENDBRANCH  79  80
ENDBRANCH  76  79
ENDBRANCH  74  76
ENDBRANCH  72  74
ENDBRANCH  70  71
ENDBRANCH   1  69
TORSDOF 17
ENDMDL
MODEL 14
REMARK VINA RESULT:    -6.190      4.184     10.367
REMARK INTER + INTRA:         -26.000
REMARK INTER:                 -19.170
REMARK INTRA:                  -6.829
REMARK UNBOUND:                -7.505
REMARK SMILES C=C1C(=O)N[C@H](C)C(=O)N[C@@H](CC(C)C)C(=O)N[C@@H](C(=O)O)[C@H](C)C(=O)N[C@@H](CCCN=C(N)N)C(=O)N[C@@H](/C=C/C(C)=C/[C@H](C)[C@H](Cc2ccccc2)OC)[C@H](C)C(=O)N[C@@H](C(=O)O)CCC(=O)N1C
REMARK SMILES IDX 39 1 38 2 37 3 36 4 28 6 27 7 25 8 26 9 23 11 24 12 19 13
REMARK SMILES IDX 18 14 16 15 17 16 11 18 10 19 8 20 9 21 12 24 13 25 14 26
REMARK SMILES IDX 15 27 20 28 21 29 22 30 29 32 30 33 31 34 32 35 33 36 34 37
REMARK SMILES IDX 35 38 57 43 58 44 59 45 60 46 61 47 62 49 66 50 67 51 68 52
REMARK SMILES IDX 69 53 70 54 71 55 2 56 1 57 3 58 4 59 5 60 6 62 7 63 63 65
REMARK SMILES IDX 64 66 65 67 40 69 41 70 42 71 44 72 43 73 45 74 46 75 47 76
REMARK SMILES IDX 55 77 56 78 48 79 49 80 50 81 54 82 51 83 53 84 52 85
REMARK H PARENT 38 5 27 10 18 17 10 22 22 31 34 39 34 40 35 41 35 42 61 48
REMARK H PARENT 5 61 65 68
REMARK Flexibility Score:  369.900
ROOT
ATOM      1  C   UNL     1       8.328  -4.660   0.441  1.00  0.00     0.117 C 
ENDROOT
BRANCH   1   2
ATOM      2  N   UNL     1       9.683  -5.030   0.849  1.00  0.00    -0.347 N 
ATOM      3  O   UNL     1       9.131  -6.200   2.745  1.00  0.00    -0.273 OA
ATOM      4  C   UNL     1       9.971  -5.851   1.922  1.00  0.00     0.243 C 
ATOM      5  H   UNL     1      10.468  -4.717   0.298  1.00  0.00     0.164 HD
BRANCH   4   6
ATOM      6  C   UNL     1      11.482  -6.155   2.086  1.00  0.00     0.171 C 
BRANCH   6   7
ATOM      7  N   UNL     1      11.676  -7.417   2.817  1.00  0.00    -0.344 N 
ATOM      8  C   UNL     1      12.188  -7.417   4.096  1.00  0.00     0.226 C 
ATOM      9  O   UNL     1      12.524  -6.390   4.673  1.00  0.00    -0.275 OA
ATOM     10  H   UNL     1      11.473  -8.292   2.349  1.00  0.00     0.164 HD
BRANCH   8  11
ATOM     11  C   UNL     1      12.276  -8.792   4.735  1.00  0.00     0.109 C 
ATOM     12  C   UNL     1      13.567  -8.914   5.546  1.00  0.00     0.021 C 
BRANCH  11  13
ATOM     13  C   UNL     1      10.985  -9.084   5.525  1.00  0.00     0.204 C 
BRANCH  13  14
ATOM     14  N   UNL     1      10.230  -7.862   5.820  1.00  0.00    -0.340 N 
ATOM     15  C   UNL     1       9.580  -7.654   7.017  1.00  0.00     0.243 C 
ATOM     16  O   UNL     1       9.637  -8.457   7.947  1.00  0.00    -0.273 OA
ATOM     17  H   UNL     1      10.018  -7.229   5.044  1.00  0.00     0.164 HD
BRANCH  15  18
ATOM     18  C   UNL     1       8.682  -6.393   7.023  1.00  0.00     0.171 C 
BRANCH  18  19
ATOM     19  N   UNL     1       8.159  -6.257   8.381  1.00  0.00    -0.343 N 
ATOM     20  C   UNL     1       6.954  -6.819   8.758  1.00  0.00     0.242 CG0
ATOM     21  O   UNL     1       6.205  -7.343   7.937  1.00  0.00    -0.273 OA
ATOM     22  H   UNL     1       8.689  -5.732   9.068  1.00  0.00     0.164 HD
ATOM     23  G   UNL     1       6.606  -6.638  10.250  1.00  0.00     0.000 G0
ENDBRANCH  18  19
BRANCH  18  24
ATOM     24  C   UNL     1       9.485  -5.155   6.603  1.00  0.00     0.038 C 
BRANCH  24  25
ATOM     25  C   UNL     1       8.814  -4.291   5.515  1.00  0.00    -0.015 C 
ATOM     26  C   UNL     1       9.811  -3.387   4.788  1.00  0.00     0.007 C 
ATOM     27  C   UNL     1       7.709  -3.437   6.143  1.00  0.00     0.007 C 
ENDBRANCH  24  25
ENDBRANCH  18  24
ENDBRANCH  15  18
ENDBRANCH  13  14
BRANCH  13  28
ATOM     28  C   UNL     1      10.034 -10.039   4.796  1.00  0.00     0.327 C 
ATOM     29  O   UNL     1       8.988 -10.492   5.235  1.00  0.00    -0.250 OA
BRANCH  28  30
ATOM     30  O   UNL     1      10.515 -10.458   3.608  1.00  0.00    -0.480 OA
ATOM     31  H   UNL     1      11.409 -10.062   3.556  1.00  0.00     0.296 HD
ENDBRANCH  28  30
ENDBRANCH  13  28
ENDBRANCH  11  13
ENDBRANCH   8  11
ENDBRANCH   6   7
BRANCH   6  32
ATOM     32  C   UNL     1      12.136  -6.218   0.702  1.00  0.00     0.037 C 
BRANCH  32  33
ATOM     33  C   UNL     1      13.667  -6.129   0.779  1.00  0.00     0.026 C 
BRANCH  33  34
ATOM     34  C   UNL     1      14.351  -6.723  -0.453  1.00  0.00     0.146 C 
BRANCH  34  35
ATOM     35  N   UNL     1      14.138  -8.164  -0.459  1.00  0.00    -0.254 NA
ATOM     36  C   UNL     1      13.469  -8.682  -1.421  1.00  0.00     0.185 C 
ATOM     37  N   UNL     1      13.272 -10.009  -1.439  1.00  0.00    -0.370 N 
ATOM     38  N   UNL     1      12.900  -8.075  -2.477  1.00  0.00    -0.370 N 
ATOM     39  H   UNL     1      13.680 -10.540  -0.680  1.00  0.00     0.159 HD
ATOM     40  H   UNL     1      12.914 -10.507  -2.236  1.00  0.00     0.159 HD
ATOM     41  H   UNL     1      12.280  -8.575  -3.093  1.00  0.00     0.159 HD
ATOM     42  H   UNL     1      12.955  -7.074  -2.584  1.00  0.00     0.159 HD
ENDBRANCH  34  35
ENDBRANCH  33  34
ENDBRANCH  32  33
ENDBRANCH   6  32
ENDBRANCH   4   6
ENDBRANCH   1   2
BRANCH   1  43
ATOM     43  C   UNL     1       8.237  -4.747  -1.110  1.00  0.00     0.102 C 
ATOM     44  C   UNL     1       9.206  -3.797  -1.834  1.00  0.00     0.020 C 
BRANCH  43  45
ATOM     45  C   UNL     1       6.784  -4.631  -1.584  1.00  0.00     0.225 C 
ATOM     46  O   UNL     1       6.081  -5.605  -1.836  1.00  0.00    -0.275 OA
ATOM     47  N   UNL     1       6.334  -3.349  -1.803  1.00  0.00    -0.342 N 
ATOM     48  H   UNL     1       6.864  -2.565  -1.451  1.00  0.00     0.164 HD
BRANCH  47  49
ATOM     49  C   UNL     1       4.954  -3.084  -2.223  1.00  0.00     0.192 C 
BRANCH  49  50
ATOM     50  C   UNL     1       4.946  -2.007  -3.311  1.00  0.00     0.047 C 
BRANCH  50  51
ATOM     51  C   UNL     1       6.355  -1.487  -3.626  1.00  0.00     0.103 C 
BRANCH  51  52
ATOM     52  C   UNL     1       6.629  -1.445  -5.128  1.00  0.00     0.226 C 
ATOM     53  O   UNL     1       5.820  -0.898  -5.880  1.00  0.00    -0.275 OA
BRANCH  52  54
ATOM     54  N   UNL     1       7.857  -1.982  -5.557  1.00  0.00    -0.311 N 
ATOM     55  C   UNL     1       8.251  -3.350  -5.196  1.00  0.00     0.153 C 
BRANCH  54  56
ATOM     56  C   UNL     1       8.747  -1.236  -6.348  1.00  0.00     0.102 C 
ATOM     57  C   UNL     1       9.713  -0.435  -5.870  1.00  0.00     0.043 C 
BRANCH  56  58
ATOM     58  C   UNL     1       8.704  -1.323  -7.855  1.00  0.00     0.268 C 
ATOM     59  O   UNL     1       7.721  -1.705  -8.476  1.00  0.00    -0.268 OA
ATOM     60  N   UNL     1       9.853  -0.868  -8.456  1.00  0.00    -0.339 N 
ATOM     61  H   UNL     1      10.627  -0.578  -7.870  1.00  0.00     0.164 HD
BRANCH  60  62
ATOM     62  C   UNL     1      10.001  -0.806  -9.909  1.00  0.00     0.168 CG0
ATOM     63  C   UNL     1      10.651  -2.074 -10.448  1.00  0.00     0.041 C 
ATOM     64  G   UNL     1      10.829   0.437 -10.292  1.00  0.00     0.000 G0
ENDBRANCH  60  62
ENDBRANCH  56  58
ENDBRANCH  54  56
ENDBRANCH  52  54
ENDBRANCH  51  52
ENDBRANCH  50  51
ENDBRANCH  49  50
BRANCH  49  65
ATOM     65  C   UNL     1       4.082  -2.623  -1.045  1.00  0.00     0.326 C 
ATOM     66  O   UNL     1       2.861  -2.558  -1.048  1.00  0.00    -0.250 OA
BRANCH  65  67
ATOM     67  O   UNL     1       4.772  -2.215   0.042  1.00  0.00    -0.480 OA
ATOM     68  H   UNL     1       5.543  -1.741  -0.338  1.00  0.00     0.296 HD
ENDBRANCH  65  67
ENDBRANCH  49  65
ENDBRANCH  47  49
ENDBRANCH  43  45
ENDBRANCH   1  43
BRANCH   1  69
ATOM     69  C   UNL     1       8.026  -3.337   1.120  1.00  0.00    -0.001 C 
ATOM     70  C   UNL     1       7.238  -3.130   2.191  1.00  0.00     0.001 C 
BRANCH  70  71
ATOM     71  C   UNL     1       6.972  -1.850   2.851  1.00  0.00    -0.055 C 
ATOM     72  C   UNL     1       5.770  -1.689   3.443  1.00  0.00    -0.018 C 
ATOM     73  C   UNL     1       8.060  -0.809   2.831  1.00  0.00     0.044 C 
BRANCH  72  74
ATOM     74  C   UNL     1       5.222  -0.485   4.198  1.00  0.00     0.038 C 
ATOM     75  C   UNL     1       5.168  -0.868   5.682  1.00  0.00     0.015 C 
BRANCH  74  76
ATOM     76  C   UNL     1       3.851  -0.086   3.576  1.00  0.00     0.128 C 
BRANCH  76  77
ATOM     77  O   UNL     1       3.486  -1.024   2.549  1.00  0.00    -0.381 OA
ATOM     78  C   UNL     1       2.267  -0.705   1.891  1.00  0.00     0.195 C 
ENDBRANCH  76  77
BRANCH  76  79
ATOM     79  C   UNL     1       2.726   0.129   4.619  1.00  0.00     0.068 C 
BRANCH  79  80
ATOM     80  C   UNL     1       2.383   1.547   5.007  1.00  0.00    -0.045 A 
ATOM     81  C   UNL     1       3.050   2.190   6.058  1.00  0.00     0.004 A 
ATOM     82  C   UNL     1       1.364   2.238   4.333  1.00  0.00     0.004 A 
ATOM     83  C   UNL     1       2.717   3.497   6.420  1.00  0.00     0.000 A 
ATOM     84  C   UNL     1       1.031   3.545   4.696  1.00  0.00     0.000 A 
ATOM     85  C   UNL     1       1.709   4.174   5.738  1.00  0.00     0.000 A 
ENDBRANCH  79  80
ENDBRANCH  76  79
ENDBRANCH  74  76
ENDBRANCH  72  74
ENDBRANCH  70  71
ENDBRANCH   1  69
TORSDOF 17
ENDMDL
MODEL 15
REMARK VINA RESULT:    -6.190      2.702      4.476
REMARK INTER + INTRA:         -25.998
REMARK INTER:                 -18.782
REMARK INTRA:                  -7.216
REMARK UNBOUND:                -7.505
REMARK SMILES C=C1C(=O)N[C@H](C)C(=O)N[C@@H](CC(C)C)C(=O)N[C@@H](C(=O)O)[C@H](C)C(=O)N[C@@H](CCCN=C(N)N)C(=O)N[C@@H](/C=C/C(C)=C/[C@H](C)[C@H](Cc2ccccc2)OC)[C@H](C)C(=O)N[C@@H](C(=O)O)CCC(=O)N1C
REMARK SMILES IDX 39 1 38 2 37 3 36 4 28 6 27 7 25 8 26 9 23 11 24 12 19 13
REMARK SMILES IDX 18 14 16 15 17 16 11 18 10 19 8 20 9 21 12 24 13 25 14 26
REMARK SMILES IDX 15 27 20 28 21 29 22 30 29 32 30 33 31 34 32 35 33 36 34 37
REMARK SMILES IDX 35 38 57 43 58 44 59 45 60 46 61 47 62 49 66 50 67 51 68 52
REMARK SMILES IDX 69 53 70 54 71 55 2 56 1 57 3 58 4 59 5 60 6 62 7 63 63 65
REMARK SMILES IDX 64 66 65 67 40 69 41 70 42 71 44 72 43 73 45 74 46 75 47 76
REMARK SMILES IDX 55 77 56 78 48 79 49 80 50 81 54 82 51 83 53 84 52 85
REMARK H PARENT 38 5 27 10 18 17 10 22 22 31 34 39 34 40 35 41 35 42 61 48
REMARK H PARENT 5 61 65 68
REMARK Flexibility Score:  369.900
ROOT
ATOM      1  C   UNL     1       6.753  -1.140   3.666  1.00  0.00     0.117 C 
ENDROOT
BRANCH   1   2
ATOM      2  N   UNL     1       7.978  -1.907   3.888  1.00  0.00    -0.347 N 
ATOM      3  O   UNL     1       9.201  -0.256   4.912  1.00  0.00    -0.273 OA
ATOM      4  C   UNL     1       9.076  -1.430   4.578  1.00  0.00     0.243 C 
ATOM      5  H   UNL     1       8.028  -2.863   3.570  1.00  0.00     0.164 HD
BRANCH   4   6
ATOM      6  C   UNL     1      10.209  -2.474   4.747  1.00  0.00     0.171 C 
BRANCH   6   7
ATOM      7  N   UNL     1       9.701  -3.679   5.422  1.00  0.00    -0.344 N 
ATOM      8  C   UNL     1      10.480  -4.351   6.339  1.00  0.00     0.226 C 
ATOM      9  O   UNL     1      11.621  -4.002   6.618  1.00  0.00    -0.275 OA
ATOM     10  H   UNL     1       8.789  -4.036   5.168  1.00  0.00     0.164 HD
BRANCH   8  11
ATOM     11  C   UNL     1       9.795  -5.541   6.988  1.00  0.00     0.109 C 
ATOM     12  C   UNL     1       8.280  -5.434   6.817  1.00  0.00     0.021 C 
BRANCH  11  13
ATOM     13  C   UNL     1      10.416  -6.851   6.462  1.00  0.00     0.204 C 
BRANCH  13  14
ATOM     14  N   UNL     1      11.170  -6.645   5.222  1.00  0.00    -0.340 N 
ATOM     15  C   UNL     1      10.668  -6.963   3.979  1.00  0.00     0.243 C 
ATOM     16  O   UNL     1       9.525  -7.388   3.818  1.00  0.00    -0.273 OA
ATOM     17  H   UNL     1      12.170  -6.441   5.296  1.00  0.00     0.164 HD
BRANCH  15  18
ATOM     18  C   UNL     1      11.714  -6.856   2.843  1.00  0.00     0.171 C 
BRANCH  18  19
ATOM     19  N   UNL     1      12.169  -8.216   2.562  1.00  0.00    -0.343 N 
ATOM     20  C   UNL     1      13.087  -8.859   3.370  1.00  0.00     0.242 CG0
ATOM     21  O   UNL     1      13.662  -8.272   4.283  1.00  0.00    -0.273 OA
ATOM     22  H   UNL     1      11.808  -8.704   1.750  1.00  0.00     0.164 HD
ATOM     23  G   UNL     1      13.385 -10.316   2.961  1.00  0.00     0.000 G0
ENDBRANCH  18  19
BRANCH  18  24
ATOM     24  C   UNL     1      11.098  -6.202   1.600  1.00  0.00     0.038 C 
BRANCH  24  25
ATOM     25  C   UNL     1      12.107  -5.871   0.479  1.00  0.00    -0.015 C 
ATOM     26  C   UNL     1      12.490  -7.100  -0.345  1.00  0.00     0.007 C 
ATOM     27  C   UNL     1      13.365  -5.245   1.087  1.00  0.00     0.007 C 
ENDBRANCH  24  25
ENDBRANCH  18  24
ENDBRANCH  15  18
ENDBRANCH  13  14
BRANCH  13  28
ATOM     28  C   UNL     1      11.364  -7.514   7.465  1.00  0.00     0.327 C 
ATOM     29  O   UNL     1      11.384  -7.330   8.673  1.00  0.00    -0.250 OA
BRANCH  28  30
ATOM     30  O   UNL     1      12.307  -8.277   6.876  1.00  0.00    -0.480 OA
ATOM     31  H   UNL     1      11.813  -9.050   6.533  1.00  0.00     0.296 HD
ENDBRANCH  28  30
ENDBRANCH  13  28
ENDBRANCH  11  13
ENDBRANCH   8  11
ENDBRANCH   6   7
BRANCH   6  32
ATOM     32  C   UNL     1      10.784  -2.819   3.369  1.00  0.00     0.037 C 
BRANCH  32  33
ATOM     33  C   UNL     1      11.675  -1.699   2.816  1.00  0.00     0.026 C 
BRANCH  33  34
ATOM     34  C   UNL     1      13.144  -2.114   2.718  1.00  0.00     0.146 C 
BRANCH  34  35
ATOM     35  N   UNL     1      13.552  -2.702   3.986  1.00  0.00    -0.254 NA
ATOM     36  C   UNL     1      13.930  -1.924   4.931  1.00  0.00     0.185 C 
ATOM     37  N   UNL     1      14.303  -2.455   6.105  1.00  0.00    -0.370 N 
ATOM     38  N   UNL     1      14.018  -0.582   4.936  1.00  0.00    -0.370 N 
ATOM     39  H   UNL     1      14.254  -3.463   6.184  1.00  0.00     0.159 HD
ATOM     40  H   UNL     1      14.443  -1.914   6.941  1.00  0.00     0.159 HD
ATOM     41  H   UNL     1      14.463  -0.092   5.695  1.00  0.00     0.159 HD
ATOM     42  H   UNL     1      13.784  -0.050   4.112  1.00  0.00     0.159 HD
ENDBRANCH  34  35
ENDBRANCH  33  34
ENDBRANCH  32  33
ENDBRANCH   6  32
ENDBRANCH   4   6
ENDBRANCH   1   2
BRANCH   1  43
ATOM     43  C   UNL     1       5.920  -1.145   4.980  1.00  0.00     0.102 C 
ATOM     44  C   UNL     1       4.741  -2.133   4.954  1.00  0.00     0.020 C 
BRANCH  43  45
ATOM     45  C   UNL     1       5.529   0.278   5.390  1.00  0.00     0.225 C 
ATOM     46  O   UNL     1       5.905   0.803   6.434  1.00  0.00    -0.275 OA
ATOM     47  N   UNL     1       4.642   0.913   4.551  1.00  0.00    -0.342 N 
ATOM     48  H   UNL     1       4.464   0.534   3.632  1.00  0.00     0.164 HD
BRANCH  47  49
ATOM     49  C   UNL     1       4.206   2.291   4.798  1.00  0.00     0.192 C 
BRANCH  49  50
ATOM     50  C   UNL     1       2.702   2.312   5.082  1.00  0.00     0.047 C 
BRANCH  50  51
ATOM     51  C   UNL     1       2.133   0.905   5.313  1.00  0.00     0.103 C 
BRANCH  51  52
ATOM     52  C   UNL     1       0.882   0.649   4.476  1.00  0.00     0.226 C 
ATOM     53  O   UNL     1      -0.231   0.862   4.961  1.00  0.00    -0.275 OA
BRANCH  52  54
ATOM     54  N   UNL     1       1.091   0.245   3.144  1.00  0.00    -0.311 N 
ATOM     55  C   UNL     1       1.913  -0.930   2.830  1.00  0.00     0.153 C 
BRANCH  54  56
ATOM     56  C   UNL     1       0.518   0.945   2.068  1.00  0.00     0.102 C 
ATOM     57  C   UNL     1       0.543   0.541   0.788  1.00  0.00     0.043 C 
BRANCH  56  58
ATOM     58  C   UNL     1      -0.236   2.234   2.296  1.00  0.00     0.268 C 
ATOM     59  O   UNL     1       0.302   3.333   2.298  1.00  0.00    -0.268 OA
ATOM     60  N   UNL     1      -1.591   2.050   2.434  1.00  0.00    -0.339 N 
ATOM     61  H   UNL     1      -1.957   1.105   2.432  1.00  0.00     0.164 HD
BRANCH  60  62
ATOM     62  C   UNL     1      -2.516   3.170   2.601  1.00  0.00     0.168 CG0
ATOM     63  C   UNL     1      -3.343   3.012   3.871  1.00  0.00     0.041 C 
ATOM     64  G   UNL     1      -3.431   3.273   1.363  1.00  0.00     0.000 G0
ENDBRANCH  60  62
ENDBRANCH  56  58
ENDBRANCH  54  56
ENDBRANCH  52  54
ENDBRANCH  51  52
ENDBRANCH  50  51
ENDBRANCH  49  50
BRANCH  49  65
ATOM     65  C   UNL     1       4.511   3.205   3.601  1.00  0.00     0.326 C 
ATOM     66  O   UNL     1       3.946   4.259   3.350  1.00  0.00    -0.250 OA
BRANCH  65  67
ATOM     67  O   UNL     1       5.453   2.731   2.756  1.00  0.00    -0.480 OA
ATOM     68  H   UNL     1       4.931   2.296   2.048  1.00  0.00     0.296 HD
ENDBRANCH  65  67
ENDBRANCH  49  65
ENDBRANCH  47  49
ENDBRANCH  43  45
ENDBRANCH   1  43
BRANCH   1  69
ATOM     69  C   UNL     1       6.128  -1.695   2.399  1.00  0.00    -0.001 C 
ATOM     70  C   UNL     1       5.494  -1.009   1.432  1.00  0.00     0.001 C 
BRANCH  70  71
ATOM     71  C   UNL     1       4.914  -1.554   0.203  1.00  0.00    -0.055 C 
ATOM     72  C   UNL     1       5.437  -2.699  -0.284  1.00  0.00    -0.018 C 
ATOM     73  C   UNL     1       3.770  -0.803  -0.426  1.00  0.00     0.044 C 
BRANCH  72  74
ATOM     74  C   UNL     1       5.040  -3.488  -1.523  1.00  0.00     0.038 C 
ATOM     75  C   UNL     1       4.682  -4.906  -1.062  1.00  0.00     0.015 C 
BRANCH  74  76
ATOM     76  C   UNL     1       6.202  -3.412  -2.558  1.00  0.00     0.128 C 
BRANCH  76  77
ATOM     77  O   UNL     1       5.920  -2.398  -3.538  1.00  0.00    -0.381 OA
ATOM     78  C   UNL     1       6.890  -1.360  -3.580  1.00  0.00     0.195 C 
ENDBRANCH  76  77
BRANCH  76  79
ATOM     79  C   UNL     1       7.605  -3.256  -1.919  1.00  0.00     0.068 C 
BRANCH  79  80
ATOM     80  C   UNL     1       8.707  -4.167  -2.402  1.00  0.00    -0.045 A 
ATOM     81  C   UNL     1      10.055  -3.827  -2.224  1.00  0.00     0.004 A 
ATOM     82  C   UNL     1       8.396  -5.363  -3.066  1.00  0.00     0.004 A 
ATOM     83  C   UNL     1      11.068  -4.669  -2.687  1.00  0.00     0.000 A 
ATOM     84  C   UNL     1       9.410  -6.204  -3.529  1.00  0.00     0.000 A 
ATOM     85  C   UNL     1      10.746  -5.858  -3.338  1.00  0.00     0.000 A 
ENDBRANCH  79  80
ENDBRANCH  76  79
ENDBRANCH  74  76
ENDBRANCH  72  74
ENDBRANCH  70  71
ENDBRANCH   1  69
TORSDOF 17
ENDMDL
MODEL 16
REMARK VINA RESULT:    -6.180      4.512      9.961
REMARK INTER + INTRA:         -25.968
REMARK INTER:                 -19.567
REMARK INTRA:                  -6.401
REMARK UNBOUND:                -7.505
REMARK SMILES C=C1C(=O)N[C@H](C)C(=O)N[C@@H](CC(C)C)C(=O)N[C@@H](C(=O)O)[C@H](C)C(=O)N[C@@H](CCCN=C(N)N)C(=O)N[C@@H](/C=C/C(C)=C/[C@H](C)[C@H](Cc2ccccc2)OC)[C@H](C)C(=O)N[C@@H](C(=O)O)CCC(=O)N1C
REMARK SMILES IDX 39 1 38 2 37 3 36 4 28 6 27 7 25 8 26 9 23 11 24 12 19 13
REMARK SMILES IDX 18 14 16 15 17 16 11 18 10 19 8 20 9 21 12 24 13 25 14 26
REMARK SMILES IDX 15 27 20 28 21 29 22 30 29 32 30 33 31 34 32 35 33 36 34 37
REMARK SMILES IDX 35 38 57 43 58 44 59 45 60 46 61 47 62 49 66 50 67 51 68 52
REMARK SMILES IDX 69 53 70 54 71 55 2 56 1 57 3 58 4 59 5 60 6 62 7 63 63 65
REMARK SMILES IDX 64 66 65 67 40 69 41 70 42 71 44 72 43 73 45 74 46 75 47 76
REMARK SMILES IDX 55 77 56 78 48 79 49 80 50 81 54 82 51 83 53 84 52 85
REMARK H PARENT 38 5 27 10 18 17 10 22 22 31 34 39 34 40 35 41 35 42 61 48
REMARK H PARENT 5 61 65 68
REMARK Flexibility Score:  369.900
ROOT
ATOM      1  C   UNL     1       8.648  -4.701   0.294  1.00  0.00     0.117 C 
ENDROOT
BRANCH   1   2
ATOM      2  N   UNL     1       9.962  -5.105   0.794  1.00  0.00    -0.347 N 
ATOM      3  O   UNL     1       9.254  -6.207   2.680  1.00  0.00    -0.273 OA
ATOM      4  C   UNL     1      10.154  -5.907   1.903  1.00  0.00     0.243 C 
ATOM      5  H   UNL     1      10.790  -4.834   0.286  1.00  0.00     0.164 HD
BRANCH   4   6
ATOM      6  C   UNL     1      11.640  -6.259   2.168  1.00  0.00     0.171 C 
BRANCH   6   7
ATOM      7  N   UNL     1      11.742  -7.469   2.999  1.00  0.00    -0.344 N 
ATOM      8  C   UNL     1      12.162  -7.389   4.309  1.00  0.00     0.226 C 
ATOM      9  O   UNL     1      12.488  -6.331   4.834  1.00  0.00    -0.275 OA
ATOM     10  H   UNL     1      11.546  -8.370   2.580  1.00  0.00     0.164 HD
BRANCH   8  11
ATOM     11  C   UNL     1      12.161  -8.716   5.048  1.00  0.00     0.109 C 
ATOM     12  C   UNL     1      13.345  -8.780   6.014  1.00  0.00     0.021 C 
BRANCH  11  13
ATOM     13  C   UNL     1      10.782  -8.951   5.696  1.00  0.00     0.204 C 
BRANCH  13  14
ATOM     14  N   UNL     1      10.006  -7.712   5.807  1.00  0.00    -0.340 N 
ATOM     15  C   UNL     1       9.734  -7.106   7.014  1.00  0.00     0.243 C 
ATOM     16  O   UNL     1      10.175  -7.530   8.081  1.00  0.00    -0.273 OA
ATOM     17  H   UNL     1       9.487  -7.395   4.984  1.00  0.00     0.164 HD
BRANCH  15  18
ATOM     18  C   UNL     1       8.729  -5.933   6.905  1.00  0.00     0.171 C 
BRANCH  18  19
ATOM     19  N   UNL     1       8.060  -5.832   8.200  1.00  0.00    -0.343 N 
ATOM     20  C   UNL     1       7.021  -6.672   8.551  1.00  0.00     0.242 CG0
ATOM     21  O   UNL     1       6.523  -7.452   7.743  1.00  0.00    -0.273 OA
ATOM     22  H   UNL     1       8.360  -5.124   8.861  1.00  0.00     0.164 HD
ATOM     23  G   UNL     1       6.494  -6.468   9.987  1.00  0.00     0.000 G0
ENDBRANCH  18  19
BRANCH  18  24
ATOM     24  C   UNL     1       9.453  -4.631   6.543  1.00  0.00     0.038 C 
BRANCH  24  25
ATOM     25  C   UNL     1       8.893  -3.905   5.302  1.00  0.00    -0.015 C 
ATOM     26  C   UNL     1       9.985  -3.209   4.489  1.00  0.00     0.007 C 
ATOM     27  C   UNL     1       7.842  -2.880   5.735  1.00  0.00     0.007 C 
ENDBRANCH  24  25
ENDBRANCH  18  24
ENDBRANCH  15  18
ENDBRANCH  13  14
BRANCH  13  28
ATOM     28  C   UNL     1       9.920  -9.959   4.930  1.00  0.00     0.327 C 
ATOM     29  O   UNL     1       8.857 -10.431   5.303  1.00  0.00    -0.250 OA
BRANCH  28  30
ATOM     30  O   UNL     1      10.504 -10.403   3.799  1.00  0.00    -0.480 OA
ATOM     31  H   UNL     1      11.120  -9.684   3.548  1.00  0.00     0.296 HD
ENDBRANCH  28  30
ENDBRANCH  13  28
ENDBRANCH  11  13
ENDBRANCH   8  11
ENDBRANCH   6   7
BRANCH   6  32
ATOM     32  C   UNL     1      12.358  -6.453   0.828  1.00  0.00     0.037 C 
BRANCH  32  33
ATOM     33  C   UNL     1      13.277  -7.683   0.835  1.00  0.00     0.026 C 
BRANCH  33  34
ATOM     34  C   UNL     1      13.274  -8.423  -0.503  1.00  0.00     0.146 C 
BRANCH  34  35
ATOM     35  N   UNL     1      14.139  -7.713  -1.434  1.00  0.00    -0.254 NA
ATOM     36  C   UNL     1      13.628  -7.241  -2.510  1.00  0.00     0.185 C 
ATOM     37  N   UNL     1      14.416  -6.581  -3.373  1.00  0.00    -0.370 N 
ATOM     38  N   UNL     1      12.355  -7.304  -2.939  1.00  0.00    -0.370 N 
ATOM     39  H   UNL     1      15.389  -6.482  -3.115  1.00  0.00     0.159 HD
ATOM     40  H   UNL     1      14.064  -6.037  -4.142  1.00  0.00     0.159 HD
ATOM     41  H   UNL     1      12.105  -7.016  -3.870  1.00  0.00     0.159 HD
ATOM     42  H   UNL     1      11.655  -7.786  -2.397  1.00  0.00     0.159 HD
ENDBRANCH  34  35
ENDBRANCH  33  34
ENDBRANCH  32  33
ENDBRANCH   6  32
ENDBRANCH   4   6
ENDBRANCH   1   2
BRANCH   1  43
ATOM     43  C   UNL     1       8.688  -4.703  -1.261  1.00  0.00     0.102 C 
ATOM     44  C   UNL     1       9.652  -3.658  -1.850  1.00  0.00     0.020 C 
BRANCH  43  45
ATOM     45  C   UNL     1       7.275  -4.645  -1.848  1.00  0.00     0.225 C 
ATOM     46  O   UNL     1       6.587  -5.644  -2.041  1.00  0.00    -0.275 OA
ATOM     47  N   UNL     1       6.847  -3.397  -2.241  1.00  0.00    -0.342 N 
ATOM     48  H   UNL     1       7.354  -2.577  -1.940  1.00  0.00     0.164 HD
BRANCH  47  49
ATOM     49  C   UNL     1       5.503  -3.185  -2.787  1.00  0.00     0.192 C 
BRANCH  49  50
ATOM     50  C   UNL     1       5.312  -1.704  -3.122  1.00  0.00     0.047 C 
BRANCH  50  51
ATOM     51  C   UNL     1       3.963  -1.429  -3.799  1.00  0.00     0.103 C 
BRANCH  51  52
ATOM     52  C   UNL     1       4.132  -0.852  -5.203  1.00  0.00     0.226 C 
ATOM     53  O   UNL     1       5.217  -0.957  -5.779  1.00  0.00    -0.275 OA
BRANCH  52  54
ATOM     54  N   UNL     1       2.985  -0.290  -5.793  1.00  0.00    -0.311 N 
ATOM     55  C   UNL     1       2.306   0.860  -5.179  1.00  0.00     0.153 C 
BRANCH  54  56
ATOM     56  C   UNL     1       2.450  -0.800  -6.987  1.00  0.00     0.102 C 
ATOM     57  C   UNL     1       1.551  -1.795  -7.064  1.00  0.00     0.043 C 
BRANCH  56  58
ATOM     58  C   UNL     1       2.833  -0.207  -8.323  1.00  0.00     0.268 C 
ATOM     59  O   UNL     1       2.022   0.292  -9.091  1.00  0.00    -0.268 OA
ATOM     60  N   UNL     1       4.188  -0.228  -8.554  1.00  0.00    -0.339 N 
ATOM     61  H   UNL     1       4.792  -0.669  -7.872  1.00  0.00     0.164 HD
BRANCH  60  62
ATOM     62  C   UNL     1       4.781   0.352  -9.759  1.00  0.00     0.168 CG0
ATOM     63  C   UNL     1       6.109   1.030  -9.443  1.00  0.00     0.041 C 
ATOM     64  G   UNL     1       3.793   1.353 -10.391  1.00  0.00     0.000 G0
ENDBRANCH  60  62
ENDBRANCH  56  58
ENDBRANCH  54  56
ENDBRANCH  52  54
ENDBRANCH  51  52
ENDBRANCH  50  51
ENDBRANCH  49  50
BRANCH  49  65
ATOM     65  C   UNL     1       4.413  -3.627  -1.798  1.00  0.00     0.326 C 
ATOM     66  O   UNL     1       4.195  -3.119  -0.707  1.00  0.00    -0.250 OA
BRANCH  65  67
ATOM     67  O   UNL     1       3.701  -4.707  -2.189  1.00  0.00    -0.480 OA
ATOM     68  H   UNL     1       4.288  -5.147  -2.841  1.00  0.00     0.296 HD
ENDBRANCH  65  67
ENDBRANCH  49  65
ENDBRANCH  47  49
ENDBRANCH  43  45
ENDBRANCH   1  43
BRANCH   1  69
ATOM     69  C   UNL     1       8.298  -3.413   1.017  1.00  0.00    -0.001 C 
ATOM     70  C   UNL     1       7.135  -3.103   1.617  1.00  0.00     0.001 C 
BRANCH  70  71
ATOM     71  C   UNL     1       6.815  -1.865   2.330  1.00  0.00    -0.055 C 
ATOM     72  C   UNL     1       5.554  -1.710   2.784  1.00  0.00    -0.018 C 
ATOM     73  C   UNL     1       7.918  -0.856   2.514  1.00  0.00     0.044 C 
BRANCH  72  74
ATOM     74  C   UNL     1       4.942  -0.546   3.551  1.00  0.00     0.038 C 
ATOM     75  C   UNL     1       4.758  -1.007   5.002  1.00  0.00     0.015 C 
BRANCH  74  76
ATOM     76  C   UNL     1       3.632  -0.107   2.834  1.00  0.00     0.128 C 
BRANCH  76  77
ATOM     77  O   UNL     1       3.382  -0.958   1.703  1.00  0.00    -0.381 OA
ATOM     78  C   UNL     1       2.724  -0.301   0.628  1.00  0.00     0.195 C 
ENDBRANCH  76  77
BRANCH  76  79
ATOM     79  C   UNL     1       2.408   0.012   3.777  1.00  0.00     0.068 C 
BRANCH  79  80
ATOM     80  C   UNL     1       2.055   1.380   4.309  1.00  0.00    -0.045 A 
ATOM     81  C   UNL     1       2.020   1.631   5.687  1.00  0.00     0.004 A 
ATOM     82  C   UNL     1       1.728   2.419   3.425  1.00  0.00     0.004 A 
ATOM     83  C   UNL     1       1.679   2.896   6.171  1.00  0.00     0.000 A 
ATOM     84  C   UNL     1       1.386   3.683   3.911  1.00  0.00     0.000 A 
ATOM     85  C   UNL     1       1.363   3.922   5.283  1.00  0.00     0.000 A 
ENDBRANCH  79  80
ENDBRANCH  76  79
ENDBRANCH  74  76
ENDBRANCH  72  74
ENDBRANCH  70  71
ENDBRANCH   1  69
TORSDOF 17
ENDMDL
MODEL 17
REMARK VINA RESULT:    -6.178      2.138      4.378
REMARK INTER + INTRA:         -25.963
REMARK INTER:                 -18.152
REMARK INTRA:                  -7.811
REMARK UNBOUND:                -7.505
REMARK SMILES C=C1C(=O)N[C@H](C)C(=O)N[C@@H](CC(C)C)C(=O)N[C@@H](C(=O)O)[C@H](C)C(=O)N[C@@H](CCCN=C(N)N)C(=O)N[C@@H](/C=C/C(C)=C/[C@H](C)[C@H](Cc2ccccc2)OC)[C@H](C)C(=O)N[C@@H](C(=O)O)CCC(=O)N1C
REMARK SMILES IDX 39 1 38 2 37 3 36 4 28 6 27 7 25 8 26 9 23 11 24 12 19 13
REMARK SMILES IDX 18 14 16 15 17 16 11 18 10 19 8 20 9 21 12 24 13 25 14 26
REMARK SMILES IDX 15 27 20 28 21 29 22 30 29 32 30 33 31 34 32 35 33 36 34 37
REMARK SMILES IDX 35 38 57 43 58 44 59 45 60 46 61 47 62 49 66 50 67 51 68 52
REMARK SMILES IDX 69 53 70 54 71 55 2 56 1 57 3 58 4 59 5 60 6 62 7 63 63 65
REMARK SMILES IDX 64 66 65 67 40 69 41 70 42 71 44 72 43 73 45 74 46 75 47 76
REMARK SMILES IDX 55 77 56 78 48 79 49 80 50 81 54 82 51 83 53 84 52 85
REMARK H PARENT 38 5 27 10 18 17 10 22 22 31 34 39 34 40 35 41 35 42 61 48
REMARK H PARENT 5 61 65 68
REMARK Flexibility Score:  369.900
ROOT
ATOM      1  C   UNL     1       8.903  -1.153   4.802  1.00  0.00     0.117 C 
ENDROOT
BRANCH   1   2
ATOM      2  N   UNL     1       9.866  -2.208   5.119  1.00  0.00    -0.347 N 
ATOM      3  O   UNL     1      10.524  -1.423   7.174  1.00  0.00    -0.273 OA
ATOM      4  C   UNL     1      10.535  -2.308   6.324  1.00  0.00     0.243 C 
ATOM      5  H   UNL     1      10.031  -2.944   4.450  1.00  0.00     0.164 HD
BRANCH   4   6
ATOM      6  C   UNL     1      11.433  -3.565   6.436  1.00  0.00     0.171 C 
BRANCH   6   7
ATOM      7  N   UNL     1      10.617  -4.788   6.370  1.00  0.00    -0.344 N 
ATOM      8  C   UNL     1      11.185  -6.025   6.587  1.00  0.00     0.226 C 
ATOM      9  O   UNL     1      12.379  -6.171   6.820  1.00  0.00    -0.275 OA
ATOM     10  H   UNL     1       9.641  -4.713   6.113  1.00  0.00     0.164 HD
BRANCH   8  11
ATOM     11  C   UNL     1      10.202  -7.182   6.538  1.00  0.00     0.109 C 
ATOM     12  C   UNL     1       8.770  -6.660   6.648  1.00  0.00     0.021 C 
BRANCH  11  13
ATOM     13  C   UNL     1      10.482  -8.051   5.296  1.00  0.00     0.204 C 
BRANCH  13  14
ATOM     14  N   UNL     1      11.281  -7.340   4.293  1.00  0.00    -0.340 N 
ATOM     15  C   UNL     1      10.720  -6.676   3.224  1.00  0.00     0.243 C 
ATOM     16  O   UNL     1       9.504  -6.581   3.069  1.00  0.00    -0.273 OA
ATOM     17  H   UNL     1      12.291  -7.506   4.278  1.00  0.00     0.164 HD
BRANCH  15  18
ATOM     18  C   UNL     1      11.761  -6.181   2.189  1.00  0.00     0.171 C 
BRANCH  18  19
ATOM     19  N   UNL     1      12.104  -7.332   1.357  1.00  0.00    -0.343 N 
ATOM     20  C   UNL     1      13.404  -7.585   0.964  1.00  0.00     0.242 CG0
ATOM     21  O   UNL     1      14.310  -6.784   1.183  1.00  0.00    -0.273 OA
ATOM     22  H   UNL     1      11.371  -7.962   1.052  1.00  0.00     0.164 HD
ATOM     23  G   UNL     1      13.583  -8.887   0.156  1.00  0.00     0.000 G0
ENDBRANCH  18  19
BRANCH  18  24
ATOM     24  C   UNL     1      11.186  -5.032   1.351  1.00  0.00     0.038 C 
BRANCH  24  25
ATOM     25  C   UNL     1      10.656  -5.451  -0.037  1.00  0.00    -0.015 C 
ATOM     26  C   UNL     1      11.440  -4.807  -1.181  1.00  0.00     0.007 C 
ATOM     27  C   UNL     1       9.175  -5.081  -0.156  1.00  0.00     0.007 C 
ENDBRANCH  24  25
ENDBRANCH  18  24
ENDBRANCH  15  18
ENDBRANCH  13  14
BRANCH  13  28
ATOM     28  C   UNL     1      11.219  -9.353   5.624  1.00  0.00     0.327 C 
ATOM     29  O   UNL     1      10.705 -10.438   5.848  1.00  0.00    -0.250 OA
BRANCH  28  30
ATOM     30  O   UNL     1      12.550  -9.185   5.768  1.00  0.00    -0.480 OA
ATOM     31  H   UNL     1      12.782  -8.515   5.092  1.00  0.00     0.296 HD
ENDBRANCH  28  30
ENDBRANCH  13  28
ENDBRANCH  11  13
ENDBRANCH   8  11
ENDBRANCH   6   7
BRANCH   6  32
ATOM     32  C   UNL     1      12.475  -3.541   5.312  1.00  0.00     0.037 C 
BRANCH  32  33
ATOM     33  C   UNL     1      13.691  -2.674   5.668  1.00  0.00     0.026 C 
BRANCH  33  34
ATOM     34  C   UNL     1      14.058  -1.696   4.551  1.00  0.00     0.146 C 
BRANCH  34  35
ATOM     35  N   UNL     1      12.870  -0.940   4.178  1.00  0.00    -0.254 NA
ATOM     36  C   UNL     1      12.777   0.281   4.553  1.00  0.00     0.185 C 
ATOM     37  N   UNL     1      11.689   0.988   4.210  1.00  0.00    -0.370 N 
ATOM     38  N   UNL     1      13.644   1.013   5.274  1.00  0.00    -0.370 N 
ATOM     39  H   UNL     1      10.991   0.509   3.655  1.00  0.00     0.159 HD
ATOM     40  H   UNL     1      11.619   1.986   4.313  1.00  0.00     0.159 HD
ATOM     41  H   UNL     1      13.394   1.923   5.624  1.00  0.00     0.159 HD
ATOM     42  H   UNL     1      14.501   0.604   5.614  1.00  0.00     0.159 HD
ENDBRANCH  34  35
ENDBRANCH  33  34
ENDBRANCH  32  33
ENDBRANCH   6  32
ENDBRANCH   4   6
ENDBRANCH   1   2
BRANCH   1  43
ATOM     43  C   UNL     1       7.571  -1.459   5.546  1.00  0.00     0.102 C 
ATOM     44  C   UNL     1       6.828  -2.687   4.991  1.00  0.00     0.020 C 
BRANCH  43  45
ATOM     45  C   UNL     1       6.701  -0.204   5.655  1.00  0.00     0.225 C 
ATOM     46  O   UNL     1       6.664   0.501   6.660  1.00  0.00    -0.275 OA
ATOM     47  N   UNL     1       5.878   0.042   4.580  1.00  0.00    -0.342 N 
ATOM     48  H   UNL     1       6.029  -0.451   3.712  1.00  0.00     0.164 HD
BRANCH  47  49
ATOM     49  C   UNL     1       5.016   1.227   4.530  1.00  0.00     0.192 C 
BRANCH  49  50
ATOM     50  C   UNL     1       3.727   0.959   5.313  1.00  0.00     0.047 C 
BRANCH  50  51
ATOM     51  C   UNL     1       3.492   1.996   6.419  1.00  0.00     0.103 C 
BRANCH  51  52
ATOM     52  C   UNL     1       2.065   2.541   6.400  1.00  0.00     0.226 C 
ATOM     53  O   UNL     1       1.238   2.114   7.207  1.00  0.00    -0.275 OA
BRANCH  52  54
ATOM     54  N   UNL     1       1.803   3.578   5.485  1.00  0.00    -0.311 N 
ATOM     55  C   UNL     1       0.612   3.545   4.626  1.00  0.00     0.153 C 
BRANCH  54  56
ATOM     56  C   UNL     1       2.663   4.683   5.364  1.00  0.00     0.102 C 
ATOM     57  C   UNL     1       3.312   5.031   4.242  1.00  0.00     0.043 C 
BRANCH  56  58
ATOM     58  C   UNL     1       2.889   5.620   6.527  1.00  0.00     0.268 C 
ATOM     59  O   UNL     1       3.522   6.663   6.433  1.00  0.00    -0.268 OA
ATOM     60  N   UNL     1       2.257   5.215   7.678  1.00  0.00    -0.339 N 
ATOM     61  H   UNL     1       1.760   4.332   7.677  1.00  0.00     0.164 HD
BRANCH  60  62
ATOM     62  C   UNL     1       2.292   6.008   8.907  1.00  0.00     0.168 CG0
ATOM     63  C   UNL     1       1.573   5.290  10.042  1.00  0.00     0.041 C 
ATOM     64  G   UNL     1       1.660   7.391   8.648  1.00  0.00     0.000 G0
ENDBRANCH  60  62
ENDBRANCH  56  58
ENDBRANCH  54  56
ENDBRANCH  52  54
ENDBRANCH  51  52
ENDBRANCH  50  51
ENDBRANCH  49  50
BRANCH  49  65
ATOM     65  C   UNL     1       4.663   1.611   3.085  1.00  0.00     0.326 C 
ATOM     66  O   UNL     1       5.468   1.841   2.194  1.00  0.00    -0.250 OA
BRANCH  65  67
ATOM     67  O   UNL     1       3.341   1.746   2.844  1.00  0.00    -0.480 OA
ATOM     68  H   UNL     1       2.968   0.875   3.101  1.00  0.00     0.296 HD
ENDBRANCH  65  67
ENDBRANCH  49  65
ENDBRANCH  47  49
ENDBRANCH  43  45
ENDBRANCH   1  43
BRANCH   1  69
ATOM     69  C   UNL     1       8.887  -1.034   3.289  1.00  0.00    -0.001 C 
ATOM     70  C   UNL     1       9.680  -1.673   2.411  1.00  0.00     0.001 C 
BRANCH  70  71
ATOM     71  C   UNL     1       9.641  -1.567   0.951  1.00  0.00    -0.055 C 
ATOM     72  C   UNL     1       8.432  -1.587   0.352  1.00  0.00    -0.018 C 
ATOM     73  C   UNL     1      10.953  -1.434   0.221  1.00  0.00     0.044 C 
BRANCH  72  74
ATOM     74  C   UNL     1       8.088  -1.492  -1.127  1.00  0.00     0.038 C 
ATOM     75  C   UNL     1       7.931  -0.004  -1.461  1.00  0.00     0.015 C 
BRANCH  74  76
ATOM     76  C   UNL     1       6.825  -2.360  -1.405  1.00  0.00     0.128 C 
BRANCH  76  77
ATOM     77  O   UNL     1       5.653  -1.693  -0.908  1.00  0.00    -0.381 OA
ATOM     78  C   UNL     1       4.578  -2.575  -0.610  1.00  0.00     0.195 C 
ENDBRANCH  76  77
BRANCH  76  79
ATOM     79  C   UNL     1       6.681  -2.807  -2.881  1.00  0.00     0.068 C 
BRANCH  79  80
ATOM     80  C   UNL     1       7.294  -4.126  -3.284  1.00  0.00    -0.045 A 
ATOM     81  C   UNL     1       8.629  -4.204  -3.701  1.00  0.00     0.004 A 
ATOM     82  C   UNL     1       6.521  -5.297  -3.274  1.00  0.00     0.004 A 
ATOM     83  C   UNL     1       9.185  -5.426  -4.086  1.00  0.00     0.000 A 
ATOM     84  C   UNL     1       7.077  -6.519  -3.660  1.00  0.00     0.000 A 
ATOM     85  C   UNL     1       8.409  -6.583  -4.064  1.00  0.00     0.000 A 
ENDBRANCH  79  80
ENDBRANCH  76  79
ENDBRANCH  74  76
ENDBRANCH  72  74
ENDBRANCH  70  71
ENDBRANCH   1  69
TORSDOF 17
ENDMDL
MODEL 18
REMARK VINA RESULT:    -6.175      3.367      7.762
REMARK INTER + INTRA:         -25.955
REMARK INTER:                 -17.553
REMARK INTRA:                  -8.402
REMARK UNBOUND:                -7.505
REMARK SMILES C=C1C(=O)N[C@H](C)C(=O)N[C@@H](CC(C)C)C(=O)N[C@@H](C(=O)O)[C@H](C)C(=O)N[C@@H](CCCN=C(N)N)C(=O)N[C@@H](/C=C/C(C)=C/[C@H](C)[C@H](Cc2ccccc2)OC)[C@H](C)C(=O)N[C@@H](C(=O)O)CCC(=O)N1C
REMARK SMILES IDX 39 1 38 2 37 3 36 4 28 6 27 7 25 8 26 9 23 11 24 12 19 13
REMARK SMILES IDX 18 14 16 15 17 16 11 18 10 19 8 20 9 21 12 24 13 25 14 26
REMARK SMILES IDX 15 27 20 28 21 29 22 30 29 32 30 33 31 34 32 35 33 36 34 37
REMARK SMILES IDX 35 38 57 43 58 44 59 45 60 46 61 47 62 49 66 50 67 51 68 52
REMARK SMILES IDX 69 53 70 54 71 55 2 56 1 57 3 58 4 59 5 60 6 62 7 63 63 65
REMARK SMILES IDX 64 66 65 67 40 69 41 70 42 71 44 72 43 73 45 74 46 75 47 76
REMARK SMILES IDX 55 77 56 78 48 79 49 80 50 81 54 82 51 83 53 84 52 85
REMARK H PARENT 38 5 27 10 18 17 10 22 22 31 34 39 34 40 35 41 35 42 61 48
REMARK H PARENT 5 61 65 68
REMARK Flexibility Score:  369.900
ROOT
ATOM      1  C   UNL     1       6.568  -2.692   3.721  1.00  0.00     0.117 C 
ENDROOT
BRANCH   1   2
ATOM      2  N   UNL     1       6.587  -1.799   2.562  1.00  0.00    -0.347 N 
ATOM      3  O   UNL     1       6.491  -3.407   0.927  1.00  0.00    -0.273 OA
ATOM      4  C   UNL     1       6.454  -2.226   1.255  1.00  0.00     0.243 C 
ATOM      5  H   UNL     1       6.651  -0.803   2.706  1.00  0.00     0.164 HD
BRANCH   4   6
ATOM      6  C   UNL     1       6.420  -1.071   0.222  1.00  0.00     0.171 C 
BRANCH   6   7
ATOM      7  N   UNL     1       6.030  -1.577  -1.103  1.00  0.00    -0.344 N 
ATOM      8  C   UNL     1       6.951  -1.654  -2.125  1.00  0.00     0.226 C 
ATOM      9  O   UNL     1       8.114  -1.292  -1.994  1.00  0.00    -0.275 OA
ATOM     10  H   UNL     1       5.062  -1.822  -1.269  1.00  0.00     0.164 HD
BRANCH   8  11
ATOM     11  C   UNL     1       6.409  -2.248  -3.413  1.00  0.00     0.109 C 
ATOM     12  C   UNL     1       6.914  -1.449  -4.615  1.00  0.00     0.021 C 
BRANCH  11  13
ATOM     13  C   UNL     1       6.717  -3.758  -3.462  1.00  0.00     0.204 C 
BRANCH  13  14
ATOM     14  N   UNL     1       7.913  -4.102  -2.687  1.00  0.00    -0.340 N 
ATOM     15  C   UNL     1       8.917  -4.908  -3.178  1.00  0.00     0.243 C 
ATOM     16  O   UNL     1       8.909  -5.347  -4.326  1.00  0.00    -0.273 OA
ATOM     17  H   UNL     1       7.910  -3.898  -1.684  1.00  0.00     0.164 HD
BRANCH  15  18
ATOM     18  C   UNL     1       9.971  -5.301  -2.113  1.00  0.00     0.171 C 
BRANCH  18  19
ATOM     19  N   UNL     1      11.260  -4.816  -2.601  1.00  0.00    -0.343 N 
ATOM     20  C   UNL     1      12.241  -5.680  -3.050  1.00  0.00     0.242 CG0
ATOM     21  O   UNL     1      12.127  -6.898  -2.936  1.00  0.00    -0.273 OA
ATOM     22  H   UNL     1      11.447  -3.820  -2.607  1.00  0.00     0.164 HD
ATOM     23  G   UNL     1      13.501  -4.981  -3.600  1.00  0.00     0.000 G0
ENDBRANCH  18  19
BRANCH  18  24
ATOM     24  C   UNL     1       9.619  -4.690  -0.751  1.00  0.00     0.038 C 
BRANCH  24  25
ATOM     25  C   UNL     1      10.744  -3.847  -0.114  1.00  0.00    -0.015 C 
ATOM     26  C   UNL     1      11.726  -4.696   0.693  1.00  0.00     0.007 C 
ATOM     27  C   UNL     1      10.133  -2.770   0.786  1.00  0.00     0.007 C 
ENDBRANCH  24  25
ENDBRANCH  18  24
ENDBRANCH  15  18
ENDBRANCH  13  14
BRANCH  13  28
ATOM     28  C   UNL     1       5.570  -4.626  -2.937  1.00  0.00     0.327 C 
ATOM     29  O   UNL     1       4.648  -5.081  -3.596  1.00  0.00    -0.250 OA
BRANCH  28  30
ATOM     30  O   UNL     1       5.586  -4.769  -1.596  1.00  0.00    -0.480 OA
ATOM     31  H   UNL     1       5.934  -3.914  -1.266  1.00  0.00     0.296 HD
ENDBRANCH  28  30
ENDBRANCH  13  28
ENDBRANCH  11  13
ENDBRANCH   8  11
ENDBRANCH   6   7
BRANCH   6  32
ATOM     32  C   UNL     1       5.444   0.007   0.706  1.00  0.00     0.037 C 
BRANCH  32  33
ATOM     33  C   UNL     1       4.003  -0.271   0.254  1.00  0.00     0.026 C 
BRANCH  33  34
ATOM     34  C   UNL     1       3.422   0.868  -0.584  1.00  0.00     0.146 C 
BRANCH  34  35
ATOM     35  N   UNL     1       1.974   0.720  -0.638  1.00  0.00    -0.254 NA
ATOM     36  C   UNL     1       1.250   1.497   0.077  1.00  0.00     0.185 C 
ATOM     37  N   UNL     1      -0.086   1.373   0.031  1.00  0.00    -0.370 N 
ATOM     38  N   UNL     1       1.634   2.476   0.916  1.00  0.00    -0.370 N 
ATOM     39  H   UNL     1      -0.454   0.662  -0.588  1.00  0.00     0.159 HD
ATOM     40  H   UNL     1      -0.721   2.048   0.421  1.00  0.00     0.159 HD
ATOM     41  H   UNL     1       0.974   2.926   1.529  1.00  0.00     0.159 HD
ATOM     42  H   UNL     1       2.612   2.671   1.062  1.00  0.00     0.159 HD
ENDBRANCH  34  35
ENDBRANCH  33  34
ENDBRANCH  32  33
ENDBRANCH   6  32
ENDBRANCH   4   6
ENDBRANCH   1   2
BRANCH   1  43
ATOM     43  C   UNL     1       5.961  -1.922   4.929  1.00  0.00     0.102 C 
ATOM     44  C   UNL     1       5.233  -2.834   5.932  1.00  0.00     0.020 C 
BRANCH  43  45
ATOM     45  C   UNL     1       5.127  -0.728   4.457  1.00  0.00     0.225 C 
ATOM     46  O   UNL     1       5.622   0.337   4.099  1.00  0.00    -0.275 OA
ATOM     47  N   UNL     1       3.763  -0.885   4.546  1.00  0.00    -0.342 N 
ATOM     48  H   UNL     1       3.374  -1.806   4.694  1.00  0.00     0.164 HD
BRANCH  47  49
ATOM     49  C   UNL     1       2.839   0.161   4.097  1.00  0.00     0.192 C 
BRANCH  49  50
ATOM     50  C   UNL     1       2.251   0.884   5.311  1.00  0.00     0.047 C 
BRANCH  50  51
ATOM     51  C   UNL     1       3.042   2.148   5.675  1.00  0.00     0.103 C 
BRANCH  51  52
ATOM     52  C   UNL     1       2.299   3.018   6.686  1.00  0.00     0.226 C 
ATOM     53  O   UNL     1       1.435   2.514   7.406  1.00  0.00    -0.275 OA
BRANCH  52  54
ATOM     54  N   UNL     1       2.713   4.360   6.784  1.00  0.00    -0.311 N 
ATOM     55  C   UNL     1       3.462   5.000   5.694  1.00  0.00     0.153 C 
BRANCH  54  56
ATOM     56  C   UNL     1       2.424   5.135   7.918  1.00  0.00     0.102 C 
ATOM     57  C   UNL     1       2.776   4.819   9.175  1.00  0.00     0.043 C 
BRANCH  56  58
ATOM     58  C   UNL     1       1.704   6.457   7.791  1.00  0.00     0.268 C 
ATOM     59  O   UNL     1       0.505   6.548   7.564  1.00  0.00    -0.268 OA
ATOM     60  N   UNL     1       2.519   7.540   8.020  1.00  0.00    -0.339 N 
ATOM     61  H   UNL     1       3.505   7.381   8.190  1.00  0.00     0.164 HD
BRANCH  60  62
ATOM     62  C   UNL     1       2.014   8.912   8.008  1.00  0.00     0.168 CG0
ATOM     63  C   UNL     1       3.159   9.917   7.980  1.00  0.00     0.041 C 
ATOM     64  G   UNL     1       1.114   9.142   9.240  1.00  0.00     0.000 G0
ENDBRANCH  60  62
ENDBRANCH  56  58
ENDBRANCH  54  56
ENDBRANCH  52  54
ENDBRANCH  51  52
ENDBRANCH  50  51
ENDBRANCH  49  50
BRANCH  49  65
ATOM     65  C   UNL     1       1.697  -0.418   3.247  1.00  0.00     0.326 C 
ATOM     66  O   UNL     1       0.689   0.184   2.908  1.00  0.00    -0.250 OA
BRANCH  65  67
ATOM     67  O   UNL     1       1.843  -1.720   2.918  1.00  0.00    -0.480 OA
ATOM     68  H   UNL     1       2.380  -1.693   2.097  1.00  0.00     0.296 HD
ENDBRANCH  65  67
ENDBRANCH  49  65
ENDBRANCH  47  49
ENDBRANCH  43  45
ENDBRANCH   1  43
BRANCH   1  69
ATOM     69  C   UNL     1       7.971  -3.259   3.843  1.00  0.00    -0.001 C 
ATOM     70  C   UNL     1       8.349  -4.541   3.701  1.00  0.00     0.001 C 
BRANCH  70  71
ATOM     71  C   UNL     1       9.710  -5.073   3.799  1.00  0.00    -0.055 C 
ATOM     72  C   UNL     1      10.684  -4.234   4.210  1.00  0.00    -0.018 C 
ATOM     73  C   UNL     1       9.926  -6.521   3.443  1.00  0.00     0.044 C 
BRANCH  72  74
ATOM     74  C   UNL     1      12.168  -4.504   4.408  1.00  0.00     0.038 C 
ATOM     75  C   UNL     1      12.345  -5.046   5.831  1.00  0.00     0.015 C 
BRANCH  74  76
ATOM     76  C   UNL     1      12.960  -3.198   4.103  1.00  0.00     0.128 C 
BRANCH  76  77
ATOM     77  O   UNL     1      13.921  -3.438   3.061  1.00  0.00    -0.381 OA
ATOM     78  C   UNL     1      14.488  -2.251   2.523  1.00  0.00     0.195 C 
ENDBRANCH  76  77
BRANCH  76  79
ATOM     79  C   UNL     1      12.061  -1.969   3.818  1.00  0.00     0.068 C 
BRANCH  79  80
ATOM     80  C   UNL     1      11.563  -1.168   4.996  1.00  0.00    -0.045 A 
ATOM     81  C   UNL     1      10.289  -0.584   4.986  1.00  0.00     0.004 A 
ATOM     82  C   UNL     1      12.386  -0.972   6.116  1.00  0.00     0.004 A 
ATOM     83  C   UNL     1       9.842   0.167   6.075  1.00  0.00     0.000 A 
ATOM     84  C   UNL     1      11.937  -0.219   7.204  1.00  0.00     0.000 A 
ATOM     85  C   UNL     1      10.665   0.348   7.184  1.00  0.00     0.000 A 
ENDBRANCH  79  80
ENDBRANCH  76  79
ENDBRANCH  74  76
ENDBRANCH  72  74
ENDBRANCH  70  71
ENDBRANCH   1  69
TORSDOF 17
ENDMDL
MODEL 19
REMARK VINA RESULT:    -6.171      2.767      4.254
REMARK INTER + INTRA:         -25.941
REMARK INTER:                 -18.308
REMARK INTRA:                  -7.632
REMARK UNBOUND:                -7.505
REMARK SMILES C=C1C(=O)N[C@H](C)C(=O)N[C@@H](CC(C)C)C(=O)N[C@@H](C(=O)O)[C@H](C)C(=O)N[C@@H](CCCN=C(N)N)C(=O)N[C@@H](/C=C/C(C)=C/[C@H](C)[C@H](Cc2ccccc2)OC)[C@H](C)C(=O)N[C@@H](C(=O)O)CCC(=O)N1C
REMARK SMILES IDX 39 1 38 2 37 3 36 4 28 6 27 7 25 8 26 9 23 11 24 12 19 13
REMARK SMILES IDX 18 14 16 15 17 16 11 18 10 19 8 20 9 21 12 24 13 25 14 26
REMARK SMILES IDX 15 27 20 28 21 29 22 30 29 32 30 33 31 34 32 35 33 36 34 37
REMARK SMILES IDX 35 38 57 43 58 44 59 45 60 46 61 47 62 49 66 50 67 51 68 52
REMARK SMILES IDX 69 53 70 54 71 55 2 56 1 57 3 58 4 59 5 60 6 62 7 63 63 65
REMARK SMILES IDX 64 66 65 67 40 69 41 70 42 71 44 72 43 73 45 74 46 75 47 76
REMARK SMILES IDX 55 77 56 78 48 79 49 80 50 81 54 82 51 83 53 84 52 85
REMARK H PARENT 38 5 27 10 18 17 10 22 22 31 34 39 34 40 35 41 35 42 61 48
REMARK H PARENT 5 61 65 68
REMARK Flexibility Score:  369.900
ROOT
ATOM      1  C   UNL     1       6.765  -0.961   4.053  1.00  0.00     0.117 C 
ENDROOT
BRANCH   1   2
ATOM      2  N   UNL     1       7.519  -2.213   3.999  1.00  0.00    -0.347 N 
ATOM      3  O   UNL     1       9.261  -1.588   5.357  1.00  0.00    -0.273 OA
ATOM      4  C   UNL     1       8.665  -2.459   4.732  1.00  0.00     0.243 C 
ATOM      5  H   UNL     1       7.172  -2.976   3.437  1.00  0.00     0.164 HD
BRANCH   4   6
ATOM      6  C   UNL     1       9.220  -3.895   4.559  1.00  0.00     0.171 C 
BRANCH   6   7
ATOM      7  N   UNL     1       9.726  -4.090   3.191  1.00  0.00    -0.344 N 
ATOM      8  C   UNL     1       9.191  -5.063   2.375  1.00  0.00     0.226 C 
ATOM      9  O   UNL     1       8.300  -5.818   2.745  1.00  0.00    -0.275 OA
ATOM     10  H   UNL     1      10.507  -3.530   2.872  1.00  0.00     0.164 HD
BRANCH   8  11
ATOM     11  C   UNL     1       9.782  -5.102   0.977  1.00  0.00     0.109 C 
ATOM     12  C   UNL     1       9.562  -3.762   0.275  1.00  0.00     0.021 C 
BRANCH  11  13
ATOM     13  C   UNL     1      11.252  -5.564   1.044  1.00  0.00     0.204 C 
BRANCH  13  14
ATOM     14  N   UNL     1      11.407  -6.797   1.823  1.00  0.00    -0.340 N 
ATOM     15  C   UNL     1      12.067  -6.840   3.032  1.00  0.00     0.243 C 
ATOM     16  O   UNL     1      12.520  -5.833   3.573  1.00  0.00    -0.273 OA
ATOM     17  H   UNL     1      11.190  -7.686   1.364  1.00  0.00     0.164 HD
BRANCH  15  18
ATOM     18  C   UNL     1      12.287  -8.277   3.566  1.00  0.00     0.171 C 
BRANCH  18  19
ATOM     19  N   UNL     1      13.462  -8.804   2.876  1.00  0.00    -0.343 N 
ATOM     20  C   UNL     1      13.532 -10.119   2.457  1.00  0.00     0.242 CG0
ATOM     21  O   UNL     1      12.668 -10.938   2.761  1.00  0.00    -0.273 OA
ATOM     22  H   UNL     1      14.253  -8.194   2.704  1.00  0.00     0.164 HD
ATOM     23  G   UNL     1      14.816 -10.471   1.678  1.00  0.00     0.000 G0
ENDBRANCH  18  19
BRANCH  18  24
ATOM     24  C   UNL     1      12.485  -8.265   5.087  1.00  0.00     0.038 C 
BRANCH  24  25
ATOM     25  C   UNL     1      11.582  -9.246   5.862  1.00  0.00    -0.015 C 
ATOM     26  C   UNL     1      10.231  -9.463   5.180  1.00  0.00     0.007 C 
ATOM     27  C   UNL     1      11.362  -8.728   7.286  1.00  0.00     0.007 C 
ENDBRANCH  24  25
ENDBRANCH  18  24
ENDBRANCH  15  18
ENDBRANCH  13  14
BRANCH  13  28
ATOM     28  C   UNL     1      11.868  -5.818  -0.335  1.00  0.00     0.327 C 
ATOM     29  O   UNL     1      11.278  -6.208  -1.330  1.00  0.00    -0.250 OA
BRANCH  28  30
ATOM     30  O   UNL     1      13.210  -5.680  -0.347  1.00  0.00    -0.480 OA
ATOM     31  H   UNL     1      13.364  -4.874  -0.882  1.00  0.00     0.296 HD
ENDBRANCH  28  30
ENDBRANCH  13  28
ENDBRANCH  11  13
ENDBRANCH   8  11
ENDBRANCH   6   7
BRANCH   6  32
ATOM     32  C   UNL     1      10.327  -4.135   5.591  1.00  0.00     0.037 C 
BRANCH  32  33
ATOM     33  C   UNL     1      10.050  -5.370   6.461  1.00  0.00     0.026 C 
BRANCH  33  34
ATOM     34  C   UNL     1       8.763  -6.092   6.059  1.00  0.00     0.146 C 
BRANCH  34  35
ATOM     35  N   UNL     1       8.111  -6.592   7.261  1.00  0.00    -0.254 NA
ATOM     36  C   UNL     1       7.279  -5.832   7.870  1.00  0.00     0.185 C 
ATOM     37  N   UNL     1       6.668  -6.285   8.976  1.00  0.00    -0.370 N 
ATOM     38  N   UNL     1       6.895  -4.581   7.561  1.00  0.00    -0.370 N 
ATOM     39  H   UNL     1       6.897  -7.227   9.268  1.00  0.00     0.159 HD
ATOM     40  H   UNL     1       5.884  -5.825   9.406  1.00  0.00     0.159 HD
ATOM     41  H   UNL     1       6.338  -4.035   8.198  1.00  0.00     0.159 HD
ATOM     42  H   UNL     1       7.287  -4.107   6.762  1.00  0.00     0.159 HD
ENDBRANCH  34  35
ENDBRANCH  33  34
ENDBRANCH  32  33
ENDBRANCH   6  32
ENDBRANCH   4   6
ENDBRANCH   1   2
BRANCH   1  43
ATOM     43  C   UNL     1       5.969  -0.919   5.389  1.00  0.00     0.102 C 
ATOM     44  C   UNL     1       4.598  -1.612   5.306  1.00  0.00     0.020 C 
BRANCH  43  45
ATOM     45  C   UNL     1       5.913   0.504   5.952  1.00  0.00     0.225 C 
ATOM     46  O   UNL     1       6.687   0.917   6.811  1.00  0.00    -0.275 OA
ATOM     47  N   UNL     1       4.869   1.279   5.501  1.00  0.00    -0.342 N 
ATOM     48  H   UNL     1       4.339   0.983   4.693  1.00  0.00     0.164 HD
BRANCH  47  49
ATOM     49  C   UNL     1       4.710   2.673   5.926  1.00  0.00     0.192 C 
BRANCH  49  50
ATOM     50  C   UNL     1       3.271   2.907   6.395  1.00  0.00     0.047 C 
BRANCH  50  51
ATOM     51  C   UNL     1       2.326   1.779   5.958  1.00  0.00     0.103 C 
BRANCH  51  52
ATOM     52  C   UNL     1       1.563   2.132   4.683  1.00  0.00     0.226 C 
ATOM     53  O   UNL     1       1.793   3.199   4.110  1.00  0.00    -0.275 OA
BRANCH  52  54
ATOM     54  N   UNL     1       0.678   1.155   4.191  1.00  0.00    -0.311 N 
ATOM     55  C   UNL     1      -0.594   0.876   4.871  1.00  0.00     0.153 C 
BRANCH  54  56
ATOM     56  C   UNL     1       0.973   0.416   3.033  1.00  0.00     0.102 C 
ATOM     57  C   UNL     1       1.592  -0.776   3.019  1.00  0.00     0.043 C 
BRANCH  56  58
ATOM     58  C   UNL     1       0.554   0.913   1.669  1.00  0.00     0.268 C 
ATOM     59  O   UNL     1       0.642   0.236   0.654  1.00  0.00    -0.268 OA
ATOM     60  N   UNL     1       0.007   2.173   1.698  1.00  0.00    -0.339 N 
ATOM     61  H   UNL     1      -0.020   2.673   2.579  1.00  0.00     0.164 HD
BRANCH  60  62
ATOM     62  C   UNL     1      -0.521   2.821   0.498  1.00  0.00     0.168 CG0
ATOM     63  C   UNL     1       0.493   3.794  -0.090  1.00  0.00     0.041 C 
ATOM     64  G   UNL     1      -1.839   3.546   0.839  1.00  0.00     0.000 G0
ENDBRANCH  60  62
ENDBRANCH  56  58
ENDBRANCH  54  56
ENDBRANCH  52  54
ENDBRANCH  51  52
ENDBRANCH  50  51
ENDBRANCH  49  50
BRANCH  49  65
ATOM     65  C   UNL     1       5.041   3.653   4.790  1.00  0.00     0.326 C 
ATOM     66  O   UNL     1       5.374   4.821   4.933  1.00  0.00    -0.250 OA
BRANCH  65  67
ATOM     67  O   UNL     1       4.881   3.150   3.546  1.00  0.00    -0.480 OA
ATOM     68  H   UNL     1       3.985   2.750   3.572  1.00  0.00     0.296 HD
ENDBRANCH  65  67
ENDBRANCH  49  65
ENDBRANCH  47  49
ENDBRANCH  43  45
ENDBRANCH   1  43
BRANCH   1  69
ATOM     69  C   UNL     1       6.005  -0.867   2.743  1.00  0.00    -0.001 C 
ATOM     70  C   UNL     1       5.811  -1.844   1.839  1.00  0.00     0.001 C 
BRANCH  70  71
ATOM     71  C   UNL     1       5.057  -1.747   0.588  1.00  0.00    -0.055 C 
ATOM     72  C   UNL     1       5.198  -2.746  -0.309  1.00  0.00    -0.018 C 
ATOM     73  C   UNL     1       4.170  -0.545   0.393  1.00  0.00     0.044 C 
BRANCH  72  74
ATOM     74  C   UNL     1       4.546  -2.914  -1.674  1.00  0.00     0.038 C 
ATOM     75  C   UNL     1       3.924  -4.315  -1.709  1.00  0.00     0.015 C 
BRANCH  74  76
ATOM     76  C   UNL     1       5.614  -2.646  -2.776  1.00  0.00     0.128 C 
BRANCH  76  77
ATOM     77  O   UNL     1       5.505  -1.292  -3.246  1.00  0.00    -0.381 OA
ATOM     78  C   UNL     1       4.166  -0.823  -3.330  1.00  0.00     0.195 C 
ENDBRANCH  76  77
BRANCH  76  79
ATOM     79  C   UNL     1       7.058  -3.021  -2.357  1.00  0.00     0.068 C 
BRANCH  79  80
ATOM     80  C   UNL     1       7.667  -4.266  -2.955  1.00  0.00    -0.045 A 
ATOM     81  C   UNL     1       8.986  -4.270  -3.427  1.00  0.00     0.004 A 
ATOM     82  C   UNL     1       6.905  -5.438  -3.074  1.00  0.00     0.004 A 
ATOM     83  C   UNL     1       9.537  -5.422  -3.992  1.00  0.00     0.000 A 
ATOM     84  C   UNL     1       7.457  -6.590  -3.640  1.00  0.00     0.000 A 
ATOM     85  C   UNL     1       8.773  -6.582  -4.097  1.00  0.00     0.000 A 
ENDBRANCH  79  80
ENDBRANCH  76  79
ENDBRANCH  74  76
ENDBRANCH  72  74
ENDBRANCH  70  71
ENDBRANCH   1  69
TORSDOF 17
ENDMDL
MODEL 20
REMARK VINA RESULT:    -6.119      2.946      5.029
REMARK INTER + INTRA:         -25.788
REMARK INTER:                 -17.756
REMARK INTRA:                  -8.032
REMARK UNBOUND:                -7.505
REMARK SMILES C=C1C(=O)N[C@H](C)C(=O)N[C@@H](CC(C)C)C(=O)N[C@@H](C(=O)O)[C@H](C)C(=O)N[C@@H](CCCN=C(N)N)C(=O)N[C@@H](/C=C/C(C)=C/[C@H](C)[C@H](Cc2ccccc2)OC)[C@H](C)C(=O)N[C@@H](C(=O)O)CCC(=O)N1C
REMARK SMILES IDX 39 1 38 2 37 3 36 4 28 6 27 7 25 8 26 9 23 11 24 12 19 13
REMARK SMILES IDX 18 14 16 15 17 16 11 18 10 19 8 20 9 21 12 24 13 25 14 26
REMARK SMILES IDX 15 27 20 28 21 29 22 30 29 32 30 33 31 34 32 35 33 36 34 37
REMARK SMILES IDX 35 38 57 43 58 44 59 45 60 46 61 47 62 49 66 50 67 51 68 52
REMARK SMILES IDX 69 53 70 54 71 55 2 56 1 57 3 58 4 59 5 60 6 62 7 63 63 65
REMARK SMILES IDX 64 66 65 67 40 69 41 70 42 71 44 72 43 73 45 74 46 75 47 76
REMARK SMILES IDX 55 77 56 78 48 79 49 80 50 81 54 82 51 83 53 84 52 85
REMARK H PARENT 38 5 27 10 18 17 10 22 22 31 34 39 34 40 35 41 35 42 61 48
REMARK H PARENT 5 61 65 68
REMARK Flexibility Score:  369.900
ROOT
ATOM      1  C   UNL     1       7.441  -0.979   4.542  1.00  0.00     0.117 C 
ENDROOT
BRANCH   1   2
ATOM      2  N   UNL     1       8.560  -1.880   4.816  1.00  0.00    -0.347 N 
ATOM      3  O   UNL     1       9.272  -0.910   6.771  1.00  0.00    -0.273 OA
ATOM      4  C   UNL     1       9.332  -1.829   5.961  1.00  0.00     0.243 C 
ATOM      5  H   UNL     1       8.767  -2.624   4.166  1.00  0.00     0.164 HD
BRANCH   4   6
ATOM      6  C   UNL     1      10.397  -2.952   6.045  1.00  0.00     0.171 C 
BRANCH   6   7
ATOM      7  N   UNL     1       9.768  -4.232   6.407  1.00  0.00    -0.344 N 
ATOM      8  C   UNL     1      10.511  -5.243   6.977  1.00  0.00     0.226 C 
ATOM      9  O   UNL     1      11.714  -5.142   7.186  1.00  0.00    -0.275 OA
ATOM     10  H   UNL     1       8.791  -4.377   6.188  1.00  0.00     0.164 HD
BRANCH   8  11
ATOM     11  C   UNL     1       9.707  -6.479   7.343  1.00  0.00     0.109 C 
ATOM     12  C   UNL     1       8.212  -6.194   7.205  1.00  0.00     0.021 C 
BRANCH  11  13
ATOM     13  C   UNL     1      10.214  -7.689   6.533  1.00  0.00     0.204 C 
BRANCH  13  14
ATOM     14  N   UNL     1      11.049  -7.283   5.399  1.00  0.00    -0.340 N 
ATOM     15  C   UNL     1      10.585  -7.249   4.102  1.00  0.00     0.243 C 
ATOM     16  O   UNL     1       9.416  -7.498   3.812  1.00  0.00    -0.273 OA
ATOM     17  H   UNL     1      12.060  -7.212   5.548  1.00  0.00     0.164 HD
BRANCH  15  18
ATOM     18  C   UNL     1      11.696  -6.994   3.054  1.00  0.00     0.171 C 
BRANCH  18  19
ATOM     19  N   UNL     1      12.214  -8.304   2.666  1.00  0.00    -0.343 N 
ATOM     20  C   UNL     1      13.181  -8.955   3.408  1.00  0.00     0.242 CG0
ATOM     21  O   UNL     1      13.745  -8.406   4.351  1.00  0.00    -0.273 OA
ATOM     22  H   UNL     1      11.861  -8.750   1.826  1.00  0.00     0.164 HD
ATOM     23  G   UNL     1      13.545 -10.360   2.887  1.00  0.00     0.000 G0
ENDBRANCH  18  19
BRANCH  18  24
ATOM     24  C   UNL     1      11.136  -6.231   1.847  1.00  0.00     0.038 C 
BRANCH  24  25
ATOM     25  C   UNL     1      12.200  -5.760   0.832  1.00  0.00    -0.015 C 
ATOM     26  C   UNL     1      12.965  -4.528   1.316  1.00  0.00     0.007 C 
ATOM     27  C   UNL     1      11.532  -5.457  -0.511  1.00  0.00     0.007 C 
ENDBRANCH  24  25
ENDBRANCH  18  24
ENDBRANCH  15  18
ENDBRANCH  13  14
BRANCH  13  28
ATOM     28  C   UNL     1      11.034  -8.675   7.371  1.00  0.00     0.327 C 
ATOM     29  O   UNL     1      10.639  -9.300   8.344  1.00  0.00    -0.250 OA
BRANCH  28  30
ATOM     30  O   UNL     1      12.331  -8.726   7.008  1.00  0.00    -0.480 OA
ATOM     31  H   UNL     1      12.318  -8.569   6.041  1.00  0.00     0.296 HD
ENDBRANCH  28  30
ENDBRANCH  13  28
ENDBRANCH  11  13
ENDBRANCH   8  11
ENDBRANCH   6   7
BRANCH   6  32
ATOM     32  C   UNL     1      11.122  -3.060   4.699  1.00  0.00     0.037 C 
BRANCH  32  33
ATOM     33  C   UNL     1      12.644  -3.166   4.867  1.00  0.00     0.026 C 
BRANCH  33  34
ATOM     34  C   UNL     1      13.360  -1.850   4.563  1.00  0.00     0.146 C 
BRANCH  34  35
ATOM     35  N   UNL     1      12.385  -0.889   4.066  1.00  0.00    -0.254 NA
ATOM     36  C   UNL     1      12.581   0.357   4.291  1.00  0.00     0.185 C 
ATOM     37  N   UNL     1      11.691   1.252   3.834  1.00  0.00    -0.370 N 
ATOM     38  N   UNL     1      13.595   0.948   4.949  1.00  0.00    -0.370 N 
ATOM     39  H   UNL     1      10.902   0.885   3.317  1.00  0.00     0.159 HD
ATOM     40  H   UNL     1      11.859   2.243   3.816  1.00  0.00     0.159 HD
ATOM     41  H   UNL     1      13.565   1.927   5.180  1.00  0.00     0.159 HD
ATOM     42  H   UNL     1      14.330   0.394   5.361  1.00  0.00     0.159 HD
ENDBRANCH  34  35
ENDBRANCH  33  34
ENDBRANCH  32  33
ENDBRANCH   6  32
ENDBRANCH   4   6
ENDBRANCH   1   2
BRANCH   1  43
ATOM     43  C   UNL     1       6.413  -1.098   5.703  1.00  0.00     0.102 C 
ATOM     44  C   UNL     1       5.265  -2.078   5.406  1.00  0.00     0.020 C 
BRANCH  43  45
ATOM     45  C   UNL     1       5.945   0.285   6.168  1.00  0.00     0.225 C 
ATOM     46  O   UNL     1       6.484   0.904   7.081  1.00  0.00    -0.275 OA
ATOM     47  N   UNL     1       4.808   0.762   5.556  1.00  0.00    -0.342 N 
ATOM     48  H   UNL     1       4.470   0.318   4.714  1.00  0.00     0.164 HD
BRANCH  47  49
ATOM     49  C   UNL     1       4.265   2.086   5.874  1.00  0.00     0.192 C 
BRANCH  49  50
ATOM     50  C   UNL     1       2.740   2.005   5.977  1.00  0.00     0.047 C 
BRANCH  50  51
ATOM     51  C   UNL     1       2.118   3.325   6.455  1.00  0.00     0.103 C 
BRANCH  51  52
ATOM     52  C   UNL     1       0.668   3.474   5.999  1.00  0.00     0.226 C 
ATOM     53  O   UNL     1       0.413   3.559   4.796  1.00  0.00    -0.275 OA
BRANCH  52  54
ATOM     54  N   UNL     1      -0.313   3.428   7.006  1.00  0.00    -0.311 N 
ATOM     55  C   UNL     1      -0.829   4.660   7.617  1.00  0.00     0.153 C 
BRANCH  54  56
ATOM     56  C   UNL     1      -0.840   2.207   7.460  1.00  0.00     0.102 C 
ATOM     57  C   UNL     1      -0.603   1.669   8.668  1.00  0.00     0.043 C 
BRANCH  56  58
ATOM     58  C   UNL     1      -1.786   1.403   6.599  1.00  0.00     0.268 C 
ATOM     59  O   UNL     1      -1.472   0.348   6.065  1.00  0.00    -0.268 OA
ATOM     60  N   UNL     1      -3.048   1.944   6.533  1.00  0.00    -0.339 N 
ATOM     61  H   UNL     1      -3.224   2.827   6.996  1.00  0.00     0.164 HD
BRANCH  60  62
ATOM     62  C   UNL     1      -4.136   1.294   5.804  1.00  0.00     0.168 CG0
ATOM     63  C   UNL     1      -4.456   2.042   4.516  1.00  0.00     0.041 C 
ATOM     64  G   UNL     1      -5.383   1.206   6.708  1.00  0.00     0.000 G0
ENDBRANCH  60  62
ENDBRANCH  56  58
ENDBRANCH  54  56
ENDBRANCH  52  54
ENDBRANCH  51  52
ENDBRANCH  50  51
ENDBRANCH  49  50
BRANCH  49  65
ATOM     65  C   UNL     1       4.650   3.127   4.811  1.00  0.00     0.326 C 
ATOM     66  O   UNL     1       4.563   2.972   3.602  1.00  0.00    -0.250 OA
BRANCH  65  67
ATOM     67  O   UNL     1       5.173   4.271   5.305  1.00  0.00    -0.480 OA
ATOM     68  H   UNL     1       5.920   4.464   4.699  1.00  0.00     0.296 HD
ENDBRANCH  65  67
ENDBRANCH  49  65
ENDBRANCH  47  49
ENDBRANCH  43  45
ENDBRANCH   1  43
BRANCH   1  69
ATOM     69  C   UNL     1       6.987  -1.285   3.126  1.00  0.00    -0.001 C 
ATOM     70  C   UNL     1       6.414  -0.440   2.251  1.00  0.00     0.001 C 
BRANCH  70  71
ATOM     71  C   UNL     1       6.000  -0.741   0.879  1.00  0.00    -0.055 C 
ATOM     72  C   UNL     1       5.429  -1.942   0.645  1.00  0.00    -0.018 C 
ATOM     73  C   UNL     1       6.231   0.313  -0.172  1.00  0.00     0.044 C 
BRANCH  72  74
ATOM     74  C   UNL     1       4.905  -2.521  -0.661  1.00  0.00     0.038 C 
ATOM     75  C   UNL     1       3.381  -2.351  -0.651  1.00  0.00     0.015 C 
BRANCH  74  76
ATOM     76  C   UNL     1       5.397  -3.993  -0.790  1.00  0.00     0.128 C 
BRANCH  76  77
ATOM     77  O   UNL     1       4.469  -4.753  -1.581  1.00  0.00    -0.381 OA
ATOM     78  C   UNL     1       4.736  -4.707  -2.976  1.00  0.00     0.195 C 
ENDBRANCH  76  77
BRANCH  76  79
ATOM     79  C   UNL     1       6.859  -4.126  -1.286  1.00  0.00     0.068 C 
BRANCH  79  80
ATOM     80  C   UNL     1       7.952  -3.531  -0.433  1.00  0.00    -0.045 A 
ATOM     81  C   UNL     1       8.227  -4.036   0.845  1.00  0.00     0.004 A 
ATOM     82  C   UNL     1       8.697  -2.437  -0.900  1.00  0.00     0.004 A 
ATOM     83  C   UNL     1       9.231  -3.471   1.633  1.00  0.00     0.000 A 
ATOM     84  C   UNL     1       9.701  -1.872  -0.110  1.00  0.00     0.000 A 
ATOM     85  C   UNL     1       9.968  -2.390   1.155  1.00  0.00     0.000 A 
ENDBRANCH  79  80
ENDBRANCH  76  79
ENDBRANCH  74  76
ENDBRANCH  72  74
ENDBRANCH  70  71
ENDBRANCH   1  69
TORSDOF 17
ENDMDL
MODEL 21
REMARK VINA RESULT:    -6.096      3.066     12.021
REMARK INTER + INTRA:         -25.719
REMARK INTER:                 -18.725
REMARK INTRA:                  -6.994
REMARK UNBOUND:                -7.505
REMARK SMILES C=C1C(=O)N[C@H](C)C(=O)N[C@@H](CC(C)C)C(=O)N[C@@H](C(=O)O)[C@H](C)C(=O)N[C@@H](CCCN=C(N)N)C(=O)N[C@@H](/C=C/C(C)=C/[C@H](C)[C@H](Cc2ccccc2)OC)[C@H](C)C(=O)N[C@@H](C(=O)O)CCC(=O)N1C
REMARK SMILES IDX 39 1 38 2 37 3 36 4 28 6 27 7 25 8 26 9 23 11 24 12 19 13
REMARK SMILES IDX 18 14 16 15 17 16 11 18 10 19 8 20 9 21 12 24 13 25 14 26
REMARK SMILES IDX 15 27 20 28 21 29 22 30 29 32 30 33 31 34 32 35 33 36 34 37
REMARK SMILES IDX 35 38 57 43 58 44 59 45 60 46 61 47 62 49 66 50 67 51 68 52
REMARK SMILES IDX 69 53 70 54 71 55 2 56 1 57 3 58 4 59 5 60 6 62 7 63 63 65
REMARK SMILES IDX 64 66 65 67 40 69 41 70 42 71 44 72 43 73 45 74 46 75 47 76
REMARK SMILES IDX 55 77 56 78 48 79 49 80 50 81 54 82 51 83 53 84 52 85
REMARK H PARENT 38 5 27 10 18 17 10 22 22 31 34 39 34 40 35 41 35 42 61 48
REMARK H PARENT 5 61 65 68
REMARK Flexibility Score:  369.900
ROOT
ATOM      1  C   UNL     1       7.498  -2.520   4.881  1.00  0.00     0.117 C 
ENDROOT
BRANCH   1   2
ATOM      2  N   UNL     1       6.598  -1.591   4.197  1.00  0.00    -0.347 N 
ATOM      3  O   UNL     1       4.613  -2.563   4.818  1.00  0.00    -0.273 OA
ATOM      4  C   UNL     1       5.220  -1.634   4.296  1.00  0.00     0.243 C 
ATOM      5  H   UNL     1       6.987  -0.835   3.654  1.00  0.00     0.164 HD
BRANCH   4   6
ATOM      6  C   UNL     1       4.505  -0.483   3.543  1.00  0.00     0.171 C 
BRANCH   6   7
ATOM      7  N   UNL     1       4.476   0.734   4.371  1.00  0.00    -0.344 N 
ATOM      8  C   UNL     1       3.420   0.981   5.220  1.00  0.00     0.226 C 
ATOM      9  O   UNL     1       2.457   0.229   5.313  1.00  0.00    -0.275 OA
ATOM     10  H   UNL     1       5.221   1.412   4.272  1.00  0.00     0.164 HD
BRANCH   8  11
ATOM     11  C   UNL     1       3.564   2.248   6.045  1.00  0.00     0.109 C 
ATOM     12  C   UNL     1       5.023   2.703   6.060  1.00  0.00     0.021 C 
BRANCH  11  13
ATOM     13  C   UNL     1       2.560   3.309   5.551  1.00  0.00     0.204 C 
BRANCH  13  14
ATOM     14  N   UNL     1       1.187   2.793   5.513  1.00  0.00    -0.340 N 
ATOM     15  C   UNL     1       0.355   2.963   4.428  1.00  0.00     0.243 C 
ATOM     16  O   UNL     1       0.725   3.507   3.389  1.00  0.00    -0.273 OA
ATOM     17  H   UNL     1       0.771   2.470   6.390  1.00  0.00     0.164 HD
BRANCH  15  18
ATOM     18  C   UNL     1      -1.106   2.521   4.694  1.00  0.00     0.171 C 
BRANCH  18  19
ATOM     19  N   UNL     1      -1.672   2.146   3.400  1.00  0.00    -0.343 N 
ATOM     20  C   UNL     1      -2.744   2.821   2.849  1.00  0.00     0.242 CG0
ATOM     21  O   UNL     1      -3.355   3.681   3.480  1.00  0.00    -0.273 OA
ATOM     22  H   UNL     1      -1.274   1.364   2.891  1.00  0.00     0.164 HD
ATOM     23  G   UNL     1      -3.151   2.332   1.444  1.00  0.00     0.000 G0
ENDBRANCH  18  19
BRANCH  18  24
ATOM     24  C   UNL     1      -1.145   1.352   5.686  1.00  0.00     0.038 C 
BRANCH  24  25
ATOM     25  C   UNL     1      -2.174   1.509   6.825  1.00  0.00    -0.015 C 
ATOM     26  C   UNL     1      -1.917   0.543   7.983  1.00  0.00     0.007 C 
ATOM     27  C   UNL     1      -3.587   1.292   6.277  1.00  0.00     0.007 C 
ENDBRANCH  24  25
ENDBRANCH  18  24
ENDBRANCH  15  18
ENDBRANCH  13  14
BRANCH  13  28
ATOM     28  C   UNL     1       2.545   4.574   6.414  1.00  0.00     0.327 C 
ATOM     29  O   UNL     1       1.892   4.748   7.431  1.00  0.00    -0.250 OA
BRANCH  28  30
ATOM     30  O   UNL     1       3.260   5.586   5.881  1.00  0.00    -0.480 OA
ATOM     31  H   UNL     1       2.837   6.394   6.237  1.00  0.00     0.296 HD
ENDBRANCH  28  30
ENDBRANCH  13  28
ENDBRANCH  11  13
ENDBRANCH   8  11
ENDBRANCH   6   7
BRANCH   6  32
ATOM     32  C   UNL     1       5.226  -0.225   2.216  1.00  0.00     0.037 C 
BRANCH  32  33
ATOM     33  C   UNL     1       4.576  -0.979   1.047  1.00  0.00     0.026 C 
BRANCH  33  34
ATOM     34  C   UNL     1       5.570  -1.865   0.296  1.00  0.00     0.146 C 
BRANCH  34  35
ATOM     35  N   UNL     1       4.936  -3.144   0.010  1.00  0.00    -0.254 NA
ATOM     36  C   UNL     1       4.851  -3.529  -1.209  1.00  0.00     0.185 C 
ATOM     37  N   UNL     1       4.273  -4.709  -1.484  1.00  0.00    -0.370 N 
ATOM     38  N   UNL     1       5.274  -2.905  -2.323  1.00  0.00    -0.370 N 
ATOM     39  H   UNL     1       3.937  -5.245  -0.694  1.00  0.00     0.159 HD
ATOM     40  H   UNL     1       4.323  -5.156  -2.383  1.00  0.00     0.159 HD
ATOM     41  H   UNL     1       5.024  -3.246  -3.237  1.00  0.00     0.159 HD
ATOM     42  H   UNL     1       5.714  -2.000  -2.268  1.00  0.00     0.159 HD
ENDBRANCH  34  35
ENDBRANCH  33  34
ENDBRANCH  32  33
ENDBRANCH   6  32
ENDBRANCH   4   6
ENDBRANCH   1   2
BRANCH   1  43
ATOM     43  C   UNL     1       8.619  -1.698   5.581  1.00  0.00     0.102 C 
ATOM     44  C   UNL     1       8.183  -0.275   5.970  1.00  0.00     0.020 C 
BRANCH  43  45
ATOM     45  C   UNL     1       9.922  -1.752   4.778  1.00  0.00     0.225 C 
ATOM     46  O   UNL     1      10.118  -1.076   3.772  1.00  0.00    -0.275 OA
ATOM     47  N   UNL     1      10.841  -2.684   5.201  1.00  0.00    -0.342 N 
ATOM     48  H   UNL     1      10.732  -3.118   6.107  1.00  0.00     0.164 HD
BRANCH  47  49
ATOM     49  C   UNL     1      12.147  -2.823   4.550  1.00  0.00     0.192 C 
BRANCH  49  50
ATOM     50  C   UNL     1      12.278  -4.227   3.953  1.00  0.00     0.047 C 
BRANCH  50  51
ATOM     51  C   UNL     1      11.207  -5.188   4.486  1.00  0.00     0.103 C 
BRANCH  51  52
ATOM     52  C   UNL     1      11.790  -6.217   5.452  1.00  0.00     0.226 C 
ATOM     53  O   UNL     1      12.504  -5.843   6.385  1.00  0.00    -0.275 OA
BRANCH  52  54
ATOM     54  N   UNL     1      11.402  -7.555   5.252  1.00  0.00    -0.311 N 
ATOM     55  C   UNL     1      12.099  -8.407   4.279  1.00  0.00     0.153 C 
BRANCH  54  56
ATOM     56  C   UNL     1      10.343  -8.127   5.976  1.00  0.00     0.102 C 
ATOM     57  C   UNL     1       9.150  -8.462   5.457  1.00  0.00     0.043 C 
BRANCH  56  58
ATOM     58  C   UNL     1      10.495  -8.458   7.442  1.00  0.00     0.268 C 
ATOM     59  O   UNL     1       9.762  -8.006   8.311  1.00  0.00    -0.268 OA
ATOM     60  N   UNL     1      11.496  -9.367   7.688  1.00  0.00    -0.339 N 
ATOM     61  H   UNL     1      12.066  -9.687   6.914  1.00  0.00     0.164 HD
BRANCH  60  62
ATOM     62  C   UNL     1      11.774  -9.875   9.031  1.00  0.00     0.168 CG0
ATOM     63  C   UNL     1      12.896  -9.084   9.693  1.00  0.00     0.041 C 
ATOM     64  G   UNL     1      12.134 -11.373   8.954  1.00  0.00     0.000 G0
ENDBRANCH  60  62
ENDBRANCH  56  58
ENDBRANCH  54  56
ENDBRANCH  52  54
ENDBRANCH  51  52
ENDBRANCH  50  51
ENDBRANCH  49  50
BRANCH  49  65
ATOM     65  C   UNL     1      13.301  -2.580   5.536  1.00  0.00     0.326 C 
ATOM     66  O   UNL     1      14.406  -2.148   5.243  1.00  0.00    -0.250 OA
BRANCH  65  67
ATOM     67  O   UNL     1      13.038  -2.940   6.811  1.00  0.00    -0.480 OA
ATOM     68  H   UNL     1      12.156  -3.369   6.753  1.00  0.00     0.296 HD
ENDBRANCH  65  67
ENDBRANCH  49  65
ENDBRANCH  47  49
ENDBRANCH  43  45
ENDBRANCH   1  43
BRANCH   1  69
ATOM     69  C   UNL     1       7.887  -3.566   3.854  1.00  0.00    -0.001 C 
ATOM     70  C   UNL     1       7.887  -3.437   2.515  1.00  0.00     0.001 C 
BRANCH  70  71
ATOM     71  C   UNL     1       8.286  -4.448   1.534  1.00  0.00    -0.055 C 
ATOM     72  C   UNL     1       9.543  -4.387   1.045  1.00  0.00    -0.018 C 
ATOM     73  C   UNL     1       7.269  -5.490   1.145  1.00  0.00     0.044 C 
BRANCH  72  74
ATOM     74  C   UNL     1      10.227  -5.292   0.030  1.00  0.00     0.038 C 
ATOM     75  C   UNL     1      11.501  -5.830   0.691  1.00  0.00     0.015 C 
BRANCH  74  76
ATOM     76  C   UNL     1      10.462  -4.486  -1.281  1.00  0.00     0.128 C 
BRANCH  76  77
ATOM     77  O   UNL     1      11.283  -5.246  -2.184  1.00  0.00    -0.381 OA
ATOM     78  C   UNL     1      12.246  -4.463  -2.877  1.00  0.00     0.195 C 
ENDBRANCH  76  77
BRANCH  76  79
ATOM     79  C   UNL     1       9.160  -3.971  -1.945  1.00  0.00     0.068 C 
BRANCH  79  80
ATOM     80  C   UNL     1       8.461  -4.878  -2.929  1.00  0.00    -0.045 A 
ATOM     81  C   UNL     1       7.530  -5.831  -2.497  1.00  0.00     0.004 A 
ATOM     82  C   UNL     1       8.758  -4.798  -4.298  1.00  0.00     0.004 A 
ATOM     83  C   UNL     1       6.898  -6.676  -3.412  1.00  0.00     0.000 A 
ATOM     84  C   UNL     1       8.126  -5.644  -5.213  1.00  0.00     0.000 A 
ATOM     85  C   UNL     1       7.196  -6.581  -4.770  1.00  0.00     0.000 A 
ENDBRANCH  79  80
ENDBRANCH  76  79
ENDBRANCH  74  76
ENDBRANCH  72  74
ENDBRANCH  70  71
ENDBRANCH   1  69
TORSDOF 17
ENDMDL
MODEL 22
REMARK VINA RESULT:    -6.086      4.228     11.602
REMARK INTER + INTRA:         -25.689
REMARK INTER:                 -19.328
REMARK INTRA:                  -6.361
REMARK UNBOUND:                -7.505
REMARK SMILES C=C1C(=O)N[C@H](C)C(=O)N[C@@H](CC(C)C)C(=O)N[C@@H](C(=O)O)[C@H](C)C(=O)N[C@@H](CCCN=C(N)N)C(=O)N[C@@H](/C=C/C(C)=C/[C@H](C)[C@H](Cc2ccccc2)OC)[C@H](C)C(=O)N[C@@H](C(=O)O)CCC(=O)N1C
REMARK SMILES IDX 39 1 38 2 37 3 36 4 28 6 27 7 25 8 26 9 23 11 24 12 19 13
REMARK SMILES IDX 18 14 16 15 17 16 11 18 10 19 8 20 9 21 12 24 13 25 14 26
REMARK SMILES IDX 15 27 20 28 21 29 22 30 29 32 30 33 31 34 32 35 33 36 34 37
REMARK SMILES IDX 35 38 57 43 58 44 59 45 60 46 61 47 62 49 66 50 67 51 68 52
REMARK SMILES IDX 69 53 70 54 71 55 2 56 1 57 3 58 4 59 5 60 6 62 7 63 63 65
REMARK SMILES IDX 64 66 65 67 40 69 41 70 42 71 44 72 43 73 45 74 46 75 47 76
REMARK SMILES IDX 55 77 56 78 48 79 49 80 50 81 54 82 51 83 53 84 52 85
REMARK H PARENT 38 5 27 10 18 17 10 22 22 31 34 39 34 40 35 41 35 42 61 48
REMARK H PARENT 5 61 65 68
REMARK Flexibility Score:  369.900
ROOT
ATOM      1  C   UNL     1       6.688  -1.823   3.868  1.00  0.00     0.117 C 
ENDROOT
BRANCH   1   2
ATOM      2  N   UNL     1       6.745  -2.579   2.616  1.00  0.00    -0.347 N 
ATOM      3  O   UNL     1       8.927  -2.120   2.073  1.00  0.00    -0.273 OA
ATOM      4  C   UNL     1       7.891  -2.742   1.863  1.00  0.00     0.243 C 
ATOM      5  H   UNL     1       5.920  -3.059   2.291  1.00  0.00     0.164 HD
BRANCH   4   6
ATOM      6  C   UNL     1       7.701  -3.659   0.629  1.00  0.00     0.171 C 
BRANCH   6   7
ATOM      7  N   UNL     1       6.352  -3.488   0.064  1.00  0.00    -0.344 N 
ATOM      8  C   UNL     1       5.941  -2.262  -0.412  1.00  0.00     0.226 C 
ATOM      9  O   UNL     1       6.652  -1.265  -0.371  1.00  0.00    -0.275 OA
ATOM     10  H   UNL     1       5.713  -4.272   0.074  1.00  0.00     0.164 HD
BRANCH   8  11
ATOM     11  C   UNL     1       4.546  -2.260  -1.012  1.00  0.00     0.109 C 
ATOM     12  C   UNL     1       3.931  -0.865  -0.910  1.00  0.00     0.021 C 
BRANCH  11  13
ATOM     13  C   UNL     1       4.591  -2.846  -2.438  1.00  0.00     0.204 C 
BRANCH  13  14
ATOM     14  N   UNL     1       5.832  -2.502  -3.137  1.00  0.00    -0.340 N 
ATOM     15  C   UNL     1       5.903  -1.510  -4.091  1.00  0.00     0.243 C 
ATOM     16  O   UNL     1       4.941  -0.802  -4.380  1.00  0.00    -0.273 OA
ATOM     17  H   UNL     1       6.624  -3.145  -3.056  1.00  0.00     0.164 HD
BRANCH  15  18
ATOM     18  C   UNL     1       7.259  -1.466  -4.838  1.00  0.00     0.171 C 
BRANCH  18  19
ATOM     19  N   UNL     1       7.103  -0.510  -5.933  1.00  0.00    -0.343 N 
ATOM     20  C   UNL     1       7.059  -0.914  -7.253  1.00  0.00     0.242 CG0
ATOM     21  O   UNL     1       7.282  -2.078  -7.577  1.00  0.00    -0.273 OA
ATOM     22  H   UNL     1       7.031   0.479  -5.722  1.00  0.00     0.164 HD
ATOM     23  G   UNL     1       6.811   0.227  -8.260  1.00  0.00     0.000 G0
ENDBRANCH  18  19
BRANCH  18  24
ATOM     24  C   UNL     1       8.388  -1.053  -3.887  1.00  0.00     0.038 C 
BRANCH  24  25
ATOM     25  C   UNL     1       9.760  -1.687  -4.201  1.00  0.00    -0.015 C 
ATOM     26  C   UNL     1      10.743  -1.562  -3.037  1.00  0.00     0.007 C 
ATOM     27  C   UNL     1      10.356  -1.032  -5.451  1.00  0.00     0.007 C 
ENDBRANCH  24  25
ENDBRANCH  18  24
ENDBRANCH  15  18
ENDBRANCH  13  14
BRANCH  13  28
ATOM     28  C   UNL     1       4.462  -4.372  -2.467  1.00  0.00     0.327 C 
ATOM     29  O   UNL     1       4.293  -5.102  -1.502  1.00  0.00    -0.250 OA
BRANCH  28  30
ATOM     30  O   UNL     1       4.672  -4.897  -3.691  1.00  0.00    -0.480 OA
ATOM     31  H   UNL     1       5.043  -5.786  -3.512  1.00  0.00     0.296 HD
ENDBRANCH  28  30
ENDBRANCH  13  28
ENDBRANCH  11  13
ENDBRANCH   8  11
ENDBRANCH   6   7
BRANCH   6  32
ATOM     32  C   UNL     1       8.776  -3.332  -0.413  1.00  0.00     0.037 C 
BRANCH  32  33
ATOM     33  C   UNL     1       9.179  -4.563  -1.236  1.00  0.00     0.026 C 
BRANCH  33  34
ATOM     34  C   UNL     1       7.992  -5.194  -1.966  1.00  0.00     0.146 C 
BRANCH  34  35
ATOM     35  N   UNL     1       7.997  -4.741  -3.350  1.00  0.00    -0.254 NA
ATOM     36  C   UNL     1       8.011  -5.619  -4.283  1.00  0.00     0.185 C 
ATOM     37  N   UNL     1       8.011  -5.213  -5.562  1.00  0.00    -0.370 N 
ATOM     38  N   UNL     1       8.026  -6.960  -4.182  1.00  0.00    -0.370 N 
ATOM     39  H   UNL     1       7.990  -4.214  -5.722  1.00  0.00     0.159 HD
ATOM     40  H   UNL     1       7.847  -5.828  -6.341  1.00  0.00     0.159 HD
ATOM     41  H   UNL     1       8.178  -7.541  -4.989  1.00  0.00     0.159 HD
ATOM     42  H   UNL     1       8.044  -7.405  -3.277  1.00  0.00     0.159 HD
ENDBRANCH  34  35
ENDBRANCH  33  34
ENDBRANCH  32  33
ENDBRANCH   6  32
ENDBRANCH   4   6
ENDBRANCH   1   2
BRANCH   1  43
ATOM     43  C   UNL     1       6.976  -2.796   5.048  1.00  0.00     0.102 C 
ATOM     44  C   UNL     1       5.744  -3.074   5.926  1.00  0.00     0.020 C 
BRANCH  43  45
ATOM     45  C   UNL     1       8.213  -2.355   5.835  1.00  0.00     0.225 C 
ATOM     46  O   UNL     1       8.211  -2.194   7.052  1.00  0.00    -0.275 OA
ATOM     47  N   UNL     1       9.322  -2.055   5.077  1.00  0.00    -0.342 N 
ATOM     48  H   UNL     1       9.355  -2.335   4.107  1.00  0.00     0.164 HD
BRANCH  47  49
ATOM     49  C   UNL     1      10.588  -1.654   5.698  1.00  0.00     0.192 C 
BRANCH  49  50
ATOM     50  C   UNL     1      11.286  -2.884   6.284  1.00  0.00     0.047 C 
BRANCH  50  51
ATOM     51  C   UNL     1      11.084  -4.136   5.418  1.00  0.00     0.103 C 
BRANCH  51  52
ATOM     52  C   UNL     1      11.522  -5.409   6.140  1.00  0.00     0.226 C 
ATOM     53  O   UNL     1      12.691  -5.528   6.510  1.00  0.00    -0.275 OA
BRANCH  52  54
ATOM     54  N   UNL     1      10.515  -6.355   6.408  1.00  0.00    -0.311 N 
ATOM     55  C   UNL     1       9.135  -5.934   6.680  1.00  0.00     0.153 C 
BRANCH  54  56
ATOM     56  C   UNL     1      10.790  -7.733   6.420  1.00  0.00     0.102 C 
ATOM     57  C   UNL     1      10.849  -8.514   5.329  1.00  0.00     0.043 C 
BRANCH  56  58
ATOM     58  C   UNL     1      11.096  -8.451   7.713  1.00  0.00     0.268 C 
ATOM     59  O   UNL     1      10.274  -9.129   8.313  1.00  0.00    -0.268 OA
ATOM     60  N   UNL     1      12.406  -8.317   8.109  1.00  0.00    -0.339 N 
ATOM     61  H   UNL     1      13.022  -7.728   7.562  1.00  0.00     0.164 HD
BRANCH  60  62
ATOM     62  C   UNL     1      12.931  -8.982   9.300  1.00  0.00     0.168 CG0
ATOM     63  C   UNL     1      13.415 -10.389   8.973  1.00  0.00     0.041 C 
ATOM     64  G   UNL     1      11.844  -9.019  10.394  1.00  0.00     0.000 G0
ENDBRANCH  60  62
ENDBRANCH  56  58
ENDBRANCH  54  56
ENDBRANCH  52  54
ENDBRANCH  51  52
ENDBRANCH  50  51
ENDBRANCH  49  50
BRANCH  49  65
ATOM     65  C   UNL     1      10.371  -0.615   6.808  1.00  0.00     0.326 C 
ATOM     66  O   UNL     1      10.025   0.546   6.638  1.00  0.00    -0.250 OA
BRANCH  65  67
ATOM     67  O   UNL     1      10.653  -1.054   8.055  1.00  0.00    -0.480 OA
ATOM     68  H   UNL     1      10.185  -0.416   8.636  1.00  0.00     0.296 HD
ENDBRANCH  65  67
ENDBRANCH  49  65
ENDBRANCH  47  49
ENDBRANCH  43  45
ENDBRANCH   1  43
BRANCH   1  69
ATOM     69  C   UNL     1       5.373  -1.065   3.846  1.00  0.00    -0.001 C 
ATOM     70  C   UNL     1       4.371  -1.193   2.959  1.00  0.00     0.001 C 
BRANCH  70  71
ATOM     71  C   UNL     1       3.097  -0.471   2.961  1.00  0.00    -0.055 C 
ATOM     72  C   UNL     1       3.003   0.637   2.196  1.00  0.00    -0.018 C 
ATOM     73  C   UNL     1       1.979  -1.020   3.809  1.00  0.00     0.044 C 
BRANCH  72  74
ATOM     74  C   UNL     1       1.820   1.575   2.001  1.00  0.00     0.038 C 
ATOM     75  C   UNL     1       1.012   1.041   0.811  1.00  0.00     0.015 C 
BRANCH  74  76
ATOM     76  C   UNL     1       2.354   3.027   1.828  1.00  0.00     0.128 C 
BRANCH  76  77
ATOM     77  O   UNL     1       2.118   3.481   0.485  1.00  0.00    -0.381 OA
ATOM     78  C   UNL     1       1.448   4.732   0.414  1.00  0.00     0.195 C 
ENDBRANCH  76  77
BRANCH  76  79
ATOM     79  C   UNL     1       1.833   4.021   2.897  1.00  0.00     0.068 C 
BRANCH  79  80
ATOM     80  C   UNL     1       1.518   3.480   4.271  1.00  0.00    -0.045 A 
ATOM     81  C   UNL     1       2.541   3.104   5.151  1.00  0.00     0.004 A 
ATOM     82  C   UNL     1       0.185   3.320   4.679  1.00  0.00     0.004 A 
ATOM     83  C   UNL     1       2.241   2.591   6.415  1.00  0.00     0.000 A 
ATOM     84  C   UNL     1      -0.114   2.807   5.943  1.00  0.00     0.000 A 
ATOM     85  C   UNL     1       0.913   2.444   6.811  1.00  0.00     0.000 A 
ENDBRANCH  79  80
ENDBRANCH  76  79
ENDBRANCH  74  76
ENDBRANCH  72  74
ENDBRANCH  70  71
ENDBRANCH   1  69
TORSDOF 17
ENDMDL
MODEL 23
REMARK VINA RESULT:    -6.086      2.457     11.847
REMARK INTER + INTRA:         -25.688
REMARK INTER:                 -18.704
REMARK INTRA:                  -6.985
REMARK UNBOUND:                -7.505
REMARK SMILES C=C1C(=O)N[C@H](C)C(=O)N[C@@H](CC(C)C)C(=O)N[C@@H](C(=O)O)[C@H](C)C(=O)N[C@@H](CCCN=C(N)N)C(=O)N[C@@H](/C=C/C(C)=C/[C@H](C)[C@H](Cc2ccccc2)OC)[C@H](C)C(=O)N[C@@H](C(=O)O)CCC(=O)N1C
REMARK SMILES IDX 39 1 38 2 37 3 36 4 28 6 27 7 25 8 26 9 23 11 24 12 19 13
REMARK SMILES IDX 18 14 16 15 17 16 11 18 10 19 8 20 9 21 12 24 13 25 14 26
REMARK SMILES IDX 15 27 20 28 21 29 22 30 29 32 30 33 31 34 32 35 33 36 34 37
REMARK SMILES IDX 35 38 57 43 58 44 59 45 60 46 61 47 62 49 66 50 67 51 68 52
REMARK SMILES IDX 69 53 70 54 71 55 2 56 1 57 3 58 4 59 5 60 6 62 7 63 63 65
REMARK SMILES IDX 64 66 65 67 40 69 41 70 42 71 44 72 43 73 45 74 46 75 47 76
REMARK SMILES IDX 55 77 56 78 48 79 49 80 50 81 54 82 51 83 53 84 52 85
REMARK H PARENT 38 5 27 10 18 17 10 22 22 31 34 39 34 40 35 41 35 42 61 48
REMARK H PARENT 5 61 65 68
REMARK Flexibility Score:  369.900
ROOT
ATOM      1  C   UNL     1       6.438  -2.032   2.508  1.00  0.00     0.117 C 
ENDROOT
BRANCH   1   2
ATOM      2  N   UNL     1       5.237  -1.354   2.997  1.00  0.00    -0.347 N 
ATOM      3  O   UNL     1       5.191  -2.276   5.099  1.00  0.00    -0.273 OA
ATOM      4  C   UNL     1       4.761  -1.461   4.289  1.00  0.00     0.243 C 
ATOM      5  H   UNL     1       4.739  -0.726   2.384  1.00  0.00     0.164 HD
BRANCH   4   6
ATOM      6  C   UNL     1       3.522  -0.573   4.573  1.00  0.00     0.171 C 
BRANCH   6   7
ATOM      7  N   UNL     1       3.819   0.835   4.268  1.00  0.00    -0.344 N 
ATOM      8  C   UNL     1       3.781   1.792   5.259  1.00  0.00     0.226 C 
ATOM      9  O   UNL     1       3.482   1.530   6.418  1.00  0.00    -0.275 OA
ATOM     10  H   UNL     1       4.004   1.101   3.309  1.00  0.00     0.164 HD
BRANCH   8  11
ATOM     11  C   UNL     1       4.164   3.187   4.797  1.00  0.00     0.109 C 
ATOM     12  C   UNL     1       4.638   3.148   3.344  1.00  0.00     0.021 C 
BRANCH  11  13
ATOM     13  C   UNL     1       3.005   4.165   5.075  1.00  0.00     0.204 C 
BRANCH  13  14
ATOM     14  N   UNL     1       1.722   3.472   5.223  1.00  0.00    -0.340 N 
ATOM     15  C   UNL     1       0.776   3.428   4.222  1.00  0.00     0.243 C 
ATOM     16  O   UNL     1       0.968   3.916   3.110  1.00  0.00    -0.273 OA
ATOM     17  H   UNL     1       1.439   3.180   6.162  1.00  0.00     0.164 HD
BRANCH  15  18
ATOM     18  C   UNL     1      -0.576   2.824   4.675  1.00  0.00     0.171 C 
BRANCH  18  19
ATOM     19  N   UNL     1      -1.248   3.851   5.468  1.00  0.00    -0.343 N 
ATOM     20  C   UNL     1      -1.111   3.917   6.842  1.00  0.00     0.242 CG0
ATOM     21  O   UNL     1      -0.527   3.039   7.473  1.00  0.00    -0.273 OA
ATOM     22  H   UNL     1      -1.837   4.533   5.004  1.00  0.00     0.164 HD
ATOM     23  G   UNL     1      -1.830   5.114   7.497  1.00  0.00     0.000 G0
ENDBRANCH  18  19
BRANCH  18  24
ATOM     24  C   UNL     1      -1.418   2.411   3.461  1.00  0.00     0.038 C 
BRANCH  24  25
ATOM     25  C   UNL     1      -2.651   3.302   3.199  1.00  0.00    -0.015 C 
ATOM     26  C   UNL     1      -3.947   2.495   3.106  1.00  0.00     0.007 C 
ATOM     27  C   UNL     1      -2.446   4.098   1.908  1.00  0.00     0.007 C 
ENDBRANCH  24  25
ENDBRANCH  18  24
ENDBRANCH  15  18
ENDBRANCH  13  14
BRANCH  13  28
ATOM     28  C   UNL     1       3.215   5.006   6.339  1.00  0.00     0.327 C 
ATOM     29  O   UNL     1       3.520   6.188   6.378  1.00  0.00    -0.250 OA
BRANCH  28  30
ATOM     30  O   UNL     1       3.146   4.281   7.474  1.00  0.00    -0.480 OA
ATOM     31  H   UNL     1       2.699   4.875   8.112  1.00  0.00     0.296 HD
ENDBRANCH  28  30
ENDBRANCH  13  28
ENDBRANCH  11  13
ENDBRANCH   8  11
ENDBRANCH   6   7
BRANCH   6  32
ATOM     32  C   UNL     1       2.340  -1.077   3.738  1.00  0.00     0.037 C 
BRANCH  32  33
ATOM     33  C   UNL     1       1.533   0.075   3.122  1.00  0.00     0.026 C 
BRANCH  33  34
ATOM     34  C   UNL     1       1.735   0.188   1.611  1.00  0.00     0.146 C 
BRANCH  34  35
ATOM     35  N   UNL     1       3.161   0.288   1.333  1.00  0.00    -0.254 NA
ATOM     36  C   UNL     1       3.535   0.635   0.158  1.00  0.00     0.185 C 
ATOM     37  N   UNL     1       4.847   0.736  -0.107  1.00  0.00    -0.370 N 
ATOM     38  N   UNL     1       2.781   0.933  -0.915  1.00  0.00    -0.370 N 
ATOM     39  H   UNL     1       5.481   0.536   0.656  1.00  0.00     0.159 HD
ATOM     40  H   UNL     1       5.215   1.165  -0.939  1.00  0.00     0.159 HD
ATOM     41  H   UNL     1       3.196   1.057  -1.824  1.00  0.00     0.159 HD
ATOM     42  H   UNL     1       1.776   0.884  -0.865  1.00  0.00     0.159 HD
ENDBRANCH  34  35
ENDBRANCH  33  34
ENDBRANCH  32  33
ENDBRANCH   6  32
ENDBRANCH   4   6
ENDBRANCH   1   2
BRANCH   1  43
ATOM     43  C   UNL     1       7.677  -1.157   2.854  1.00  0.00     0.102 C 
ATOM     44  C   UNL     1       8.142  -0.266   1.689  1.00  0.00     0.020 C 
BRANCH  43  45
ATOM     45  C   UNL     1       8.793  -2.004   3.473  1.00  0.00     0.225 C 
ATOM     46  O   UNL     1       9.373  -2.897   2.863  1.00  0.00    -0.275 OA
ATOM     47  N   UNL     1       9.049  -1.765   4.803  1.00  0.00    -0.342 N 
ATOM     48  H   UNL     1       8.677  -0.935   5.244  1.00  0.00     0.164 HD
BRANCH  47  49
ATOM     49  C   UNL     1      10.114  -2.475   5.518  1.00  0.00     0.192 C 
BRANCH  49  50
ATOM     50  C   UNL     1       9.597  -3.835   5.993  1.00  0.00     0.047 C 
BRANCH  50  51
ATOM     51  C   UNL     1      10.661  -4.626   6.766  1.00  0.00     0.103 C 
BRANCH  51  52
ATOM     52  C   UNL     1      11.953  -4.781   5.966  1.00  0.00     0.226 C 
ATOM     53  O   UNL     1      13.003  -4.308   6.405  1.00  0.00    -0.275 OA
BRANCH  52  54
ATOM     54  N   UNL     1      11.871  -5.540   4.784  1.00  0.00    -0.311 N 
ATOM     55  C   UNL     1      12.139  -4.931   3.474  1.00  0.00     0.153 C 
BRANCH  54  56
ATOM     56  C   UNL     1      11.537  -6.904   4.811  1.00  0.00     0.102 C 
ATOM     57  C   UNL     1      10.468  -7.446   4.205  1.00  0.00     0.043 C 
BRANCH  56  58
ATOM     58  C   UNL     1      12.421  -7.905   5.517  1.00  0.00     0.268 C 
ATOM     59  O   UNL     1      13.623  -7.999   5.311  1.00  0.00    -0.268 OA
ATOM     60  N   UNL     1      11.750  -8.649   6.459  1.00  0.00    -0.339 N 
ATOM     61  H   UNL     1      10.751  -8.517   6.562  1.00  0.00     0.164 HD
BRANCH  60  62
ATOM     62  C   UNL     1      12.428  -9.632   7.302  1.00  0.00     0.168 CG0
ATOM     63  C   UNL     1      11.775  -9.718   8.676  1.00  0.00     0.041 C 
ATOM     64  G   UNL     1      13.921  -9.263   7.429  1.00  0.00     0.000 G0
ENDBRANCH  60  62
ENDBRANCH  56  58
ENDBRANCH  54  56
ENDBRANCH  52  54
ENDBRANCH  51  52
ENDBRANCH  50  51
ENDBRANCH  49  50
BRANCH  49  65
ATOM     65  C   UNL     1      10.619  -1.672   6.727  1.00  0.00     0.326 C 
ATOM     66  O   UNL     1       9.913  -1.110   7.552  1.00  0.00    -0.250 OA
BRANCH  65  67
ATOM     67  O   UNL     1      11.963  -1.562   6.809  1.00  0.00    -0.480 OA
ATOM     68  H   UNL     1      12.285  -2.448   6.538  1.00  0.00     0.296 HD
ENDBRANCH  65  67
ENDBRANCH  49  65
ENDBRANCH  47  49
ENDBRANCH  43  45
ENDBRANCH   1  43
BRANCH   1  69
ATOM     69  C   UNL     1       6.167  -2.378   1.055  1.00  0.00    -0.001 C 
ATOM     70  C   UNL     1       6.300  -3.578   0.462  1.00  0.00     0.001 C 
BRANCH  70  71
ATOM     71  C   UNL     1       6.015  -3.904  -0.937  1.00  0.00    -0.055 C 
ATOM     72  C   UNL     1       6.823  -4.795  -1.550  1.00  0.00    -0.018 C 
ATOM     73  C   UNL     1       4.837  -3.229  -1.589  1.00  0.00     0.044 C 
BRANCH  72  74
ATOM     74  C   UNL     1       6.768  -5.321  -2.978  1.00  0.00     0.038 C 
ATOM     75  C   UNL     1       6.901  -6.847  -2.903  1.00  0.00     0.015 C 
BRANCH  74  76
ATOM     76  C   UNL     1       7.870  -4.609  -3.816  1.00  0.00     0.128 C 
BRANCH  76  77
ATOM     77  O   UNL     1       7.268  -3.667  -4.720  1.00  0.00    -0.381 OA
ATOM     78  C   UNL     1       8.156  -2.648  -5.158  1.00  0.00     0.195 C 
ENDBRANCH  76  77
BRANCH  76  79
ATOM     79  C   UNL     1       9.003  -3.983  -2.965  1.00  0.00     0.068 C 
BRANCH  79  80
ATOM     80  C   UNL     1      10.100  -4.893  -2.468  1.00  0.00    -0.045 A 
ATOM     81  C   UNL     1      10.493  -4.883  -1.123  1.00  0.00     0.004 A 
ATOM     82  C   UNL     1      10.766  -5.749  -3.358  1.00  0.00     0.004 A 
ATOM     83  C   UNL     1      11.518  -5.719  -0.674  1.00  0.00     0.000 A 
ATOM     84  C   UNL     1      11.792  -6.583  -2.908  1.00  0.00     0.000 A 
ATOM     85  C   UNL     1      12.166  -6.569  -1.567  1.00  0.00     0.000 A 
ENDBRANCH  79  80
ENDBRANCH  76  79
ENDBRANCH  74  76
ENDBRANCH  72  74
ENDBRANCH  70  71
ENDBRANCH   1  69
TORSDOF 17
ENDMDL
MODEL 24
REMARK VINA RESULT:    -6.076      3.471     10.954
REMARK INTER + INTRA:         -25.659
REMARK INTER:                 -17.040
REMARK INTRA:                  -8.619
REMARK UNBOUND:                -7.505
REMARK SMILES C=C1C(=O)N[C@H](C)C(=O)N[C@@H](CC(C)C)C(=O)N[C@@H](C(=O)O)[C@H](C)C(=O)N[C@@H](CCCN=C(N)N)C(=O)N[C@@H](/C=C/C(C)=C/[C@H](C)[C@H](Cc2ccccc2)OC)[C@H](C)C(=O)N[C@@H](C(=O)O)CCC(=O)N1C
REMARK SMILES IDX 39 1 38 2 37 3 36 4 28 6 27 7 25 8 26 9 23 11 24 12 19 13
REMARK SMILES IDX 18 14 16 15 17 16 11 18 10 19 8 20 9 21 12 24 13 25 14 26
REMARK SMILES IDX 15 27 20 28 21 29 22 30 29 32 30 33 31 34 32 35 33 36 34 37
REMARK SMILES IDX 35 38 57 43 58 44 59 45 60 46 61 47 62 49 66 50 67 51 68 52
REMARK SMILES IDX 69 53 70 54 71 55 2 56 1 57 3 58 4 59 5 60 6 62 7 63 63 65
REMARK SMILES IDX 64 66 65 67 40 69 41 70 42 71 44 72 43 73 45 74 46 75 47 76
REMARK SMILES IDX 55 77 56 78 48 79 49 80 50 81 54 82 51 83 53 84 52 85
REMARK H PARENT 38 5 27 10 18 17 10 22 22 31 34 39 34 40 35 41 35 42 61 48
REMARK H PARENT 5 61 65 68
REMARK Flexibility Score:  369.900
ROOT
ATOM      1  C   UNL     1       9.465  -1.439   2.373  1.00  0.00     0.117 C 
ENDROOT
BRANCH   1   2
ATOM      2  N   UNL     1       8.012  -1.292   2.460  1.00  0.00    -0.347 N 
ATOM      3  O   UNL     1       7.803  -1.592   4.727  1.00  0.00    -0.273 OA
ATOM      4  C   UNL     1       7.305  -1.290   3.648  1.00  0.00     0.243 C 
ATOM      5  H   UNL     1       7.479  -1.133   1.619  1.00  0.00     0.164 HD
BRANCH   4   6
ATOM      6  C   UNL     1       5.788  -1.030   3.469  1.00  0.00     0.171 C 
BRANCH   6   7
ATOM      7  N   UNL     1       5.340  -1.487   2.143  1.00  0.00    -0.344 N 
ATOM      8  C   UNL     1       4.269  -0.886   1.518  1.00  0.00     0.226 C 
ATOM      9  O   UNL     1       3.630   0.025   2.032  1.00  0.00    -0.275 OA
ATOM     10  H   UNL     1       5.800  -2.281   1.717  1.00  0.00     0.164 HD
BRANCH   8  11
ATOM     11  C   UNL     1       3.966  -1.433   0.134  1.00  0.00     0.109 C 
ATOM     12  C   UNL     1       2.488  -1.812   0.030  1.00  0.00     0.021 C 
BRANCH  11  13
ATOM     13  C   UNL     1       4.457  -0.440  -0.938  1.00  0.00     0.204 C 
BRANCH  13  14
ATOM     14  N   UNL     1       4.183   0.952  -0.567  1.00  0.00    -0.340 N 
ATOM     15  C   UNL     1       3.145   1.680  -1.108  1.00  0.00     0.243 C 
ATOM     16  O   UNL     1       2.338   1.192  -1.897  1.00  0.00    -0.273 OA
ATOM     17  H   UNL     1       4.899   1.459  -0.039  1.00  0.00     0.164 HD
BRANCH  15  18
ATOM     18  C   UNL     1       3.178   3.180  -0.728  1.00  0.00     0.171 C 
BRANCH  18  19
ATOM     19  N   UNL     1       2.012   3.797  -1.358  1.00  0.00    -0.343 N 
ATOM     20  C   UNL     1       2.101   4.996  -2.039  1.00  0.00     0.242 CG0
ATOM     21  O   UNL     1       3.132   5.665  -2.033  1.00  0.00    -0.273 OA
ATOM     22  H   UNL     1       1.110   3.340  -1.291  1.00  0.00     0.164 HD
ATOM     23  G   UNL     1       0.785   5.450  -2.703  1.00  0.00     0.000 G0
ENDBRANCH  18  19
BRANCH  18  24
ATOM     24  C   UNL     1       3.150   3.353   0.796  1.00  0.00     0.038 C 
BRANCH  24  25
ATOM     25  C   UNL     1       4.142   4.401   1.344  1.00  0.00    -0.015 C 
ATOM     26  C   UNL     1       3.500   5.777   1.522  1.00  0.00     0.007 C 
ATOM     27  C   UNL     1       5.345   4.511   0.405  1.00  0.00     0.007 C 
ENDBRANCH  24  25
ENDBRANCH  18  24
ENDBRANCH  15  18
ENDBRANCH  13  14
BRANCH  13  28
ATOM     28  C   UNL     1       5.959  -0.548  -1.217  1.00  0.00     0.327 C 
ATOM     29  O   UNL     1       6.836  -0.743  -0.389  1.00  0.00    -0.250 OA
BRANCH  28  30
ATOM     30  O   UNL     1       6.279  -0.285  -2.500  1.00  0.00    -0.480 OA
ATOM     31  H   UNL     1       6.070  -1.117  -2.975  1.00  0.00     0.296 HD
ENDBRANCH  28  30
ENDBRANCH  13  28
ENDBRANCH  11  13
ENDBRANCH   8  11
ENDBRANCH   6   7
BRANCH   6  32
ATOM     32  C   UNL     1       5.020  -1.750   4.583  1.00  0.00     0.037 C 
BRANCH  32  33
ATOM     33  C   UNL     1       4.038  -0.817   5.306  1.00  0.00     0.026 C 
BRANCH  33  34
ATOM     34  C   UNL     1       4.514   0.636   5.320  1.00  0.00     0.146 C 
BRANCH  34  35
ATOM     35  N   UNL     1       3.729   1.379   6.297  1.00  0.00    -0.254 NA
ATOM     36  C   UNL     1       3.289   2.538   5.977  1.00  0.00     0.185 C 
ATOM     37  N   UNL     1       2.560   3.229   6.868  1.00  0.00    -0.370 N 
ATOM     38  N   UNL     1       3.447   3.215   4.826  1.00  0.00    -0.370 N 
ATOM     39  H   UNL     1       2.388   2.781   7.759  1.00  0.00     0.159 HD
ATOM     40  H   UNL     1       2.038   4.057   6.637  1.00  0.00     0.159 HD
ATOM     41  H   UNL     1       3.170   4.179   4.746  1.00  0.00     0.159 HD
ATOM     42  H   UNL     1       3.987   2.822   4.071  1.00  0.00     0.159 HD
ENDBRANCH  34  35
ENDBRANCH  33  34
ENDBRANCH  32  33
ENDBRANCH   6  32
ENDBRANCH   4   6
ENDBRANCH   1   2
BRANCH   1  43
ATOM     43  C   UNL     1      10.110  -0.024   2.421  1.00  0.00     0.102 C 
ATOM     44  C   UNL     1      10.937   0.315   1.169  1.00  0.00     0.020 C 
BRANCH  43  45
ATOM     45  C   UNL     1      10.859   0.195   3.739  1.00  0.00     0.225 C 
ATOM     46  O   UNL     1      11.604   1.150   3.936  1.00  0.00    -0.275 OA
ATOM     47  N   UNL     1      10.719  -0.807   4.672  1.00  0.00    -0.342 N 
ATOM     48  H   UNL     1       9.993  -1.500   4.558  1.00  0.00     0.164 HD
BRANCH  47  49
ATOM     49  C   UNL     1      11.350  -0.716   5.993  1.00  0.00     0.192 C 
BRANCH  49  50
ATOM     50  C   UNL     1      12.100  -2.016   6.295  1.00  0.00     0.047 C 
BRANCH  50  51
ATOM     51  C   UNL     1      11.330  -3.256   5.820  1.00  0.00     0.103 C 
BRANCH  51  52
ATOM     52  C   UNL     1      12.174  -4.526   5.912  1.00  0.00     0.226 C 
ATOM     53  O   UNL     1      13.294  -4.478   6.424  1.00  0.00    -0.275 OA
BRANCH  52  54
ATOM     54  N   UNL     1      11.570  -5.714   5.461  1.00  0.00    -0.311 N 
ATOM     55  C   UNL     1      11.850  -6.242   4.119  1.00  0.00     0.153 C 
BRANCH  54  56
ATOM     56  C   UNL     1      10.685  -6.441   6.275  1.00  0.00     0.102 C 
ATOM     57  C   UNL     1       9.421  -6.754   5.947  1.00  0.00     0.043 C 
BRANCH  56  58
ATOM     58  C   UNL     1      11.130  -6.981   7.614  1.00  0.00     0.268 C 
ATOM     59  O   UNL     1      10.671  -6.591   8.679  1.00  0.00    -0.268 OA
ATOM     60  N   UNL     1      12.050  -7.996   7.508  1.00  0.00    -0.339 N 
ATOM     61  H   UNL     1      12.388  -8.253   6.589  1.00  0.00     0.164 HD
BRANCH  60  62
ATOM     62  C   UNL     1      12.567  -8.703   8.679  1.00  0.00     0.168 CG0
ATOM     63  C   UNL     1      11.777  -9.979   8.941  1.00  0.00     0.041 C 
ATOM     64  G   UNL     1      12.523  -7.771   9.907  1.00  0.00     0.000 G0
ENDBRANCH  60  62
ENDBRANCH  56  58
ENDBRANCH  54  56
ENDBRANCH  52  54
ENDBRANCH  51  52
ENDBRANCH  50  51
ENDBRANCH  49  50
BRANCH  49  65
ATOM     65  C   UNL     1      10.315  -0.457   7.099  1.00  0.00     0.326 C 
ATOM     66  O   UNL     1       9.284   0.186   6.970  1.00  0.00    -0.250 OA
BRANCH  65  67
ATOM     67  O   UNL     1      10.647  -0.957   8.310  1.00  0.00    -0.480 OA
ATOM     68  H   UNL     1      11.547  -1.321   8.171  1.00  0.00     0.296 HD
ENDBRANCH  65  67
ENDBRANCH  49  65
ENDBRANCH  47  49
ENDBRANCH  43  45
ENDBRANCH   1  43
BRANCH   1  69
ATOM     69  C   UNL     1       9.730  -2.325   1.169  1.00  0.00    -0.001 C 
ATOM     70  C   UNL     1      10.400  -3.490   1.143  1.00  0.00     0.001 C 
BRANCH  70  71
ATOM     71  C   UNL     1      10.630  -4.347  -0.021  1.00  0.00    -0.055 C 
ATOM     72  C   UNL     1      10.533  -3.784  -1.244  1.00  0.00    -0.018 C 
ATOM     73  C   UNL     1      10.967  -5.794   0.227  1.00  0.00     0.044 C 
BRANCH  72  74
ATOM     74  C   UNL     1      10.721  -4.419  -2.615  1.00  0.00     0.038 C 
ATOM     75  C   UNL     1      11.826  -3.632  -3.330  1.00  0.00     0.015 C 
BRANCH  74  76
ATOM     76  C   UNL     1       9.349  -4.435  -3.351  1.00  0.00     0.128 C 
BRANCH  76  77
ATOM     77  O   UNL     1       8.793  -5.761  -3.323  1.00  0.00    -0.381 OA
ATOM     78  C   UNL     1       8.393  -6.239  -4.600  1.00  0.00     0.195 C 
ENDBRANCH  76  77
BRANCH  76  79
ATOM     79  C   UNL     1       8.354  -3.357  -2.853  1.00  0.00     0.068 C 
BRANCH  79  80
ATOM     80  C   UNL     1       7.059  -3.822  -2.233  1.00  0.00    -0.045 A 
ATOM     81  C   UNL     1       7.010  -4.249  -0.899  1.00  0.00     0.004 A 
ATOM     82  C   UNL     1       5.883  -3.862  -2.997  1.00  0.00     0.004 A 
ATOM     83  C   UNL     1       5.811  -4.691  -0.336  1.00  0.00     0.000 A 
ATOM     84  C   UNL     1       4.685  -4.306  -2.433  1.00  0.00     0.000 A 
ATOM     85  C   UNL     1       4.649  -4.718  -1.103  1.00  0.00     0.000 A 
ENDBRANCH  79  80
ENDBRANCH  76  79
ENDBRANCH  74  76
ENDBRANCH  72  74
ENDBRANCH  70  71
ENDBRANCH   1  69
TORSDOF 17
ENDMDL
MODEL 25
REMARK VINA RESULT:    -6.075      3.575     12.119
REMARK INTER + INTRA:         -25.656
REMARK INTER:                 -16.794
REMARK INTRA:                  -8.862
REMARK UNBOUND:                -7.505
REMARK SMILES C=C1C(=O)N[C@H](C)C(=O)N[C@@H](CC(C)C)C(=O)N[C@@H](C(=O)O)[C@H](C)C(=O)N[C@@H](CCCN=C(N)N)C(=O)N[C@@H](/C=C/C(C)=C/[C@H](C)[C@H](Cc2ccccc2)OC)[C@H](C)C(=O)N[C@@H](C(=O)O)CCC(=O)N1C
REMARK SMILES IDX 39 1 38 2 37 3 36 4 28 6 27 7 25 8 26 9 23 11 24 12 19 13
REMARK SMILES IDX 18 14 16 15 17 16 11 18 10 19 8 20 9 21 12 24 13 25 14 26
REMARK SMILES IDX 15 27 20 28 21 29 22 30 29 32 30 33 31 34 32 35 33 36 34 37
REMARK SMILES IDX 35 38 57 43 58 44 59 45 60 46 61 47 62 49 66 50 67 51 68 52
REMARK SMILES IDX 69 53 70 54 71 55 2 56 1 57 3 58 4 59 5 60 6 62 7 63 63 65
REMARK SMILES IDX 64 66 65 67 40 69 41 70 42 71 44 72 43 73 45 74 46 75 47 76
REMARK SMILES IDX 55 77 56 78 48 79 49 80 50 81 54 82 51 83 53 84 52 85
REMARK H PARENT 38 5 27 10 18 17 10 22 22 31 34 39 34 40 35 41 35 42 61 48
REMARK H PARENT 5 61 65 68
REMARK Flexibility Score:  369.900
ROOT
ATOM      1  C   UNL     1       5.890  -1.291   2.744  1.00  0.00     0.117 C 
ENDROOT
BRANCH   1   2
ATOM      2  N   UNL     1       4.695  -0.474   2.530  1.00  0.00    -0.347 N 
ATOM      3  O   UNL     1       3.280  -1.615   3.933  1.00  0.00    -0.273 OA
ATOM      4  C   UNL     1       3.507  -0.647   3.214  1.00  0.00     0.243 C 
ATOM      5  H   UNL     1       4.734   0.300   1.884  1.00  0.00     0.164 HD
BRANCH   4   6
ATOM      6  C   UNL     1       2.426   0.406   2.861  1.00  0.00     0.171 C 
BRANCH   6   7
ATOM      7  N   UNL     1       1.908   1.040   4.084  1.00  0.00    -0.344 N 
ATOM      8  C   UNL     1       0.751   0.582   4.678  1.00  0.00     0.226 C 
ATOM      9  O   UNL     1       0.094  -0.344   4.216  1.00  0.00    -0.275 OA
ATOM     10  H   UNL     1       2.386   1.851   4.457  1.00  0.00     0.164 HD
BRANCH   8  11
ATOM     11  C   UNL     1       0.378   1.304   5.961  1.00  0.00     0.109 C 
ATOM     12  C   UNL     1       1.385   2.418   6.249  1.00  0.00     0.021 C 
BRANCH  11  13
ATOM     13  C   UNL     1      -1.093   1.761   5.893  1.00  0.00     0.204 C 
BRANCH  13  14
ATOM     14  N   UNL     1      -1.549   1.948   4.512  1.00  0.00    -0.340 N 
ATOM     15  C   UNL     1      -2.461   2.916   4.150  1.00  0.00     0.243 C 
ATOM     16  O   UNL     1      -2.911   3.732   4.952  1.00  0.00    -0.273 OA
ATOM     17  H   UNL     1      -1.334   1.215   3.831  1.00  0.00     0.164 HD
BRANCH  15  18
ATOM     18  C   UNL     1      -2.948   2.790   2.686  1.00  0.00     0.171 C 
BRANCH  18  19
ATOM     19  N   UNL     1      -4.043   3.745   2.525  1.00  0.00    -0.343 N 
ATOM     20  C   UNL     1      -5.356   3.333   2.397  1.00  0.00     0.242 CG0
ATOM     21  O   UNL     1      -5.649   2.145   2.277  1.00  0.00    -0.273 OA
ATOM     22  H   UNL     1      -3.839   4.737   2.501  1.00  0.00     0.164 HD
ATOM     23  G   UNL     1      -6.380   4.484   2.317  1.00  0.00     0.000 G0
ENDBRANCH  18  19
BRANCH  18  24
ATOM     24  C   UNL     1      -1.803   3.080   1.707  1.00  0.00     0.038 C 
BRANCH  24  25
ATOM     25  C   UNL     1      -1.691   2.084   0.533  1.00  0.00    -0.015 C 
ATOM     26  C   UNL     1      -0.400   1.266   0.580  1.00  0.00     0.007 C 
ATOM     27  C   UNL     1      -1.773   2.843  -0.794  1.00  0.00     0.007 C 
ENDBRANCH  24  25
ENDBRANCH  18  24
ENDBRANCH  15  18
ENDBRANCH  13  14
BRANCH  13  28
ATOM     28  C   UNL     1      -2.061   0.781   6.562  1.00  0.00     0.327 C 
ATOM     29  O   UNL     1      -1.865   0.165   7.599  1.00  0.00    -0.250 OA
BRANCH  28  30
ATOM     30  O   UNL     1      -3.166   0.543   5.826  1.00  0.00    -0.480 OA
ATOM     31  H   UNL     1      -3.064  -0.386   5.531  1.00  0.00     0.296 HD
ENDBRANCH  28  30
ENDBRANCH  13  28
ENDBRANCH  11  13
ENDBRANCH   8  11
ENDBRANCH   6   7
BRANCH   6  32
ATOM     32  C   UNL     1       3.029   1.451   1.917  1.00  0.00     0.037 C 
BRANCH  32  33
ATOM     33  C   UNL     1       2.919   2.874   2.480  1.00  0.00     0.026 C 
BRANCH  33  34
ATOM     34  C   UNL     1       4.269   3.430   2.936  1.00  0.00     0.146 C 
BRANCH  34  35
ATOM     35  N   UNL     1       4.835   2.531   3.932  1.00  0.00    -0.254 NA
ATOM     36  C   UNL     1       4.882   2.918   5.152  1.00  0.00     0.185 C 
ATOM     37  N   UNL     1       5.398   2.095   6.079  1.00  0.00    -0.370 N 
ATOM     38  N   UNL     1       4.474   4.082   5.686  1.00  0.00    -0.370 N 
ATOM     39  H   UNL     1       5.719   1.191   5.756  1.00  0.00     0.159 HD
ATOM     40  H   UNL     1       5.312   2.250   7.069  1.00  0.00     0.159 HD
ATOM     41  H   UNL     1       4.692   4.324   6.638  1.00  0.00     0.159 HD
ATOM     42  H   UNL     1       4.080   4.804   5.102  1.00  0.00     0.159 HD
ENDBRANCH  34  35
ENDBRANCH  33  34
ENDBRANCH  32  33
ENDBRANCH   6  32
ENDBRANCH   4   6
ENDBRANCH   1   2
BRANCH   1  43
ATOM     43  C   UNL     1       6.936  -0.443   3.524  1.00  0.00     0.102 C 
ATOM     44  C   UNL     1       8.257  -0.248   2.761  1.00  0.00     0.020 C 
BRANCH  43  45
ATOM     45  C   UNL     1       7.115  -0.968   4.951  1.00  0.00     0.225 C 
ATOM     46  O   UNL     1       7.432  -0.250   5.896  1.00  0.00    -0.275 OA
ATOM     47  N   UNL     1       6.990  -2.330   5.102  1.00  0.00    -0.342 N 
ATOM     48  H   UNL     1       6.584  -2.880   4.358  1.00  0.00     0.164 HD
BRANCH  47  49
ATOM     49  C   UNL     1       7.100  -2.969   6.416  1.00  0.00     0.192 C 
BRANCH  49  50
ATOM     50  C   UNL     1       8.244  -3.986   6.399  1.00  0.00     0.047 C 
BRANCH  50  51
ATOM     51  C   UNL     1       9.163  -3.809   5.182  1.00  0.00     0.103 C 
BRANCH  51  52
ATOM     52  C   UNL     1      10.482  -3.135   5.553  1.00  0.00     0.226 C 
ATOM     53  O   UNL     1      10.503  -2.283   6.443  1.00  0.00    -0.275 OA
BRANCH  52  54
ATOM     54  N   UNL     1      11.631  -3.598   4.885  1.00  0.00    -0.311 N 
ATOM     55  C   UNL     1      12.641  -2.659   4.378  1.00  0.00     0.153 C 
BRANCH  54  56
ATOM     56  C   UNL     1      11.859  -4.970   4.685  1.00  0.00     0.102 C 
ATOM     57  C   UNL     1      11.936  -5.568   3.485  1.00  0.00     0.043 C 
BRANCH  56  58
ATOM     58  C   UNL     1      12.088  -5.896   5.856  1.00  0.00     0.268 C 
ATOM     59  O   UNL     1      12.897  -5.666   6.745  1.00  0.00    -0.268 OA
ATOM     60  N   UNL     1      11.250  -6.986   5.853  1.00  0.00    -0.339 N 
ATOM     61  H   UNL     1      10.615  -7.111   5.074  1.00  0.00     0.164 HD
BRANCH  60  62
ATOM     62  C   UNL     1      11.260  -7.978   6.928  1.00  0.00     0.168 CG0
ATOM     63  C   UNL     1      10.151  -7.703   7.936  1.00  0.00     0.041 C 
ATOM     64  G   UNL     1      12.639  -7.978   7.619  1.00  0.00     0.000 G0
ENDBRANCH  60  62
ENDBRANCH  56  58
ENDBRANCH  54  56
ENDBRANCH  52  54
ENDBRANCH  51  52
ENDBRANCH  50  51
ENDBRANCH  49  50
BRANCH  49  65
ATOM     65  C   UNL     1       5.796  -3.678   6.814  1.00  0.00     0.326 C 
ATOM     66  O   UNL     1       5.707  -4.629   7.577  1.00  0.00    -0.250 OA
BRANCH  65  67
ATOM     67  O   UNL     1       4.689  -3.207   6.198  1.00  0.00    -0.480 OA
ATOM     68  H   UNL     1       4.813  -3.473   5.262  1.00  0.00     0.296 HD
ENDBRANCH  65  67
ENDBRANCH  49  65
ENDBRANCH  47  49
ENDBRANCH  43  45
ENDBRANCH   1  43
BRANCH   1  69
ATOM     69  C   UNL     1       6.267  -1.853   1.386  1.00  0.00    -0.001 C 
ATOM     70  C   UNL     1       5.717  -1.554   0.196  1.00  0.00     0.001 C 
BRANCH  70  71
ATOM     71  C   UNL     1       6.105  -2.088  -1.112  1.00  0.00    -0.055 C 
ATOM     72  C   UNL     1       5.751  -3.357  -1.401  1.00  0.00    -0.018 C 
ATOM     73  C   UNL     1       6.864  -1.180  -2.044  1.00  0.00     0.044 C 
BRANCH  72  74
ATOM     74  C   UNL     1       6.010  -4.165  -2.665  1.00  0.00     0.038 C 
ATOM     75  C   UNL     1       4.648  -4.439  -3.314  1.00  0.00     0.015 C 
BRANCH  74  76
ATOM     76  C   UNL     1       6.821  -5.440  -2.287  1.00  0.00     0.128 C 
BRANCH  76  77
ATOM     77  O   UNL     1       6.523  -6.503  -3.207  1.00  0.00    -0.381 OA
ATOM     78  C   UNL     1       7.438  -6.594  -4.291  1.00  0.00     0.195 C 
ENDBRANCH  76  77
BRANCH  76  79
ATOM     79  C   UNL     1       8.343  -5.193  -2.128  1.00  0.00     0.068 C 
BRANCH  79  80
ATOM     80  C   UNL     1       8.826  -4.555  -0.849  1.00  0.00    -0.045 A 
ATOM     81  C   UNL     1       8.471  -5.082   0.400  1.00  0.00     0.004 A 
ATOM     82  C   UNL     1       9.621  -3.400  -0.891  1.00  0.00     0.004 A 
ATOM     83  C   UNL     1       8.910  -4.477   1.580  1.00  0.00     0.000 A 
ATOM     84  C   UNL     1      10.060  -2.796   0.289  1.00  0.00     0.000 A 
ATOM     85  C   UNL     1       9.706  -3.335   1.524  1.00  0.00     0.000 A 
ENDBRANCH  79  80
ENDBRANCH  76  79
ENDBRANCH  74  76
ENDBRANCH  72  74
ENDBRANCH  70  71
ENDBRANCH   1  69
TORSDOF 17
ENDMDL
MODEL 26
REMARK VINA RESULT:    -6.073      2.688     12.242
REMARK INTER + INTRA:         -25.648
REMARK INTER:                 -17.491
REMARK INTRA:                  -8.157
REMARK UNBOUND:                -7.505
REMARK SMILES C=C1C(=O)N[C@H](C)C(=O)N[C@@H](CC(C)C)C(=O)N[C@@H](C(=O)O)[C@H](C)C(=O)N[C@@H](CCCN=C(N)N)C(=O)N[C@@H](/C=C/C(C)=C/[C@H](C)[C@H](Cc2ccccc2)OC)[C@H](C)C(=O)N[C@@H](C(=O)O)CCC(=O)N1C
REMARK SMILES IDX 39 1 38 2 37 3 36 4 28 6 27 7 25 8 26 9 23 11 24 12 19 13
REMARK SMILES IDX 18 14 16 15 17 16 11 18 10 19 8 20 9 21 12 24 13 25 14 26
REMARK SMILES IDX 15 27 20 28 21 29 22 30 29 32 30 33 31 34 32 35 33 36 34 37
REMARK SMILES IDX 35 38 57 43 58 44 59 45 60 46 61 47 62 49 66 50 67 51 68 52
REMARK SMILES IDX 69 53 70 54 71 55 2 56 1 57 3 58 4 59 5 60 6 62 7 63 63 65
REMARK SMILES IDX 64 66 65 67 40 69 41 70 42 71 44 72 43 73 45 74 46 75 47 76
REMARK SMILES IDX 55 77 56 78 48 79 49 80 50 81 54 82 51 83 53 84 52 85
REMARK H PARENT 38 5 27 10 18 17 10 22 22 31 34 39 34 40 35 41 35 42 61 48
REMARK H PARENT 5 61 65 68
REMARK Flexibility Score:  369.900
ROOT
ATOM      1  C   UNL     1       7.329  -2.623   5.190  1.00  0.00     0.117 C 
ENDROOT
BRANCH   1   2
ATOM      2  N   UNL     1       6.277  -1.874   4.503  1.00  0.00    -0.347 N 
ATOM      3  O   UNL     1       4.474  -2.832   5.552  1.00  0.00    -0.273 OA
ATOM      4  C   UNL     1       4.933  -1.974   4.805  1.00  0.00     0.243 C 
ATOM      5  H   UNL     1       6.531  -1.201   3.795  1.00  0.00     0.164 HD
BRANCH   4   6
ATOM      6  C   UNL     1       4.037  -1.008   3.988  1.00  0.00     0.171 C 
BRANCH   6   7
ATOM      7  N   UNL     1       4.309   0.388   4.364  1.00  0.00    -0.344 N 
ATOM      8  C   UNL     1       3.466   1.063   5.220  1.00  0.00     0.226 C 
ATOM      9  O   UNL     1       2.453   0.554   5.686  1.00  0.00    -0.275 OA
ATOM     10  H   UNL     1       5.099   0.864   3.946  1.00  0.00     0.164 HD
BRANCH   8  11
ATOM     11  C   UNL     1       3.912   2.476   5.553  1.00  0.00     0.109 C 
ATOM     12  C   UNL     1       4.999   2.928   4.578  1.00  0.00     0.021 C 
BRANCH  11  13
ATOM     13  C   UNL     1       2.684   3.405   5.633  1.00  0.00     0.204 C 
BRANCH  13  14
ATOM     14  N   UNL     1       1.526   2.851   4.926  1.00  0.00    -0.340 N 
ATOM     15  C   UNL     1       1.073   3.351   3.724  1.00  0.00     0.243 C 
ATOM     16  O   UNL     1       1.647   4.260   3.129  1.00  0.00    -0.273 OA
ATOM     17  H   UNL     1       0.919   2.201   5.433  1.00  0.00     0.164 HD
BRANCH  15  18
ATOM     18  C   UNL     1      -0.280   2.747   3.273  1.00  0.00     0.171 C 
BRANCH  18  19
ATOM     19  N   UNL     1      -1.048   3.838   2.677  1.00  0.00    -0.343 N 
ATOM     20  C   UNL     1      -2.421   3.919   2.807  1.00  0.00     0.242 CG0
ATOM     21  O   UNL     1      -3.074   3.010   3.313  1.00  0.00    -0.273 OA
ATOM     22  H   UNL     1      -0.564   4.555   2.148  1.00  0.00     0.164 HD
ATOM     23  G   UNL     1      -3.046   5.181   2.178  1.00  0.00     0.000 G0
ENDBRANCH  18  19
BRANCH  18  24
ATOM     24  C   UNL     1      -0.057   1.605   2.274  1.00  0.00     0.038 C 
BRANCH  24  25
ATOM     25  C   UNL     1      -0.187   2.012   0.791  1.00  0.00    -0.015 C 
ATOM     26  C   UNL     1      -1.338   1.295   0.086  1.00  0.00     0.007 C 
ATOM     27  C   UNL     1       1.126   1.722   0.060  1.00  0.00     0.007 C 
ENDBRANCH  24  25
ENDBRANCH  18  24
ENDBRANCH  15  18
ENDBRANCH  13  14
BRANCH  13  28
ATOM     28  C   UNL     1       2.241   3.699   7.069  1.00  0.00     0.327 C 
ATOM     29  O   UNL     1       1.154   3.433   7.559  1.00  0.00    -0.250 OA
BRANCH  28  30
ATOM     30  O   UNL     1       3.148   4.414   7.767  1.00  0.00    -0.480 OA
ATOM     31  H   UNL     1       3.904   4.510   7.151  1.00  0.00     0.296 HD
ENDBRANCH  28  30
ENDBRANCH  13  28
ENDBRANCH  11  13
ENDBRANCH   8  11
ENDBRANCH   6   7
BRANCH   6  32
ATOM     32  C   UNL     1       4.288  -1.232   2.493  1.00  0.00     0.037 C 
BRANCH  32  33
ATOM     33  C   UNL     1       3.998   0.026   1.662  1.00  0.00     0.026 C 
BRANCH  33  34
ATOM     34  C   UNL     1       5.120   0.347   0.674  1.00  0.00     0.146 C 
BRANCH  34  35
ATOM     35  N   UNL     1       6.393  -0.037   1.268  1.00  0.00    -0.254 NA
ATOM     36  C   UNL     1       7.201   0.885   1.640  1.00  0.00     0.185 C 
ATOM     37  N   UNL     1       8.374   0.542   2.193  1.00  0.00    -0.370 N 
ATOM     38  N   UNL     1       7.053   2.219   1.561  1.00  0.00    -0.370 N 
ATOM     39  H   UNL     1       8.556  -0.448   2.296  1.00  0.00     0.159 HD
ATOM     40  H   UNL     1       8.979   1.194   2.663  1.00  0.00     0.159 HD
ATOM     41  H   UNL     1       7.820   2.841   1.760  1.00  0.00     0.159 HD
ATOM     42  H   UNL     1       6.224   2.620   1.151  1.00  0.00     0.159 HD
ENDBRANCH  34  35
ENDBRANCH  33  34
ENDBRANCH  32  33
ENDBRANCH   6  32
ENDBRANCH   4   6
ENDBRANCH   1   2
BRANCH   1  43
ATOM     43  C   UNL     1       8.285  -1.611   5.884  1.00  0.00     0.102 C 
ATOM     44  C   UNL     1       7.674  -0.210   6.055  1.00  0.00     0.020 C 
BRANCH  43  45
ATOM     45  C   UNL     1       9.664  -1.610   5.217  1.00  0.00     0.225 C 
ATOM     46  O   UNL     1       9.905  -1.005   4.176  1.00  0.00    -0.275 OA
ATOM     47  N   UNL     1      10.609  -2.415   5.810  1.00  0.00    -0.342 N 
ATOM     48  H   UNL     1      10.445  -2.780   6.738  1.00  0.00     0.164 HD
BRANCH  47  49
ATOM     49  C   UNL     1      11.983  -2.486   5.302  1.00  0.00     0.192 C 
BRANCH  49  50
ATOM     50  C   UNL     1      12.191  -3.812   4.567  1.00  0.00     0.047 C 
BRANCH  50  51
ATOM     51  C   UNL     1      11.212  -4.897   5.035  1.00  0.00     0.103 C 
BRANCH  51  52
ATOM     52  C   UNL     1      11.896  -6.252   5.207  1.00  0.00     0.226 C 
ATOM     53  O   UNL     1      12.905  -6.341   5.910  1.00  0.00    -0.275 OA
BRANCH  52  54
ATOM     54  N   UNL     1      11.269  -7.353   4.596  1.00  0.00    -0.311 N 
ATOM     55  C   UNL     1       9.906  -7.245   4.059  1.00  0.00     0.153 C 
BRANCH  54  56
ATOM     56  C   UNL     1      11.921  -8.591   4.471  1.00  0.00     0.102 C 
ATOM     57  C   UNL     1      11.528  -9.731   5.063  1.00  0.00     0.043 C 
BRANCH  56  58
ATOM     58  C   UNL     1      13.137  -8.741   3.587  1.00  0.00     0.268 C 
ATOM     59  O   UNL     1      14.276  -8.831   4.025  1.00  0.00    -0.268 OA
ATOM     60  N   UNL     1      12.826  -8.830   2.251  1.00  0.00    -0.339 N 
ATOM     61  H   UNL     1      11.858  -8.735   1.969  1.00  0.00     0.164 HD
BRANCH  60  62
ATOM     62  C   UNL     1      13.848  -9.041   1.226  1.00  0.00     0.168 CG0
ATOM     63  C   UNL     1      13.274  -8.829  -0.170  1.00  0.00     0.041 C 
ATOM     64  G   UNL     1      14.434 -10.461   1.365  1.00  0.00     0.000 G0
ENDBRANCH  60  62
ENDBRANCH  56  58
ENDBRANCH  54  56
ENDBRANCH  52  54
ENDBRANCH  51  52
ENDBRANCH  50  51
ENDBRANCH  49  50
BRANCH  49  65
ATOM     65  C   UNL     1      13.013  -2.365   6.436  1.00  0.00     0.326 C 
ATOM     66  O   UNL     1      13.859  -3.201   6.720  1.00  0.00    -0.250 OA
BRANCH  65  67
ATOM     67  O   UNL     1      12.898  -1.247   7.186  1.00  0.00    -0.480 OA
ATOM     68  H   UNL     1      11.978  -1.289   7.524  1.00  0.00     0.296 HD
ENDBRANCH  65  67
ENDBRANCH  49  65
ENDBRANCH  47  49
ENDBRANCH  43  45
ENDBRANCH   1  43
BRANCH   1  69
ATOM     69  C   UNL     1       7.900  -3.588   4.167  1.00  0.00    -0.001 C 
ATOM     70  C   UNL     1       7.784  -3.523   2.829  1.00  0.00     0.001 C 
BRANCH  70  71
ATOM     71  C   UNL     1       8.358  -4.449   1.850  1.00  0.00    -0.055 C 
ATOM     72  C   UNL     1       9.677  -4.344   1.586  1.00  0.00    -0.018 C 
ATOM     73  C   UNL     1       7.437  -5.458   1.214  1.00  0.00     0.044 C 
BRANCH  72  74
ATOM     74  C   UNL     1      10.536  -5.161   0.631  1.00  0.00     0.038 C 
ATOM     75  C   UNL     1      11.828  -5.517   1.376  1.00  0.00     0.015 C 
BRANCH  74  76
ATOM     76  C   UNL     1      10.740  -4.347  -0.680  1.00  0.00     0.128 C 
BRANCH  76  77
ATOM     77  O   UNL     1      12.144  -4.183  -0.942  1.00  0.00    -0.381 OA
ATOM     78  C   UNL     1      12.507  -2.857  -1.304  1.00  0.00     0.195 C 
ENDBRANCH  76  77
BRANCH  76  79
ATOM     79  C   UNL     1       9.965  -4.909  -1.898  1.00  0.00     0.068 C 
BRANCH  79  80
ATOM     80  C   UNL     1       8.516  -4.517  -2.056  1.00  0.00    -0.045 A 
ATOM     81  C   UNL     1       8.066  -3.246  -1.674  1.00  0.00     0.004 A 
ATOM     82  C   UNL     1       7.586  -5.436  -2.565  1.00  0.00     0.004 A 
ATOM     83  C   UNL     1       6.721  -2.896  -1.810  1.00  0.00     0.000 A 
ATOM     84  C   UNL     1       6.241  -5.086  -2.699  1.00  0.00     0.000 A 
ATOM     85  C   UNL     1       5.809  -3.816  -2.324  1.00  0.00     0.000 A 
ENDBRANCH  79  80
ENDBRANCH  76  79
ENDBRANCH  74  76
ENDBRANCH  72  74
ENDBRANCH  70  71
ENDBRANCH   1  69
TORSDOF 17
ENDMDL
MODEL 27
REMARK VINA RESULT:    -6.058      4.035     11.721
REMARK INTER + INTRA:         -25.604
REMARK INTER:                 -17.762
REMARK INTRA:                  -7.841
REMARK UNBOUND:                -7.505
REMARK SMILES C=C1C(=O)N[C@H](C)C(=O)N[C@@H](CC(C)C)C(=O)N[C@@H](C(=O)O)[C@H](C)C(=O)N[C@@H](CCCN=C(N)N)C(=O)N[C@@H](/C=C/C(C)=C/[C@H](C)[C@H](Cc2ccccc2)OC)[C@H](C)C(=O)N[C@@H](C(=O)O)CCC(=O)N1C
REMARK SMILES IDX 39 1 38 2 37 3 36 4 28 6 27 7 25 8 26 9 23 11 24 12 19 13
REMARK SMILES IDX 18 14 16 15 17 16 11 18 10 19 8 20 9 21 12 24 13 25 14 26
REMARK SMILES IDX 15 27 20 28 21 29 22 30 29 32 30 33 31 34 32 35 33 36 34 37
REMARK SMILES IDX 35 38 57 43 58 44 59 45 60 46 61 47 62 49 66 50 67 51 68 52
REMARK SMILES IDX 69 53 70 54 71 55 2 56 1 57 3 58 4 59 5 60 6 62 7 63 63 65
REMARK SMILES IDX 64 66 65 67 40 69 41 70 42 71 44 72 43 73 45 74 46 75 47 76
REMARK SMILES IDX 55 77 56 78 48 79 49 80 50 81 54 82 51 83 53 84 52 85
REMARK H PARENT 38 5 27 10 18 17 10 22 22 31 34 39 34 40 35 41 35 42 61 48
REMARK H PARENT 5 61 65 68
REMARK Flexibility Score:  369.900
ROOT
ATOM      1  C   UNL     1       5.927  -1.426   3.975  1.00  0.00     0.117 C 
ENDROOT
BRANCH   1   2
ATOM      2  N   UNL     1       6.099  -2.034   2.655  1.00  0.00    -0.347 N 
ATOM      3  O   UNL     1       8.244  -1.318   2.258  1.00  0.00    -0.273 OA
ATOM      4  C   UNL     1       7.281  -2.007   1.940  1.00  0.00     0.243 C 
ATOM      5  H   UNL     1       5.336  -2.551   2.245  1.00  0.00     0.164 HD
BRANCH   4   6
ATOM      6  C   UNL     1       7.221  -2.800   0.609  1.00  0.00     0.171 C 
BRANCH   6   7
ATOM      7  N   UNL     1       5.969  -2.510  -0.107  1.00  0.00    -0.344 N 
ATOM      8  C   UNL     1       5.135  -3.532  -0.507  1.00  0.00     0.226 C 
ATOM      9  O   UNL     1       5.398  -4.713  -0.312  1.00  0.00    -0.275 OA
ATOM     10  H   UNL     1       5.751  -1.551  -0.346  1.00  0.00     0.164 HD
BRANCH   8  11
ATOM     11  C   UNL     1       3.858  -3.069  -1.184  1.00  0.00     0.109 C 
ATOM     12  C   UNL     1       3.149  -2.030  -0.315  1.00  0.00     0.021 C 
BRANCH  11  13
ATOM     13  C   UNL     1       4.168  -2.609  -2.623  1.00  0.00     0.204 C 
BRANCH  13  14
ATOM     14  N   UNL     1       4.908  -1.343  -2.650  1.00  0.00    -0.340 N 
ATOM     15  C   UNL     1       4.354  -0.161  -3.091  1.00  0.00     0.243 C 
ATOM     16  O   UNL     1       3.178  -0.072  -3.437  1.00  0.00    -0.273 OA
ATOM     17  H   UNL     1       5.923  -1.378  -2.521  1.00  0.00     0.164 HD
BRANCH  15  18
ATOM     18  C   UNL     1       5.381   0.991  -3.225  1.00  0.00     0.171 C 
BRANCH  18  19
ATOM     19  N   UNL     1       4.703   2.075  -3.934  1.00  0.00    -0.343 N 
ATOM     20  C   UNL     1       4.982   2.369  -5.254  1.00  0.00     0.242 CG0
ATOM     21  O   UNL     1       5.905   1.822  -5.854  1.00  0.00    -0.273 OA
ATOM     22  H   UNL     1       4.012   2.633  -3.445  1.00  0.00     0.164 HD
ATOM     23  G   UNL     1       4.112   3.493  -5.854  1.00  0.00     0.000 G0
ENDBRANCH  18  19
BRANCH  18  24
ATOM     24  C   UNL     1       5.872   1.442  -1.844  1.00  0.00     0.038 C 
BRANCH  24  25
ATOM     25  C   UNL     1       4.807   1.376  -0.729  1.00  0.00    -0.015 C 
ATOM     26  C   UNL     1       4.020   2.680  -0.593  1.00  0.00     0.007 C 
ATOM     27  C   UNL     1       5.479   1.039   0.605  1.00  0.00     0.007 C 
ENDBRANCH  24  25
ENDBRANCH  18  24
ENDBRANCH  15  18
ENDBRANCH  13  14
BRANCH  13  28
ATOM     28  C   UNL     1       4.984  -3.630  -3.420  1.00  0.00     0.327 C 
ATOM     29  O   UNL     1       4.648  -4.773  -3.689  1.00  0.00    -0.250 OA
BRANCH  28  30
ATOM     30  O   UNL     1       6.222  -3.192  -3.729  1.00  0.00    -0.480 OA
ATOM     31  H   UNL     1       6.066  -2.384  -4.262  1.00  0.00     0.296 HD
ENDBRANCH  28  30
ENDBRANCH  13  28
ENDBRANCH  11  13
ENDBRANCH   8  11
ENDBRANCH   6   7
BRANCH   6  32
ATOM     32  C   UNL     1       8.439  -2.437  -0.248  1.00  0.00     0.037 C 
BRANCH  32  33
ATOM     33  C   UNL     1       9.355  -3.643  -0.495  1.00  0.00     0.026 C 
BRANCH  33  34
ATOM     34  C   UNL     1       8.572  -4.911  -0.840  1.00  0.00     0.146 C 
BRANCH  34  35
ATOM     35  N   UNL     1       8.536  -5.063  -2.288  1.00  0.00    -0.254 NA
ATOM     36  C   UNL     1       7.652  -5.833  -2.803  1.00  0.00     0.185 C 
ATOM     37  N   UNL     1       7.608  -5.976  -4.137  1.00  0.00    -0.370 N 
ATOM     38  N   UNL     1       6.706  -6.564  -2.188  1.00  0.00    -0.370 N 
ATOM     39  H   UNL     1       8.284  -5.448  -4.673  1.00  0.00     0.159 HD
ATOM     40  H   UNL     1       6.846  -6.417  -4.624  1.00  0.00     0.159 HD
ATOM     41  H   UNL     1       6.158  -7.240  -2.695  1.00  0.00     0.159 HD
ATOM     42  H   UNL     1       6.632  -6.565  -1.182  1.00  0.00     0.159 HD
ENDBRANCH  34  35
ENDBRANCH  33  34
ENDBRANCH  32  33
ENDBRANCH   6  32
ENDBRANCH   4   6
ENDBRANCH   1   2
BRANCH   1  43
ATOM     43  C   UNL     1       6.248  -2.495   5.058  1.00  0.00     0.102 C 
ATOM     44  C   UNL     1       5.048  -2.832   5.960  1.00  0.00     0.020 C 
BRANCH  43  45
ATOM     45  C   UNL     1       7.522  -2.133   5.828  1.00  0.00     0.225 C 
ATOM     46  O   UNL     1       7.558  -2.020   7.050  1.00  0.00    -0.275 OA
ATOM     47  N   UNL     1       8.621  -1.845   5.052  1.00  0.00    -0.342 N 
ATOM     48  H   UNL     1       8.619  -2.088   4.072  1.00  0.00     0.164 HD
BRANCH  47  49
ATOM     49  C   UNL     1       9.918  -1.517   5.653  1.00  0.00     0.192 C 
BRANCH  49  50
ATOM     50  C   UNL     1      10.502  -2.762   6.327  1.00  0.00     0.047 C 
BRANCH  50  51
ATOM     51  C   UNL     1      10.829  -3.871   5.317  1.00  0.00     0.103 C 
BRANCH  51  52
ATOM     52  C   UNL     1      11.720  -4.953   5.923  1.00  0.00     0.226 C 
ATOM     53  O   UNL     1      12.796  -4.640   6.436  1.00  0.00    -0.275 OA
BRANCH  52  54
ATOM     54  N   UNL     1      11.205  -6.263   5.922  1.00  0.00    -0.311 N 
ATOM     55  C   UNL     1       9.837  -6.537   5.463  1.00  0.00     0.153 C 
BRANCH  54  56
ATOM     56  C   UNL     1      11.978  -7.354   6.352  1.00  0.00     0.102 C 
ATOM     57  C   UNL     1      12.898  -7.986   5.604  1.00  0.00     0.043 C 
BRANCH  56  58
ATOM     58  C   UNL     1      11.854  -7.885   7.761  1.00  0.00     0.268 C 
ATOM     59  O   UNL     1      11.398  -7.227   8.686  1.00  0.00    -0.268 OA
ATOM     60  N   UNL     1      12.242  -9.198   7.879  1.00  0.00    -0.339 N 
ATOM     61  H   UNL     1      12.619  -9.670   7.066  1.00  0.00     0.164 HD
BRANCH  60  62
ATOM     62  C   UNL     1      12.144  -9.928   9.143  1.00  0.00     0.168 CG0
ATOM     63  C   UNL     1      13.423 -10.708   9.424  1.00  0.00     0.041 C 
ATOM     64  G   UNL     1      10.926 -10.873   9.101  1.00  0.00     0.000 G0
ENDBRANCH  60  62
ENDBRANCH  56  58
ENDBRANCH  54  56
ENDBRANCH  52  54
ENDBRANCH  51  52
ENDBRANCH  50  51
ENDBRANCH  49  50
BRANCH  49  65
ATOM     65  C   UNL     1       9.794  -0.389   6.688  1.00  0.00     0.326 C 
ATOM     66  O   UNL     1      10.422  -0.312   7.734  1.00  0.00    -0.250 OA
BRANCH  65  67
ATOM     67  O   UNL     1       8.859   0.543   6.398  1.00  0.00    -0.480 OA
ATOM     68  H   UNL     1       8.617   0.345   5.468  1.00  0.00     0.296 HD
ENDBRANCH  65  67
ENDBRANCH  49  65
ENDBRANCH  47  49
ENDBRANCH  43  45
ENDBRANCH   1  43
BRANCH   1  69
ATOM     69  C   UNL     1       4.554  -0.778   3.968  1.00  0.00    -0.001 C 
ATOM     70  C   UNL     1       3.582  -0.935   3.052  1.00  0.00     0.001 C 
BRANCH  70  71
ATOM     71  C   UNL     1       2.252  -0.321   3.067  1.00  0.00    -0.055 C 
ATOM     72  C   UNL     1       2.092   0.845   2.407  1.00  0.00    -0.018 C 
ATOM     73  C   UNL     1       1.156  -1.038   3.811  1.00  0.00     0.044 C 
BRANCH  72  74
ATOM     74  C   UNL     1       0.842   1.699   2.249  1.00  0.00     0.038 C 
ATOM     75  C   UNL     1       0.796   2.170   0.791  1.00  0.00     0.015 C 
BRANCH  74  76
ATOM     76  C   UNL     1       0.881   2.844   3.304  1.00  0.00     0.128 C 
BRANCH  76  77
ATOM     77  O   UNL     1      -0.103   2.605   4.324  1.00  0.00    -0.381 OA
ATOM     78  C   UNL     1      -1.418   2.996   3.953  1.00  0.00     0.195 C 
ENDBRANCH  76  77
BRANCH  76  79
ATOM     79  C   UNL     1       2.292   3.117   3.884  1.00  0.00     0.068 C 
BRANCH  79  80
ATOM     80  C   UNL     1       3.243   3.954   3.064  1.00  0.00    -0.045 A 
ATOM     81  C   UNL     1       2.776   5.012   2.272  1.00  0.00     0.004 A 
ATOM     82  C   UNL     1       4.616   3.666   3.060  1.00  0.00     0.004 A 
ATOM     83  C   UNL     1       3.661   5.773   1.506  1.00  0.00     0.000 A 
ATOM     84  C   UNL     1       5.500   4.427   2.292  1.00  0.00     0.000 A 
ATOM     85  C   UNL     1       5.023   5.481   1.517  1.00  0.00     0.000 A 
ENDBRANCH  79  80
ENDBRANCH  76  79
ENDBRANCH  74  76
ENDBRANCH  72  74
ENDBRANCH  70  71
ENDBRANCH   1  69
TORSDOF 17
ENDMDL
MODEL 28
REMARK VINA RESULT:    -6.042      4.454     12.421
REMARK INTER + INTRA:         -25.556
REMARK INTER:                 -18.715
REMARK INTRA:                  -6.841
REMARK UNBOUND:                -7.505
REMARK SMILES C=C1C(=O)N[C@H](C)C(=O)N[C@@H](CC(C)C)C(=O)N[C@@H](C(=O)O)[C@H](C)C(=O)N[C@@H](CCCN=C(N)N)C(=O)N[C@@H](/C=C/C(C)=C/[C@H](C)[C@H](Cc2ccccc2)OC)[C@H](C)C(=O)N[C@@H](C(=O)O)CCC(=O)N1C
REMARK SMILES IDX 39 1 38 2 37 3 36 4 28 6 27 7 25 8 26 9 23 11 24 12 19 13
REMARK SMILES IDX 18 14 16 15 17 16 11 18 10 19 8 20 9 21 12 24 13 25 14 26
REMARK SMILES IDX 15 27 20 28 21 29 22 30 29 32 30 33 31 34 32 35 33 36 34 37
REMARK SMILES IDX 35 38 57 43 58 44 59 45 60 46 61 47 62 49 66 50 67 51 68 52
REMARK SMILES IDX 69 53 70 54 71 55 2 56 1 57 3 58 4 59 5 60 6 62 7 63 63 65
REMARK SMILES IDX 64 66 65 67 40 69 41 70 42 71 44 72 43 73 45 74 46 75 47 76
REMARK SMILES IDX 55 77 56 78 48 79 49 80 50 81 54 82 51 83 53 84 52 85
REMARK H PARENT 38 5 27 10 18 17 10 22 22 31 34 39 34 40 35 41 35 42 61 48
REMARK H PARENT 5 61 65 68
REMARK Flexibility Score:  369.900
ROOT
ATOM      1  C   UNL     1       5.983  -1.346   3.886  1.00  0.00     0.117 C 
ENDROOT
BRANCH   1   2
ATOM      2  N   UNL     1       5.785  -1.981   2.582  1.00  0.00    -0.347 N 
ATOM      3  O   UNL     1       7.988  -2.420   2.111  1.00  0.00    -0.273 OA
ATOM      4  C   UNL     1       6.800  -2.552   1.838  1.00  0.00     0.243 C 
ATOM      5  H   UNL     1       4.852  -2.062   2.208  1.00  0.00     0.164 HD
BRANCH   4   6
ATOM      6  C   UNL     1       6.309  -3.234   0.536  1.00  0.00     0.171 C 
BRANCH   6   7
ATOM      7  N   UNL     1       6.112  -2.234  -0.526  1.00  0.00    -0.344 N 
ATOM      8  C   UNL     1       4.849  -1.949  -0.996  1.00  0.00     0.226 C 
ATOM      9  O   UNL     1       3.846  -2.516  -0.580  1.00  0.00    -0.275 OA
ATOM     10  H   UNL     1       6.923  -1.794  -0.941  1.00  0.00     0.164 HD
BRANCH   8  11
ATOM     11  C   UNL     1       4.806  -0.857  -2.051  1.00  0.00     0.109 C 
ATOM     12  C   UNL     1       6.116  -0.070  -2.047  1.00  0.00     0.021 C 
BRANCH  11  13
ATOM     13  C   UNL     1       4.420  -1.465  -3.415  1.00  0.00     0.204 C 
BRANCH  13  14
ATOM     14  N   UNL     1       4.739  -0.567  -4.529  1.00  0.00    -0.340 N 
ATOM     15  C   UNL     1       4.061  -0.593  -5.729  1.00  0.00     0.243 C 
ATOM     16  O   UNL     1       3.099  -1.332  -5.927  1.00  0.00    -0.273 OA
ATOM     17  H   UNL     1       5.615  -0.040  -4.486  1.00  0.00     0.164 HD
BRANCH  15  18
ATOM     18  C   UNL     1       4.704   0.295  -6.822  1.00  0.00     0.171 C 
BRANCH  18  19
ATOM     19  N   UNL     1       3.740   0.375  -7.917  1.00  0.00    -0.343 N 
ATOM     20  C   UNL     1       4.075   0.024  -9.211  1.00  0.00     0.242 CG0
ATOM     21  O   UNL     1       5.233  -0.244  -9.525  1.00  0.00    -0.273 OA
ATOM     22  H   UNL     1       2.799   0.702  -7.729  1.00  0.00     0.164 HD
ATOM     23  G   UNL     1       2.906   0.098 -10.214  1.00  0.00     0.000 G0
ENDBRANCH  18  19
BRANCH  18  24
ATOM     24  C   UNL     1       5.038   1.684  -6.265  1.00  0.00     0.038 C 
BRANCH  24  25
ATOM     25  C   UNL     1       3.858   2.678  -6.263  1.00  0.00    -0.015 C 
ATOM     26  C   UNL     1       4.169   3.957  -7.041  1.00  0.00     0.007 C 
ATOM     27  C   UNL     1       3.484   3.031  -4.821  1.00  0.00     0.007 C 
ENDBRANCH  24  25
ENDBRANCH  18  24
ENDBRANCH  15  18
ENDBRANCH  13  14
BRANCH  13  28
ATOM     28  C   UNL     1       5.111  -2.802  -3.697  1.00  0.00     0.327 C 
ATOM     29  O   UNL     1       4.642  -3.913  -3.504  1.00  0.00    -0.250 OA
BRANCH  28  30
ATOM     30  O   UNL     1       6.393  -2.662  -4.093  1.00  0.00    -0.480 OA
ATOM     31  H   UNL     1       6.525  -3.383  -4.742  1.00  0.00     0.296 HD
ENDBRANCH  28  30
ENDBRANCH  13  28
ENDBRANCH  11  13
ENDBRANCH   8  11
ENDBRANCH   6   7
BRANCH   6  32
ATOM     32  C   UNL     1       7.331  -4.293   0.108  1.00  0.00     0.037 C 
BRANCH  32  33
ATOM     33  C   UNL     1       7.686  -4.187  -1.382  1.00  0.00     0.026 C 
BRANCH  33  34
ATOM     34  C   UNL     1       7.404  -5.482  -2.145  1.00  0.00     0.146 C 
BRANCH  34  35
ATOM     35  N   UNL     1       7.952  -5.365  -3.489  1.00  0.00    -0.254 NA
ATOM     36  C   UNL     1       7.310  -5.893  -4.463  1.00  0.00     0.185 C 
ATOM     37  N   UNL     1       7.803  -5.786  -5.706  1.00  0.00    -0.370 N 
ATOM     38  N   UNL     1       6.152  -6.577  -4.439  1.00  0.00    -0.370 N 
ATOM     39  H   UNL     1       8.670  -5.275  -5.808  1.00  0.00     0.159 HD
ATOM     40  H   UNL     1       7.280  -6.017  -6.534  1.00  0.00     0.159 HD
ATOM     41  H   UNL     1       5.817  -7.064  -5.254  1.00  0.00     0.159 HD
ATOM     42  H   UNL     1       5.675  -6.748  -3.567  1.00  0.00     0.159 HD
ENDBRANCH  34  35
ENDBRANCH  33  34
ENDBRANCH  32  33
ENDBRANCH   6  32
ENDBRANCH   4   6
ENDBRANCH   1   2
BRANCH   1  43
ATOM     43  C   UNL     1       6.098  -2.459   4.967  1.00  0.00     0.102 C 
ATOM     44  C   UNL     1       4.850  -2.578   5.858  1.00  0.00     0.020 C 
BRANCH  43  45
ATOM     45  C   UNL     1       7.409  -2.333   5.748  1.00  0.00     0.225 C 
ATOM     46  O   UNL     1       7.482  -2.484   6.964  1.00  0.00    -0.275 OA
ATOM     47  N   UNL     1       8.504  -1.944   5.010  1.00  0.00    -0.342 N 
ATOM     48  H   UNL     1       8.462  -1.973   4.001  1.00  0.00     0.164 HD
BRANCH  47  49
ATOM     49  C   UNL     1       9.832  -1.818   5.618  1.00  0.00     0.192 C 
BRANCH  49  50
ATOM     50  C   UNL     1      10.319  -3.193   6.080  1.00  0.00     0.047 C 
BRANCH  50  51
ATOM     51  C   UNL     1      10.473  -4.179   4.913  1.00  0.00     0.103 C 
BRANCH  51  52
ATOM     52  C   UNL     1       9.479  -5.335   5.004  1.00  0.00     0.226 C 
ATOM     53  O   UNL     1       8.408  -5.267   4.399  1.00  0.00    -0.275 OA
BRANCH  52  54
ATOM     54  N   UNL     1       9.897  -6.465   5.732  1.00  0.00    -0.311 N 
ATOM     55  C   UNL     1       9.058  -7.031   6.797  1.00  0.00     0.153 C 
BRANCH  54  56
ATOM     56  C   UNL     1      11.124  -7.095   5.466  1.00  0.00     0.102 C 
ATOM     57  C   UNL     1      11.428  -7.736   4.326  1.00  0.00     0.043 C 
BRANCH  56  58
ATOM     58  C   UNL     1      12.251  -7.053   6.472  1.00  0.00     0.268 C 
ATOM     59  O   UNL     1      12.809  -6.017   6.810  1.00  0.00    -0.268 OA
ATOM     60  N   UNL     1      12.537  -8.283   7.013  1.00  0.00    -0.339 N 
ATOM     61  H   UNL     1      12.036  -9.094   6.672  1.00  0.00     0.164 HD
BRANCH  60  62
ATOM     62  C   UNL     1      13.551  -8.460   8.052  1.00  0.00     0.168 CG0
ATOM     63  C   UNL     1      12.907  -8.628   9.423  1.00  0.00     0.041 C 
ATOM     64  G   UNL     1      14.513  -7.254   8.046  1.00  0.00     0.000 G0
ENDBRANCH  60  62
ENDBRANCH  56  58
ENDBRANCH  54  56
ENDBRANCH  52  54
ENDBRANCH  51  52
ENDBRANCH  50  51
ENDBRANCH  49  50
BRANCH  49  65
ATOM     65  C   UNL     1       9.818  -0.854   6.815  1.00  0.00     0.326 C 
ATOM     66  O   UNL     1       9.375   0.285   6.805  1.00  0.00    -0.250 OA
BRANCH  65  67
ATOM     67  O   UNL     1      10.406  -1.335   7.932  1.00  0.00    -0.480 OA
ATOM     68  H   UNL     1      10.846  -2.157   7.627  1.00  0.00     0.296 HD
ENDBRANCH  65  67
ENDBRANCH  49  65
ENDBRANCH  47  49
ENDBRANCH  43  45
ENDBRANCH   1  43
BRANCH   1  69
ATOM     69  C   UNL     1       4.888  -0.303   4.020  1.00  0.00    -0.001 C 
ATOM     70  C   UNL     1       4.994   0.931   4.543  1.00  0.00     0.001 C 
BRANCH  70  71
ATOM     71  C   UNL     1       3.935   1.937   4.647  1.00  0.00    -0.055 C 
ATOM     72  C   UNL     1       2.982   1.749   5.585  1.00  0.00    -0.018 C 
ATOM     73  C   UNL     1       3.988   3.112   3.707  1.00  0.00     0.044 C 
BRANCH  72  74
ATOM     74  C   UNL     1       1.778   2.617   5.921  1.00  0.00     0.038 C 
ATOM     75  C   UNL     1       2.132   3.413   7.183  1.00  0.00     0.015 C 
BRANCH  74  76
ATOM     76  C   UNL     1       0.524   1.704   6.055  1.00  0.00     0.128 C 
BRANCH  76  77
ATOM     77  O   UNL     1      -0.359   2.228   7.061  1.00  0.00    -0.381 OA
ATOM     78  C   UNL     1      -1.026   1.223   7.814  1.00  0.00     0.195 C 
ENDBRANCH  76  77
BRANCH  76  79
ATOM     79  C   UNL     1      -0.196   1.423   4.712  1.00  0.00     0.068 C 
BRANCH  79  80
ATOM     80  C   UNL     1       0.567   0.680   3.642  1.00  0.00    -0.045 A 
ATOM     81  C   UNL     1       0.945  -0.657   3.822  1.00  0.00     0.004 A 
ATOM     82  C   UNL     1       0.935   1.331   2.455  1.00  0.00     0.004 A 
ATOM     83  C   UNL     1       1.663  -1.333   2.833  1.00  0.00     0.000 A 
ATOM     84  C   UNL     1       1.654   0.654   1.467  1.00  0.00     0.000 A 
ATOM     85  C   UNL     1       2.016  -0.677   1.656  1.00  0.00     0.000 A 
ENDBRANCH  79  80
ENDBRANCH  76  79
ENDBRANCH  74  76
ENDBRANCH  72  74
ENDBRANCH  70  71
ENDBRANCH   1  69
TORSDOF 17
ENDMDL
MODEL 29
REMARK VINA RESULT:    -6.028      2.740      4.997
REMARK INTER + INTRA:         -25.515
REMARK INTER:                 -19.292
REMARK INTRA:                  -6.223
REMARK UNBOUND:                -7.505
REMARK SMILES C=C1C(=O)N[C@H](C)C(=O)N[C@@H](CC(C)C)C(=O)N[C@@H](C(=O)O)[C@H](C)C(=O)N[C@@H](CCCN=C(N)N)C(=O)N[C@@H](/C=C/C(C)=C/[C@H](C)[C@H](Cc2ccccc2)OC)[C@H](C)C(=O)N[C@@H](C(=O)O)CCC(=O)N1C
REMARK SMILES IDX 39 1 38 2 37 3 36 4 28 6 27 7 25 8 26 9 23 11 24 12 19 13
REMARK SMILES IDX 18 14 16 15 17 16 11 18 10 19 8 20 9 21 12 24 13 25 14 26
REMARK SMILES IDX 15 27 20 28 21 29 22 30 29 32 30 33 31 34 32 35 33 36 34 37
REMARK SMILES IDX 35 38 57 43 58 44 59 45 60 46 61 47 62 49 66 50 67 51 68 52
REMARK SMILES IDX 69 53 70 54 71 55 2 56 1 57 3 58 4 59 5 60 6 62 7 63 63 65
REMARK SMILES IDX 64 66 65 67 40 69 41 70 42 71 44 72 43 73 45 74 46 75 47 76
REMARK SMILES IDX 55 77 56 78 48 79 49 80 50 81 54 82 51 83 53 84 52 85
REMARK H PARENT 38 5 27 10 18 17 10 22 22 31 34 39 34 40 35 41 35 42 61 48
REMARK H PARENT 5 61 65 68
REMARK Flexibility Score:  369.900
ROOT
ATOM      1  C   UNL     1       6.133  -1.345   2.978  1.00  0.00     0.117 C 
ENDROOT
BRANCH   1   2
ATOM      2  N   UNL     1       7.027  -1.539   4.120  1.00  0.00    -0.347 N 
ATOM      3  O   UNL     1       5.975  -3.363   5.034  1.00  0.00    -0.273 OA
ATOM      4  C   UNL     1       6.929  -2.592   5.009  1.00  0.00     0.243 C 
ATOM      5  H   UNL     1       7.799  -0.904   4.258  1.00  0.00     0.164 HD
BRANCH   4   6
ATOM      6  C   UNL     1       8.051  -2.614   6.077  1.00  0.00     0.171 C 
BRANCH   6   7
ATOM      7  N   UNL     1       9.059  -3.633   5.745  1.00  0.00    -0.344 N 
ATOM      8  C   UNL     1       8.903  -4.937   6.164  1.00  0.00     0.226 C 
ATOM      9  O   UNL     1       7.950  -5.304   6.841  1.00  0.00    -0.275 OA
ATOM     10  H   UNL     1       9.893  -3.354   5.245  1.00  0.00     0.164 HD
BRANCH   8  11
ATOM     11  C   UNL     1       9.998  -5.879   5.695  1.00  0.00     0.109 C 
ATOM     12  C   UNL     1      10.454  -6.772   6.849  1.00  0.00     0.021 C 
BRANCH  11  13
ATOM     13  C   UNL     1       9.531  -6.636   4.436  1.00  0.00     0.204 C 
BRANCH  13  14
ATOM     14  N   UNL     1      10.568  -6.680   3.401  1.00  0.00    -0.340 N 
ATOM     15  C   UNL     1      10.999  -5.558   2.726  1.00  0.00     0.243 C 
ATOM     16  O   UNL     1      10.586  -4.430   2.988  1.00  0.00    -0.273 OA
ATOM     17  H   UNL     1      10.841  -7.595   3.032  1.00  0.00     0.164 HD
BRANCH  15  18
ATOM     18  C   UNL     1      11.944  -5.874   1.540  1.00  0.00     0.171 C 
BRANCH  18  19
ATOM     19  N   UNL     1      12.126  -7.324   1.526  1.00  0.00    -0.343 N 
ATOM     20  C   UNL     1      13.378  -7.901   1.436  1.00  0.00     0.242 CG0
ATOM     21  O   UNL     1      14.384  -7.226   1.230  1.00  0.00    -0.273 OA
ATOM     22  H   UNL     1      11.313  -7.928   1.577  1.00  0.00     0.164 HD
ATOM     23  G   UNL     1      13.377  -9.442   1.514  1.00  0.00     0.000 G0
ENDBRANCH  18  19
BRANCH  18  24
ATOM     24  C   UNL     1      11.346  -5.370   0.222  1.00  0.00     0.038 C 
BRANCH  24  25
ATOM     25  C   UNL     1      11.948  -4.045  -0.294  1.00  0.00    -0.015 C 
ATOM     26  C   UNL     1      10.985  -2.867  -0.143  1.00  0.00     0.007 C 
ATOM     27  C   UNL     1      12.347  -4.199  -1.764  1.00  0.00     0.007 C 
ENDBRANCH  24  25
ENDBRANCH  18  24
ENDBRANCH  15  18
ENDBRANCH  13  14
BRANCH  13  28
ATOM     28  C   UNL     1       9.114  -8.082   4.721  1.00  0.00     0.327 C 
ATOM     29  O   UNL     1       8.218  -8.442   5.470  1.00  0.00    -0.250 OA
BRANCH  28  30
ATOM     30  O   UNL     1       9.924  -8.991   4.140  1.00  0.00    -0.480 OA
ATOM     31  H   UNL     1      10.024  -9.692   4.817  1.00  0.00     0.296 HD
ENDBRANCH  28  30
ENDBRANCH  13  28
ENDBRANCH  11  13
ENDBRANCH   8  11
ENDBRANCH   6   7
BRANCH   6  32
ATOM     32  C   UNL     1       8.689  -1.223   6.165  1.00  0.00     0.037 C 
BRANCH  32  33
ATOM     33  C   UNL     1      10.024  -1.149   5.411  1.00  0.00     0.026 C 
BRANCH  33  34
ATOM     34  C   UNL     1      10.829   0.101   5.767  1.00  0.00     0.146 C 
BRANCH  34  35
ATOM     35  N   UNL     1      10.746   0.320   7.205  1.00  0.00    -0.254 NA
ATOM     36  C   UNL     1      11.736  -0.033   7.938  1.00  0.00     0.185 C 
ATOM     37  N   UNL     1      11.672   0.168   9.263  1.00  0.00    -0.370 N 
ATOM     38  N   UNL     1      12.897  -0.605   7.572  1.00  0.00    -0.370 N 
ATOM     39  H   UNL     1      10.830   0.605   9.616  1.00  0.00     0.159 HD
ATOM     40  H   UNL     1      12.463   0.082   9.878  1.00  0.00     0.159 HD
ATOM     41  H   UNL     1      13.540  -0.963   8.259  1.00  0.00     0.159 HD
ATOM     42  H   UNL     1      13.076  -0.829   6.606  1.00  0.00     0.159 HD
ENDBRANCH  34  35
ENDBRANCH  33  34
ENDBRANCH  32  33
ENDBRANCH   6  32
ENDBRANCH   4   6
ENDBRANCH   1   2
BRANCH   1  43
ATOM     43  C   UNL     1       4.721  -0.969   3.513  1.00  0.00     0.102 C 
ATOM     44  C   UNL     1       3.643  -0.926   2.417  1.00  0.00     0.020 C 
BRANCH  43  45
ATOM     45  C   UNL     1       4.778   0.294   4.378  1.00  0.00     0.225 C 
ATOM     46  O   UNL     1       5.167   0.292   5.543  1.00  0.00    -0.275 OA
ATOM     47  N   UNL     1       4.273   1.434   3.796  1.00  0.00    -0.342 N 
ATOM     48  H   UNL     1       4.102   1.454   2.801  1.00  0.00     0.164 HD
BRANCH  47  49
ATOM     49  C   UNL     1       4.295   2.724   4.493  1.00  0.00     0.192 C 
BRANCH  49  50
ATOM     50  C   UNL     1       2.862   3.183   4.771  1.00  0.00     0.047 C 
BRANCH  50  51
ATOM     51  C   UNL     1       2.244   2.461   5.977  1.00  0.00     0.103 C 
BRANCH  51  52
ATOM     52  C   UNL     1       2.098   3.384   7.185  1.00  0.00     0.226 C 
ATOM     53  O   UNL     1       3.052   3.544   7.949  1.00  0.00    -0.275 OA
BRANCH  52  54
ATOM     54  N   UNL     1       0.874   4.068   7.307  1.00  0.00    -0.311 N 
ATOM     55  C   UNL     1       0.834   5.533   7.414  1.00  0.00     0.153 C 
BRANCH  54  56
ATOM     56  C   UNL     1      -0.351   3.381   7.325  1.00  0.00     0.102 C 
ATOM     57  C   UNL     1      -1.287   3.453   6.365  1.00  0.00     0.043 C 
BRANCH  56  58
ATOM     58  C   UNL     1      -0.693   2.438   8.454  1.00  0.00     0.268 C 
ATOM     59  O   UNL     1       0.148   1.793   9.067  1.00  0.00    -0.268 OA
ATOM     60  N   UNL     1      -2.032   2.429   8.763  1.00  0.00    -0.339 N 
ATOM     61  H   UNL     1      -2.666   2.984   8.201  1.00  0.00     0.164 HD
BRANCH  60  62
ATOM     62  C   UNL     1      -2.572   1.634   9.865  1.00  0.00     0.168 CG0
ATOM     63  C   UNL     1      -4.004   2.044  10.186  1.00  0.00     0.041 C 
ATOM     64  G   UNL     1      -1.669   1.789  11.106  1.00  0.00     0.000 G0
ENDBRANCH  60  62
ENDBRANCH  56  58
ENDBRANCH  54  56
ENDBRANCH  52  54
ENDBRANCH  51  52
ENDBRANCH  50  51
ENDBRANCH  49  50
BRANCH  49  65
ATOM     65  C   UNL     1       5.023   3.799   3.671  1.00  0.00     0.326 C 
ATOM     66  O   UNL     1       5.008   3.893   2.452  1.00  0.00    -0.250 OA
BRANCH  65  67
ATOM     67  O   UNL     1       5.773   4.655   4.400  1.00  0.00    -0.480 OA
ATOM     68  H   UNL     1       5.114   5.124   4.955  1.00  0.00     0.296 HD
ENDBRANCH  65  67
ENDBRANCH  49  65
ENDBRANCH  47  49
ENDBRANCH  43  45
ENDBRANCH   1  43
BRANCH   1  69
ATOM     69  C   UNL     1       6.283  -2.579   2.108  1.00  0.00    -0.001 C 
ATOM     70  C   UNL     1       7.342  -2.922   1.353  1.00  0.00     0.001 C 
BRANCH  70  71
ATOM     71  C   UNL     1       7.484  -4.127   0.533  1.00  0.00    -0.055 C 
ATOM     72  C   UNL     1       7.529  -3.973  -0.807  1.00  0.00    -0.018 C 
ATOM     73  C   UNL     1       7.578  -5.453   1.243  1.00  0.00     0.044 C 
BRANCH  72  74
ATOM     74  C   UNL     1       7.673  -5.029  -1.894  1.00  0.00     0.038 C 
ATOM     75  C   UNL     1       8.912  -4.663  -2.719  1.00  0.00     0.015 C 
BRANCH  74  76
ATOM     76  C   UNL     1       6.345  -5.096  -2.704  1.00  0.00     0.128 C 
BRANCH  76  77
ATOM     77  O   UNL     1       6.154  -6.424  -3.223  1.00  0.00    -0.381 OA
ATOM     78  C   UNL     1       6.560  -6.572  -4.576  1.00  0.00     0.195 C 
ENDBRANCH  76  77
BRANCH  76  79
ATOM     79  C   UNL     1       5.109  -4.570  -1.933  1.00  0.00     0.068 C 
BRANCH  79  80
ATOM     80  C   UNL     1       4.739  -3.116  -2.098  1.00  0.00    -0.045 A 
ATOM     81  C   UNL     1       4.949  -2.451  -3.314  1.00  0.00     0.004 A 
ATOM     82  C   UNL     1       4.201  -2.396  -1.021  1.00  0.00     0.004 A 
ATOM     83  C   UNL     1       4.617  -1.102  -3.454  1.00  0.00     0.000 A 
ATOM     84  C   UNL     1       3.870  -1.046  -1.162  1.00  0.00     0.000 A 
ATOM     85  C   UNL     1       4.076  -0.400  -2.379  1.00  0.00     0.000 A 
ENDBRANCH  79  80
ENDBRANCH  76  79
ENDBRANCH  74  76
ENDBRANCH  72  74
ENDBRANCH  70  71
ENDBRANCH   1  69
TORSDOF 17
ENDMDL
MODEL 30
REMARK VINA RESULT:    -6.024      4.590      9.899
REMARK INTER + INTRA:         -25.504
REMARK INTER:                 -18.473
REMARK INTRA:                  -7.031
REMARK UNBOUND:                -7.505
REMARK SMILES C=C1C(=O)N[C@H](C)C(=O)N[C@@H](CC(C)C)C(=O)N[C@@H](C(=O)O)[C@H](C)C(=O)N[C@@H](CCCN=C(N)N)C(=O)N[C@@H](/C=C/C(C)=C/[C@H](C)[C@H](Cc2ccccc2)OC)[C@H](C)C(=O)N[C@@H](C(=O)O)CCC(=O)N1C
REMARK SMILES IDX 39 1 38 2 37 3 36 4 28 6 27 7 25 8 26 9 23 11 24 12 19 13
REMARK SMILES IDX 18 14 16 15 17 16 11 18 10 19 8 20 9 21 12 24 13 25 14 26
REMARK SMILES IDX 15 27 20 28 21 29 22 30 29 32 30 33 31 34 32 35 33 36 34 37
REMARK SMILES IDX 35 38 57 43 58 44 59 45 60 46 61 47 62 49 66 50 67 51 68 52
REMARK SMILES IDX 69 53 70 54 71 55 2 56 1 57 3 58 4 59 5 60 6 62 7 63 63 65
REMARK SMILES IDX 64 66 65 67 40 69 41 70 42 71 44 72 43 73 45 74 46 75 47 76
REMARK SMILES IDX 55 77 56 78 48 79 49 80 50 81 54 82 51 83 53 84 52 85
REMARK H PARENT 38 5 27 10 18 17 10 22 22 31 34 39 34 40 35 41 35 42 61 48
REMARK H PARENT 5 61 65 68
REMARK Flexibility Score:  369.900
ROOT
ATOM      1  C   UNL     1       7.367  -4.884   0.866  1.00  0.00     0.117 C 
ENDROOT
BRANCH   1   2
ATOM      2  N   UNL     1       8.779  -5.083   1.193  1.00  0.00    -0.347 N 
ATOM      3  O   UNL     1       8.486  -6.275   3.133  1.00  0.00    -0.273 OA
ATOM      4  C   UNL     1       9.227  -5.844   2.255  1.00  0.00     0.243 C 
ATOM      5  H   UNL     1       9.486  -4.691   0.590  1.00  0.00     0.164 HD
BRANCH   4   6
ATOM      6  C   UNL     1      10.770  -5.966   2.328  1.00  0.00     0.171 C 
BRANCH   6   7
ATOM      7  N   UNL     1      11.158  -7.057   3.236  1.00  0.00    -0.344 N 
ATOM      8  C   UNL     1      11.694  -6.782   4.476  1.00  0.00     0.226 C 
ATOM      9  O   UNL     1      11.894  -5.640   4.870  1.00  0.00    -0.275 OA
ATOM     10  H   UNL     1      11.071  -8.014   2.918  1.00  0.00     0.164 HD
BRANCH   8  11
ATOM     11  C   UNL     1      11.991  -8.013   5.315  1.00  0.00     0.109 C 
ATOM     12  C   UNL     1      13.109  -7.711   6.313  1.00  0.00     0.021 C 
BRANCH  11  13
ATOM     13  C   UNL     1      10.687  -8.543   5.943  1.00  0.00     0.204 C 
BRANCH  13  14
ATOM     14  N   UNL     1       9.667  -7.496   6.061  1.00  0.00    -0.340 N 
ATOM     15  C   UNL     1       9.203  -7.037   7.275  1.00  0.00     0.243 C 
ATOM     16  O   UNL     1       9.658  -7.430   8.348  1.00  0.00    -0.273 OA
ATOM     17  H   UNL     1       9.144  -7.238   5.220  1.00  0.00     0.164 HD
BRANCH  15  18
ATOM     18  C   UNL     1       7.986  -6.087   7.153  1.00  0.00     0.171 C 
BRANCH  18  19
ATOM     19  N   UNL     1       7.517  -5.830   8.513  1.00  0.00    -0.343 N 
ATOM     20  C   UNL     1       6.456  -6.524   9.062  1.00  0.00     0.242 CG0
ATOM     21  O   UNL     1       5.773  -7.293   8.389  1.00  0.00    -0.273 OA
ATOM     22  H   UNL     1       7.977  -5.120   9.071  1.00  0.00     0.164 HD
ATOM     23  G   UNL     1       6.157  -6.171  10.533  1.00  0.00     0.000 G0
ENDBRANCH  18  19
BRANCH  18  24
ATOM     24  C   UNL     1       8.381  -4.789   6.439  1.00  0.00     0.038 C 
BRANCH  24  25
ATOM     25  C   UNL     1       7.518  -3.563   6.807  1.00  0.00    -0.015 C 
ATOM     26  C   UNL     1       6.152  -3.582   6.119  1.00  0.00     0.007 C 
ATOM     27  C   UNL     1       8.263  -2.278   6.436  1.00  0.00     0.007 C 
ENDBRANCH  24  25
ENDBRANCH  18  24
ENDBRANCH  15  18
ENDBRANCH  13  14
BRANCH  13  28
ATOM     28  C   UNL     1      10.063  -9.698   5.155  1.00  0.00     0.327 C 
ATOM     29  O   UNL     1      10.334 -10.883   5.273  1.00  0.00    -0.250 OA
BRANCH  28  30
ATOM     30  O   UNL     1       9.224  -9.284   4.184  1.00  0.00    -0.480 OA
ATOM     31  H   UNL     1       9.691  -9.503   3.351  1.00  0.00     0.296 HD
ENDBRANCH  28  30
ENDBRANCH  13  28
ENDBRANCH  11  13
ENDBRANCH   8  11
ENDBRANCH   6   7
BRANCH   6  32
ATOM     32  C   UNL     1      11.323  -6.204   0.918  1.00  0.00     0.037 C 
BRANCH  32  33
ATOM     33  C   UNL     1      12.394  -5.173   0.534  1.00  0.00     0.026 C 
BRANCH  33  34
ATOM     34  C   UNL     1      13.141  -5.555  -0.745  1.00  0.00     0.146 C 
BRANCH  34  35
ATOM     35  N   UNL     1      13.373  -6.992  -0.742  1.00  0.00    -0.254 NA
ATOM     36  C   UNL     1      13.060  -7.668  -1.785  1.00  0.00     0.185 C 
ATOM     37  N   UNL     1      13.275  -8.992  -1.795  1.00  0.00    -0.370 N 
ATOM     38  N   UNL     1      12.521  -7.237  -2.939  1.00  0.00    -0.370 N 
ATOM     39  H   UNL     1      13.690  -9.391  -0.963  1.00  0.00     0.159 HD
ATOM     40  H   UNL     1      13.221  -9.558  -2.624  1.00  0.00     0.159 HD
ATOM     41  H   UNL     1      12.191  -7.887  -3.634  1.00  0.00     0.159 HD
ATOM     42  H   UNL     1      12.291  -6.264  -3.066  1.00  0.00     0.159 HD
ENDBRANCH  34  35
ENDBRANCH  33  34
ENDBRANCH  32  33
ENDBRANCH   6  32
ENDBRANCH   4   6
ENDBRANCH   1   2
BRANCH   1  43
ATOM     43  C   UNL     1       7.183  -5.064  -0.668  1.00  0.00     0.102 C 
ATOM     44  C   UNL     1       8.393  -4.590  -1.490  1.00  0.00     0.020 C 
BRANCH  43  45
ATOM     45  C   UNL     1       5.847  -4.478  -1.135  1.00  0.00     0.225 C 
ATOM     46  O   UNL     1       4.782  -5.082  -1.046  1.00  0.00    -0.275 OA
ATOM     47  N   UNL     1       5.923  -3.252  -1.756  1.00  0.00    -0.342 N 
ATOM     48  H   UNL     1       6.770  -2.708  -1.686  1.00  0.00     0.164 HD
BRANCH  47  49
ATOM     49  C   UNL     1       4.721  -2.554  -2.222  1.00  0.00     0.192 C 
BRANCH  49  50
ATOM     50  C   UNL     1       5.118  -1.438  -3.191  1.00  0.00     0.047 C 
BRANCH  50  51
ATOM     51  C   UNL     1       3.898  -0.707  -3.768  1.00  0.00     0.103 C 
BRANCH  51  52
ATOM     52  C   UNL     1       3.922  -0.668  -5.295  1.00  0.00     0.226 C 
ATOM     53  O   UNL     1       3.107  -1.335  -5.935  1.00  0.00    -0.275 OA
BRANCH  52  54
ATOM     54  N   UNL     1       4.851   0.210  -5.885  1.00  0.00    -0.311 N 
ATOM     55  C   UNL     1       4.890   1.631  -5.514  1.00  0.00     0.153 C 
BRANCH  54  56
ATOM     56  C   UNL     1       5.776  -0.239  -6.843  1.00  0.00     0.102 C 
ATOM     57  C   UNL     1       6.982  -0.758  -6.562  1.00  0.00     0.043 C 
BRANCH  56  58
ATOM     58  C   UNL     1       5.443  -0.207  -8.316  1.00  0.00     0.268 C 
ATOM     59  O   UNL     1       4.343   0.110  -8.747  1.00  0.00    -0.268 OA
ATOM     60  N   UNL     1       6.518  -0.505  -9.119  1.00  0.00    -0.339 N 
ATOM     61  H   UNL     1       7.393  -0.768  -8.683  1.00  0.00     0.164 HD
BRANCH  60  62
ATOM     62  C   UNL     1       6.433  -0.472 -10.578  1.00  0.00     0.168 CG0
ATOM     63  C   UNL     1       6.143  -1.858 -11.141  1.00  0.00     0.041 C 
ATOM     64  G   UNL     1       7.746   0.090 -11.160  1.00  0.00     0.000 G0
ENDBRANCH  60  62
ENDBRANCH  56  58
ENDBRANCH  54  56
ENDBRANCH  52  54
ENDBRANCH  51  52
ENDBRANCH  50  51
ENDBRANCH  49  50
BRANCH  49  65
ATOM     65  C   UNL     1       3.924  -1.954  -1.053  1.00  0.00     0.326 C 
ATOM     66  O   UNL     1       2.810  -2.308  -0.697  1.00  0.00    -0.250 OA
BRANCH  65  67
ATOM     67  O   UNL     1       4.527  -0.915  -0.435  1.00  0.00    -0.480 OA
ATOM     68  H   UNL     1       5.037  -0.482  -1.153  1.00  0.00     0.296 HD
ENDBRANCH  65  67
ENDBRANCH  49  65
ENDBRANCH  47  49
ENDBRANCH  43  45
ENDBRANCH   1  43
BRANCH   1  69
ATOM     69  C   UNL     1       6.967  -3.565   1.503  1.00  0.00    -0.001 C 
ATOM     70  C   UNL     1       7.685  -2.821   2.362  1.00  0.00     0.001 C 
BRANCH  70  71
ATOM     71  C   UNL     1       7.298  -1.539   2.953  1.00  0.00    -0.055 C 
ATOM     72  C   UNL     1       5.998  -1.363   3.273  1.00  0.00    -0.018 C 
ATOM     73  C   UNL     1       8.377  -0.511   3.170  1.00  0.00     0.044 C 
BRANCH  72  74
ATOM     74  C   UNL     1       5.315  -0.153   3.895  1.00  0.00     0.038 C 
ATOM     75  C   UNL     1       4.628  -0.632   5.180  1.00  0.00     0.015 C 
BRANCH  74  76
ATOM     76  C   UNL     1       4.359   0.479   2.840  1.00  0.00     0.128 C 
BRANCH  76  77
ATOM     77  O   UNL     1       5.101   0.853   1.667  1.00  0.00    -0.381 OA
ATOM     78  C   UNL     1       4.898   2.202   1.269  1.00  0.00     0.195 C 
ENDBRANCH  76  77
BRANCH  76  79
ATOM     79  C   UNL     1       3.119  -0.390   2.514  1.00  0.00     0.068 C 
BRANCH  79  80
ATOM     80  C   UNL     1       1.826   0.318   2.187  1.00  0.00    -0.045 A 
ATOM     81  C   UNL     1       1.326   0.338   0.878  1.00  0.00     0.004 A 
ATOM     82  C   UNL     1       1.116   0.994   3.190  1.00  0.00     0.004 A 
ATOM     83  C   UNL     1       0.136   1.007   0.581  1.00  0.00     0.000 A 
ATOM     84  C   UNL     1      -0.073   1.663   2.892  1.00  0.00     0.000 A 
ATOM     85  C   UNL     1      -0.563   1.668   1.588  1.00  0.00     0.000 A 
ENDBRANCH  79  80
ENDBRANCH  76  79
ENDBRANCH  74  76
ENDBRANCH  72  74
ENDBRANCH  70  71
ENDBRANCH   1  69
TORSDOF 17
ENDMDL
MODEL 31
REMARK VINA RESULT:    -6.007      2.949     10.818
REMARK INTER + INTRA:         -25.451
REMARK INTER:                 -18.473
REMARK INTRA:                  -6.978
REMARK UNBOUND:                -7.505
REMARK SMILES C=C1C(=O)N[C@H](C)C(=O)N[C@@H](CC(C)C)C(=O)N[C@@H](C(=O)O)[C@H](C)C(=O)N[C@@H](CCCN=C(N)N)C(=O)N[C@@H](/C=C/C(C)=C/[C@H](C)[C@H](Cc2ccccc2)OC)[C@H](C)C(=O)N[C@@H](C(=O)O)CCC(=O)N1C
REMARK SMILES IDX 39 1 38 2 37 3 36 4 28 6 27 7 25 8 26 9 23 11 24 12 19 13
REMARK SMILES IDX 18 14 16 15 17 16 11 18 10 19 8 20 9 21 12 24 13 25 14 26
REMARK SMILES IDX 15 27 20 28 21 29 22 30 29 32 30 33 31 34 32 35 33 36 34 37
REMARK SMILES IDX 35 38 57 43 58 44 59 45 60 46 61 47 62 49 66 50 67 51 68 52
REMARK SMILES IDX 69 53 70 54 71 55 2 56 1 57 3 58 4 59 5 60 6 62 7 63 63 65
REMARK SMILES IDX 64 66 65 67 40 69 41 70 42 71 44 72 43 73 45 74 46 75 47 76
REMARK SMILES IDX 55 77 56 78 48 79 49 80 50 81 54 82 51 83 53 84 52 85
REMARK H PARENT 38 5 27 10 18 17 10 22 22 31 34 39 34 40 35 41 35 42 61 48
REMARK H PARENT 5 61 65 68
REMARK Flexibility Score:  369.900
ROOT
ATOM      1  C   UNL     1       9.406  -3.133   2.047  1.00  0.00     0.117 C 
ENDROOT
BRANCH   1   2
ATOM      2  N   UNL     1       8.301  -2.345   2.596  1.00  0.00    -0.347 N 
ATOM      3  O   UNL     1       9.013  -2.284   4.777  1.00  0.00    -0.273 OA
ATOM      4  C   UNL     1       8.240  -1.904   3.904  1.00  0.00     0.243 C 
ATOM      5  H   UNL     1       7.552  -2.052   1.986  1.00  0.00     0.164 HD
BRANCH   4   6
ATOM      6  C   UNL     1       7.007  -1.015   4.205  1.00  0.00     0.171 C 
BRANCH   6   7
ATOM      7  N   UNL     1       6.009  -1.139   3.131  1.00  0.00    -0.344 N 
ATOM      8  C   UNL     1       5.610  -0.033   2.411  1.00  0.00     0.226 C 
ATOM      9  O   UNL     1       6.038   1.092   2.638  1.00  0.00    -0.275 OA
ATOM     10  H   UNL     1       5.582  -2.041   2.959  1.00  0.00     0.164 HD
BRANCH   8  11
ATOM     11  C   UNL     1       4.616  -0.334   1.303  1.00  0.00     0.109 C 
ATOM     12  C   UNL     1       4.804  -1.766   0.802  1.00  0.00     0.021 C 
BRANCH  11  13
ATOM     13  C   UNL     1       3.189   0.006   1.776  1.00  0.00     0.204 C 
BRANCH  13  14
ATOM     14  N   UNL     1       3.077   1.391   2.243  1.00  0.00    -0.340 N 
ATOM     15  C   UNL     1       2.513   1.729   3.454  1.00  0.00     0.243 C 
ATOM     16  O   UNL     1       2.117   0.885   4.257  1.00  0.00    -0.273 OA
ATOM     17  H   UNL     1       3.246   2.141   1.568  1.00  0.00     0.164 HD
BRANCH  15  18
ATOM     18  C   UNL     1       2.315   3.253   3.641  1.00  0.00     0.171 C 
BRANCH  18  19
ATOM     19  N   UNL     1       1.533   3.717   2.497  1.00  0.00    -0.343 N 
ATOM     20  C   UNL     1       2.022   4.661   1.615  1.00  0.00     0.242 CG0
ATOM     21  O   UNL     1       3.079   5.251   1.825  1.00  0.00    -0.273 OA
ATOM     22  H   UNL     1       0.603   3.343   2.346  1.00  0.00     0.164 HD
ATOM     23  G   UNL     1       1.087   4.967   0.427  1.00  0.00     0.000 G0
ENDBRANCH  18  19
BRANCH  18  24
ATOM     24  C   UNL     1       1.602   3.548   4.966  1.00  0.00     0.038 C 
BRANCH  24  25
ATOM     25  C   UNL     1       2.248   4.667   5.811  1.00  0.00    -0.015 C 
ATOM     26  C   UNL     1       3.619   5.085   5.277  1.00  0.00     0.007 C 
ATOM     27  C   UNL     1       2.381   4.204   7.264  1.00  0.00     0.007 C 
ENDBRANCH  24  25
ENDBRANCH  18  24
ENDBRANCH  15  18
ENDBRANCH  13  14
BRANCH  13  28
ATOM     28  C   UNL     1       2.129  -0.192   0.687  1.00  0.00     0.327 C 
ATOM     29  O   UNL     1       1.652   0.679  -0.024  1.00  0.00    -0.250 OA
BRANCH  28  30
ATOM     30  O   UNL     1       1.648  -1.451   0.640  1.00  0.00    -0.480 OA
ATOM     31  H   UNL     1       0.675  -1.337   0.641  1.00  0.00     0.296 HD
ENDBRANCH  28  30
ENDBRANCH  13  28
ENDBRANCH  11  13
ENDBRANCH   8  11
ENDBRANCH   6   7
BRANCH   6  32
ATOM     32  C   UNL     1       6.410  -1.423   5.556  1.00  0.00     0.037 C 
BRANCH  32  33
ATOM     33  C   UNL     1       5.642  -2.750   5.474  1.00  0.00     0.026 C 
BRANCH  33  34
ATOM     34  C   UNL     1       5.773  -3.582   6.750  1.00  0.00     0.146 C 
BRANCH  34  35
ATOM     35  N   UNL     1       7.032  -4.312   6.708  1.00  0.00    -0.254 NA
ATOM     36  C   UNL     1       7.250  -5.213   7.592  1.00  0.00     0.185 C 
ATOM     37  N   UNL     1       8.405  -5.895   7.560  1.00  0.00    -0.370 N 
ATOM     38  N   UNL     1       6.461  -5.609   8.607  1.00  0.00    -0.370 N 
ATOM     39  H   UNL     1       9.050  -5.661   6.816  1.00  0.00     0.159 HD
ATOM     40  H   UNL     1       8.576  -6.725   8.102  1.00  0.00     0.159 HD
ATOM     41  H   UNL     1       6.803  -6.232   9.320  1.00  0.00     0.159 HD
ATOM     42  H   UNL     1       5.567  -5.170   8.762  1.00  0.00     0.159 HD
ENDBRANCH  34  35
ENDBRANCH  33  34
ENDBRANCH  32  33
ENDBRANCH   6  32
ENDBRANCH   4   6
ENDBRANCH   1   2
BRANCH   1  43
ATOM     43  C   UNL     1      10.681  -2.242   2.013  1.00  0.00     0.102 C 
ATOM     44  C   UNL     1      10.993  -1.673   0.619  1.00  0.00     0.020 C 
BRANCH  43  45
ATOM     45  C   UNL     1      11.866  -2.952   2.674  1.00  0.00     0.225 C 
ATOM     46  O   UNL     1      12.743  -3.529   2.037  1.00  0.00    -0.275 OA
ATOM     47  N   UNL     1      11.843  -2.988   4.050  1.00  0.00    -0.342 N 
ATOM     48  H   UNL     1      11.208  -2.387   4.555  1.00  0.00     0.164 HD
BRANCH  47  49
ATOM     49  C   UNL     1      12.930  -3.603   4.818  1.00  0.00     0.192 C 
BRANCH  49  50
ATOM     50  C   UNL     1      12.383  -4.776   5.634  1.00  0.00     0.047 C 
BRANCH  50  51
ATOM     51  C   UNL     1      10.903  -5.054   5.334  1.00  0.00     0.103 C 
BRANCH  51  52
ATOM     52  C   UNL     1      10.721  -6.261   4.415  1.00  0.00     0.226 C 
ATOM     53  O   UNL     1      10.833  -6.121   3.196  1.00  0.00    -0.275 OA
BRANCH  52  54
ATOM     54  N   UNL     1      10.506  -7.501   5.045  1.00  0.00    -0.311 N 
ATOM     55  C   UNL     1       9.203  -8.174   4.964  1.00  0.00     0.153 C 
BRANCH  54  56
ATOM     56  C   UNL     1      11.526  -8.143   5.766  1.00  0.00     0.102 C 
ATOM     57  C   UNL     1      12.680  -8.584   5.238  1.00  0.00     0.043 C 
BRANCH  56  58
ATOM     58  C   UNL     1      11.409  -8.350   7.258  1.00  0.00     0.268 C 
ATOM     59  O   UNL     1      10.913  -7.523   8.011  1.00  0.00    -0.268 OA
ATOM     60  N   UNL     1      11.854  -9.584   7.669  1.00  0.00    -0.339 N 
ATOM     61  H   UNL     1      12.262 -10.208   6.983  1.00  0.00     0.164 HD
BRANCH  60  62
ATOM     62  C   UNL     1      11.774 -10.015   9.064  1.00  0.00     0.168 CG0
ATOM     63  C   UNL     1      12.927  -9.445   9.880  1.00  0.00     0.041 C 
ATOM     64  G   UNL     1      11.769 -11.557   9.128  1.00  0.00     0.000 G0
ENDBRANCH  60  62
ENDBRANCH  56  58
ENDBRANCH  54  56
ENDBRANCH  52  54
ENDBRANCH  51  52
ENDBRANCH  50  51
ENDBRANCH  49  50
BRANCH  49  65
ATOM     65  C   UNL     1      13.597  -2.592   5.764  1.00  0.00     0.326 C 
ATOM     66  O   UNL     1      14.028  -2.841   6.880  1.00  0.00    -0.250 OA
BRANCH  65  67
ATOM     67  O   UNL     1      13.637  -1.325   5.298  1.00  0.00    -0.480 OA
ATOM     68  H   UNL     1      13.468  -1.426   4.336  1.00  0.00     0.296 HD
ENDBRANCH  65  67
ENDBRANCH  49  65
ENDBRANCH  47  49
ENDBRANCH  43  45
ENDBRANCH   1  43
BRANCH   1  69
ATOM     69  C   UNL     1       8.895  -3.733   0.750  1.00  0.00    -0.001 C 
ATOM     70  C   UNL     1       7.621  -4.018   0.427  1.00  0.00     0.001 C 
BRANCH  70  71
ATOM     71  C   UNL     1       7.138  -4.577  -0.837  1.00  0.00    -0.055 C 
ATOM     72  C   UNL     1       8.059  -4.943  -1.754  1.00  0.00    -0.018 C 
ATOM     73  C   UNL     1       5.649  -4.713  -1.022  1.00  0.00     0.044 C 
BRANCH  72  74
ATOM     74  C   UNL     1       7.855  -5.548  -3.135  1.00  0.00     0.038 C 
ATOM     75  C   UNL     1       7.172  -6.907  -2.938  1.00  0.00     0.015 C 
BRANCH  74  76
ATOM     76  C   UNL     1       9.229  -5.607  -3.864  1.00  0.00     0.128 C 
BRANCH  76  77
ATOM     77  O   UNL     1       9.103  -5.077  -5.195  1.00  0.00    -0.381 OA
ATOM     78  C   UNL     1       8.226  -3.961  -5.283  1.00  0.00     0.195 C 
ENDBRANCH  76  77
BRANCH  76  79
ATOM     79  C   UNL     1      10.392  -4.961  -3.069  1.00  0.00     0.068 C 
BRANCH  79  80
ATOM     80  C   UNL     1      11.310  -5.874  -2.292  1.00  0.00    -0.045 A 
ATOM     81  C   UNL     1      12.068  -6.857  -2.941  1.00  0.00     0.004 A 
ATOM     82  C   UNL     1      11.396  -5.767  -0.896  1.00  0.00     0.004 A 
ATOM     83  C   UNL     1      12.904  -7.707  -2.213  1.00  0.00     0.000 A 
ATOM     84  C   UNL     1      12.232  -6.618  -0.169  1.00  0.00     0.000 A 
ATOM     85  C   UNL     1      12.987  -7.586  -0.827  1.00  0.00     0.000 A 
ENDBRANCH  79  80
ENDBRANCH  76  79
ENDBRANCH  74  76
ENDBRANCH  72  74
ENDBRANCH  70  71
ENDBRANCH   1  69
TORSDOF 17
ENDMDL
MODEL 32
REMARK VINA RESULT:    -5.994      3.971     12.468
REMARK INTER + INTRA:         -25.413
REMARK INTER:                 -16.713
REMARK INTRA:                  -8.700
REMARK UNBOUND:                -7.505
REMARK SMILES C=C1C(=O)N[C@H](C)C(=O)N[C@@H](CC(C)C)C(=O)N[C@@H](C(=O)O)[C@H](C)C(=O)N[C@@H](CCCN=C(N)N)C(=O)N[C@@H](/C=C/C(C)=C/[C@H](C)[C@H](Cc2ccccc2)OC)[C@H](C)C(=O)N[C@@H](C(=O)O)CCC(=O)N1C
REMARK SMILES IDX 39 1 38 2 37 3 36 4 28 6 27 7 25 8 26 9 23 11 24 12 19 13
REMARK SMILES IDX 18 14 16 15 17 16 11 18 10 19 8 20 9 21 12 24 13 25 14 26
REMARK SMILES IDX 15 27 20 28 21 29 22 30 29 32 30 33 31 34 32 35 33 36 34 37
REMARK SMILES IDX 35 38 57 43 58 44 59 45 60 46 61 47 62 49 66 50 67 51 68 52
REMARK SMILES IDX 69 53 70 54 71 55 2 56 1 57 3 58 4 59 5 60 6 62 7 63 63 65
REMARK SMILES IDX 64 66 65 67 40 69 41 70 42 71 44 72 43 73 45 74 46 75 47 76
REMARK SMILES IDX 55 77 56 78 48 79 49 80 50 81 54 82 51 83 53 84 52 85
REMARK H PARENT 38 5 27 10 18 17 10 22 22 31 34 39 34 40 35 41 35 42 61 48
REMARK H PARENT 5 61 65 68
REMARK Flexibility Score:  369.900
ROOT
ATOM      1  C   UNL     1       7.958  -0.497   1.821  1.00  0.00     0.117 C 
ENDROOT
BRANCH   1   2
ATOM      2  N   UNL     1       7.394  -1.139   0.633  1.00  0.00    -0.347 N 
ATOM      3  O   UNL     1       7.136   0.747  -0.650  1.00  0.00    -0.273 OA
ATOM      4  C   UNL     1       7.112  -0.474  -0.545  1.00  0.00     0.243 C 
ATOM      5  H   UNL     1       7.240  -2.136   0.636  1.00  0.00     0.164 HD
BRANCH   4   6
ATOM      6  C   UNL     1       6.604  -1.402  -1.678  1.00  0.00     0.171 C 
BRANCH   6   7
ATOM      7  N   UNL     1       6.083  -0.606  -2.800  1.00  0.00    -0.344 N 
ATOM      8  C   UNL     1       4.727  -0.525  -3.034  1.00  0.00     0.226 C 
ATOM      9  O   UNL     1       3.902  -1.117  -2.349  1.00  0.00    -0.275 OA
ATOM     10  H   UNL     1       6.737  -0.157  -3.429  1.00  0.00     0.164 HD
BRANCH   8  11
ATOM     11  C   UNL     1       4.345   0.378  -4.194  1.00  0.00     0.109 C 
ATOM     12  C   UNL     1       3.340  -0.329  -5.102  1.00  0.00     0.021 C 
BRANCH  11  13
ATOM     13  C   UNL     1       3.882   1.748  -3.658  1.00  0.00     0.204 C 
BRANCH  13  14
ATOM     14  N   UNL     1       2.914   1.614  -2.564  1.00  0.00    -0.340 N 
ATOM     15  C   UNL     1       1.808   2.426  -2.441  1.00  0.00     0.243 C 
ATOM     16  O   UNL     1       1.520   3.282  -3.276  1.00  0.00    -0.273 OA
ATOM     17  H   UNL     1       3.172   1.031  -1.764  1.00  0.00     0.164 HD
BRANCH  15  18
ATOM     18  C   UNL     1       1.049   2.239  -1.105  1.00  0.00     0.171 C 
BRANCH  18  19
ATOM     19  N   UNL     1      -0.358   2.036  -1.446  1.00  0.00    -0.343 N 
ATOM     20  C   UNL     1      -1.328   2.963  -1.119  1.00  0.00     0.242 CG0
ATOM     21  O   UNL     1      -1.076   3.935  -0.410  1.00  0.00    -0.273 OA
ATOM     22  H   UNL     1      -0.635   1.191  -1.932  1.00  0.00     0.164 HD
ATOM     23  G   UNL     1      -2.741   2.615  -1.631  1.00  0.00     0.000 G0
ENDBRANCH  18  19
BRANCH  18  24
ATOM     24  C   UNL     1       1.614   1.046  -0.323  1.00  0.00     0.038 C 
BRANCH  24  25
ATOM     25  C   UNL     1       2.314   1.417   1.002  1.00  0.00    -0.015 C 
ATOM     26  C   UNL     1       2.020   2.853   1.436  1.00  0.00     0.007 C 
ATOM     27  C   UNL     1       3.825   1.222   0.858  1.00  0.00     0.007 C 
ENDBRANCH  24  25
ENDBRANCH  18  24
ENDBRANCH  15  18
ENDBRANCH  13  14
BRANCH  13  28
ATOM     28  C   UNL     1       5.035   2.614  -3.140  1.00  0.00     0.327 C 
ATOM     29  O   UNL     1       5.785   3.300  -3.818  1.00  0.00    -0.250 OA
BRANCH  28  30
ATOM     30  O   UNL     1       5.249   2.473  -1.816  1.00  0.00    -0.480 OA
ATOM     31  H   UNL     1       5.713   1.614  -1.737  1.00  0.00     0.296 HD
ENDBRANCH  28  30
ENDBRANCH  13  28
ENDBRANCH  11  13
ENDBRANCH   8  11
ENDBRANCH   6   7
BRANCH   6  32
ATOM     32  C   UNL     1       7.751  -2.310  -2.137  1.00  0.00     0.037 C 
BRANCH  32  33
ATOM     33  C   UNL     1       7.569  -2.784  -3.586  1.00  0.00     0.026 C 
BRANCH  33  34
ATOM     34  C   UNL     1       6.992  -4.198  -3.672  1.00  0.00     0.146 C 
BRANCH  34  35
ATOM     35  N   UNL     1       5.580  -4.151  -3.318  1.00  0.00    -0.254 NA
ATOM     36  C   UNL     1       5.193  -4.749  -2.253  1.00  0.00     0.185 C 
ATOM     37  N   UNL     1       3.895  -4.708  -1.915  1.00  0.00    -0.370 N 
ATOM     38  N   UNL     1       5.921  -5.452  -1.367  1.00  0.00    -0.370 N 
ATOM     39  H   UNL     1       3.282  -4.188  -2.529  1.00  0.00     0.159 HD
ATOM     40  H   UNL     1       3.545  -4.998  -1.018  1.00  0.00     0.159 HD
ATOM     41  H   UNL     1       5.479  -5.993  -0.643  1.00  0.00     0.159 HD
ATOM     42  H   UNL     1       6.912  -5.579  -1.504  1.00  0.00     0.159 HD
ENDBRANCH  34  35
ENDBRANCH  33  34
ENDBRANCH  32  33
ENDBRANCH   6  32
ENDBRANCH   4   6
ENDBRANCH   1   2
BRANCH   1  43
ATOM     43  C   UNL     1       9.297  -1.204   2.178  1.00  0.00     0.102 C 
ATOM     44  C   UNL     1       9.142  -2.713   2.433  1.00  0.00     0.020 C 
BRANCH  43  45
ATOM     45  C   UNL     1      10.033  -0.457   3.294  1.00  0.00     0.225 C 
ATOM     46  O   UNL     1      10.473   0.681   3.162  1.00  0.00    -0.275 OA
ATOM     47  N   UNL     1      10.259  -1.181   4.442  1.00  0.00    -0.342 N 
ATOM     48  H   UNL     1       9.765  -2.050   4.592  1.00  0.00     0.164 HD
BRANCH  47  49
ATOM     49  C   UNL     1      10.920  -0.584   5.607  1.00  0.00     0.192 C 
BRANCH  49  50
ATOM     50  C   UNL     1      12.125  -1.439   6.008  1.00  0.00     0.047 C 
BRANCH  50  51
ATOM     51  C   UNL     1      12.355  -2.611   5.043  1.00  0.00     0.103 C 
BRANCH  51  52
ATOM     52  C   UNL     1      12.255  -3.962   5.748  1.00  0.00     0.226 C 
ATOM     53  O   UNL     1      13.154  -4.319   6.512  1.00  0.00    -0.275 OA
BRANCH  52  54
ATOM     54  N   UNL     1      11.074  -4.697   5.531  1.00  0.00    -0.311 N 
ATOM     55  C   UNL     1       9.790  -4.243   6.081  1.00  0.00     0.153 C 
BRANCH  54  56
ATOM     56  C   UNL     1      11.078  -5.883   4.779  1.00  0.00     0.102 C 
ATOM     57  C   UNL     1      10.181  -6.193   3.829  1.00  0.00     0.043 C 
BRANCH  56  58
ATOM     58  C   UNL     1      12.166  -6.915   4.965  1.00  0.00     0.268 C 
ATOM     59  O   UNL     1      12.900  -7.284   4.058  1.00  0.00    -0.268 OA
ATOM     60  N   UNL     1      12.286  -7.344   6.265  1.00  0.00    -0.339 N 
ATOM     61  H   UNL     1      11.631  -6.998   6.955  1.00  0.00     0.164 HD
BRANCH  60  62
ATOM     62  C   UNL     1      13.317  -8.296   6.678  1.00  0.00     0.168 CG0
ATOM     63  C   UNL     1      14.030  -7.818   7.937  1.00  0.00     0.041 C 
ATOM     64  G   UNL     1      14.322  -8.502   5.527  1.00  0.00     0.000 G0
ENDBRANCH  60  62
ENDBRANCH  56  58
ENDBRANCH  54  56
ENDBRANCH  52  54
ENDBRANCH  51  52
ENDBRANCH  50  51
ENDBRANCH  49  50
BRANCH  49  65
ATOM     65  C   UNL     1       9.962  -0.462   6.802  1.00  0.00     0.326 C 
ATOM     66  O   UNL     1       8.914   0.166   6.811  1.00  0.00    -0.250 OA
BRANCH  65  67
ATOM     67  O   UNL     1      10.387  -1.074   7.930  1.00  0.00    -0.480 OA
ATOM     68  H   UNL     1      10.565  -0.329   8.543  1.00  0.00     0.296 HD
ENDBRANCH  65  67
ENDBRANCH  49  65
ENDBRANCH  47  49
ENDBRANCH  43  45
ENDBRANCH   1  43
BRANCH   1  69
ATOM     69  C   UNL     1       6.846  -0.466   2.854  1.00  0.00    -0.001 C 
ATOM     70  C   UNL     1       5.797  -1.301   2.950  1.00  0.00     0.001 C 
BRANCH  70  71
ATOM     71  C   UNL     1       4.741  -1.275   3.965  1.00  0.00    -0.055 C 
ATOM     72  C   UNL     1       3.639  -0.540   3.705  1.00  0.00    -0.018 C 
ATOM     73  C   UNL     1       4.956  -2.076   5.222  1.00  0.00     0.044 C 
BRANCH  72  74
ATOM     74  C   UNL     1       2.398  -0.331   4.560  1.00  0.00     0.038 C 
ATOM     75  C   UNL     1       1.194  -0.797   3.732  1.00  0.00     0.015 C 
BRANCH  74  76
ATOM     76  C   UNL     1       2.344   1.159   5.009  1.00  0.00     0.128 C 
BRANCH  76  77
ATOM     77  O   UNL     1       1.481   1.297   6.151  1.00  0.00    -0.381 OA
ATOM     78  C   UNL     1       0.606   2.414   6.074  1.00  0.00     0.195 C 
ENDBRANCH  76  77
BRANCH  76  79
ATOM     79  C   UNL     1       3.737   1.801   5.230  1.00  0.00     0.068 C 
BRANCH  79  80
ATOM     80  C   UNL     1       4.065   3.059   4.463  1.00  0.00    -0.045 A 
ATOM     81  C   UNL     1       3.405   4.264   4.737  1.00  0.00     0.004 A 
ATOM     82  C   UNL     1       5.023   3.033   3.438  1.00  0.00     0.004 A 
ATOM     83  C   UNL     1       3.704   5.421   4.014  1.00  0.00     0.000 A 
ATOM     84  C   UNL     1       5.321   4.190   2.715  1.00  0.00     0.000 A 
ATOM     85  C   UNL     1       4.663   5.384   3.004  1.00  0.00     0.000 A 
ENDBRANCH  79  80
ENDBRANCH  76  79
ENDBRANCH  74  76
ENDBRANCH  72  74
ENDBRANCH  70  71
ENDBRANCH   1  69
TORSDOF 17
ENDMDL
MODEL 33
REMARK VINA RESULT:    -5.991      2.255     12.464
REMARK INTER + INTRA:         -25.406
REMARK INTER:                 -17.776
REMARK INTRA:                  -7.630
REMARK UNBOUND:                -7.505
REMARK SMILES C=C1C(=O)N[C@H](C)C(=O)N[C@@H](CC(C)C)C(=O)N[C@@H](C(=O)O)[C@H](C)C(=O)N[C@@H](CCCN=C(N)N)C(=O)N[C@@H](/C=C/C(C)=C/[C@H](C)[C@H](Cc2ccccc2)OC)[C@H](C)C(=O)N[C@@H](C(=O)O)CCC(=O)N1C
REMARK SMILES IDX 39 1 38 2 37 3 36 4 28 6 27 7 25 8 26 9 23 11 24 12 19 13
REMARK SMILES IDX 18 14 16 15 17 16 11 18 10 19 8 20 9 21 12 24 13 25 14 26
REMARK SMILES IDX 15 27 20 28 21 29 22 30 29 32 30 33 31 34 32 35 33 36 34 37
REMARK SMILES IDX 35 38 57 43 58 44 59 45 60 46 61 47 62 49 66 50 67 51 68 52
REMARK SMILES IDX 69 53 70 54 71 55 2 56 1 57 3 58 4 59 5 60 6 62 7 63 63 65
REMARK SMILES IDX 64 66 65 67 40 69 41 70 42 71 44 72 43 73 45 74 46 75 47 76
REMARK SMILES IDX 55 77 56 78 48 79 49 80 50 81 54 82 51 83 53 84 52 85
REMARK H PARENT 38 5 27 10 18 17 10 22 22 31 34 39 34 40 35 41 35 42 61 48
REMARK H PARENT 5 61 65 68
REMARK Flexibility Score:  369.900
ROOT
ATOM      1  C   UNL     1       7.408  -2.722   5.516  1.00  0.00     0.117 C 
ENDROOT
BRANCH   1   2
ATOM      2  N   UNL     1       6.279  -1.976   4.959  1.00  0.00    -0.347 N 
ATOM      3  O   UNL     1       4.597  -3.084   6.061  1.00  0.00    -0.273 OA
ATOM      4  C   UNL     1       4.965  -2.157   5.347  1.00  0.00     0.243 C 
ATOM      5  H   UNL     1       6.453  -1.247   4.284  1.00  0.00     0.164 HD
BRANCH   4   6
ATOM      6  C   UNL     1       3.974  -1.181   4.664  1.00  0.00     0.171 C 
BRANCH   6   7
ATOM      7  N   UNL     1       4.251   0.204   5.076  1.00  0.00    -0.344 N 
ATOM      8  C   UNL     1       3.241   1.010   5.555  1.00  0.00     0.226 C 
ATOM      9  O   UNL     1       2.078   0.632   5.640  1.00  0.00    -0.275 OA
ATOM     10  H   UNL     1       5.186   0.574   4.958  1.00  0.00     0.164 HD
BRANCH   8  11
ATOM     11  C   UNL     1       3.696   2.393   5.990  1.00  0.00     0.109 C 
ATOM     12  C   UNL     1       5.024   2.744   5.319  1.00  0.00     0.021 C 
BRANCH  11  13
ATOM     13  C   UNL     1       2.563   3.412   5.757  1.00  0.00     0.204 C 
BRANCH  13  14
ATOM     14  N   UNL     1       2.692   4.587   6.624  1.00  0.00    -0.340 N 
ATOM     15  C   UNL     1       2.372   4.567   7.964  1.00  0.00     0.243 C 
ATOM     16  O   UNL     1       2.013   3.543   8.542  1.00  0.00    -0.273 OA
ATOM     17  H   UNL     1       2.837   5.498   6.179  1.00  0.00     0.164 HD
BRANCH  15  18
ATOM     18  C   UNL     1       2.388   5.968   8.625  1.00  0.00     0.171 C 
BRANCH  18  19
ATOM     19  N   UNL     1       2.030   6.927   7.581  1.00  0.00    -0.343 N 
ATOM     20  C   UNL     1       2.320   8.273   7.698  1.00  0.00     0.242 CG0
ATOM     21  O   UNL     1       2.770   8.746   8.739  1.00  0.00    -0.273 OA
ATOM     22  H   UNL     1       1.551   6.601   6.749  1.00  0.00     0.164 HD
ATOM     23  G   UNL     1       1.938   9.116   6.464  1.00  0.00     0.000 G0
ENDBRANCH  18  19
BRANCH  18  24
ATOM     24  C   UNL     1       1.404   6.023   9.800  1.00  0.00     0.038 C 
BRANCH  24  25
ATOM     25  C   UNL     1      -0.072   6.223   9.395  1.00  0.00    -0.015 C 
ATOM     26  C   UNL     1      -0.657   7.527   9.940  1.00  0.00     0.007 C 
ATOM     27  C   UNL     1      -0.906   5.038   9.890  1.00  0.00     0.007 C 
ENDBRANCH  24  25
ENDBRANCH  18  24
ENDBRANCH  15  18
ENDBRANCH  13  14
BRANCH  13  28
ATOM     28  C   UNL     1       2.494   3.918   4.313  1.00  0.00     0.327 C 
ATOM     29  O   UNL     1       2.124   3.279   3.340  1.00  0.00    -0.250 OA
BRANCH  28  30
ATOM     30  O   UNL     1       3.005   5.157   4.162  1.00  0.00    -0.480 OA
ATOM     31  H   UNL     1       3.975   5.026   4.219  1.00  0.00     0.296 HD
ENDBRANCH  28  30
ENDBRANCH  13  28
ENDBRANCH  11  13
ENDBRANCH   8  11
ENDBRANCH   6   7
BRANCH   6  32
ATOM     32  C   UNL     1       4.085  -1.332   3.143  1.00  0.00     0.037 C 
BRANCH  32  33
ATOM     33  C   UNL     1       3.732  -0.033   2.405  1.00  0.00     0.026 C 
BRANCH  33  34
ATOM     34  C   UNL     1       4.914   0.533   1.618  1.00  0.00     0.146 C 
BRANCH  34  35
ATOM     35  N   UNL     1       6.116   0.423   2.432  1.00  0.00    -0.254 NA
ATOM     36  C   UNL     1       7.244   0.267   1.846  1.00  0.00     0.185 C 
ATOM     37  N   UNL     1       8.359   0.171   2.587  1.00  0.00    -0.370 N 
ATOM     38  N   UNL     1       7.507   0.181   0.529  1.00  0.00    -0.370 N 
ATOM     39  H   UNL     1       8.245   0.237   3.590  1.00  0.00     0.159 HD
ATOM     40  H   UNL     1       9.287   0.222   2.204  1.00  0.00     0.159 HD
ATOM     41  H   UNL     1       8.420  -0.081   0.197  1.00  0.00     0.159 HD
ATOM     42  H   UNL     1       6.760   0.222  -0.146  1.00  0.00     0.159 HD
ENDBRANCH  34  35
ENDBRANCH  33  34
ENDBRANCH  32  33
ENDBRANCH   6  32
ENDBRANCH   4   6
ENDBRANCH   1   2
BRANCH   1  43
ATOM     43  C   UNL     1       8.410  -1.709   6.142  1.00  0.00     0.102 C 
ATOM     44  C   UNL     1       7.839  -0.287   6.275  1.00  0.00     0.020 C 
BRANCH  43  45
ATOM     45  C   UNL     1       9.767  -1.770   5.434  1.00  0.00     0.225 C 
ATOM     46  O   UNL     1      10.028  -1.119   4.426  1.00  0.00    -0.275 OA
ATOM     47  N   UNL     1      10.662  -2.680   5.948  1.00  0.00    -0.342 N 
ATOM     48  H   UNL     1      10.493  -3.091   6.855  1.00  0.00     0.164 HD
BRANCH  47  49
ATOM     49  C   UNL     1      12.012  -2.823   5.395  1.00  0.00     0.192 C 
BRANCH  49  50
ATOM     50  C   UNL     1      12.217  -4.257   4.900  1.00  0.00     0.047 C 
BRANCH  50  51
ATOM     51  C   UNL     1      11.163  -5.222   5.459  1.00  0.00     0.103 C 
BRANCH  51  52
ATOM     52  C   UNL     1      11.795  -6.369   6.245  1.00  0.00     0.226 C 
ATOM     53  O   UNL     1      12.875  -6.197   6.813  1.00  0.00    -0.275 OA
BRANCH  52  54
ATOM     54  N   UNL     1      11.045  -7.556   6.333  1.00  0.00    -0.311 N 
ATOM     55  C   UNL     1      10.287  -7.883   7.548  1.00  0.00     0.153 C 
BRANCH  54  56
ATOM     56  C   UNL     1      10.987  -8.467   5.265  1.00  0.00     0.102 C 
ATOM     57  C   UNL     1       9.879  -8.764   4.567  1.00  0.00     0.043 C 
BRANCH  56  58
ATOM     58  C   UNL     1      12.232  -9.172   4.780  1.00  0.00     0.268 C 
ATOM     59  O   UNL     1      12.791 -10.056   5.415  1.00  0.00    -0.268 OA
ATOM     60  N   UNL     1      12.631  -8.765   3.529  1.00  0.00    -0.339 N 
ATOM     61  H   UNL     1      12.120  -8.018   3.074  1.00  0.00     0.164 HD
BRANCH  60  62
ATOM     62  C   UNL     1      13.776  -9.362   2.844  1.00  0.00     0.168 CG0
ATOM     63  C   UNL     1      13.334 -10.490   1.920  1.00  0.00     0.041 C 
ATOM     64  G   UNL     1      14.791  -9.876   3.886  1.00  0.00     0.000 G0
ENDBRANCH  60  62
ENDBRANCH  56  58
ENDBRANCH  54  56
ENDBRANCH  52  54
ENDBRANCH  51  52
ENDBRANCH  50  51
ENDBRANCH  49  50
BRANCH  49  65
ATOM     65  C   UNL     1      13.090  -2.485   6.437  1.00  0.00     0.326 C 
ATOM     66  O   UNL     1      14.025  -3.207   6.751  1.00  0.00    -0.250 OA
BRANCH  65  67
ATOM     67  O   UNL     1      12.913  -1.305   7.069  1.00  0.00    -0.480 OA
ATOM     68  H   UNL     1      12.936  -1.546   8.020  1.00  0.00     0.296 HD
ENDBRANCH  65  67
ENDBRANCH  49  65
ENDBRANCH  47  49
ENDBRANCH  43  45
ENDBRANCH   1  43
BRANCH   1  69
ATOM     69  C   UNL     1       7.892  -3.646   4.414  1.00  0.00    -0.001 C 
ATOM     70  C   UNL     1       7.679  -3.523   3.092  1.00  0.00     0.001 C 
BRANCH  70  71
ATOM     71  C   UNL     1       8.169  -4.410   2.036  1.00  0.00    -0.055 C 
ATOM     72  C   UNL     1       9.503  -4.478   1.842  1.00  0.00    -0.018 C 
ATOM     73  C   UNL     1       7.151  -5.191   1.246  1.00  0.00     0.044 C 
BRANCH  72  74
ATOM     74  C   UNL     1      10.289  -5.304   0.834  1.00  0.00     0.038 C 
ATOM     75  C   UNL     1      11.367  -6.065   1.615  1.00  0.00     0.015 C 
BRANCH  74  76
ATOM     76  C   UNL     1      10.833  -4.356  -0.276  1.00  0.00     0.128 C 
BRANCH  76  77
ATOM     77  O   UNL     1      12.270  -4.333  -0.240  1.00  0.00    -0.381 OA
ATOM     78  C   UNL     1      12.878  -4.676  -1.478  1.00  0.00     0.195 C 
ENDBRANCH  76  77
BRANCH  76  79
ATOM     79  C   UNL     1      10.273  -4.655  -1.689  1.00  0.00     0.068 C 
BRANCH  79  80
ATOM     80  C   UNL     1       8.802  -4.419  -1.931  1.00  0.00    -0.045 A 
ATOM     81  C   UNL     1       8.210  -3.184  -1.632  1.00  0.00     0.004 A 
ATOM     82  C   UNL     1       7.994  -5.448  -2.437  1.00  0.00     0.004 A 
ATOM     83  C   UNL     1       6.846  -2.978  -1.846  1.00  0.00     0.000 A 
ATOM     84  C   UNL     1       6.630  -5.241  -2.650  1.00  0.00     0.000 A 
ATOM     85  C   UNL     1       6.056  -4.007  -2.356  1.00  0.00     0.000 A 
ENDBRANCH  79  80
ENDBRANCH  76  79
ENDBRANCH  74  76
ENDBRANCH  72  74
ENDBRANCH  70  71
ENDBRANCH   1  69
TORSDOF 17
ENDMDL
MODEL 34
REMARK VINA RESULT:    -5.986      2.515      3.977
REMARK INTER + INTRA:         -25.389
REMARK INTER:                 -17.566
REMARK INTRA:                  -7.823
REMARK UNBOUND:                -7.505
REMARK SMILES C=C1C(=O)N[C@H](C)C(=O)N[C@@H](CC(C)C)C(=O)N[C@@H](C(=O)O)[C@H](C)C(=O)N[C@@H](CCCN=C(N)N)C(=O)N[C@@H](/C=C/C(C)=C/[C@H](C)[C@H](Cc2ccccc2)OC)[C@H](C)C(=O)N[C@@H](C(=O)O)CCC(=O)N1C
REMARK SMILES IDX 39 1 38 2 37 3 36 4 28 6 27 7 25 8 26 9 23 11 24 12 19 13
REMARK SMILES IDX 18 14 16 15 17 16 11 18 10 19 8 20 9 21 12 24 13 25 14 26
REMARK SMILES IDX 15 27 20 28 21 29 22 30 29 32 30 33 31 34 32 35 33 36 34 37
REMARK SMILES IDX 35 38 57 43 58 44 59 45 60 46 61 47 62 49 66 50 67 51 68 52
REMARK SMILES IDX 69 53 70 54 71 55 2 56 1 57 3 58 4 59 5 60 6 62 7 63 63 65
REMARK SMILES IDX 64 66 65 67 40 69 41 70 42 71 44 72 43 73 45 74 46 75 47 76
REMARK SMILES IDX 55 77 56 78 48 79 49 80 50 81 54 82 51 83 53 84 52 85
REMARK H PARENT 38 5 27 10 18 17 10 22 22 31 34 39 34 40 35 41 35 42 61 48
REMARK H PARENT 5 61 65 68
REMARK Flexibility Score:  369.900
ROOT
ATOM      1  C   UNL     1       6.815  -1.818   4.478  1.00  0.00     0.117 C 
ENDROOT
BRANCH   1   2
ATOM      2  N   UNL     1       7.565  -3.070   4.582  1.00  0.00    -0.347 N 
ATOM      3  O   UNL     1       9.677  -2.185   4.427  1.00  0.00    -0.273 OA
ATOM      4  C   UNL     1       8.943  -3.144   4.640  1.00  0.00     0.243 C 
ATOM      5  H   UNL     1       7.063  -3.941   4.668  1.00  0.00     0.164 HD
BRANCH   4   6
ATOM      6  C   UNL     1       9.483  -4.583   4.837  1.00  0.00     0.171 C 
BRANCH   6   7
ATOM      7  N   UNL     1      10.413  -4.937   3.752  1.00  0.00    -0.344 N 
ATOM      8  C   UNL     1      10.003  -5.738   2.708  1.00  0.00     0.226 C 
ATOM      9  O   UNL     1       8.873  -6.207   2.640  1.00  0.00    -0.275 OA
ATOM     10  H   UNL     1      11.374  -4.623   3.808  1.00  0.00     0.164 HD
BRANCH   8  11
ATOM     11  C   UNL     1      11.060  -5.966   1.642  1.00  0.00     0.109 C 
ATOM     12  C   UNL     1      11.452  -4.636   0.997  1.00  0.00     0.021 C 
BRANCH  11  13
ATOM     13  C   UNL     1      12.235  -6.769   2.236  1.00  0.00     0.204 C 
BRANCH  13  14
ATOM     14  N   UNL     1      11.776  -7.928   3.008  1.00  0.00    -0.340 N 
ATOM     15  C   UNL     1      12.373  -8.328   4.183  1.00  0.00     0.243 C 
ATOM     16  O   UNL     1      13.297  -7.703   4.701  1.00  0.00    -0.273 OA
ATOM     17  H   UNL     1      11.119  -8.573   2.560  1.00  0.00     0.164 HD
BRANCH  15  18
ATOM     18  C   UNL     1      11.856  -9.691   4.707  1.00  0.00     0.171 C 
BRANCH  18  19
ATOM     19  N   UNL     1      13.019 -10.571   4.801  1.00  0.00    -0.343 N 
ATOM     20  C   UNL     1      13.640 -11.081   3.677  1.00  0.00     0.242 CG0
ATOM     21  O   UNL     1      13.166 -10.926   2.554  1.00  0.00    -0.273 OA
ATOM     22  H   UNL     1      13.379 -10.823   5.715  1.00  0.00     0.164 HD
ATOM     23  G   UNL     1      14.897 -11.925   3.972  1.00  0.00     0.000 G0
ENDBRANCH  18  19
BRANCH  18  24
ATOM     24  C   UNL     1      11.167  -9.522   6.067  1.00  0.00     0.038 C 
BRANCH  24  25
ATOM     25  C   UNL     1      10.098  -8.410   6.114  1.00  0.00    -0.015 C 
ATOM     26  C   UNL     1       9.663  -8.077   7.541  1.00  0.00     0.007 C 
ATOM     27  C   UNL     1       8.880  -8.831   5.288  1.00  0.00     0.007 C 
ENDBRANCH  24  25
ENDBRANCH  18  24
ENDBRANCH  15  18
ENDBRANCH  13  14
BRANCH  13  28
ATOM     28  C   UNL     1      13.210  -7.287   1.175  1.00  0.00     0.327 C 
ATOM     29  O   UNL     1      13.034  -8.245   0.438  1.00  0.00    -0.250 OA
BRANCH  28  30
ATOM     30  O   UNL     1      14.395  -6.643   1.186  1.00  0.00    -0.480 OA
ATOM     31  H   UNL     1      14.179  -5.736   0.883  1.00  0.00     0.296 HD
ENDBRANCH  28  30
ENDBRANCH  13  28
ENDBRANCH  11  13
ENDBRANCH   8  11
ENDBRANCH   6   7
BRANCH   6  32
ATOM     32  C   UNL     1      10.172  -4.681   6.202  1.00  0.00     0.037 C 
BRANCH  32  33
ATOM     33  C   UNL     1      11.635  -5.131   6.082  1.00  0.00     0.026 C 
BRANCH  33  34
ATOM     34  C   UNL     1      12.609  -3.953   6.041  1.00  0.00     0.146 C 
BRANCH  34  35
ATOM     35  N   UNL     1      13.277  -3.940   4.747  1.00  0.00    -0.254 NA
ATOM     36  C   UNL     1      13.269  -2.858   4.062  1.00  0.00     0.185 C 
ATOM     37  N   UNL     1      13.886  -2.834   2.870  1.00  0.00    -0.370 N 
ATOM     38  N   UNL     1      12.710  -1.672   4.362  1.00  0.00    -0.370 N 
ATOM     39  H   UNL     1      14.341  -3.689   2.577  1.00  0.00     0.159 HD
ATOM     40  H   UNL     1      14.073  -1.989   2.358  1.00  0.00     0.159 HD
ATOM     41  H   UNL     1      12.653  -0.935   3.679  1.00  0.00     0.159 HD
ATOM     42  H   UNL     1      12.199  -1.550   5.222  1.00  0.00     0.159 HD
ENDBRANCH  34  35
ENDBRANCH  33  34
ENDBRANCH  32  33
ENDBRANCH   6  32
ENDBRANCH   4   6
ENDBRANCH   1   2
BRANCH   1  43
ATOM     43  C   UNL     1       5.766  -1.772   5.626  1.00  0.00     0.102 C 
ATOM     44  C   UNL     1       5.499  -3.145   6.266  1.00  0.00     0.020 C 
BRANCH  43  45
ATOM     45  C   UNL     1       4.498  -1.036   5.183  1.00  0.00     0.225 C 
ATOM     46  O   UNL     1       3.518  -1.609   4.715  1.00  0.00    -0.275 OA
ATOM     47  N   UNL     1       4.555   0.337   5.253  1.00  0.00    -0.342 N 
ATOM     48  H   UNL     1       5.297   0.781   5.775  1.00  0.00     0.164 HD
BRANCH  47  49
ATOM     49  C   UNL     1       3.403   1.171   4.895  1.00  0.00     0.192 C 
BRANCH  49  50
ATOM     50  C   UNL     1       3.805   2.159   3.796  1.00  0.00     0.047 C 
BRANCH  50  51
ATOM     51  C   UNL     1       4.055   1.463   2.451  1.00  0.00     0.103 C 
BRANCH  51  52
ATOM     52  C   UNL     1       3.478   2.255   1.280  1.00  0.00     0.226 C 
ATOM     53  O   UNL     1       3.810   3.430   1.116  1.00  0.00    -0.275 OA
BRANCH  52  54
ATOM     54  N   UNL     1       2.641   1.548   0.397  1.00  0.00    -0.311 N 
ATOM     55  C   UNL     1       3.095   1.192  -0.954  1.00  0.00     0.153 C 
BRANCH  54  56
ATOM     56  C   UNL     1       1.347   1.152   0.774  1.00  0.00     0.102 C 
ATOM     57  C   UNL     1       0.978  -0.111   1.045  1.00  0.00     0.043 C 
BRANCH  56  58
ATOM     58  C   UNL     1       0.246   2.170   0.952  1.00  0.00     0.268 C 
ATOM     59  O   UNL     1       0.319   3.316   0.530  1.00  0.00    -0.268 OA
ATOM     60  N   UNL     1      -0.867   1.658   1.575  1.00  0.00    -0.339 N 
ATOM     61  H   UNL     1      -0.845   0.701   1.905  1.00  0.00     0.164 HD
BRANCH  60  62
ATOM     62  C   UNL     1      -2.074   2.455   1.792  1.00  0.00     0.168 CG0
ATOM     63  C   UNL     1      -3.169   2.070   0.806  1.00  0.00     0.041 C 
ATOM     64  G   UNL     1      -1.732   3.955   1.670  1.00  0.00     0.000 G0
ENDBRANCH  60  62
ENDBRANCH  56  58
ENDBRANCH  54  56
ENDBRANCH  52  54
ENDBRANCH  51  52
ENDBRANCH  50  51
ENDBRANCH  49  50
BRANCH  49  65
ATOM     65  C   UNL     1       2.868   1.949   6.108  1.00  0.00     0.326 C 
ATOM     66  O   UNL     1       3.514   2.730   6.792  1.00  0.00    -0.250 OA
BRANCH  65  67
ATOM     67  O   UNL     1       1.588   1.669   6.437  1.00  0.00    -0.480 OA
ATOM     68  H   UNL     1       1.459   0.754   6.105  1.00  0.00     0.296 HD
ENDBRANCH  65  67
ENDBRANCH  49  65
ENDBRANCH  47  49
ENDBRANCH  43  45
ENDBRANCH   1  43
BRANCH   1  69
ATOM     69  C   UNL     1       6.335  -1.730   3.041  1.00  0.00    -0.001 C 
ATOM     70  C   UNL     1       6.732  -0.856   2.099  1.00  0.00     0.001 C 
BRANCH  70  71
ATOM     71  C   UNL     1       6.277  -0.794   0.709  1.00  0.00    -0.055 C 
ATOM     72  C   UNL     1       5.554  -1.832   0.238  1.00  0.00    -0.018 C 
ATOM     73  C   UNL     1       6.640   0.427  -0.096  1.00  0.00     0.044 C 
BRANCH  72  74
ATOM     74  C   UNL     1       4.953  -2.039  -1.145  1.00  0.00     0.038 C 
ATOM     75  C   UNL     1       3.653  -2.832  -0.960  1.00  0.00     0.015 C 
BRANCH  74  76
ATOM     76  C   UNL     1       6.014  -2.727  -2.054  1.00  0.00     0.128 C 
BRANCH  76  77
ATOM     77  O   UNL     1       6.746  -1.733  -2.791  1.00  0.00    -0.381 OA
ATOM     78  C   UNL     1       6.415  -1.688  -4.173  1.00  0.00     0.195 C 
ENDBRANCH  76  77
BRANCH  76  79
ATOM     79  C   UNL     1       6.938  -3.719  -1.304  1.00  0.00     0.068 C 
BRANCH  79  80
ATOM     80  C   UNL     1       7.844  -4.601  -2.127  1.00  0.00    -0.045 A 
ATOM     81  C   UNL     1       9.225  -4.638  -1.892  1.00  0.00     0.004 A 
ATOM     82  C   UNL     1       7.317  -5.383  -3.167  1.00  0.00     0.004 A 
ATOM     83  C   UNL     1      10.059  -5.446  -2.667  1.00  0.00     0.000 A 
ATOM     84  C   UNL     1       8.152  -6.190  -3.942  1.00  0.00     0.000 A 
ATOM     85  C   UNL     1       9.522  -6.223  -3.691  1.00  0.00     0.000 A 
ENDBRANCH  79  80
ENDBRANCH  76  79
ENDBRANCH  74  76
ENDBRANCH  72  74
ENDBRANCH  70  71
ENDBRANCH   1  69
TORSDOF 17
ENDMDL
MODEL 35
REMARK VINA RESULT:    -5.985      2.455     12.855
REMARK INTER + INTRA:         -25.386
REMARK INTER:                 -18.651
REMARK INTRA:                  -6.734
REMARK UNBOUND:                -7.505
REMARK SMILES C=C1C(=O)N[C@H](C)C(=O)N[C@@H](CC(C)C)C(=O)N[C@@H](C(=O)O)[C@H](C)C(=O)N[C@@H](CCCN=C(N)N)C(=O)N[C@@H](/C=C/C(C)=C/[C@H](C)[C@H](Cc2ccccc2)OC)[C@H](C)C(=O)N[C@@H](C(=O)O)CCC(=O)N1C
REMARK SMILES IDX 39 1 38 2 37 3 36 4 28 6 27 7 25 8 26 9 23 11 24 12 19 13
REMARK SMILES IDX 18 14 16 15 17 16 11 18 10 19 8 20 9 21 12 24 13 25 14 26
REMARK SMILES IDX 15 27 20 28 21 29 22 30 29 32 30 33 31 34 32 35 33 36 34 37
REMARK SMILES IDX 35 38 57 43 58 44 59 45 60 46 61 47 62 49 66 50 67 51 68 52
REMARK SMILES IDX 69 53 70 54 71 55 2 56 1 57 3 58 4 59 5 60 6 62 7 63 63 65
REMARK SMILES IDX 64 66 65 67 40 69 41 70 42 71 44 72 43 73 45 74 46 75 47 76
REMARK SMILES IDX 55 77 56 78 48 79 49 80 50 81 54 82 51 83 53 84 52 85
REMARK H PARENT 38 5 27 10 18 17 10 22 22 31 34 39 34 40 35 41 35 42 61 48
REMARK H PARENT 5 61 65 68
REMARK Flexibility Score:  369.900
ROOT
ATOM      1  C   UNL     1       6.800  -2.581   3.296  1.00  0.00     0.117 C 
ENDROOT
BRANCH   1   2
ATOM      2  N   UNL     1       5.579  -1.783   3.411  1.00  0.00    -0.347 N 
ATOM      3  O   UNL     1       4.857  -2.605   5.429  1.00  0.00    -0.273 OA
ATOM      4  C   UNL     1       4.750  -1.793   4.516  1.00  0.00     0.243 C 
ATOM      5  H   UNL     1       5.335  -1.143   2.671  1.00  0.00     0.164 HD
BRANCH   4   6
ATOM      6  C   UNL     1       3.570  -0.792   4.419  1.00  0.00     0.171 C 
BRANCH   6   7
ATOM      7  N   UNL     1       3.981   0.535   4.904  1.00  0.00    -0.344 N 
ATOM      8  C   UNL     1       3.113   1.315   5.638  1.00  0.00     0.226 C 
ATOM      9  O   UNL     1       1.970   0.962   5.901  1.00  0.00    -0.275 OA
ATOM     10  H   UNL     1       4.895   0.890   4.650  1.00  0.00     0.164 HD
BRANCH   8  11
ATOM     11  C   UNL     1       3.703   2.632   6.111  1.00  0.00     0.109 C 
ATOM     12  C   UNL     1       5.039   2.890   5.414  1.00  0.00     0.021 C 
BRANCH  11  13
ATOM     13  C   UNL     1       2.661   3.757   5.953  1.00  0.00     0.204 C 
BRANCH  13  14
ATOM     14  N   UNL     1       1.721   3.799   7.077  1.00  0.00    -0.340 N 
ATOM     15  C   UNL     1       0.354   3.741   6.912  1.00  0.00     0.243 C 
ATOM     16  O   UNL     1      -0.173   3.587   5.812  1.00  0.00    -0.273 OA
ATOM     17  H   UNL     1       2.081   4.077   7.995  1.00  0.00     0.164 HD
BRANCH  15  18
ATOM     18  C   UNL     1      -0.439   4.012   8.215  1.00  0.00     0.171 C 
BRANCH  18  19
ATOM     19  N   UNL     1      -1.286   5.174   7.955  1.00  0.00    -0.343 N 
ATOM     20  C   UNL     1      -0.773   6.457   7.920  1.00  0.00     0.242 CG0
ATOM     21  O   UNL     1       0.390   6.693   8.237  1.00  0.00    -0.273 OA
ATOM     22  H   UNL     1      -2.279   5.041   7.801  1.00  0.00     0.164 HD
ATOM     23  G   UNL     1      -1.804   7.545   7.553  1.00  0.00     0.000 G0
ENDBRANCH  18  19
BRANCH  18  24
ATOM     24  C   UNL     1      -1.272   2.786   8.607  1.00  0.00     0.038 C 
BRANCH  24  25
ATOM     25  C   UNL     1      -2.800   2.995   8.537  1.00  0.00    -0.015 C 
ATOM     26  C   UNL     1      -3.555   2.134   9.549  1.00  0.00     0.007 C 
ATOM     27  C   UNL     1      -3.297   2.686   7.123  1.00  0.00     0.007 C 
ENDBRANCH  24  25
ENDBRANCH  18  24
ENDBRANCH  15  18
ENDBRANCH  13  14
BRANCH  13  28
ATOM     28  C   UNL     1       3.289   5.149   5.834  1.00  0.00     0.327 C 
ATOM     29  O   UNL     1       3.500   5.927   6.751  1.00  0.00    -0.250 OA
BRANCH  28  30
ATOM     30  O   UNL     1       3.502   5.524   4.556  1.00  0.00    -0.480 OA
ATOM     31  H   UNL     1       2.907   6.292   4.428  1.00  0.00     0.296 HD
ENDBRANCH  28  30
ENDBRANCH  13  28
ENDBRANCH  11  13
ENDBRANCH   8  11
ENDBRANCH   6   7
BRANCH   6  32
ATOM     32  C   UNL     1       3.090  -0.719   2.966  1.00  0.00     0.037 C 
BRANCH  32  33
ATOM     33  C   UNL     1       1.560  -0.785   2.857  1.00  0.00     0.026 C 
BRANCH  33  34
ATOM     34  C   UNL     1       0.937   0.574   2.536  1.00  0.00     0.146 C 
BRANCH  34  35
ATOM     35  N   UNL     1       2.004   1.528   2.268  1.00  0.00    -0.254 NA
ATOM     36  C   UNL     1       1.790   2.770   2.498  1.00  0.00     0.185 C 
ATOM     37  N   UNL     1       2.768   3.658   2.260  1.00  0.00    -0.370 N 
ATOM     38  N   UNL     1       0.677   3.362   2.968  1.00  0.00    -0.370 N 
ATOM     39  H   UNL     1       3.643   3.287   1.914  1.00  0.00     0.159 HD
ATOM     40  H   UNL     1       2.740   4.613   2.574  1.00  0.00     0.159 HD
ATOM     41  H   UNL     1       0.584   4.365   2.974  1.00  0.00     0.159 HD
ATOM     42  H   UNL     1      -0.145   2.817   3.175  1.00  0.00     0.159 HD
ENDBRANCH  34  35
ENDBRANCH  33  34
ENDBRANCH  32  33
ENDBRANCH   6  32
ENDBRANCH   4   6
ENDBRANCH   1   2
BRANCH   1  43
ATOM     43  C   UNL     1       7.879  -1.972   4.238  1.00  0.00     0.102 C 
ATOM     44  C   UNL     1       8.263  -0.527   3.877  1.00  0.00     0.020 C 
BRANCH  43  45
ATOM     45  C   UNL     1       9.078  -2.915   4.383  1.00  0.00     0.225 C 
ATOM     46  O   UNL     1      10.137  -2.750   3.785  1.00  0.00    -0.275 OA
ATOM     47  N   UNL     1       8.864  -4.029   5.162  1.00  0.00    -0.342 N 
ATOM     48  H   UNL     1       8.052  -4.072   5.762  1.00  0.00     0.164 HD
BRANCH  47  49
ATOM     49  C   UNL     1       9.932  -5.001   5.419  1.00  0.00     0.192 C 
BRANCH  49  50
ATOM     50  C   UNL     1       9.331  -6.402   5.552  1.00  0.00     0.047 C 
BRANCH  50  51
ATOM     51  C   UNL     1       9.487  -7.227   4.267  1.00  0.00     0.103 C 
BRANCH  51  52
ATOM     52  C   UNL     1       9.791  -8.695   4.561  1.00  0.00     0.226 C 
ATOM     53  O   UNL     1       8.968  -9.560   4.258  1.00  0.00    -0.275 OA
BRANCH  52  54
ATOM     54  N   UNL     1      11.058  -8.975   5.105  1.00  0.00    -0.311 N 
ATOM     55  C   UNL     1      11.208  -9.906   6.232  1.00  0.00     0.153 C 
BRANCH  54  56
ATOM     56  C   UNL     1      12.224  -8.384   4.590  1.00  0.00     0.102 C 
ATOM     57  C   UNL     1      12.919  -7.405   5.191  1.00  0.00     0.043 C 
BRANCH  56  58
ATOM     58  C   UNL     1      12.825  -8.863   3.289  1.00  0.00     0.268 C 
ATOM     59  O   UNL     1      13.235 -10.003   3.120  1.00  0.00    -0.268 OA
ATOM     60  N   UNL     1      12.803  -7.908   2.300  1.00  0.00    -0.339 N 
ATOM     61  H   UNL     1      12.456  -6.983   2.524  1.00  0.00     0.164 HD
BRANCH  60  62
ATOM     62  C   UNL     1      13.279  -8.179   0.944  1.00  0.00     0.168 CG0
ATOM     63  C   UNL     1      12.515  -7.349  -0.080  1.00  0.00     0.041 C 
ATOM     64  G   UNL     1      13.139  -9.685   0.640  1.00  0.00     0.000 G0
ENDBRANCH  60  62
ENDBRANCH  56  58
ENDBRANCH  54  56
ENDBRANCH  52  54
ENDBRANCH  51  52
ENDBRANCH  50  51
ENDBRANCH  49  50
BRANCH  49  65
ATOM     65  C   UNL     1      10.714  -4.659   6.697  1.00  0.00     0.326 C 
ATOM     66  O   UNL     1      11.590  -3.811   6.788  1.00  0.00    -0.250 OA
BRANCH  65  67
ATOM     67  O   UNL     1      10.409  -5.425   7.767  1.00  0.00    -0.480 OA
ATOM     68  H   UNL     1      10.961  -5.050   8.486  1.00  0.00     0.296 HD
ENDBRANCH  65  67
ENDBRANCH  49  65
ENDBRANCH  47  49
ENDBRANCH  43  45
ENDBRANCH   1  43
BRANCH   1  69
ATOM     69  C   UNL     1       7.099  -2.688   1.812  1.00  0.00    -0.001 C 
ATOM     70  C   UNL     1       7.525  -3.772   1.141  1.00  0.00     0.001 C 
BRANCH  70  71
ATOM     71  C   UNL     1       7.789  -3.869  -0.296  1.00  0.00    -0.055 C 
ATOM     72  C   UNL     1       7.556  -5.055  -0.898  1.00  0.00    -0.018 C 
ATOM     73  C   UNL     1       8.294  -2.638  -1.003  1.00  0.00     0.044 C 
BRANCH  72  74
ATOM     74  C   UNL     1       7.734  -5.444  -2.359  1.00  0.00     0.038 C 
ATOM     75  C   UNL     1       9.191  -5.145  -2.733  1.00  0.00     0.015 C 
BRANCH  74  76
ATOM     76  C   UNL     1       6.673  -4.689  -3.212  1.00  0.00     0.128 C 
BRANCH  76  77
ATOM     77  O   UNL     1       6.626  -5.241  -4.538  1.00  0.00    -0.381 OA
ATOM     78  C   UNL     1       6.542  -6.660  -4.564  1.00  0.00     0.195 C 
ENDBRANCH  76  77
BRANCH  76  79
ATOM     79  C   UNL     1       5.275  -4.605  -2.548  1.00  0.00     0.068 C 
BRANCH  79  80
ATOM     80  C   UNL     1       4.802  -3.256  -2.064  1.00  0.00    -0.045 A 
ATOM     81  C   UNL     1       4.173  -3.115  -0.820  1.00  0.00     0.004 A 
ATOM     82  C   UNL     1       4.962  -2.119  -2.871  1.00  0.00     0.004 A 
ATOM     83  C   UNL     1       3.725  -1.865  -0.386  1.00  0.00     0.000 A 
ATOM     84  C   UNL     1       4.513  -0.870  -2.436  1.00  0.00     0.000 A 
ATOM     85  C   UNL     1       3.897  -0.743  -1.194  1.00  0.00     0.000 A 
ENDBRANCH  79  80
ENDBRANCH  76  79
ENDBRANCH  74  76
ENDBRANCH  72  74
ENDBRANCH  70  71
ENDBRANCH   1  69
TORSDOF 17
ENDMDL
MODEL 36
REMARK VINA RESULT:    -5.982      3.154     11.547
REMARK INTER + INTRA:         -25.376
REMARK INTER:                 -17.722
REMARK INTRA:                  -7.654
REMARK UNBOUND:                -7.505
REMARK SMILES C=C1C(=O)N[C@H](C)C(=O)N[C@@H](CC(C)C)C(=O)N[C@@H](C(=O)O)[C@H](C)C(=O)N[C@@H](CCCN=C(N)N)C(=O)N[C@@H](/C=C/C(C)=C/[C@H](C)[C@H](Cc2ccccc2)OC)[C@H](C)C(=O)N[C@@H](C(=O)O)CCC(=O)N1C
REMARK SMILES IDX 39 1 38 2 37 3 36 4 28 6 27 7 25 8 26 9 23 11 24 12 19 13
REMARK SMILES IDX 18 14 16 15 17 16 11 18 10 19 8 20 9 21 12 24 13 25 14 26
REMARK SMILES IDX 15 27 20 28 21 29 22 30 29 32 30 33 31 34 32 35 33 36 34 37
REMARK SMILES IDX 35 38 57 43 58 44 59 45 60 46 61 47 62 49 66 50 67 51 68 52
REMARK SMILES IDX 69 53 70 54 71 55 2 56 1 57 3 58 4 59 5 60 6 62 7 63 63 65
REMARK SMILES IDX 64 66 65 67 40 69 41 70 42 71 44 72 43 73 45 74 46 75 47 76
REMARK SMILES IDX 55 77 56 78 48 79 49 80 50 81 54 82 51 83 53 84 52 85
REMARK H PARENT 38 5 27 10 18 17 10 22 22 31 34 39 34 40 35 41 35 42 61 48
REMARK H PARENT 5 61 65 68
REMARK Flexibility Score:  369.900
ROOT
ATOM      1  C   UNL     1       7.652  -3.714   2.267  1.00  0.00     0.117 C 
ENDROOT
BRANCH   1   2
ATOM      2  N   UNL     1       6.846  -2.693   1.596  1.00  0.00    -0.347 N 
ATOM      3  O   UNL     1       5.982  -4.018  -0.067  1.00  0.00    -0.273 OA
ATOM      4  C   UNL     1       6.001  -2.949   0.533  1.00  0.00     0.243 C 
ATOM      5  H   UNL     1       6.856  -1.747   1.946  1.00  0.00     0.164 HD
BRANCH   4   6
ATOM      6  C   UNL     1       5.198  -1.710   0.063  1.00  0.00     0.171 C 
BRANCH   6   7
ATOM      7  N   UNL     1       4.552  -1.051   1.209  1.00  0.00    -0.344 N 
ATOM      8  C   UNL     1       3.182  -1.081   1.357  1.00  0.00     0.226 C 
ATOM      9  O   UNL     1       2.442  -1.627   0.547  1.00  0.00    -0.275 OA
ATOM     10  H   UNL     1       5.124  -0.532   1.864  1.00  0.00     0.164 HD
BRANCH   8  11
ATOM     11  C   UNL     1       2.673  -0.403   2.617  1.00  0.00     0.109 C 
ATOM     12  C   UNL     1       2.805  -1.348   3.812  1.00  0.00     0.021 C 
BRANCH  11  13
ATOM     13  C   UNL     1       3.367   0.962   2.792  1.00  0.00     0.204 C 
BRANCH  13  14
ATOM     14  N   UNL     1       2.428   2.080   2.651  1.00  0.00    -0.340 N 
ATOM     15  C   UNL     1       2.210   2.728   1.454  1.00  0.00     0.243 C 
ATOM     16  O   UNL     1       2.743   2.374   0.405  1.00  0.00    -0.273 OA
ATOM     17  H   UNL     1       2.071   2.518   3.505  1.00  0.00     0.164 HD
BRANCH  15  18
ATOM     18  C   UNL     1       1.341   4.002   1.591  1.00  0.00     0.171 C 
BRANCH  18  19
ATOM     19  N   UNL     1       1.977   5.032   0.772  1.00  0.00    -0.343 N 
ATOM     20  C   UNL     1       3.013   5.809   1.254  1.00  0.00     0.242 CG0
ATOM     21  O   UNL     1       3.358   5.762   2.432  1.00  0.00    -0.273 OA
ATOM     22  H   UNL     1       1.648   5.189  -0.174  1.00  0.00     0.164 HD
ATOM     23  G   UNL     1       3.609   6.787   0.220  1.00  0.00     0.000 G0
ENDBRANCH  18  19
BRANCH  18  24
ATOM     24  C   UNL     1      -0.097   3.728   1.132  1.00  0.00     0.038 C 
BRANCH  24  25
ATOM     25  C   UNL     1      -0.412   4.185  -0.308  1.00  0.00    -0.015 C 
ATOM     26  C   UNL     1      -1.723   4.965  -0.401  1.00  0.00     0.007 C 
ATOM     27  C   UNL     1      -0.471   2.966  -1.233  1.00  0.00     0.007 C 
ENDBRANCH  24  25
ENDBRANCH  18  24
ENDBRANCH  15  18
ENDBRANCH  13  14
BRANCH  13  28
ATOM     28  C   UNL     1       4.059   1.119   4.149  1.00  0.00     0.327 C 
ATOM     29  O   UNL     1       3.529   1.462   5.195  1.00  0.00    -0.250 OA
BRANCH  28  30
ATOM     30  O   UNL     1       5.395   0.951   4.084  1.00  0.00    -0.480 OA
ATOM     31  H   UNL     1       5.691   1.616   3.428  1.00  0.00     0.296 HD
ENDBRANCH  28  30
ENDBRANCH  13  28
ENDBRANCH  11  13
ENDBRANCH   8  11
ENDBRANCH   6   7
BRANCH   6  32
ATOM     32  C   UNL     1       6.141  -0.745  -0.663  1.00  0.00     0.037 C 
BRANCH  32  33
ATOM     33  C   UNL     1       5.775   0.724  -0.408  1.00  0.00     0.026 C 
BRANCH  33  34
ATOM     34  C   UNL     1       6.915   1.507   0.244  1.00  0.00     0.146 C 
BRANCH  34  35
ATOM     35  N   UNL     1       6.441   2.069   1.501  1.00  0.00    -0.254 NA
ATOM     36  C   UNL     1       6.167   3.319   1.551  1.00  0.00     0.185 C 
ATOM     37  N   UNL     1       5.724   3.847   2.702  1.00  0.00    -0.370 N 
ATOM     38  N   UNL     1       6.257   4.243   0.577  1.00  0.00    -0.370 N 
ATOM     39  H   UNL     1       5.620   3.211   3.482  1.00  0.00     0.159 HD
ATOM     40  H   UNL     1       5.328   4.768   2.776  1.00  0.00     0.159 HD
ATOM     41  H   UNL     1       6.147   5.223   0.777  1.00  0.00     0.159 HD
ATOM     42  H   UNL     1       6.592   3.990  -0.340  1.00  0.00     0.159 HD
ENDBRANCH  34  35
ENDBRANCH  33  34
ENDBRANCH  32  33
ENDBRANCH   6  32
ENDBRANCH   4   6
ENDBRANCH   1   2
BRANCH   1  43
ATOM     43  C   UNL     1       7.821  -3.309   3.759  1.00  0.00     0.102 C 
ATOM     44  C   UNL     1       6.545  -2.719   4.382  1.00  0.00     0.020 C 
BRANCH  43  45
ATOM     45  C   UNL     1       9.068  -2.441   3.956  1.00  0.00     0.225 C 
ATOM     46  O   UNL     1       9.156  -1.290   3.536  1.00  0.00    -0.275 OA
ATOM     47  N   UNL     1      10.136  -3.065   4.558  1.00  0.00    -0.342 N 
ATOM     48  H   UNL     1       9.999  -3.949   5.028  1.00  0.00     0.164 HD
BRANCH  47  49
ATOM     49  C   UNL     1      11.382  -2.347   4.842  1.00  0.00     0.192 C 
BRANCH  49  50
ATOM     50  C   UNL     1      12.579  -3.227   4.472  1.00  0.00     0.047 C 
BRANCH  50  51
ATOM     51  C   UNL     1      12.172  -4.684   4.212  1.00  0.00     0.103 C 
BRANCH  51  52
ATOM     52  C   UNL     1      12.189  -5.521   5.489  1.00  0.00     0.226 C 
ATOM     53  O   UNL     1      12.901  -5.177   6.435  1.00  0.00    -0.275 OA
BRANCH  52  54
ATOM     54  N   UNL     1      11.311  -6.620   5.530  1.00  0.00    -0.311 N 
ATOM     55  C   UNL     1      10.667  -7.119   4.308  1.00  0.00     0.153 C 
BRANCH  54  56
ATOM     56  C   UNL     1      11.023  -7.283   6.735  1.00  0.00     0.102 C 
ATOM     57  C   UNL     1      10.045  -6.937   7.587  1.00  0.00     0.043 C 
BRANCH  56  58
ATOM     58  C   UNL     1      11.800  -8.510   7.149  1.00  0.00     0.268 C 
ATOM     59  O   UNL     1      12.907  -8.784   6.704  1.00  0.00    -0.268 OA
ATOM     60  N   UNL     1      11.167  -9.248   8.121  1.00  0.00    -0.339 N 
ATOM     61  H   UNL     1      10.246  -8.960   8.429  1.00  0.00     0.164 HD
BRANCH  60  62
ATOM     62  C   UNL     1      11.772 -10.442   8.710  1.00  0.00     0.168 CG0
ATOM     63  C   UNL     1      12.547 -10.094   9.975  1.00  0.00     0.041 C 
ATOM     64  G   UNL     1      12.692 -11.120   7.675  1.00  0.00     0.000 G0
ENDBRANCH  60  62
ENDBRANCH  56  58
ENDBRANCH  54  56
ENDBRANCH  52  54
ENDBRANCH  51  52
ENDBRANCH  50  51
ENDBRANCH  49  50
BRANCH  49  65
ATOM     65  C   UNL     1      11.481  -1.949   6.323  1.00  0.00     0.326 C 
ATOM     66  O   UNL     1      12.015  -0.936   6.753  1.00  0.00    -0.250 OA
BRANCH  65  67
ATOM     67  O   UNL     1      10.970  -2.855   7.186  1.00  0.00    -0.480 OA
ATOM     68  H   UNL     1      10.537  -2.302   7.872  1.00  0.00     0.296 HD
ENDBRANCH  65  67
ENDBRANCH  49  65
ENDBRANCH  47  49
ENDBRANCH  43  45
ENDBRANCH   1  43
BRANCH   1  69
ATOM     69  C   UNL     1       8.892  -3.904   1.413  1.00  0.00    -0.001 C 
ATOM     70  C   UNL     1       9.561  -5.049   1.187  1.00  0.00     0.001 C 
BRANCH  70  71
ATOM     71  C   UNL     1      10.745  -5.224   0.344  1.00  0.00    -0.055 C 
ATOM     72  C   UNL     1      10.842  -4.463  -0.767  1.00  0.00    -0.018 C 
ATOM     73  C   UNL     1      11.774  -6.234   0.779  1.00  0.00     0.044 C 
BRANCH  72  74
ATOM     74  C   UNL     1      11.945  -4.426  -1.816  1.00  0.00     0.038 C 
ATOM     75  C   UNL     1      12.552  -3.019  -1.785  1.00  0.00     0.015 C 
BRANCH  74  76
ATOM     76  C   UNL     1      11.344  -4.848  -3.189  1.00  0.00     0.128 C 
BRANCH  76  77
ATOM     77  O   UNL     1      11.252  -6.281  -3.265  1.00  0.00    -0.381 OA
ATOM     78  C   UNL     1      12.463  -6.949  -2.939  1.00  0.00     0.195 C 
ENDBRANCH  76  77
BRANCH  76  79
ATOM     79  C   UNL     1      10.009  -4.142  -3.536  1.00  0.00     0.068 C 
BRANCH  79  80
ATOM     80  C   UNL     1       8.816  -5.007  -3.862  1.00  0.00    -0.045 A 
ATOM     81  C   UNL     1       7.955  -5.459  -2.854  1.00  0.00     0.004 A 
ATOM     82  C   UNL     1       8.566  -5.396  -5.187  1.00  0.00     0.004 A 
ATOM     83  C   UNL     1       6.861  -6.270  -3.163  1.00  0.00     0.000 A 
ATOM     84  C   UNL     1       7.472  -6.208  -5.495  1.00  0.00     0.000 A 
ATOM     85  C   UNL     1       6.619  -6.644  -4.483  1.00  0.00     0.000 A 
ENDBRANCH  79  80
ENDBRANCH  76  79
ENDBRANCH  74  76
ENDBRANCH  72  74
ENDBRANCH  70  71
ENDBRANCH   1  69
TORSDOF 17
ENDMDL
MODEL 37
REMARK VINA RESULT:    -5.971      2.809      4.441
REMARK INTER + INTRA:         -25.343
REMARK INTER:                 -16.948
REMARK INTRA:                  -8.395
REMARK UNBOUND:                -7.505
REMARK SMILES C=C1C(=O)N[C@H](C)C(=O)N[C@@H](CC(C)C)C(=O)N[C@@H](C(=O)O)[C@H](C)C(=O)N[C@@H](CCCN=C(N)N)C(=O)N[C@@H](/C=C/C(C)=C/[C@H](C)[C@H](Cc2ccccc2)OC)[C@H](C)C(=O)N[C@@H](C(=O)O)CCC(=O)N1C
REMARK SMILES IDX 39 1 38 2 37 3 36 4 28 6 27 7 25 8 26 9 23 11 24 12 19 13
REMARK SMILES IDX 18 14 16 15 17 16 11 18 10 19 8 20 9 21 12 24 13 25 14 26
REMARK SMILES IDX 15 27 20 28 21 29 22 30 29 32 30 33 31 34 32 35 33 36 34 37
REMARK SMILES IDX 35 38 57 43 58 44 59 45 60 46 61 47 62 49 66 50 67 51 68 52
REMARK SMILES IDX 69 53 70 54 71 55 2 56 1 57 3 58 4 59 5 60 6 62 7 63 63 65
REMARK SMILES IDX 64 66 65 67 40 69 41 70 42 71 44 72 43 73 45 74 46 75 47 76
REMARK SMILES IDX 55 77 56 78 48 79 49 80 50 81 54 82 51 83 53 84 52 85
REMARK H PARENT 38 5 27 10 18 17 10 22 22 31 34 39 34 40 35 41 35 42 61 48
REMARK H PARENT 5 61 65 68
REMARK Flexibility Score:  369.900
ROOT
ATOM      1  C   UNL     1       6.132  -1.343   0.589  1.00  0.00     0.117 C 
ENDROOT
BRANCH   1   2
ATOM      2  N   UNL     1       6.652  -1.929   1.825  1.00  0.00    -0.347 N 
ATOM      3  O   UNL     1       6.476  -0.065   3.153  1.00  0.00    -0.273 OA
ATOM      4  C   UNL     1       6.697  -1.266   3.036  1.00  0.00     0.243 C 
ATOM      5  H   UNL     1       6.956  -2.891   1.826  1.00  0.00     0.164 HD
BRANCH   4   6
ATOM      6  C   UNL     1       7.212  -2.141   4.207  1.00  0.00     0.171 C 
BRANCH   6   7
ATOM      7  N   UNL     1       8.670  -1.998   4.353  1.00  0.00    -0.344 N 
ATOM      8  C   UNL     1       9.528  -2.889   3.747  1.00  0.00     0.226 C 
ATOM      9  O   UNL     1       9.131  -3.842   3.086  1.00  0.00    -0.275 OA
ATOM     10  H   UNL     1       9.034  -1.263   4.947  1.00  0.00     0.164 HD
BRANCH   8  11
ATOM     11  C   UNL     1      11.000  -2.575   3.947  1.00  0.00     0.109 C 
ATOM     12  C   UNL     1      11.158  -1.298   4.771  1.00  0.00     0.021 C 
BRANCH  11  13
ATOM     13  C   UNL     1      11.723  -3.810   4.519  1.00  0.00     0.204 C 
BRANCH  13  14
ATOM     14  N   UNL     1      12.086  -4.772   3.473  1.00  0.00    -0.340 N 
ATOM     15  C   UNL     1      11.863  -6.126   3.592  1.00  0.00     0.243 C 
ATOM     16  O   UNL     1      11.287  -6.618   4.561  1.00  0.00    -0.273 OA
ATOM     17  H   UNL     1      12.699  -4.452   2.718  1.00  0.00     0.164 HD
BRANCH  15  18
ATOM     18  C   UNL     1      12.513  -6.962   2.462  1.00  0.00     0.171 C 
BRANCH  18  19
ATOM     19  N   UNL     1      12.371  -8.365   2.845  1.00  0.00    -0.343 N 
ATOM     20  C   UNL     1      13.467  -9.188   3.019  1.00  0.00     0.242 CG0
ATOM     21  O   UNL     1      14.603  -8.816   2.732  1.00  0.00    -0.273 OA
ATOM     22  H   UNL     1      11.444  -8.752   2.981  1.00  0.00     0.164 HD
ATOM     23  G   UNL     1      13.124 -10.613   3.499  1.00  0.00     0.000 G0
ENDBRANCH  18  19
BRANCH  18  24
ATOM     24  C   UNL     1      11.836  -6.674   1.117  1.00  0.00     0.038 C 
BRANCH  24  25
ATOM     25  C   UNL     1      12.778  -6.727  -0.104  1.00  0.00    -0.015 C 
ATOM     26  C   UNL     1      12.898  -8.134  -0.690  1.00  0.00     0.007 C 
ATOM     27  C   UNL     1      14.165  -6.215   0.294  1.00  0.00     0.007 C 
ENDBRANCH  24  25
ENDBRANCH  18  24
ENDBRANCH  15  18
ENDBRANCH  13  14
BRANCH  13  28
ATOM     28  C   UNL     1      13.007  -3.460   5.278  1.00  0.00     0.327 C 
ATOM     29  O   UNL     1      13.980  -2.879   4.823  1.00  0.00    -0.250 OA
BRANCH  28  30
ATOM     30  O   UNL     1      13.037  -3.965   6.528  1.00  0.00    -0.480 OA
ATOM     31  H   UNL     1      13.124  -4.932   6.396  1.00  0.00     0.296 HD
ENDBRANCH  28  30
ENDBRANCH  13  28
ENDBRANCH  11  13
ENDBRANCH   8  11
ENDBRANCH   6   7
BRANCH   6  32
ATOM     32  C   UNL     1       6.490  -1.733   5.496  1.00  0.00     0.037 C 
BRANCH  32  33
ATOM     33  C   UNL     1       7.010  -2.501   6.719  1.00  0.00     0.026 C 
BRANCH  33  34
ATOM     34  C   UNL     1       6.516  -3.948   6.754  1.00  0.00     0.146 C 
BRANCH  34  35
ATOM     35  N   UNL     1       7.658  -4.838   6.598  1.00  0.00    -0.254 NA
ATOM     36  C   UNL     1       7.917  -5.675   7.532  1.00  0.00     0.185 C 
ATOM     37  N   UNL     1       8.964  -6.504   7.396  1.00  0.00    -0.370 N 
ATOM     38  N   UNL     1       7.270  -5.871   8.694  1.00  0.00    -0.370 N 
ATOM     39  H   UNL     1       9.497  -6.425   6.539  1.00  0.00     0.159 HD
ATOM     40  H   UNL     1       9.128  -7.296   7.993  1.00  0.00     0.159 HD
ATOM     41  H   UNL     1       7.653  -6.465   9.411  1.00  0.00     0.159 HD
ATOM     42  H   UNL     1       6.471  -5.306   8.938  1.00  0.00     0.159 HD
ENDBRANCH  34  35
ENDBRANCH  33  34
ENDBRANCH  32  33
ENDBRANCH   6  32
ENDBRANCH   4   6
ENDBRANCH   1   2
BRANCH   1  43
ATOM     43  C   UNL     1       4.605  -1.628   0.510  1.00  0.00     0.102 C 
ATOM     44  C   UNL     1       4.168  -2.262  -0.821  1.00  0.00     0.020 C 
BRANCH  43  45
ATOM     45  C   UNL     1       3.793  -0.390   0.905  1.00  0.00     0.225 C 
ATOM     46  O   UNL     1       4.112   0.751   0.583  1.00  0.00    -0.275 OA
ATOM     47  N   UNL     1       2.720  -0.625   1.733  1.00  0.00    -0.342 N 
ATOM     48  H   UNL     1       2.385  -1.569   1.862  1.00  0.00     0.164 HD
BRANCH  47  49
ATOM     49  C   UNL     1       1.832   0.460   2.163  1.00  0.00     0.192 C 
BRANCH  49  50
ATOM     50  C   UNL     1       1.409   0.233   3.616  1.00  0.00     0.047 C 
BRANCH  50  51
ATOM     51  C   UNL     1       2.500   0.651   4.612  1.00  0.00     0.103 C 
BRANCH  51  52
ATOM     52  C   UNL     1       2.009   1.724   5.583  1.00  0.00     0.226 C 
ATOM     53  O   UNL     1       1.630   1.399   6.710  1.00  0.00    -0.275 OA
BRANCH  52  54
ATOM     54  N   UNL     1       2.095   3.057   5.140  1.00  0.00    -0.311 N 
ATOM     55  C   UNL     1       3.091   3.978   5.702  1.00  0.00     0.153 C 
BRANCH  54  56
ATOM     56  C   UNL     1       1.239   3.554   4.143  1.00  0.00     0.102 C 
ATOM     57  C   UNL     1       1.640   4.025   2.951  1.00  0.00     0.043 C 
BRANCH  56  58
ATOM     58  C   UNL     1      -0.259   3.550   4.335  1.00  0.00     0.268 C 
ATOM     59  O   UNL     1      -1.046   3.210   3.462  1.00  0.00    -0.268 OA
ATOM     60  N   UNL     1      -0.641   3.903   5.608  1.00  0.00    -0.339 N 
ATOM     61  H   UNL     1       0.072   4.182   6.271  1.00  0.00     0.164 HD
BRANCH  60  62
ATOM     62  C   UNL     1      -2.042   3.905   6.028  1.00  0.00     0.168 CG0
ATOM     63  C   UNL     1      -2.333   2.739   6.965  1.00  0.00     0.041 C 
ATOM     64  G   UNL     1      -2.955   3.849   4.786  1.00  0.00     0.000 G0
ENDBRANCH  60  62
ENDBRANCH  56  58
ENDBRANCH  54  56
ENDBRANCH  52  54
ENDBRANCH  51  52
ENDBRANCH  50  51
ENDBRANCH  49  50
BRANCH  49  65
ATOM     65  C   UNL     1       0.580   0.552   1.277  1.00  0.00     0.326 C 
ATOM     66  O   UNL     1       0.531   0.281   0.086  1.00  0.00    -0.250 OA
BRANCH  65  67
ATOM     67  O   UNL     1      -0.518   1.031   1.901  1.00  0.00    -0.480 OA
ATOM     68  H   UNL     1      -1.119   1.271   1.162  1.00  0.00     0.296 HD
ENDBRANCH  65  67
ENDBRANCH  49  65
ENDBRANCH  47  49
ENDBRANCH  43  45
ENDBRANCH   1  43
BRANCH   1  69
ATOM     69  C   UNL     1       7.030  -1.844  -0.528  1.00  0.00    -0.001 C 
ATOM     70  C   UNL     1       7.603  -1.117  -1.504  1.00  0.00     0.001 C 
BRANCH  70  71
ATOM     71  C   UNL     1       8.485  -1.608  -2.564  1.00  0.00    -0.055 C 
ATOM     72  C   UNL     1       8.064  -2.664  -3.292  1.00  0.00    -0.018 C 
ATOM     73  C   UNL     1       9.796  -0.896  -2.773  1.00  0.00     0.044 C 
BRANCH  72  74
ATOM     74  C   UNL     1       8.757  -3.378  -4.444  1.00  0.00     0.038 C 
ATOM     75  C   UNL     1       8.111  -2.877  -5.742  1.00  0.00     0.015 C 
BRANCH  74  76
ATOM     76  C   UNL     1       8.655  -4.914  -4.215  1.00  0.00     0.128 C 
BRANCH  76  77
ATOM     77  O   UNL     1       8.392  -5.580  -5.461  1.00  0.00    -0.381 OA
ATOM     78  C   UNL     1       7.306  -6.495  -5.402  1.00  0.00     0.195 C 
ENDBRANCH  76  77
BRANCH  76  79
ATOM     79  C   UNL     1       9.863  -5.519  -3.455  1.00  0.00     0.068 C 
BRANCH  79  80
ATOM     80  C   UNL     1      10.490  -4.697  -2.355  1.00  0.00    -0.045 A 
ATOM     81  C   UNL     1      11.734  -4.079  -2.535  1.00  0.00     0.004 A 
ATOM     82  C   UNL     1       9.843  -4.562  -1.117  1.00  0.00     0.004 A 
ATOM     83  C   UNL     1      12.314  -3.332  -1.507  1.00  0.00     0.000 A 
ATOM     84  C   UNL     1      10.424  -3.815  -0.090  1.00  0.00     0.000 A 
ATOM     85  C   UNL     1      11.657  -3.199  -0.285  1.00  0.00     0.000 A 
ENDBRANCH  79  80
ENDBRANCH  76  79
ENDBRANCH  74  76
ENDBRANCH  72  74
ENDBRANCH  70  71
ENDBRANCH   1  69
TORSDOF 17
ENDMDL
MODEL 38
REMARK VINA RESULT:    -5.942      4.026     12.915
REMARK INTER + INTRA:         -25.258
REMARK INTER:                 -17.759
REMARK INTRA:                  -7.499
REMARK UNBOUND:                -7.505
REMARK SMILES C=C1C(=O)N[C@H](C)C(=O)N[C@@H](CC(C)C)C(=O)N[C@@H](C(=O)O)[C@H](C)C(=O)N[C@@H](CCCN=C(N)N)C(=O)N[C@@H](/C=C/C(C)=C/[C@H](C)[C@H](Cc2ccccc2)OC)[C@H](C)C(=O)N[C@@H](C(=O)O)CCC(=O)N1C
REMARK SMILES IDX 39 1 38 2 37 3 36 4 28 6 27 7 25 8 26 9 23 11 24 12 19 13
REMARK SMILES IDX 18 14 16 15 17 16 11 18 10 19 8 20 9 21 12 24 13 25 14 26
REMARK SMILES IDX 15 27 20 28 21 29 22 30 29 32 30 33 31 34 32 35 33 36 34 37
REMARK SMILES IDX 35 38 57 43 58 44 59 45 60 46 61 47 62 49 66 50 67 51 68 52
REMARK SMILES IDX 69 53 70 54 71 55 2 56 1 57 3 58 4 59 5 60 6 62 7 63 63 65
REMARK SMILES IDX 64 66 65 67 40 69 41 70 42 71 44 72 43 73 45 74 46 75 47 76
REMARK SMILES IDX 55 77 56 78 48 79 49 80 50 81 54 82 51 83 53 84 52 85
REMARK H PARENT 38 5 27 10 18 17 10 22 22 31 34 39 34 40 35 41 35 42 61 48
REMARK H PARENT 5 61 65 68
REMARK Flexibility Score:  369.900
ROOT
ATOM      1  C   UNL     1       6.741  -1.476   2.971  1.00  0.00     0.117 C 
ENDROOT
BRANCH   1   2
ATOM      2  N   UNL     1       6.222  -1.992   1.704  1.00  0.00    -0.347 N 
ATOM      3  O   UNL     1       7.501  -0.709   0.295  1.00  0.00    -0.273 OA
ATOM      4  C   UNL     1       6.711  -1.631   0.463  1.00  0.00     0.243 C 
ATOM      5  H   UNL     1       5.496  -2.692   1.716  1.00  0.00     0.164 HD
BRANCH   4   6
ATOM      6  C   UNL     1       6.045  -2.388  -0.714  1.00  0.00     0.171 C 
BRANCH   6   7
ATOM      7  N   UNL     1       5.846  -1.486  -1.859  1.00  0.00    -0.344 N 
ATOM      8  C   UNL     1       4.581  -1.073  -2.218  1.00  0.00     0.226 C 
ATOM      9  O   UNL     1       3.574  -1.445  -1.628  1.00  0.00    -0.275 OA
ATOM     10  H   UNL     1       6.648  -1.211  -2.412  1.00  0.00     0.164 HD
BRANCH   8  11
ATOM     11  C   UNL     1       4.547  -0.102  -3.385  1.00  0.00     0.109 C 
ATOM     12  C   UNL     1       3.523  -0.562  -4.422  1.00  0.00     0.021 C 
BRANCH  11  13
ATOM     13  C   UNL     1       4.342   1.334  -2.863  1.00  0.00     0.204 C 
BRANCH  13  14
ATOM     14  N   UNL     1       3.340   1.394  -1.793  1.00  0.00    -0.340 N 
ATOM     15  C   UNL     1       2.170   2.112  -1.904  1.00  0.00     0.243 C 
ATOM     16  O   UNL     1       1.854   2.706  -2.933  1.00  0.00    -0.273 OA
ATOM     17  H   UNL     1       3.607   1.053  -0.866  1.00  0.00     0.164 HD
BRANCH  15  18
ATOM     18  C   UNL     1       1.370   2.200  -0.580  1.00  0.00     0.171 C 
BRANCH  18  19
ATOM     19  N   UNL     1       0.038   1.668  -0.860  1.00  0.00    -0.343 N 
ATOM     20  C   UNL     1      -1.085   2.472  -0.849  1.00  0.00     0.242 CG0
ATOM     21  O   UNL     1      -1.035   3.641  -0.474  1.00  0.00    -0.273 OA
ATOM     22  H   UNL     1      -0.071   0.681  -1.063  1.00  0.00     0.164 HD
ATOM     23  G   UNL     1      -2.389   1.751  -1.246  1.00  0.00     0.000 G0
ENDBRANCH  18  19
BRANCH  18  24
ATOM     24  C   UNL     1       2.071   1.405   0.529  1.00  0.00     0.038 C 
BRANCH  24  25
ATOM     25  C   UNL     1       1.185   0.349   1.223  1.00  0.00    -0.015 C 
ATOM     26  C   UNL     1       0.531   0.880   2.498  1.00  0.00     0.007 C 
ATOM     27  C   UNL     1       2.022  -0.890   1.551  1.00  0.00     0.007 C 
ENDBRANCH  24  25
ENDBRANCH  18  24
ENDBRANCH  15  18
ENDBRANCH  13  14
BRANCH  13  28
ATOM     28  C   UNL     1       5.625   1.968  -2.318  1.00  0.00     0.327 C 
ATOM     29  O   UNL     1       5.694   2.907  -1.541  1.00  0.00    -0.250 OA
BRANCH  28  30
ATOM     30  O   UNL     1       6.743   1.461  -2.876  1.00  0.00    -0.480 OA
ATOM     31  H   UNL     1       6.546   0.507  -2.987  1.00  0.00     0.296 HD
ENDBRANCH  28  30
ENDBRANCH  13  28
ENDBRANCH  11  13
ENDBRANCH   8  11
ENDBRANCH   6   7
BRANCH   6  32
ATOM     32  C   UNL     1       6.921  -3.584  -1.104  1.00  0.00     0.037 C 
BRANCH  32  33
ATOM     33  C   UNL     1       6.406  -4.293  -2.364  1.00  0.00     0.026 C 
BRANCH  33  34
ATOM     34  C   UNL     1       7.365  -4.155  -3.547  1.00  0.00     0.146 C 
BRANCH  34  35
ATOM     35  N   UNL     1       6.960  -5.086  -4.591  1.00  0.00    -0.254 NA
ATOM     36  C   UNL     1       7.640  -6.159  -4.755  1.00  0.00     0.185 C 
ATOM     37  N   UNL     1       7.273  -7.026  -5.711  1.00  0.00    -0.370 N 
ATOM     38  N   UNL     1       8.726  -6.582  -4.083  1.00  0.00    -0.370 N 
ATOM     39  H   UNL     1       6.455  -6.782  -6.255  1.00  0.00     0.159 HD
ATOM     40  H   UNL     1       7.641  -7.959  -5.787  1.00  0.00     0.159 HD
ATOM     41  H   UNL     1       9.255  -7.378  -4.398  1.00  0.00     0.159 HD
ATOM     42  H   UNL     1       9.123  -6.021  -3.346  1.00  0.00     0.159 HD
ENDBRANCH  34  35
ENDBRANCH  33  34
ENDBRANCH  32  33
ENDBRANCH   6  32
ENDBRANCH   4   6
ENDBRANCH   1   2
BRANCH   1  43
ATOM     43  C   UNL     1       7.491  -2.625   3.703  1.00  0.00     0.102 C 
ATOM     44  C   UNL     1       6.742  -3.155   4.938  1.00  0.00     0.020 C 
BRANCH  43  45
ATOM     45  C   UNL     1       8.949  -2.243   3.978  1.00  0.00     0.225 C 
ATOM     46  O   UNL     1       9.769  -2.041   3.086  1.00  0.00    -0.275 OA
ATOM     47  N   UNL     1       9.319  -2.230   5.303  1.00  0.00    -0.342 N 
ATOM     48  H   UNL     1       8.608  -2.248   6.021  1.00  0.00     0.164 HD
BRANCH  47  49
ATOM     49  C   UNL     1      10.672  -1.849   5.717  1.00  0.00     0.192 C 
BRANCH  49  50
ATOM     50  C   UNL     1      11.394  -3.066   6.301  1.00  0.00     0.047 C 
BRANCH  50  51
ATOM     51  C   UNL     1      10.468  -4.283   6.435  1.00  0.00     0.103 C 
BRANCH  51  52
ATOM     52  C   UNL     1      11.040  -5.518   5.743  1.00  0.00     0.226 C 
ATOM     53  O   UNL     1      12.179  -5.481   5.272  1.00  0.00    -0.275 OA
BRANCH  52  54
ATOM     54  N   UNL     1      10.235  -6.672   5.754  1.00  0.00    -0.311 N 
ATOM     55  C   UNL     1       9.818  -7.316   4.501  1.00  0.00     0.153 C 
BRANCH  54  56
ATOM     56  C   UNL     1       9.806  -7.254   6.959  1.00  0.00     0.102 C 
ATOM     57  C   UNL     1       8.524  -7.385   7.334  1.00  0.00     0.043 C 
BRANCH  56  58
ATOM     58  C   UNL     1      10.800  -7.837   7.935  1.00  0.00     0.268 C 
ATOM     59  O   UNL     1      11.398  -7.165   8.764  1.00  0.00    -0.268 OA
ATOM     60  N   UNL     1      10.914  -9.204   7.839  1.00  0.00    -0.339 N 
ATOM     61  H   UNL     1      10.392  -9.686   7.117  1.00  0.00     0.164 HD
BRANCH  60  62
ATOM     62  C   UNL     1      11.774  -9.979   8.732  1.00  0.00     0.168 CG0
ATOM     63  C   UNL     1      13.142 -10.215   8.104  1.00  0.00     0.041 C 
ATOM     64  G   UNL     1      11.091 -11.319   9.074  1.00  0.00     0.000 G0
ENDBRANCH  60  62
ENDBRANCH  56  58
ENDBRANCH  54  56
ENDBRANCH  52  54
ENDBRANCH  51  52
ENDBRANCH  50  51
ENDBRANCH  49  50
BRANCH  49  65
ATOM     65  C   UNL     1      10.649  -0.722   6.762  1.00  0.00     0.326 C 
ATOM     66  O   UNL     1      10.680   0.475   6.516  1.00  0.00    -0.250 OA
BRANCH  65  67
ATOM     67  O   UNL     1      10.648  -1.143   8.046  1.00  0.00    -0.480 OA
ATOM     68  H   UNL     1      10.936  -0.351   8.549  1.00  0.00     0.296 HD
ENDBRANCH  65  67
ENDBRANCH  49  65
ENDBRANCH  47  49
ENDBRANCH  43  45
ENDBRANCH   1  43
BRANCH   1  69
ATOM     69  C   UNL     1       5.571  -0.803   3.666  1.00  0.00    -0.001 C 
ATOM     70  C   UNL     1       5.079   0.426   3.432  1.00  0.00     0.001 C 
BRANCH  70  71
ATOM     71  C   UNL     1       3.936   1.057   4.095  1.00  0.00    -0.055 C 
ATOM     72  C   UNL     1       3.683   2.352   3.814  1.00  0.00    -0.018 C 
ATOM     73  C   UNL     1       3.117   0.213   5.037  1.00  0.00     0.044 C 
BRANCH  72  74
ATOM     74  C   UNL     1       2.578   3.255   4.342  1.00  0.00     0.038 C 
ATOM     75  C   UNL     1       2.378   4.376   3.315  1.00  0.00     0.015 C 
BRANCH  74  76
ATOM     76  C   UNL     1       2.966   3.739   5.770  1.00  0.00     0.128 C 
BRANCH  76  77
ATOM     77  O   UNL     1       3.199   5.158   5.761  1.00  0.00    -0.381 OA
ATOM     78  C   UNL     1       2.829   5.805   6.971  1.00  0.00     0.195 C 
ENDBRANCH  76  77
BRANCH  76  79
ATOM     79  C   UNL     1       1.972   3.302   6.876  1.00  0.00     0.068 C 
BRANCH  79  80
ATOM     80  C   UNL     1       0.572   2.922   6.458  1.00  0.00    -0.045 A 
ATOM     81  C   UNL     1      -0.368   3.901   6.113  1.00  0.00     0.004 A 
ATOM     82  C   UNL     1       0.182   1.575   6.436  1.00  0.00     0.004 A 
ATOM     83  C   UNL     1      -1.666   3.542   5.741  1.00  0.00     0.000 A 
ATOM     84  C   UNL     1      -1.116   1.217   6.064  1.00  0.00     0.000 A 
ATOM     85  C   UNL     1      -2.039   2.200   5.716  1.00  0.00     0.000 A 
ENDBRANCH  79  80
ENDBRANCH  76  79
ENDBRANCH  74  76
ENDBRANCH  72  74
ENDBRANCH  70  71
ENDBRANCH   1  69
TORSDOF 17
ENDMDL
MODEL 39
REMARK VINA RESULT:    -5.940      2.990      3.963
REMARK INTER + INTRA:         -25.251
REMARK INTER:                 -18.861
REMARK INTRA:                  -6.391
REMARK UNBOUND:                -7.505
REMARK SMILES C=C1C(=O)N[C@H](C)C(=O)N[C@@H](CC(C)C)C(=O)N[C@@H](C(=O)O)[C@H](C)C(=O)N[C@@H](CCCN=C(N)N)C(=O)N[C@@H](/C=C/C(C)=C/[C@H](C)[C@H](Cc2ccccc2)OC)[C@H](C)C(=O)N[C@@H](C(=O)O)CCC(=O)N1C
REMARK SMILES IDX 39 1 38 2 37 3 36 4 28 6 27 7 25 8 26 9 23 11 24 12 19 13
REMARK SMILES IDX 18 14 16 15 17 16 11 18 10 19 8 20 9 21 12 24 13 25 14 26
REMARK SMILES IDX 15 27 20 28 21 29 22 30 29 32 30 33 31 34 32 35 33 36 34 37
REMARK SMILES IDX 35 38 57 43 58 44 59 45 60 46 61 47 62 49 66 50 67 51 68 52
REMARK SMILES IDX 69 53 70 54 71 55 2 56 1 57 3 58 4 59 5 60 6 62 7 63 63 65
REMARK SMILES IDX 64 66 65 67 40 69 41 70 42 71 44 72 43 73 45 74 46 75 47 76
REMARK SMILES IDX 55 77 56 78 48 79 49 80 50 81 54 82 51 83 53 84 52 85
REMARK H PARENT 38 5 27 10 18 17 10 22 22 31 34 39 34 40 35 41 35 42 61 48
REMARK H PARENT 5 61 65 68
REMARK Flexibility Score:  369.900
ROOT
ATOM      1  C   UNL     1       5.164  -1.218   3.363  1.00  0.00     0.117 C 
ENDROOT
BRANCH   1   2
ATOM      2  N   UNL     1       5.962  -2.420   3.608  1.00  0.00    -0.347 N 
ATOM      3  O   UNL     1       7.943  -1.382   4.123  1.00  0.00    -0.273 OA
ATOM      4  C   UNL     1       7.268  -2.403   4.059  1.00  0.00     0.243 C 
ATOM      5  H   UNL     1       5.536  -3.328   3.494  1.00  0.00     0.164 HD
BRANCH   4   6
ATOM      6  C   UNL     1       7.855  -3.814   4.320  1.00  0.00     0.171 C 
BRANCH   6   7
ATOM      7  N   UNL     1       8.924  -4.113   3.353  1.00  0.00    -0.344 N 
ATOM      8  C   UNL     1       8.959  -5.324   2.697  1.00  0.00     0.226 C 
ATOM      9  O   UNL     1       8.133  -6.207   2.896  1.00  0.00    -0.275 OA
ATOM     10  H   UNL     1       9.662  -3.435   3.212  1.00  0.00     0.164 HD
BRANCH   8  11
ATOM     11  C   UNL     1      10.090  -5.459   1.693  1.00  0.00     0.109 C 
ATOM     12  C   UNL     1      10.185  -4.198   0.835  1.00  0.00     0.021 C 
BRANCH  11  13
ATOM     13  C   UNL     1      11.392  -5.846   2.423  1.00  0.00     0.204 C 
BRANCH  13  14
ATOM     14  N   UNL     1      11.188  -6.947   3.369  1.00  0.00    -0.340 N 
ATOM     15  C   UNL     1      11.882  -7.053   4.555  1.00  0.00     0.243 C 
ATOM     16  O   UNL     1      12.681  -6.197   4.931  1.00  0.00    -0.273 OA
ATOM     17  H   UNL     1      10.656  -7.762   3.051  1.00  0.00     0.164 HD
BRANCH  15  18
ATOM     18  C   UNL     1      11.653  -8.397   5.288  1.00  0.00     0.171 C 
BRANCH  18  19
ATOM     19  N   UNL     1      11.066  -9.312   4.310  1.00  0.00    -0.343 N 
ATOM     20  C   UNL     1       9.888  -9.988   4.561  1.00  0.00     0.242 CG0
ATOM     21  O   UNL     1       9.349  -9.955   5.665  1.00  0.00    -0.273 OA
ATOM     22  H   UNL     1      11.537  -9.463   3.425  1.00  0.00     0.164 HD
ATOM     23  G   UNL     1       9.383 -10.846   3.383  1.00  0.00     0.000 G0
ENDBRANCH  18  19
BRANCH  18  24
ATOM     24  C   UNL     1      12.974  -8.942   5.845  1.00  0.00     0.038 C 
BRANCH  24  25
ATOM     25  C   UNL     1      13.067  -8.955   7.385  1.00  0.00    -0.015 C 
ATOM     26  C   UNL     1      11.705  -8.773   8.055  1.00  0.00     0.007 C 
ATOM     27  C   UNL     1      14.023  -7.854   7.853  1.00  0.00     0.007 C 
ENDBRANCH  24  25
ENDBRANCH  18  24
ENDBRANCH  15  18
ENDBRANCH  13  14
BRANCH  13  28
ATOM     28  C   UNL     1      12.515  -6.269   1.470  1.00  0.00     0.327 C 
ATOM     29  O   UNL     1      12.522  -7.260   0.757  1.00  0.00    -0.250 OA
BRANCH  28  30
ATOM     30  O   UNL     1      13.608  -5.485   1.561  1.00  0.00    -0.480 OA
ATOM     31  H   UNL     1      13.563  -4.915   0.766  1.00  0.00     0.296 HD
ENDBRANCH  28  30
ENDBRANCH  13  28
ENDBRANCH  11  13
ENDBRANCH   8  11
ENDBRANCH   6   7
BRANCH   6  32
ATOM     32  C   UNL     1       8.383  -3.880   5.757  1.00  0.00     0.037 C 
BRANCH  32  33
ATOM     33  C   UNL     1       7.311  -3.498   6.787  1.00  0.00     0.026 C 
BRANCH  33  34
ATOM     34  C   UNL     1       6.785  -4.707   7.561  1.00  0.00     0.146 C 
BRANCH  34  35
ATOM     35  N   UNL     1       7.557  -5.881   7.179  1.00  0.00    -0.254 NA
ATOM     36  C   UNL     1       7.501  -6.923   7.923  1.00  0.00     0.185 C 
ATOM     37  N   UNL     1       8.204  -8.012   7.578  1.00  0.00    -0.370 N 
ATOM     38  N   UNL     1       6.809  -7.111   9.061  1.00  0.00    -0.370 N 
ATOM     39  H   UNL     1       8.745  -7.952   6.724  1.00  0.00     0.159 HD
ATOM     40  H   UNL     1       8.079  -8.913   8.006  1.00  0.00     0.159 HD
ATOM     41  H   UNL     1       6.956  -7.928   9.631  1.00  0.00     0.159 HD
ATOM     42  H   UNL     1       6.247  -6.369   9.448  1.00  0.00     0.159 HD
ENDBRANCH  34  35
ENDBRANCH  33  34
ENDBRANCH  32  33
ENDBRANCH   6  32
ENDBRANCH   4   6
ENDBRANCH   1   2
BRANCH   1  43
ATOM     43  C   UNL     1       4.021  -1.160   4.417  1.00  0.00     0.102 C 
ATOM     44  C   UNL     1       2.620  -1.349   3.811  1.00  0.00     0.020 C 
BRANCH  43  45
ATOM     45  C   UNL     1       4.152   0.083   5.302  1.00  0.00     0.225 C 
ATOM     46  O   UNL     1       5.099   0.269   6.061  1.00  0.00    -0.275 OA
ATOM     47  N   UNL     1       3.084   0.950   5.267  1.00  0.00    -0.342 N 
ATOM     48  H   UNL     1       2.393   0.864   4.535  1.00  0.00     0.164 HD
BRANCH  47  49
ATOM     49  C   UNL     1       3.086   2.199   6.035  1.00  0.00     0.192 C 
BRANCH  49  50
ATOM     50  C   UNL     1       1.658   2.535   6.475  1.00  0.00     0.047 C 
BRANCH  50  51
ATOM     51  C   UNL     1       0.803   3.067   5.317  1.00  0.00     0.103 C 
BRANCH  51  52
ATOM     52  C   UNL     1      -0.237   2.048   4.856  1.00  0.00     0.226 C 
ATOM     53  O   UNL     1       0.131   0.947   4.439  1.00  0.00    -0.275 OA
BRANCH  52  54
ATOM     54  N   UNL     1      -1.586   2.414   5.012  1.00  0.00    -0.311 N 
ATOM     55  C   UNL     1      -2.312   3.104   3.937  1.00  0.00     0.153 C 
BRANCH  54  56
ATOM     56  C   UNL     1      -2.290   2.131   6.194  1.00  0.00     0.102 C 
ATOM     57  C   UNL     1      -2.748   0.917   6.544  1.00  0.00     0.043 C 
BRANCH  56  58
ATOM     58  C   UNL     1      -2.552   3.210   7.218  1.00  0.00     0.268 C 
ATOM     59  O   UNL     1      -1.665   3.888   7.719  1.00  0.00    -0.268 OA
ATOM     60  N   UNL     1      -3.889   3.395   7.477  1.00  0.00    -0.339 N 
ATOM     61  H   UNL     1      -4.562   2.785   7.029  1.00  0.00     0.164 HD
BRANCH  60  62
ATOM     62  C   UNL     1      -4.369   4.432   8.390  1.00  0.00     0.168 CG0
ATOM     63  C   UNL     1      -4.431   3.914   9.822  1.00  0.00     0.041 C 
ATOM     64  G   UNL     1      -5.756   4.926   7.929  1.00  0.00     0.000 G0
ENDBRANCH  60  62
ENDBRANCH  56  58
ENDBRANCH  54  56
ENDBRANCH  52  54
ENDBRANCH  51  52
ENDBRANCH  50  51
ENDBRANCH  49  50
BRANCH  49  65
ATOM     65  C   UNL     1       3.654   3.368   5.215  1.00  0.00     0.326 C 
ATOM     66  O   UNL     1       3.898   4.486   5.646  1.00  0.00    -0.250 OA
BRANCH  65  67
ATOM     67  O   UNL     1       3.828   3.103   3.902  1.00  0.00    -0.480 OA
ATOM     68  H   UNL     1       4.710   2.672   3.868  1.00  0.00     0.296 HD
ENDBRANCH  65  67
ENDBRANCH  49  65
ENDBRANCH  47  49
ENDBRANCH  43  45
ENDBRANCH   1  43
BRANCH   1  69
ATOM     69  C   UNL     1       4.803  -1.243   1.889  1.00  0.00    -0.001 C 
ATOM     70  C   UNL     1       5.460  -1.868   0.897  1.00  0.00     0.001 C 
BRANCH  70  71
ATOM     71  C   UNL     1       5.089  -1.902  -0.519  1.00  0.00    -0.055 C 
ATOM     72  C   UNL     1       5.587  -2.903  -1.275  1.00  0.00    -0.018 C 
ATOM     73  C   UNL     1       4.172  -0.822  -1.031  1.00  0.00     0.044 C 
BRANCH  72  74
ATOM     74  C   UNL     1       5.375  -3.191  -2.754  1.00  0.00     0.038 C 
ATOM     75  C   UNL     1       4.355  -4.332  -2.852  1.00  0.00     0.015 C 
BRANCH  74  76
ATOM     76  C   UNL     1       6.755  -3.491  -3.409  1.00  0.00     0.128 C 
BRANCH  76  77
ATOM     77  O   UNL     1       6.899  -2.732  -4.622  1.00  0.00    -0.381 OA
ATOM     78  C   UNL     1       6.799  -1.327  -4.431  1.00  0.00     0.195 C 
ENDBRANCH  76  77
BRANCH  76  79
ATOM     79  C   UNL     1       7.959  -3.320  -2.449  1.00  0.00     0.068 C 
BRANCH  79  80
ATOM     80  C   UNL     1       9.223  -4.087  -2.754  1.00  0.00    -0.045 A 
ATOM     81  C   UNL     1       9.183  -5.457  -3.046  1.00  0.00     0.004 A 
ATOM     82  C   UNL     1      10.468  -3.441  -2.722  1.00  0.00     0.004 A 
ATOM     83  C   UNL     1      10.358  -6.162  -3.314  1.00  0.00     0.000 A 
ATOM     84  C   UNL     1      11.642  -4.147  -2.989  1.00  0.00     0.000 A 
ATOM     85  C   UNL     1      11.587  -5.507  -3.286  1.00  0.00     0.000 A 
ENDBRANCH  79  80
ENDBRANCH  76  79
ENDBRANCH  74  76
ENDBRANCH  72  74
ENDBRANCH  70  71
ENDBRANCH   1  69
TORSDOF 17
ENDMDL
MODEL 40
REMARK VINA RESULT:    -5.927      2.886      5.279
REMARK INTER + INTRA:         -25.214
REMARK INTER:                 -17.789
REMARK INTRA:                  -7.426
REMARK UNBOUND:                -7.505
REMARK SMILES C=C1C(=O)N[C@H](C)C(=O)N[C@@H](CC(C)C)C(=O)N[C@@H](C(=O)O)[C@H](C)C(=O)N[C@@H](CCCN=C(N)N)C(=O)N[C@@H](/C=C/C(C)=C/[C@H](C)[C@H](Cc2ccccc2)OC)[C@H](C)C(=O)N[C@@H](C(=O)O)CCC(=O)N1C
REMARK SMILES IDX 39 1 38 2 37 3 36 4 28 6 27 7 25 8 26 9 23 11 24 12 19 13
REMARK SMILES IDX 18 14 16 15 17 16 11 18 10 19 8 20 9 21 12 24 13 25 14 26
REMARK SMILES IDX 15 27 20 28 21 29 22 30 29 32 30 33 31 34 32 35 33 36 34 37
REMARK SMILES IDX 35 38 57 43 58 44 59 45 60 46 61 47 62 49 66 50 67 51 68 52
REMARK SMILES IDX 69 53 70 54 71 55 2 56 1 57 3 58 4 59 5 60 6 62 7 63 63 65
REMARK SMILES IDX 64 66 65 67 40 69 41 70 42 71 44 72 43 73 45 74 46 75 47 76
REMARK SMILES IDX 55 77 56 78 48 79 49 80 50 81 54 82 51 83 53 84 52 85
REMARK H PARENT 38 5 27 10 18 17 10 22 22 31 34 39 34 40 35 41 35 42 61 48
REMARK H PARENT 5 61 65 68
REMARK Flexibility Score:  369.900
ROOT
ATOM      1  C   UNL     1       6.378  -0.691   3.181  1.00  0.00     0.117 C 
ENDROOT
BRANCH   1   2
ATOM      2  N   UNL     1       7.443  -1.689   3.073  1.00  0.00    -0.347 N 
ATOM      3  O   UNL     1       9.104  -0.296   2.319  1.00  0.00    -0.273 OA
ATOM      4  C   UNL     1       8.749  -1.393   2.737  1.00  0.00     0.243 C 
ATOM      5  H   UNL     1       7.243  -2.651   3.303  1.00  0.00     0.164 HD
BRANCH   4   6
ATOM      6  C   UNL     1       9.697  -2.619   2.779  1.00  0.00     0.171 C 
BRANCH   6   7
ATOM      7  N   UNL     1       9.378  -3.477   3.932  1.00  0.00    -0.344 N 
ATOM      8  C   UNL     1      10.300  -3.677   4.935  1.00  0.00     0.226 C 
ATOM      9  O   UNL     1      11.420  -3.181   4.911  1.00  0.00    -0.275 OA
ATOM     10  H   UNL     1       8.487  -3.958   3.954  1.00  0.00     0.164 HD
BRANCH   8  11
ATOM     11  C   UNL     1       9.802  -4.541   6.080  1.00  0.00     0.109 C 
ATOM     12  C   UNL     1       8.277  -4.466   6.170  1.00  0.00     0.021 C 
BRANCH  11  13
ATOM     13  C   UNL     1      10.374  -5.966   5.946  1.00  0.00     0.204 C 
BRANCH  13  14
ATOM     14  N   UNL     1      11.285  -6.089   4.803  1.00  0.00    -0.340 N 
ATOM     15  C   UNL     1      10.963  -6.793   3.662  1.00  0.00     0.243 C 
ATOM     16  O   UNL     1       9.863  -7.317   3.498  1.00  0.00    -0.273 OA
ATOM     17  H   UNL     1      12.261  -5.811   4.934  1.00  0.00     0.164 HD
BRANCH  15  18
ATOM     18  C   UNL     1      12.151  -6.960   2.684  1.00  0.00     0.171 C 
BRANCH  18  19
ATOM     19  N   UNL     1      12.536  -8.370   2.729  1.00  0.00    -0.343 N 
ATOM     20  C   UNL     1      13.229  -8.902   3.799  1.00  0.00     0.242 CG0
ATOM     21  O   UNL     1      13.671  -8.189   4.698  1.00  0.00    -0.273 OA
ATOM     22  H   UNL     1      12.294  -8.977   1.954  1.00  0.00     0.164 HD
ATOM     23  G   UNL     1      13.476 -10.421   3.706  1.00  0.00     0.000 G0
ENDBRANCH  18  19
BRANCH  18  24
ATOM     24  C   UNL     1      11.750  -6.533   1.266  1.00  0.00     0.038 C 
BRANCH  24  25
ATOM     25  C   UNL     1      12.908  -5.984   0.407  1.00  0.00    -0.015 C 
ATOM     26  C   UNL     1      12.480  -4.806  -0.469  1.00  0.00     0.007 C 
ATOM     27  C   UNL     1      13.471  -7.102  -0.474  1.00  0.00     0.007 C 
ENDBRANCH  24  25
ENDBRANCH  18  24
ENDBRANCH  15  18
ENDBRANCH  13  14
BRANCH  13  28
ATOM     28  C   UNL     1      11.140  -6.429   7.189  1.00  0.00     0.327 C 
ATOM     29  O   UNL     1      10.683  -6.555   8.314  1.00  0.00    -0.250 OA
BRANCH  28  30
ATOM     30  O   UNL     1      12.460  -6.591   6.966  1.00  0.00    -0.480 OA
ATOM     31  H   UNL     1      12.809  -5.677   6.911  1.00  0.00     0.296 HD
ENDBRANCH  28  30
ENDBRANCH  13  28
ENDBRANCH  11  13
ENDBRANCH   8  11
ENDBRANCH   6   7
BRANCH   6  32
ATOM     32  C   UNL     1       9.570  -3.399   1.465  1.00  0.00     0.037 C 
BRANCH  32  33
ATOM     33  C   UNL     1       8.583  -4.569   1.579  1.00  0.00     0.026 C 
BRANCH  33  34
ATOM     34  C   UNL     1       8.098  -5.061   0.215  1.00  0.00     0.146 C 
BRANCH  34  35
ATOM     35  N   UNL     1       6.650  -4.922   0.153  1.00  0.00    -0.254 NA
ATOM     36  C   UNL     1       6.020  -5.475  -0.815  1.00  0.00     0.185 C 
ATOM     37  N   UNL     1       4.685  -5.358  -0.879  1.00  0.00    -0.370 N 
ATOM     38  N   UNL     1       6.510  -6.197  -1.839  1.00  0.00    -0.370 N 
ATOM     39  H   UNL     1       4.239  -4.836  -0.136  1.00  0.00     0.159 HD
ATOM     40  H   UNL     1       4.108  -5.900  -1.499  1.00  0.00     0.159 HD
ATOM     41  H   UNL     1       5.927  -6.462  -2.616  1.00  0.00     0.159 HD
ATOM     42  H   UNL     1       7.502  -6.353  -1.927  1.00  0.00     0.159 HD
ENDBRANCH  34  35
ENDBRANCH  33  34
ENDBRANCH  32  33
ENDBRANCH   6  32
ENDBRANCH   4   6
ENDBRANCH   1   2
BRANCH   1  43
ATOM     43  C   UNL     1       5.608  -0.929   4.511  1.00  0.00     0.102 C 
ATOM     44  C   UNL     1       4.259  -1.643   4.319  1.00  0.00     0.020 C 
BRANCH  43  45
ATOM     45  C   UNL     1       5.517   0.360   5.333  1.00  0.00     0.225 C 
ATOM     46  O   UNL     1       6.062   0.501   6.424  1.00  0.00    -0.275 OA
ATOM     47  N   UNL     1       4.699   1.337   4.813  1.00  0.00    -0.342 N 
ATOM     48  H   UNL     1       4.385   1.269   3.855  1.00  0.00     0.164 HD
BRANCH  47  49
ATOM     49  C   UNL     1       4.544   2.638   5.472  1.00  0.00     0.192 C 
BRANCH  49  50
ATOM     50  C   UNL     1       3.076   2.849   5.852  1.00  0.00     0.047 C 
BRANCH  50  51
ATOM     51  C   UNL     1       2.215   1.614   5.558  1.00  0.00     0.103 C 
BRANCH  51  52
ATOM     52  C   UNL     1       1.248   1.852   4.400  1.00  0.00     0.226 C 
ATOM     53  O   UNL     1       0.605   2.902   4.348  1.00  0.00    -0.275 OA
BRANCH  52  54
ATOM     54  N   UNL     1       1.210   0.860   3.402  1.00  0.00    -0.311 N 
ATOM     55  C   UNL     1       0.898  -0.536   3.735  1.00  0.00     0.153 C 
BRANCH  54  56
ATOM     56  C   UNL     1       1.461   1.168   2.054  1.00  0.00     0.102 C 
ATOM     57  C   UNL     1       2.671   1.450   1.543  1.00  0.00     0.043 C 
BRANCH  56  58
ATOM     58  C   UNL     1       0.345   1.157   1.036  1.00  0.00     0.268 C 
ATOM     59  O   UNL     1       0.333   0.414   0.064  1.00  0.00    -0.268 OA
ATOM     60  N   UNL     1      -0.680   2.018   1.349  1.00  0.00    -0.339 N 
ATOM     61  H   UNL     1      -0.588   2.608   2.167  1.00  0.00     0.164 HD
BRANCH  60  62
ATOM     62  C   UNL     1      -1.887   2.121   0.531  1.00  0.00     0.168 CG0
ATOM     63  C   UNL     1      -1.743   3.211  -0.524  1.00  0.00     0.041 C 
ATOM     64  G   UNL     1      -3.104   2.396   1.438  1.00  0.00     0.000 G0
ENDBRANCH  60  62
ENDBRANCH  56  58
ENDBRANCH  54  56
ENDBRANCH  52  54
ENDBRANCH  51  52
ENDBRANCH  50  51
ENDBRANCH  49  50
BRANCH  49  65
ATOM     65  C   UNL     1       5.007   3.790   4.568  1.00  0.00     0.326 C 
ATOM     66  O   UNL     1       5.281   4.921   4.942  1.00  0.00    -0.250 OA
BRANCH  65  67
ATOM     67  O   UNL     1       5.044   3.493   3.250  1.00  0.00    -0.480 OA
ATOM     68  H   UNL     1       4.458   2.710   3.173  1.00  0.00     0.296 HD
ENDBRANCH  65  67
ENDBRANCH  49  65
ENDBRANCH  47  49
ENDBRANCH  43  45
ENDBRANCH   1  43
BRANCH   1  69
ATOM     69  C   UNL     1       5.613  -0.745   1.871  1.00  0.00    -0.001 C 
ATOM     70  C   UNL     1       5.803  -1.596   0.848  1.00  0.00     0.001 C 
BRANCH  70  71
ATOM     71  C   UNL     1       5.044  -1.652  -0.403  1.00  0.00    -0.055 C 
ATOM     72  C   UNL     1       5.739  -1.771  -1.554  1.00  0.00    -0.018 C 
ATOM     73  C   UNL     1       3.542  -1.581  -0.317  1.00  0.00     0.044 C 
BRANCH  72  74
ATOM     74  C   UNL     1       5.226  -1.856  -2.985  1.00  0.00     0.038 C 
ATOM     75  C   UNL     1       4.449  -3.172  -3.110  1.00  0.00     0.015 C 
BRANCH  74  76
ATOM     76  C   UNL     1       6.432  -1.715  -3.959  1.00  0.00     0.128 C 
BRANCH  76  77
ATOM     77  O   UNL     1       6.441  -0.401  -4.543  1.00  0.00    -0.381 OA
ATOM     78  C   UNL     1       6.217   0.643  -3.604  1.00  0.00     0.195 C 
ENDBRANCH  76  77
BRANCH  76  79
ATOM     79  C   UNL     1       7.796  -2.101  -3.332  1.00  0.00     0.068 C 
BRANCH  79  80
ATOM     80  C   UNL     1       8.330  -3.487  -3.601  1.00  0.00    -0.045 A 
ATOM     81  C   UNL     1       7.798  -4.279  -4.627  1.00  0.00     0.004 A 
ATOM     82  C   UNL     1       9.356  -4.017  -2.803  1.00  0.00     0.004 A 
ATOM     83  C   UNL     1       8.288  -5.566  -4.860  1.00  0.00     0.000 A 
ATOM     84  C   UNL     1       9.845  -5.304  -3.037  1.00  0.00     0.000 A 
ATOM     85  C   UNL     1       9.312  -6.077  -4.066  1.00  0.00     0.000 A 
ENDBRANCH  79  80
ENDBRANCH  76  79
ENDBRANCH  74  76
ENDBRANCH  72  74
ENDBRANCH  70  71
ENDBRANCH   1  69
TORSDOF 17
ENDMDL
MODEL 41
REMARK VINA RESULT:    -5.925      3.469      7.483
REMARK INTER + INTRA:         -25.208
REMARK INTER:                 -16.612
REMARK INTRA:                  -8.596
REMARK UNBOUND:                -7.505
REMARK SMILES C=C1C(=O)N[C@H](C)C(=O)N[C@@H](CC(C)C)C(=O)N[C@@H](C(=O)O)[C@H](C)C(=O)N[C@@H](CCCN=C(N)N)C(=O)N[C@@H](/C=C/C(C)=C/[C@H](C)[C@H](Cc2ccccc2)OC)[C@H](C)C(=O)N[C@@H](C(=O)O)CCC(=O)N1C
REMARK SMILES IDX 39 1 38 2 37 3 36 4 28 6 27 7 25 8 26 9 23 11 24 12 19 13
REMARK SMILES IDX 18 14 16 15 17 16 11 18 10 19 8 20 9 21 12 24 13 25 14 26
REMARK SMILES IDX 15 27 20 28 21 29 22 30 29 32 30 33 31 34 32 35 33 36 34 37
REMARK SMILES IDX 35 38 57 43 58 44 59 45 60 46 61 47 62 49 66 50 67 51 68 52
REMARK SMILES IDX 69 53 70 54 71 55 2 56 1 57 3 58 4 59 5 60 6 62 7 63 63 65
REMARK SMILES IDX 64 66 65 67 40 69 41 70 42 71 44 72 43 73 45 74 46 75 47 76
REMARK SMILES IDX 55 77 56 78 48 79 49 80 50 81 54 82 51 83 53 84 52 85
REMARK H PARENT 38 5 27 10 18 17 10 22 22 31 34 39 34 40 35 41 35 42 61 48
REMARK H PARENT 5 61 65 68
REMARK Flexibility Score:  369.900
ROOT
ATOM      1  C   UNL     1       6.594  -2.845   3.890  1.00  0.00     0.117 C 
ENDROOT
BRANCH   1   2
ATOM      2  N   UNL     1       6.587  -2.038   2.669  1.00  0.00    -0.347 N 
ATOM      3  O   UNL     1       6.653  -3.761   1.154  1.00  0.00    -0.273 OA
ATOM      4  C   UNL     1       6.524  -2.565   1.394  1.00  0.00     0.243 C 
ATOM      5  H   UNL     1       6.577  -1.032   2.742  1.00  0.00     0.164 HD
BRANCH   4   6
ATOM      6  C   UNL     1       6.442  -1.492   0.279  1.00  0.00     0.171 C 
BRANCH   6   7
ATOM      7  N   UNL     1       6.152  -2.120  -1.020  1.00  0.00    -0.344 N 
ATOM      8  C   UNL     1       7.148  -2.282  -1.959  1.00  0.00     0.226 C 
ATOM      9  O   UNL     1       8.297  -1.899  -1.776  1.00  0.00    -0.275 OA
ATOM     10  H   UNL     1       5.200  -2.388  -1.234  1.00  0.00     0.164 HD
BRANCH   8  11
ATOM     11  C   UNL     1       6.704  -2.995  -3.224  1.00  0.00     0.109 C 
ATOM     12  C   UNL     1       7.110  -2.185  -4.455  1.00  0.00     0.021 C 
BRANCH  11  13
ATOM     13  C   UNL     1       7.214  -4.450  -3.209  1.00  0.00     0.204 C 
BRANCH  13  14
ATOM     14  N   UNL     1       8.554  -4.559  -2.623  1.00  0.00    -0.340 N 
ATOM     15  C   UNL     1       9.498  -5.455  -3.075  1.00  0.00     0.243 C 
ATOM     16  O   UNL     1       9.304  -6.187  -4.044  1.00  0.00    -0.273 OA
ATOM     17  H   UNL     1       8.726  -4.093  -1.728  1.00  0.00     0.164 HD
BRANCH  15  18
ATOM     18  C   UNL     1      10.756  -5.535  -2.175  1.00  0.00     0.171 C 
BRANCH  18  19
ATOM     19  N   UNL     1      11.884  -5.826  -3.057  1.00  0.00    -0.343 N 
ATOM     20  C   UNL     1      12.661  -6.958  -2.898  1.00  0.00     0.242 CG0
ATOM     21  O   UNL     1      12.523  -7.701  -1.930  1.00  0.00    -0.273 OA
ATOM     22  H   UNL     1      12.111  -5.179  -3.805  1.00  0.00     0.164 HD
ATOM     23  G   UNL     1      13.755  -7.135  -3.971  1.00  0.00     0.000 G0
ENDBRANCH  18  19
BRANCH  18  24
ATOM     24  C   UNL     1      10.962  -4.219  -1.415  1.00  0.00     0.038 C 
BRANCH  24  25
ATOM     25  C   UNL     1      11.174  -4.380   0.106  1.00  0.00    -0.015 C 
ATOM     26  C   UNL     1      11.022  -5.829   0.568  1.00  0.00     0.007 C 
ATOM     27  C   UNL     1      10.183  -3.491   0.861  1.00  0.00     0.007 C 
ENDBRANCH  24  25
ENDBRANCH  18  24
ENDBRANCH  15  18
ENDBRANCH  13  14
BRANCH  13  28
ATOM     28  C   UNL     1       6.300  -5.402  -2.432  1.00  0.00     0.327 C 
ATOM     29  O   UNL     1       5.503  -5.089  -1.561  1.00  0.00    -0.250 OA
BRANCH  28  30
ATOM     30  O   UNL     1       6.529  -6.701  -2.712  1.00  0.00    -0.480 OA
ATOM     31  H   UNL     1       7.494  -6.747  -2.875  1.00  0.00     0.296 HD
ENDBRANCH  28  30
ENDBRANCH  13  28
ENDBRANCH  11  13
ENDBRANCH   8  11
ENDBRANCH   6   7
BRANCH   6  32
ATOM     32  C   UNL     1       5.360  -0.469   0.644  1.00  0.00     0.037 C 
BRANCH  32  33
ATOM     33  C   UNL     1       5.221   0.631  -0.418  1.00  0.00     0.026 C 
BRANCH  33  34
ATOM     34  C   UNL     1       5.570   2.017   0.125  1.00  0.00     0.146 C 
BRANCH  34  35
ATOM     35  N   UNL     1       4.375   2.606   0.714  1.00  0.00    -0.254 NA
ATOM     36  C   UNL     1       4.397   2.932   1.952  1.00  0.00     0.185 C 
ATOM     37  N   UNL     1       3.303   3.480   2.504  1.00  0.00    -0.370 N 
ATOM     38  N   UNL     1       5.398   2.807   2.842  1.00  0.00    -0.370 N 
ATOM     39  H   UNL     1       2.507   3.618   1.894  1.00  0.00     0.159 HD
ATOM     40  H   UNL     1       3.296   3.918   3.409  1.00  0.00     0.159 HD
ATOM     41  H   UNL     1       5.247   2.971   3.823  1.00  0.00     0.159 HD
ATOM     42  H   UNL     1       6.277   2.395   2.569  1.00  0.00     0.159 HD
ENDBRANCH  34  35
ENDBRANCH  33  34
ENDBRANCH  32  33
ENDBRANCH   6  32
ENDBRANCH   4   6
ENDBRANCH   1   2
BRANCH   1  43
ATOM     43  C   UNL     1       5.990  -1.999   5.047  1.00  0.00     0.102 C 
ATOM     44  C   UNL     1       5.189  -2.832   6.061  1.00  0.00     0.020 C 
BRANCH  43  45
ATOM     45  C   UNL     1       5.231  -0.785   4.502  1.00  0.00     0.225 C 
ATOM     46  O   UNL     1       5.786   0.256   4.163  1.00  0.00    -0.275 OA
ATOM     47  N   UNL     1       3.859  -0.895   4.502  1.00  0.00    -0.342 N 
ATOM     48  H   UNL     1       3.430  -1.800   4.637  1.00  0.00     0.164 HD
BRANCH  47  49
ATOM     49  C   UNL     1       3.005   0.174   3.976  1.00  0.00     0.192 C 
BRANCH  49  50
ATOM     50  C   UNL     1       1.950   0.549   5.020  1.00  0.00     0.047 C 
BRANCH  50  51
ATOM     51  C   UNL     1       2.208   1.929   5.639  1.00  0.00     0.103 C 
BRANCH  51  52
ATOM     52  C   UNL     1       1.043   2.395   6.510  1.00  0.00     0.226 C 
ATOM     53  O   UNL     1       0.898   1.922   7.639  1.00  0.00    -0.275 OA
BRANCH  52  54
ATOM     54  N   UNL     1       0.232   3.415   5.979  1.00  0.00    -0.311 N 
ATOM     55  C   UNL     1       0.030   3.543   4.530  1.00  0.00     0.153 C 
BRANCH  54  56
ATOM     56  C   UNL     1      -0.415   4.343   6.811  1.00  0.00     0.102 C 
ATOM     57  C   UNL     1       0.140   5.472   7.282  1.00  0.00     0.043 C 
BRANCH  56  58
ATOM     58  C   UNL     1      -1.858   4.148   7.213  1.00  0.00     0.268 C 
ATOM     59  O   UNL     1      -2.688   5.048   7.188  1.00  0.00    -0.268 OA
ATOM     60  N   UNL     1      -2.156   2.848   7.545  1.00  0.00    -0.339 N 
ATOM     61  H   UNL     1      -1.409   2.164   7.552  1.00  0.00     0.164 HD
BRANCH  60  62
ATOM     62  C   UNL     1      -3.509   2.426   7.905  1.00  0.00     0.168 CG0
ATOM     63  C   UNL     1      -3.603   2.098   9.390  1.00  0.00     0.041 C 
ATOM     64  G   UNL     1      -3.914   1.208   7.051  1.00  0.00     0.000 G0
ENDBRANCH  60  62
ENDBRANCH  56  58
ENDBRANCH  54  56
ENDBRANCH  52  54
ENDBRANCH  51  52
ENDBRANCH  50  51
ENDBRANCH  49  50
BRANCH  49  65
ATOM     65  C   UNL     1       2.306  -0.248   2.675  1.00  0.00     0.326 C 
ATOM     66  O   UNL     1       1.963   0.506   1.776  1.00  0.00    -0.250 OA
BRANCH  65  67
ATOM     67  O   UNL     1       2.020  -1.566   2.590  1.00  0.00    -0.480 OA
ATOM     68  H   UNL     1       2.032  -1.744   1.625  1.00  0.00     0.296 HD
ENDBRANCH  65  67
ENDBRANCH  49  65
ENDBRANCH  47  49
ENDBRANCH  43  45
ENDBRANCH   1  43
BRANCH   1  69
ATOM     69  C   UNL     1       8.006  -3.383   4.034  1.00  0.00    -0.001 C 
ATOM     70  C   UNL     1       8.391  -4.671   4.061  1.00  0.00     0.001 C 
BRANCH  70  71
ATOM     71  C   UNL     1       9.760  -5.177   4.179  1.00  0.00    -0.055 C 
ATOM     72  C   UNL     1      10.746  -4.279   4.388  1.00  0.00    -0.018 C 
ATOM     73  C   UNL     1       9.971  -6.665   4.067  1.00  0.00     0.044 C 
BRANCH  72  74
ATOM     74  C   UNL     1      12.241  -4.511   4.552  1.00  0.00     0.038 C 
ATOM     75  C   UNL     1      12.485  -4.871   6.023  1.00  0.00     0.015 C 
BRANCH  74  76
ATOM     76  C   UNL     1      13.002  -3.247   4.054  1.00  0.00     0.128 C 
BRANCH  76  77
ATOM     77  O   UNL     1      13.820  -3.581   2.920  1.00  0.00    -0.381 OA
ATOM     78  C   UNL     1      14.362  -2.448   2.254  1.00  0.00     0.195 C 
ENDBRANCH  76  77
BRANCH  76  79
ATOM     79  C   UNL     1      12.086  -2.024   3.794  1.00  0.00     0.068 C 
BRANCH  79  80
ATOM     80  C   UNL     1      11.650  -1.202   4.982  1.00  0.00    -0.045 A 
ATOM     81  C   UNL     1      10.383  -0.603   5.020  1.00  0.00     0.004 A 
ATOM     82  C   UNL     1      12.523  -1.000   6.062  1.00  0.00     0.004 A 
ATOM     83  C   UNL     1       9.993   0.168   6.116  1.00  0.00     0.000 A 
ATOM     84  C   UNL     1      12.131  -0.228   7.158  1.00  0.00     0.000 A 
ATOM     85  C   UNL     1      10.866   0.354   7.186  1.00  0.00     0.000 A 
ENDBRANCH  79  80
ENDBRANCH  76  79
ENDBRANCH  74  76
ENDBRANCH  72  74
ENDBRANCH  70  71
ENDBRANCH   1  69
TORSDOF 17
ENDMDL
MODEL 42
REMARK VINA RESULT:    -5.913      2.701      4.891
REMARK INTER + INTRA:         -25.172
REMARK INTER:                 -18.367
REMARK INTRA:                  -6.804
REMARK UNBOUND:                -7.505
REMARK SMILES C=C1C(=O)N[C@H](C)C(=O)N[C@@H](CC(C)C)C(=O)N[C@@H](C(=O)O)[C@H](C)C(=O)N[C@@H](CCCN=C(N)N)C(=O)N[C@@H](/C=C/C(C)=C/[C@H](C)[C@H](Cc2ccccc2)OC)[C@H](C)C(=O)N[C@@H](C(=O)O)CCC(=O)N1C
REMARK SMILES IDX 39 1 38 2 37 3 36 4 28 6 27 7 25 8 26 9 23 11 24 12 19 13
REMARK SMILES IDX 18 14 16 15 17 16 11 18 10 19 8 20 9 21 12 24 13 25 14 26
REMARK SMILES IDX 15 27 20 28 21 29 22 30 29 32 30 33 31 34 32 35 33 36 34 37
REMARK SMILES IDX 35 38 57 43 58 44 59 45 60 46 61 47 62 49 66 50 67 51 68 52
REMARK SMILES IDX 69 53 70 54 71 55 2 56 1 57 3 58 4 59 5 60 6 62 7 63 63 65
REMARK SMILES IDX 64 66 65 67 40 69 41 70 42 71 44 72 43 73 45 74 46 75 47 76
REMARK SMILES IDX 55 77 56 78 48 79 49 80 50 81 54 82 51 83 53 84 52 85
REMARK H PARENT 38 5 27 10 18 17 10 22 22 31 34 39 34 40 35 41 35 42 61 48
REMARK H PARENT 5 61 65 68
REMARK Flexibility Score:  369.900
ROOT
ATOM      1  C   UNL     1       6.077  -0.656   3.152  1.00  0.00     0.117 C 
ENDROOT
BRANCH   1   2
ATOM      2  N   UNL     1       7.165  -1.631   3.073  1.00  0.00    -0.347 N 
ATOM      3  O   UNL     1       8.813  -0.204   2.355  1.00  0.00    -0.273 OA
ATOM      4  C   UNL     1       8.473  -1.307   2.767  1.00  0.00     0.243 C 
ATOM      5  H   UNL     1       6.981  -2.597   3.300  1.00  0.00     0.164 HD
BRANCH   4   6
ATOM      6  C   UNL     1       9.446  -2.512   2.835  1.00  0.00     0.171 C 
BRANCH   6   7
ATOM      7  N   UNL     1       9.105  -3.384   3.971  1.00  0.00    -0.344 N 
ATOM      8  C   UNL     1      10.022  -3.624   4.972  1.00  0.00     0.226 C 
ATOM      9  O   UNL     1      11.152  -3.153   4.959  1.00  0.00    -0.275 OA
ATOM     10  H   UNL     1       8.205  -3.846   3.982  1.00  0.00     0.164 HD
BRANCH   8  11
ATOM     11  C   UNL     1       9.502  -4.499   6.099  1.00  0.00     0.109 C 
ATOM     12  C   UNL     1       7.982  -4.376   6.202  1.00  0.00     0.021 C 
BRANCH  11  13
ATOM     13  C   UNL     1      10.026  -5.939   5.925  1.00  0.00     0.204 C 
BRANCH  13  14
ATOM     14  N   UNL     1      11.027  -6.037   4.859  1.00  0.00    -0.340 N 
ATOM     15  C   UNL     1      10.824  -6.762   3.705  1.00  0.00     0.243 C 
ATOM     16  O   UNL     1       9.761  -7.330   3.461  1.00  0.00    -0.273 OA
ATOM     17  H   UNL     1      11.979  -5.719   5.063  1.00  0.00     0.164 HD
BRANCH  15  18
ATOM     18  C   UNL     1      12.091  -6.893   2.825  1.00  0.00     0.171 C 
BRANCH  18  19
ATOM     19  N   UNL     1      12.485  -8.299   2.865  1.00  0.00    -0.343 N 
ATOM     20  C   UNL     1      13.180  -8.831   3.934  1.00  0.00     0.242 CG0
ATOM     21  O   UNL     1      13.613  -8.120   4.838  1.00  0.00    -0.273 OA
ATOM     22  H   UNL     1      12.250  -8.904   2.086  1.00  0.00     0.164 HD
ATOM     23  G   UNL     1      13.438 -10.349   3.834  1.00  0.00     0.000 G0
ENDBRANCH  18  19
BRANCH  18  24
ATOM     24  C   UNL     1      11.804  -6.430   1.391  1.00  0.00     0.038 C 
BRANCH  24  25
ATOM     25  C   UNL     1      12.786  -6.970   0.331  1.00  0.00    -0.015 C 
ATOM     26  C   UNL     1      14.169  -6.325   0.431  1.00  0.00     0.007 C 
ATOM     27  C   UNL     1      12.210  -6.740  -1.069  1.00  0.00     0.007 C 
ENDBRANCH  24  25
ENDBRANCH  18  24
ENDBRANCH  15  18
ENDBRANCH  13  14
BRANCH  13  28
ATOM     28  C   UNL     1      10.660  -6.508   7.198  1.00  0.00     0.327 C 
ATOM     29  O   UNL     1      11.335  -7.523   7.278  1.00  0.00    -0.250 OA
BRANCH  28  30
ATOM     30  O   UNL     1      10.309  -5.833   8.311  1.00  0.00    -0.480 OA
ATOM     31  H   UNL     1      10.655  -4.928   8.164  1.00  0.00     0.296 HD
ENDBRANCH  28  30
ENDBRANCH  13  28
ENDBRANCH  11  13
ENDBRANCH   8  11
ENDBRANCH   6   7
BRANCH   6  32
ATOM     32  C   UNL     1       9.383  -3.285   1.513  1.00  0.00     0.037 C 
BRANCH  32  33
ATOM     33  C   UNL     1       8.594  -4.596   1.645  1.00  0.00     0.026 C 
BRANCH  33  34
ATOM     34  C   UNL     1       7.265  -4.557   0.891  1.00  0.00     0.146 C 
BRANCH  34  35
ATOM     35  N   UNL     1       7.430  -5.235  -0.387  1.00  0.00    -0.254 NA
ATOM     36  C   UNL     1       6.383  -5.602  -1.028  1.00  0.00     0.185 C 
ATOM     37  N   UNL     1       6.524  -6.222  -2.210  1.00  0.00    -0.370 N 
ATOM     38  N   UNL     1       5.090  -5.455  -0.689  1.00  0.00    -0.370 N 
ATOM     39  H   UNL     1       7.471  -6.361  -2.540  1.00  0.00     0.159 HD
ATOM     40  H   UNL     1       5.764  -6.383  -2.848  1.00  0.00     0.159 HD
ATOM     41  H   UNL     1       4.360  -5.911  -1.211  1.00  0.00     0.159 HD
ATOM     42  H   UNL     1       4.835  -5.019   0.183  1.00  0.00     0.159 HD
ENDBRANCH  34  35
ENDBRANCH  33  34
ENDBRANCH  32  33
ENDBRANCH   6  32
ENDBRANCH   4   6
ENDBRANCH   1   2
BRANCH   1  43
ATOM     43  C   UNL     1       5.320  -0.867   4.495  1.00  0.00     0.102 C 
ATOM     44  C   UNL     1       3.895  -1.417   4.314  1.00  0.00     0.020 C 
BRANCH  43  45
ATOM     45  C   UNL     1       5.395   0.386   5.372  1.00  0.00     0.225 C 
ATOM     46  O   UNL     1       6.005   0.424   6.437  1.00  0.00    -0.275 OA
ATOM     47  N   UNL     1       4.651   1.459   4.937  1.00  0.00    -0.342 N 
ATOM     48  H   UNL     1       4.284   1.465   3.996  1.00  0.00     0.164 HD
BRANCH  47  49
ATOM     49  C   UNL     1       4.656   2.737   5.656  1.00  0.00     0.192 C 
BRANCH  49  50
ATOM     50  C   UNL     1       3.361   2.878   6.461  1.00  0.00     0.047 C 
BRANCH  50  51
ATOM     51  C   UNL     1       2.242   1.976   5.926  1.00  0.00     0.103 C 
BRANCH  51  52
ATOM     52  C   UNL     1       0.893   2.292   6.570  1.00  0.00     0.226 C 
ATOM     53  O   UNL     1       0.533   1.668   7.570  1.00  0.00    -0.275 OA
BRANCH  52  54
ATOM     54  N   UNL     1       0.164   3.355   6.007  1.00  0.00    -0.311 N 
ATOM     55  C   UNL     1       0.103   3.543   4.551  1.00  0.00     0.153 C 
BRANCH  54  56
ATOM     56  C   UNL     1      -0.536   4.270   6.811  1.00  0.00     0.102 C 
ATOM     57  C   UNL     1       0.005   5.353   7.393  1.00  0.00     0.043 C 
BRANCH  56  58
ATOM     58  C   UNL     1      -2.020   4.116   7.048  1.00  0.00     0.268 C 
ATOM     59  O   UNL     1      -2.831   5.001   6.812  1.00  0.00    -0.268 OA
ATOM     60  N   UNL     1      -2.369   2.864   7.493  1.00  0.00    -0.339 N 
ATOM     61  H   UNL     1      -1.635   2.189   7.675  1.00  0.00     0.164 HD
BRANCH  60  62
ATOM     62  C   UNL     1      -3.760   2.479   7.728  1.00  0.00     0.168 CG0
ATOM     63  C   UNL     1      -4.156   2.719   9.179  1.00  0.00     0.041 C 
ATOM     64  G   UNL     1      -3.959   0.998   7.345  1.00  0.00     0.000 G0
ENDBRANCH  60  62
ENDBRANCH  56  58
ENDBRANCH  54  56
ENDBRANCH  52  54
ENDBRANCH  51  52
ENDBRANCH  50  51
ENDBRANCH  49  50
BRANCH  49  65
ATOM     65  C   UNL     1       4.790   3.928   4.695  1.00  0.00     0.326 C 
ATOM     66  O   UNL     1       5.378   4.972   4.935  1.00  0.00    -0.250 OA
BRANCH  65  67
ATOM     67  O   UNL     1       4.140   3.780   3.519  1.00  0.00    -0.480 OA
ATOM     68  H   UNL     1       4.710   3.158   3.017  1.00  0.00     0.296 HD
ENDBRANCH  65  67
ENDBRANCH  49  65
ENDBRANCH  47  49
ENDBRANCH  43  45
ENDBRANCH   1  43
BRANCH   1  69
ATOM     69  C   UNL     1       5.307  -0.774   1.850  1.00  0.00    -0.001 C 
ATOM     70  C   UNL     1       5.574  -1.589   0.814  1.00  0.00     0.001 C 
BRANCH  70  71
ATOM     71  C   UNL     1       4.810  -1.709  -0.430  1.00  0.00    -0.055 C 
ATOM     72  C   UNL     1       5.502  -1.850  -1.580  1.00  0.00    -0.018 C 
ATOM     73  C   UNL     1       3.307  -1.674  -0.338  1.00  0.00     0.044 C 
BRANCH  72  74
ATOM     74  C   UNL     1       4.985  -1.999  -3.004  1.00  0.00     0.038 C 
ATOM     75  C   UNL     1       4.504  -3.446  -3.162  1.00  0.00     0.015 C 
BRANCH  74  76
ATOM     76  C   UNL     1       6.109  -1.572  -3.993  1.00  0.00     0.128 C 
BRANCH  76  77
ATOM     77  O   UNL     1       5.856  -0.244  -4.481  1.00  0.00    -0.381 OA
ATOM     78  C   UNL     1       4.610  -0.111  -5.153  1.00  0.00     0.195 C 
ENDBRANCH  76  77
BRANCH  76  79
ATOM     79  C   UNL     1       7.542  -1.739  -3.426  1.00  0.00     0.068 C 
BRANCH  79  80
ATOM     80  C   UNL     1       8.231  -3.067  -3.625  1.00  0.00    -0.045 A 
ATOM     81  C   UNL     1       9.195  -3.523  -2.717  1.00  0.00     0.004 A 
ATOM     82  C   UNL     1       7.933  -3.858  -4.746  1.00  0.00     0.004 A 
ATOM     83  C   UNL     1       9.838  -4.747  -2.916  1.00  0.00     0.000 A 
ATOM     84  C   UNL     1       8.576  -5.081  -4.944  1.00  0.00     0.000 A 
ATOM     85  C   UNL     1       9.527  -5.526  -4.028  1.00  0.00     0.000 A 
ENDBRANCH  79  80
ENDBRANCH  76  79
ENDBRANCH  74  76
ENDBRANCH  72  74
ENDBRANCH  70  71
ENDBRANCH   1  69
TORSDOF 17
ENDMDL
MODEL 43
REMARK VINA RESULT:    -5.904      3.625     11.886
REMARK INTER + INTRA:         -25.146
REMARK INTER:                 -17.657
REMARK INTRA:                  -7.489
REMARK UNBOUND:                -7.505
REMARK SMILES C=C1C(=O)N[C@H](C)C(=O)N[C@@H](CC(C)C)C(=O)N[C@@H](C(=O)O)[C@H](C)C(=O)N[C@@H](CCCN=C(N)N)C(=O)N[C@@H](/C=C/C(C)=C/[C@H](C)[C@H](Cc2ccccc2)OC)[C@H](C)C(=O)N[C@@H](C(=O)O)CCC(=O)N1C
REMARK SMILES IDX 39 1 38 2 37 3 36 4 28 6 27 7 25 8 26 9 23 11 24 12 19 13
REMARK SMILES IDX 18 14 16 15 17 16 11 18 10 19 8 20 9 21 12 24 13 25 14 26
REMARK SMILES IDX 15 27 20 28 21 29 22 30 29 32 30 33 31 34 32 35 33 36 34 37
REMARK SMILES IDX 35 38 57 43 58 44 59 45 60 46 61 47 62 49 66 50 67 51 68 52
REMARK SMILES IDX 69 53 70 54 71 55 2 56 1 57 3 58 4 59 5 60 6 62 7 63 63 65
REMARK SMILES IDX 64 66 65 67 40 69 41 70 42 71 44 72 43 73 45 74 46 75 47 76
REMARK SMILES IDX 55 77 56 78 48 79 49 80 50 81 54 82 51 83 53 84 52 85
REMARK H PARENT 38 5 27 10 18 17 10 22 22 31 34 39 34 40 35 41 35 42 61 48
REMARK H PARENT 5 61 65 68
REMARK Flexibility Score:  369.900
ROOT
ATOM      1  C   UNL     1       6.577  -1.721   4.356  1.00  0.00     0.117 C 
ENDROOT
BRANCH   1   2
ATOM      2  N   UNL     1       6.121  -0.331   4.310  1.00  0.00    -0.347 N 
ATOM      3  O   UNL     1       3.935  -0.699   4.904  1.00  0.00    -0.273 OA
ATOM      4  C   UNL     1       4.854   0.080   4.678  1.00  0.00     0.243 C 
ATOM      5  H   UNL     1       6.770   0.393   4.042  1.00  0.00     0.164 HD
BRANCH   4   6
ATOM      6  C   UNL     1       4.655   1.616   4.618  1.00  0.00     0.171 C 
BRANCH   6   7
ATOM      7  N   UNL     1       3.608   1.961   3.643  1.00  0.00    -0.344 N 
ATOM      8  C   UNL     1       3.940   2.346   2.362  1.00  0.00     0.226 C 
ATOM      9  O   UNL     1       5.101   2.442   1.981  1.00  0.00    -0.275 OA
ATOM     10  H   UNL     1       2.641   1.959   3.941  1.00  0.00     0.164 HD
BRANCH   8  11
ATOM     11  C   UNL     1       2.747   2.616   1.462  1.00  0.00     0.109 C 
ATOM     12  C   UNL     1       3.163   2.514  -0.006  1.00  0.00     0.021 C 
BRANCH  11  13
ATOM     13  C   UNL     1       1.571   1.706   1.868  1.00  0.00     0.204 C 
BRANCH  13  14
ATOM     14  N   UNL     1       0.294   2.181   1.326  1.00  0.00    -0.340 N 
ATOM     15  C   UNL     1      -0.514   3.078   1.991  1.00  0.00     0.243 C 
ATOM     16  O   UNL     1      -0.191   3.591   3.061  1.00  0.00    -0.273 OA
ATOM     17  H   UNL     1      -0.102   1.685   0.523  1.00  0.00     0.164 HD
BRANCH  15  18
ATOM     18  C   UNL     1      -1.900   3.271   1.329  1.00  0.00     0.171 C 
BRANCH  18  19
ATOM     19  N   UNL     1      -2.184   4.704   1.362  1.00  0.00    -0.343 N 
ATOM     20  C   UNL     1      -3.452   5.191   1.619  1.00  0.00     0.242 CG0
ATOM     21  O   UNL     1      -4.424   4.443   1.699  1.00  0.00    -0.273 OA
ATOM     22  H   UNL     1      -1.435   5.364   1.187  1.00  0.00     0.164 HD
ATOM     23  G   UNL     1      -3.541   6.729   1.692  1.00  0.00     0.000 G0
ENDBRANCH  18  19
BRANCH  18  24
ATOM     24  C   UNL     1      -1.894   2.733  -0.107  1.00  0.00     0.038 C 
BRANCH  24  25
ATOM     25  C   UNL     1      -2.958   1.652  -0.395  1.00  0.00    -0.015 C 
ATOM     26  C   UNL     1      -2.376   0.434  -1.112  1.00  0.00     0.007 C 
ATOM     27  C   UNL     1      -4.088   2.253  -1.235  1.00  0.00     0.007 C 
ENDBRANCH  24  25
ENDBRANCH  18  24
ENDBRANCH  15  18
ENDBRANCH  13  14
BRANCH  13  28
ATOM     28  C   UNL     1       1.745   0.255   1.412  1.00  0.00     0.327 C 
ATOM     29  O   UNL     1       2.629  -0.512   1.763  1.00  0.00    -0.250 OA
BRANCH  28  30
ATOM     30  O   UNL     1       0.869  -0.108   0.453  1.00  0.00    -0.480 OA
ATOM     31  H   UNL     1       0.250  -0.715   0.909  1.00  0.00     0.296 HD
ENDBRANCH  28  30
ENDBRANCH  13  28
ENDBRANCH  11  13
ENDBRANCH   8  11
ENDBRANCH   6   7
BRANCH   6  32
ATOM     32  C   UNL     1       4.294   2.131   6.015  1.00  0.00     0.037 C 
BRANCH  32  33
ATOM     33  C   UNL     1       3.037   3.012   6.000  1.00  0.00     0.026 C 
BRANCH  33  34
ATOM     34  C   UNL     1       1.870   2.379   6.759  1.00  0.00     0.146 C 
BRANCH  34  35
ATOM     35  N   UNL     1       1.295   1.321   5.939  1.00  0.00    -0.254 NA
ATOM     36  C   UNL     1       0.081   1.438   5.549  1.00  0.00     0.185 C 
ATOM     37  N   UNL     1      -0.457   0.472   4.788  1.00  0.00    -0.370 N 
ATOM     38  N   UNL     1      -0.793   2.431   5.791  1.00  0.00    -0.370 N 
ATOM     39  H   UNL     1       0.143  -0.308   4.553  1.00  0.00     0.159 HD
ATOM     40  H   UNL     1      -1.332   0.569   4.303  1.00  0.00     0.159 HD
ATOM     41  H   UNL     1      -1.765   2.342   5.544  1.00  0.00     0.159 HD
ATOM     42  H   UNL     1      -0.529   3.218   6.363  1.00  0.00     0.159 HD
ENDBRANCH  34  35
ENDBRANCH  33  34
ENDBRANCH  32  33
ENDBRANCH   6  32
ENDBRANCH   4   6
ENDBRANCH   1   2
BRANCH   1  43
ATOM     43  C   UNL     1       7.348  -1.944   5.690  1.00  0.00     0.102 C 
ATOM     44  C   UNL     1       6.456  -2.456   6.834  1.00  0.00     0.020 C 
BRANCH  43  45
ATOM     45  C   UNL     1       8.182  -0.713   6.056  1.00  0.00     0.225 C 
ATOM     46  O   UNL     1       7.698   0.306   6.538  1.00  0.00    -0.275 OA
ATOM     47  N   UNL     1       9.516  -0.781   5.721  1.00  0.00    -0.342 N 
ATOM     48  H   UNL     1       9.924  -1.671   5.470  1.00  0.00     0.164 HD
BRANCH  47  49
ATOM     49  C   UNL     1      10.443   0.308   6.043  1.00  0.00     0.192 C 
BRANCH  49  50
ATOM     50  C   UNL     1      11.570   0.347   5.008  1.00  0.00     0.047 C 
BRANCH  50  51
ATOM     51  C   UNL     1      11.533  -0.861   4.062  1.00  0.00     0.103 C 
BRANCH  51  52
ATOM     52  C   UNL     1      12.757  -1.759   4.230  1.00  0.00     0.226 C 
ATOM     53  O   UNL     1      13.723  -1.620   3.477  1.00  0.00    -0.275 OA
BRANCH  52  54
ATOM     54  N   UNL     1      12.730  -2.659   5.311  1.00  0.00    -0.311 N 
ATOM     55  C   UNL     1      13.662  -2.516   6.437  1.00  0.00     0.153 C 
BRANCH  54  56
ATOM     56  C   UNL     1      11.812  -3.721   5.357  1.00  0.00     0.102 C 
ATOM     57  C   UNL     1      10.755  -3.787   6.183  1.00  0.00     0.043 C 
BRANCH  56  58
ATOM     58  C   UNL     1      11.930  -4.890   4.408  1.00  0.00     0.268 C 
ATOM     59  O   UNL     1      12.884  -5.050   3.658  1.00  0.00    -0.268 OA
ATOM     60  N   UNL     1      10.894  -5.786   4.522  1.00  0.00    -0.339 N 
ATOM     61  H   UNL     1      10.136  -5.576   5.160  1.00  0.00     0.164 HD
BRANCH  60  62
ATOM     62  C   UNL     1      10.843  -7.021   3.741  1.00  0.00     0.168 CG0
ATOM     63  C   UNL     1      10.182  -8.142   4.534  1.00  0.00     0.041 C 
ATOM     64  G   UNL     1      12.269  -7.422   3.313  1.00  0.00     0.000 G0
ENDBRANCH  60  62
ENDBRANCH  56  58
ENDBRANCH  54  56
ENDBRANCH  52  54
ENDBRANCH  51  52
ENDBRANCH  50  51
ENDBRANCH  49  50
BRANCH  49  65
ATOM     65  C   UNL     1      11.046   0.142   7.447  1.00  0.00     0.326 C 
ATOM     66  O   UNL     1      11.842   0.907   7.973  1.00  0.00    -0.250 OA
BRANCH  65  67
ATOM     67  O   UNL     1      10.677  -0.988   8.089  1.00  0.00    -0.480 OA
ATOM     68  H   UNL     1       9.778  -1.169   7.741  1.00  0.00     0.296 HD
ENDBRANCH  65  67
ENDBRANCH  49  65
ENDBRANCH  47  49
ENDBRANCH  43  45
ENDBRANCH   1  43
BRANCH   1  69
ATOM     69  C   UNL     1       7.294  -1.976   3.043  1.00  0.00    -0.001 C 
ATOM     70  C   UNL     1       8.403  -2.711   2.848  1.00  0.00     0.001 C 
BRANCH  70  71
ATOM     71  C   UNL     1       9.074  -2.968   1.572  1.00  0.00    -0.055 C 
ATOM     72  C   UNL     1       8.327  -2.920   0.449  1.00  0.00    -0.018 C 
ATOM     73  C   UNL     1      10.552  -3.259   1.601  1.00  0.00     0.044 C 
BRANCH  72  74
ATOM     74  C   UNL     1       8.747  -3.139  -0.998  1.00  0.00     0.038 C 
ATOM     75  C   UNL     1       7.811  -2.296  -1.873  1.00  0.00     0.015 C 
BRANCH  74  76
ATOM     76  C   UNL     1       8.725  -4.666  -1.301  1.00  0.00     0.128 C 
BRANCH  76  77
ATOM     77  O   UNL     1       7.370  -5.111  -1.481  1.00  0.00    -0.381 OA
ATOM     78  C   UNL     1       7.154  -5.801  -2.705  1.00  0.00     0.195 C 
ENDBRANCH  76  77
BRANCH  76  79
ATOM     79  C   UNL     1       9.656  -5.090  -2.464  1.00  0.00     0.068 C 
BRANCH  79  80
ATOM     80  C   UNL     1      10.946  -5.793  -2.117  1.00  0.00    -0.045 A 
ATOM     81  C   UNL     1      11.721  -6.410  -3.108  1.00  0.00     0.004 A 
ATOM     82  C   UNL     1      11.377  -5.864  -0.784  1.00  0.00     0.004 A 
ATOM     83  C   UNL     1      12.907  -7.070  -2.777  1.00  0.00     0.000 A 
ATOM     84  C   UNL     1      12.562  -6.525  -0.453  1.00  0.00     0.000 A 
ATOM     85  C   UNL     1      13.327  -7.126  -1.450  1.00  0.00     0.000 A 
ENDBRANCH  79  80
ENDBRANCH  76  79
ENDBRANCH  74  76
ENDBRANCH  72  74
ENDBRANCH  70  71
ENDBRANCH   1  69
TORSDOF 17
ENDMDL
MODEL 44
REMARK VINA RESULT:    -5.874      2.627      4.956
REMARK INTER + INTRA:         -25.054
REMARK INTER:                 -17.762
REMARK INTRA:                  -7.292
REMARK UNBOUND:                -7.505
REMARK SMILES C=C1C(=O)N[C@H](C)C(=O)N[C@@H](CC(C)C)C(=O)N[C@@H](C(=O)O)[C@H](C)C(=O)N[C@@H](CCCN=C(N)N)C(=O)N[C@@H](/C=C/C(C)=C/[C@H](C)[C@H](Cc2ccccc2)OC)[C@H](C)C(=O)N[C@@H](C(=O)O)CCC(=O)N1C
REMARK SMILES IDX 39 1 38 2 37 3 36 4 28 6 27 7 25 8 26 9 23 11 24 12 19 13
REMARK SMILES IDX 18 14 16 15 17 16 11 18 10 19 8 20 9 21 12 24 13 25 14 26
REMARK SMILES IDX 15 27 20 28 21 29 22 30 29 32 30 33 31 34 32 35 33 36 34 37
REMARK SMILES IDX 35 38 57 43 58 44 59 45 60 46 61 47 62 49 66 50 67 51 68 52
REMARK SMILES IDX 69 53 70 54 71 55 2 56 1 57 3 58 4 59 5 60 6 62 7 63 63 65
REMARK SMILES IDX 64 66 65 67 40 69 41 70 42 71 44 72 43 73 45 74 46 75 47 76
REMARK SMILES IDX 55 77 56 78 48 79 49 80 50 81 54 82 51 83 53 84 52 85
REMARK H PARENT 38 5 27 10 18 17 10 22 22 31 34 39 34 40 35 41 35 42 61 48
REMARK H PARENT 5 61 65 68
REMARK Flexibility Score:  369.900
ROOT
ATOM      1  C   UNL     1       4.715   0.670   4.096  1.00  0.00     0.117 C 
ENDROOT
BRANCH   1   2
ATOM      2  N   UNL     1       5.916   0.105   4.713  1.00  0.00    -0.347 N 
ATOM      3  O   UNL     1       4.883  -1.468   6.027  1.00  0.00    -0.273 OA
ATOM      4  C   UNL     1       5.910  -0.984   5.563  1.00  0.00     0.243 C 
ATOM      5  H   UNL     1       6.819   0.488   4.477  1.00  0.00     0.164 HD
BRANCH   4   6
ATOM      6  C   UNL     1       7.324  -1.435   6.008  1.00  0.00     0.171 C 
BRANCH   6   7
ATOM      7  N   UNL     1       7.986  -2.188   4.931  1.00  0.00    -0.344 N 
ATOM      8  C   UNL     1       7.884  -3.561   4.868  1.00  0.00     0.226 C 
ATOM      9  O   UNL     1       7.269  -4.216   5.700  1.00  0.00    -0.275 OA
ATOM     10  H   UNL     1       8.559  -1.688   4.263  1.00  0.00     0.164 HD
BRANCH   8  11
ATOM     11  C   UNL     1       8.576  -4.185   3.669  1.00  0.00     0.109 C 
ATOM     12  C   UNL     1       8.815  -3.129   2.590  1.00  0.00     0.021 C 
BRANCH  11  13
ATOM     13  C   UNL     1       9.840  -4.938   4.130  1.00  0.00     0.204 C 
BRANCH  13  14
ATOM     14  N   UNL     1       9.522  -6.047   5.035  1.00  0.00    -0.340 N 
ATOM     15  C   UNL     1      10.452  -6.613   5.881  1.00  0.00     0.243 C 
ATOM     16  O   UNL     1      11.601  -6.186   5.979  1.00  0.00    -0.273 OA
ATOM     17  H   UNL     1       8.638  -6.543   4.896  1.00  0.00     0.164 HD
BRANCH  15  18
ATOM     18  C   UNL     1       9.948  -7.896   6.585  1.00  0.00     0.171 C 
BRANCH  18  19
ATOM     19  N   UNL     1      10.221  -9.008   5.676  1.00  0.00    -0.343 N 
ATOM     20  C   UNL     1       9.348  -9.353   4.664  1.00  0.00     0.242 CG0
ATOM     21  O   UNL     1       8.240  -8.830   4.562  1.00  0.00    -0.273 OA
ATOM     22  H   UNL     1      11.072  -9.547   5.792  1.00  0.00     0.164 HD
ATOM     23  G   UNL     1       9.843 -10.500   3.759  1.00  0.00     0.000 G0
ENDBRANCH  18  19
BRANCH  18  24
ATOM     24  C   UNL     1      10.652  -8.086   7.934  1.00  0.00     0.038 C 
BRANCH  24  25
ATOM     25  C   UNL     1      11.933  -8.945   7.876  1.00  0.00    -0.015 C 
ATOM     26  C   UNL     1      11.772 -10.285   8.594  1.00  0.00     0.007 C 
ATOM     27  C   UNL     1      13.101  -8.169   8.490  1.00  0.00     0.007 C 
ENDBRANCH  24  25
ENDBRANCH  18  24
ENDBRANCH  15  18
ENDBRANCH  13  14
BRANCH  13  28
ATOM     28  C   UNL     1      10.654  -5.519   2.969  1.00  0.00     0.327 C 
ATOM     29  O   UNL     1      10.246  -6.292   2.116  1.00  0.00    -0.250 OA
BRANCH  28  30
ATOM     30  O   UNL     1      11.960  -5.187   3.021  1.00  0.00    -0.480 OA
ATOM     31  H   UNL     1      11.988  -4.412   3.620  1.00  0.00     0.296 HD
ENDBRANCH  28  30
ENDBRANCH  13  28
ENDBRANCH  11  13
ENDBRANCH   8  11
ENDBRANCH   6   7
BRANCH   6  32
ATOM     32  C   UNL     1       8.146  -0.202   6.399  1.00  0.00     0.037 C 
BRANCH  32  33
ATOM     33  C   UNL     1       9.581  -0.268   5.859  1.00  0.00     0.026 C 
BRANCH  33  34
ATOM     34  C   UNL     1      10.535  -0.983   6.817  1.00  0.00     0.146 C 
BRANCH  34  35
ATOM     35  N   UNL     1      11.043  -2.183   6.166  1.00  0.00    -0.254 NA
ATOM     36  C   UNL     1      12.299  -2.427   6.222  1.00  0.00     0.185 C 
ATOM     37  N   UNL     1      12.778  -3.532   5.629  1.00  0.00    -0.370 N 
ATOM     38  N   UNL     1      13.273  -1.713   6.815  1.00  0.00    -0.370 N 
ATOM     39  H   UNL     1      12.103  -4.129   5.169  1.00  0.00     0.159 HD
ATOM     40  H   UNL     1      13.709  -3.881   5.774  1.00  0.00     0.159 HD
ATOM     41  H   UNL     1      14.244  -1.936   6.671  1.00  0.00     0.159 HD
ATOM     42  H   UNL     1      13.060  -0.848   7.286  1.00  0.00     0.159 HD
ENDBRANCH  34  35
ENDBRANCH  33  34
ENDBRANCH  32  33
ENDBRANCH   6  32
ENDBRANCH   4   6
ENDBRANCH   1   2
BRANCH   1  43
ATOM     43  C   UNL     1       3.601   0.764   5.178  1.00  0.00     0.102 C 
ATOM     44  C   UNL     1       2.180   0.613   4.608  1.00  0.00     0.020 C 
BRANCH  43  45
ATOM     45  C   UNL     1       3.789   2.006   6.055  1.00  0.00     0.225 C 
ATOM     46  O   UNL     1       4.653   2.088   6.923  1.00  0.00    -0.275 OA
ATOM     47  N   UNL     1       2.860   3.005   5.875  1.00  0.00    -0.342 N 
ATOM     48  H   UNL     1       2.258   2.988   5.064  1.00  0.00     0.164 HD
BRANCH  47  49
ATOM     49  C   UNL     1       2.937   4.265   6.620  1.00  0.00     0.192 C 
BRANCH  49  50
ATOM     50  C   UNL     1       1.544   4.647   7.129  1.00  0.00     0.047 C 
BRANCH  50  51
ATOM     51  C   UNL     1       0.433   3.837   6.448  1.00  0.00     0.103 C 
BRANCH  51  52
ATOM     52  C   UNL     1      -0.160   2.782   7.379  1.00  0.00     0.226 C 
ATOM     53  O   UNL     1       0.528   1.820   7.728  1.00  0.00    -0.275 OA
BRANCH  52  54
ATOM     54  N   UNL     1      -1.464   3.023   7.850  1.00  0.00    -0.311 N 
ATOM     55  C   UNL     1      -2.636   2.730   7.014  1.00  0.00     0.153 C 
BRANCH  54  56
ATOM     56  C   UNL     1      -1.695   3.545   9.133  1.00  0.00     0.102 C 
ATOM     57  C   UNL     1      -2.137   2.835  10.184  1.00  0.00     0.043 C 
BRANCH  56  58
ATOM     58  C   UNL     1      -1.406   4.995   9.443  1.00  0.00     0.268 C 
ATOM     59  O   UNL     1      -0.411   5.364  10.053  1.00  0.00    -0.268 OA
ATOM     60  N   UNL     1      -2.337   5.857   8.914  1.00  0.00    -0.339 N 
ATOM     61  H   UNL     1      -3.139   5.470   8.431  1.00  0.00     0.164 HD
BRANCH  60  62
ATOM     62  C   UNL     1      -2.216   7.308   9.042  1.00  0.00     0.168 CG0
ATOM     63  C   UNL     1      -3.098   8.022   8.025  1.00  0.00     0.041 C 
ATOM     64  G   UNL     1      -0.739   7.721   8.870  1.00  0.00     0.000 G0
ENDBRANCH  60  62
ENDBRANCH  56  58
ENDBRANCH  54  56
ENDBRANCH  52  54
ENDBRANCH  51  52
ENDBRANCH  50  51
ENDBRANCH  49  50
BRANCH  49  65
ATOM     65  C   UNL     1       3.491   5.404   5.751  1.00  0.00     0.326 C 
ATOM     66  O   UNL     1       3.936   5.282   4.619  1.00  0.00    -0.250 OA
BRANCH  65  67
ATOM     67  O   UNL     1       3.518   6.613   6.355  1.00  0.00    -0.480 OA
ATOM     68  H   UNL     1       4.201   6.508   7.052  1.00  0.00     0.296 HD
ENDBRANCH  65  67
ENDBRANCH  49  65
ENDBRANCH  47  49
ENDBRANCH  43  45
ENDBRANCH   1  43
BRANCH   1  69
ATOM     69  C   UNL     1       4.455  -0.149   2.845  1.00  0.00    -0.001 C 
ATOM     70  C   UNL     1       5.333  -0.916   2.174  1.00  0.00     0.001 C 
BRANCH  70  71
ATOM     71  C   UNL     1       5.065  -1.719   0.979  1.00  0.00    -0.055 C 
ATOM     72  C   UNL     1       6.089  -2.426   0.455  1.00  0.00    -0.018 C 
ATOM     73  C   UNL     1       3.665  -1.707   0.424  1.00  0.00     0.044 C 
BRANCH  72  74
ATOM     74  C   UNL     1       6.106  -3.339  -0.762  1.00  0.00     0.038 C 
ATOM     75  C   UNL     1       6.294  -4.772  -0.251  1.00  0.00     0.015 C 
BRANCH  74  76
ATOM     76  C   UNL     1       7.210  -2.845  -1.743  1.00  0.00     0.128 C 
BRANCH  76  77
ATOM     77  O   UNL     1       7.979  -3.962  -2.218  1.00  0.00    -0.381 OA
ATOM     78  C   UNL     1       7.771  -4.256  -3.593  1.00  0.00     0.195 C 
ENDBRANCH  76  77
BRANCH  76  79
ATOM     79  C   UNL     1       6.677  -1.952  -2.892  1.00  0.00     0.068 C 
BRANCH  79  80
ATOM     80  C   UNL     1       5.822  -0.763  -2.525  1.00  0.00    -0.045 A 
ATOM     81  C   UNL     1       4.502  -0.656  -2.980  1.00  0.00     0.004 A 
ATOM     82  C   UNL     1       6.351   0.273  -1.741  1.00  0.00     0.004 A 
ATOM     83  C   UNL     1       3.722   0.454  -2.648  1.00  0.00     0.000 A 
ATOM     84  C   UNL     1       5.571   1.383  -1.410  1.00  0.00     0.000 A 
ATOM     85  C   UNL     1       4.257   1.473  -1.862  1.00  0.00     0.000 A 
ENDBRANCH  79  80
ENDBRANCH  76  79
ENDBRANCH  74  76
ENDBRANCH  72  74
ENDBRANCH  70  71
ENDBRANCH   1  69
TORSDOF 17
ENDMDL
MODEL 45
REMARK VINA RESULT:    -5.855      3.414     11.416
REMARK INTER + INTRA:         -24.998
REMARK INTER:                 -16.909
REMARK INTRA:                  -8.089
REMARK UNBOUND:                -7.505
REMARK SMILES C=C1C(=O)N[C@H](C)C(=O)N[C@@H](CC(C)C)C(=O)N[C@@H](C(=O)O)[C@H](C)C(=O)N[C@@H](CCCN=C(N)N)C(=O)N[C@@H](/C=C/C(C)=C/[C@H](C)[C@H](Cc2ccccc2)OC)[C@H](C)C(=O)N[C@@H](C(=O)O)CCC(=O)N1C
REMARK SMILES IDX 39 1 38 2 37 3 36 4 28 6 27 7 25 8 26 9 23 11 24 12 19 13
REMARK SMILES IDX 18 14 16 15 17 16 11 18 10 19 8 20 9 21 12 24 13 25 14 26
REMARK SMILES IDX 15 27 20 28 21 29 22 30 29 32 30 33 31 34 32 35 33 36 34 37
REMARK SMILES IDX 35 38 57 43 58 44 59 45 60 46 61 47 62 49 66 50 67 51 68 52
REMARK SMILES IDX 69 53 70 54 71 55 2 56 1 57 3 58 4 59 5 60 6 62 7 63 63 65
REMARK SMILES IDX 64 66 65 67 40 69 41 70 42 71 44 72 43 73 45 74 46 75 47 76
REMARK SMILES IDX 55 77 56 78 48 79 49 80 50 81 54 82 51 83 53 84 52 85
REMARK H PARENT 38 5 27 10 18 17 10 22 22 31 34 39 34 40 35 41 35 42 61 48
REMARK H PARENT 5 61 65 68
REMARK Flexibility Score:  369.900
ROOT
ATOM      1  C   UNL     1       7.555  -1.744   1.871  1.00  0.00     0.117 C 
ENDROOT
BRANCH   1   2
ATOM      2  N   UNL     1       6.296  -1.088   2.226  1.00  0.00    -0.347 N 
ATOM      3  O   UNL     1       6.116  -1.897   4.367  1.00  0.00    -0.273 OA
ATOM      4  C   UNL     1       5.722  -1.144   3.481  1.00  0.00     0.243 C 
ATOM      5  H   UNL     1       5.827  -0.514   1.542  1.00  0.00     0.164 HD
BRANCH   4   6
ATOM      6  C   UNL     1       4.435  -0.292   3.617  1.00  0.00     0.171 C 
BRANCH   6   7
ATOM      7  N   UNL     1       4.636   1.041   3.025  1.00  0.00    -0.344 N 
ATOM      8  C   UNL     1       4.465   2.179   3.782  1.00  0.00     0.226 C 
ATOM      9  O   UNL     1       4.121   2.145   4.958  1.00  0.00    -0.275 OA
ATOM     10  H   UNL     1       4.854   1.111   2.039  1.00  0.00     0.164 HD
BRANCH   8  11
ATOM     11  C   UNL     1       4.762   3.472   3.043  1.00  0.00     0.109 C 
ATOM     12  C   UNL     1       5.843   3.239   1.988  1.00  0.00     0.021 C 
BRANCH  11  13
ATOM     13  C   UNL     1       3.450   4.078   2.504  1.00  0.00     0.204 C 
BRANCH  13  14
ATOM     14  N   UNL     1       2.857   3.255   1.445  1.00  0.00    -0.340 N 
ATOM     15  C   UNL     1       2.960   3.569   0.107  1.00  0.00     0.243 C 
ATOM     16  O   UNL     1       3.610   4.532  -0.297  1.00  0.00    -0.273 OA
ATOM     17  H   UNL     1       2.183   2.535   1.717  1.00  0.00     0.164 HD
BRANCH  15  18
ATOM     18  C   UNL     1       2.084   2.678  -0.807  1.00  0.00     0.171 C 
BRANCH  18  19
ATOM     19  N   UNL     1       1.479   3.563  -1.800  1.00  0.00    -0.343 N 
ATOM     20  C   UNL     1       0.328   4.279  -1.532  1.00  0.00     0.242 CG0
ATOM     21  O   UNL     1      -0.313   4.104  -0.499  1.00  0.00    -0.273 OA
ATOM     22  H   UNL     1       1.908   3.654  -2.714  1.00  0.00     0.164 HD
ATOM     23  G   UNL     1      -0.117   5.220  -2.672  1.00  0.00     0.000 G0
ENDBRANCH  18  19
BRANCH  18  24
ATOM     24  C   UNL     1       2.932   1.586  -1.471  1.00  0.00     0.038 C 
BRANCH  24  25
ATOM     25  C   UNL     1       3.735   0.707  -0.489  1.00  0.00    -0.015 C 
ATOM     26  C   UNL     1       5.221   0.644  -0.841  1.00  0.00     0.007 C 
ATOM     27  C   UNL     1       3.150  -0.708  -0.468  1.00  0.00     0.007 C 
ENDBRANCH  24  25
ENDBRANCH  18  24
ENDBRANCH  15  18
ENDBRANCH  13  14
BRANCH  13  28
ATOM     28  C   UNL     1       2.382   4.264   3.585  1.00  0.00     0.327 C 
ATOM     29  O   UNL     1       1.213   3.917   3.514  1.00  0.00    -0.250 OA
BRANCH  28  30
ATOM     30  O   UNL     1       2.818   4.979   4.642  1.00  0.00    -0.480 OA
ATOM     31  H   UNL     1       2.377   4.565   5.412  1.00  0.00     0.296 HD
ENDBRANCH  28  30
ENDBRANCH  13  28
ENDBRANCH  11  13
ENDBRANCH   8  11
ENDBRANCH   6   7
BRANCH   6  32
ATOM     32  C   UNL     1       3.273  -1.023   2.938  1.00  0.00     0.037 C 
BRANCH  32  33
ATOM     33  C   UNL     1       1.981  -0.951   3.764  1.00  0.00     0.026 C 
BRANCH  33  34
ATOM     34  C   UNL     1       1.265   0.392   3.614  1.00  0.00     0.146 C 
BRANCH  34  35
ATOM     35  N   UNL     1       0.857   0.555   2.225  1.00  0.00    -0.254 NA
ATOM     36  C   UNL     1      -0.171   1.274   1.967  1.00  0.00     0.185 C 
ATOM     37  N   UNL     1      -0.553   1.435   0.691  1.00  0.00    -0.370 N 
ATOM     38  N   UNL     1      -0.977   1.932   2.819  1.00  0.00    -0.370 N 
ATOM     39  H   UNL     1       0.012   0.977  -0.013  1.00  0.00     0.159 HD
ATOM     40  H   UNL     1      -1.233   2.114   0.395  1.00  0.00     0.159 HD
ATOM     41  H   UNL     1      -1.838   2.350   2.505  1.00  0.00     0.159 HD
ATOM     42  H   UNL     1      -0.818   1.887   3.814  1.00  0.00     0.159 HD
ENDBRANCH  34  35
ENDBRANCH  33  34
ENDBRANCH  32  33
ENDBRANCH   6  32
ENDBRANCH   4   6
ENDBRANCH   1   2
BRANCH   1  43
ATOM     43  C   UNL     1       8.662  -0.657   1.748  1.00  0.00     0.102 C 
ATOM     44  C   UNL     1       9.219  -0.509   0.322  1.00  0.00     0.020 C 
BRANCH  43  45
ATOM     45  C   UNL     1       9.740  -0.847   2.819  1.00  0.00     0.225 C 
ATOM     46  O   UNL     1      10.929  -0.607   2.624  1.00  0.00    -0.275 OA
ATOM     47  N   UNL     1       9.308  -1.399   4.003  1.00  0.00    -0.342 N 
ATOM     48  H   UNL     1       8.319  -1.447   4.201  1.00  0.00     0.164 HD
BRANCH  47  49
ATOM     49  C   UNL     1      10.222  -1.605   5.131  1.00  0.00     0.192 C 
BRANCH  49  50
ATOM     50  C   UNL     1      10.868  -2.989   5.023  1.00  0.00     0.047 C 
BRANCH  50  51
ATOM     51  C   UNL     1       9.850  -4.122   5.208  1.00  0.00     0.103 C 
BRANCH  51  52
ATOM     52  C   UNL     1      10.313  -5.144   6.245  1.00  0.00     0.226 C 
ATOM     53  O   UNL     1      11.021  -4.781   7.186  1.00  0.00    -0.275 OA
BRANCH  52  54
ATOM     54  N   UNL     1       9.824  -6.456   6.094  1.00  0.00    -0.311 N 
ATOM     55  C   UNL     1       9.518  -7.000   4.764  1.00  0.00     0.153 C 
BRANCH  54  56
ATOM     56  C   UNL     1       9.616  -7.292   7.203  1.00  0.00     0.102 C 
ATOM     57  C   UNL     1       8.491  -7.331   7.936  1.00  0.00     0.043 C 
BRANCH  56  58
ATOM     58  C   UNL     1      10.673  -8.280   7.638  1.00  0.00     0.268 C 
ATOM     59  O   UNL     1      10.648  -9.465   7.333  1.00  0.00    -0.268 OA
ATOM     60  N   UNL     1      11.694  -7.699   8.351  1.00  0.00    -0.339 N 
ATOM     61  H   UNL     1      11.635  -6.712   8.572  1.00  0.00     0.164 HD
BRANCH  60  62
ATOM     62  C   UNL     1      12.852  -8.462   8.816  1.00  0.00     0.168 CG0
ATOM     63  C   UNL     1      14.068  -8.201   7.935  1.00  0.00     0.041 C 
ATOM     64  G   UNL     1      12.506  -9.965   8.838  1.00  0.00     0.000 G0
ENDBRANCH  60  62
ENDBRANCH  56  58
ENDBRANCH  54  56
ENDBRANCH  52  54
ENDBRANCH  51  52
ENDBRANCH  50  51
ENDBRANCH  49  50
BRANCH  49  65
ATOM     65  C   UNL     1       9.494  -1.487   6.479  1.00  0.00     0.326 C 
ATOM     66  O   UNL     1       8.323  -1.171   6.629  1.00  0.00    -0.250 OA
BRANCH  65  67
ATOM     67  O   UNL     1      10.273  -1.707   7.561  1.00  0.00    -0.480 OA
ATOM     68  H   UNL     1      10.569  -0.808   7.820  1.00  0.00     0.296 HD
ENDBRANCH  65  67
ENDBRANCH  49  65
ENDBRANCH  47  49
ENDBRANCH  43  45
ENDBRANCH   1  43
BRANCH   1  69
ATOM     69  C   UNL     1       7.252  -2.621   0.669  1.00  0.00    -0.001 C 
ATOM     70  C   UNL     1       6.055  -2.836   0.097  1.00  0.00     0.001 C 
BRANCH  70  71
ATOM     71  C   UNL     1       5.777  -3.668  -1.076  1.00  0.00    -0.055 C 
ATOM     72  C   UNL     1       6.829  -4.091  -1.808  1.00  0.00    -0.018 C 
ATOM     73  C   UNL     1       4.339  -4.001  -1.377  1.00  0.00     0.044 C 
BRANCH  72  74
ATOM     74  C   UNL     1       6.846  -4.958  -3.059  1.00  0.00     0.038 C 
ATOM     75  C   UNL     1       6.836  -6.420  -2.597  1.00  0.00     0.015 C 
BRANCH  74  76
ATOM     76  C   UNL     1       8.072  -4.556  -3.931  1.00  0.00     0.128 C 
BRANCH  76  77
ATOM     77  O   UNL     1       7.644  -3.740  -5.034  1.00  0.00    -0.381 OA
ATOM     78  C   UNL     1       7.809  -2.346  -4.811  1.00  0.00     0.195 C 
ENDBRANCH  76  77
BRANCH  76  79
ATOM     79  C   UNL     1       9.233  -3.917  -3.128  1.00  0.00     0.068 C 
BRANCH  79  80
ATOM     80  C   UNL     1      10.262  -4.839  -2.518  1.00  0.00    -0.045 A 
ATOM     81  C   UNL     1      10.995  -5.729  -3.314  1.00  0.00     0.004 A 
ATOM     82  C   UNL     1      10.482  -4.836  -1.133  1.00  0.00     0.004 A 
ATOM     83  C   UNL     1      11.935  -6.588  -2.741  1.00  0.00     0.000 A 
ATOM     84  C   UNL     1      11.422  -5.696  -0.560  1.00  0.00     0.000 A 
ATOM     85  C   UNL     1      12.149  -6.570  -1.365  1.00  0.00     0.000 A 
ENDBRANCH  79  80
ENDBRANCH  76  79
ENDBRANCH  74  76
ENDBRANCH  72  74
ENDBRANCH  70  71
ENDBRANCH   1  69
TORSDOF 17
ENDMDL
MODEL 46
REMARK VINA RESULT:    -5.829      4.263      8.114
REMARK INTER + INTRA:         -24.920
REMARK INTER:                 -16.303
REMARK INTRA:                  -8.618
REMARK UNBOUND:                -7.505
REMARK SMILES C=C1C(=O)N[C@H](C)C(=O)N[C@@H](CC(C)C)C(=O)N[C@@H](C(=O)O)[C@H](C)C(=O)N[C@@H](CCCN=C(N)N)C(=O)N[C@@H](/C=C/C(C)=C/[C@H](C)[C@H](Cc2ccccc2)OC)[C@H](C)C(=O)N[C@@H](C(=O)O)CCC(=O)N1C
REMARK SMILES IDX 39 1 38 2 37 3 36 4 28 6 27 7 25 8 26 9 23 11 24 12 19 13
REMARK SMILES IDX 18 14 16 15 17 16 11 18 10 19 8 20 9 21 12 24 13 25 14 26
REMARK SMILES IDX 15 27 20 28 21 29 22 30 29 32 30 33 31 34 32 35 33 36 34 37
REMARK SMILES IDX 35 38 57 43 58 44 59 45 60 46 61 47 62 49 66 50 67 51 68 52
REMARK SMILES IDX 69 53 70 54 71 55 2 56 1 57 3 58 4 59 5 60 6 62 7 63 63 65
REMARK SMILES IDX 64 66 65 67 40 69 41 70 42 71 44 72 43 73 45 74 46 75 47 76
REMARK SMILES IDX 55 77 56 78 48 79 49 80 50 81 54 82 51 83 53 84 52 85
REMARK H PARENT 38 5 27 10 18 17 10 22 22 31 34 39 34 40 35 41 35 42 61 48
REMARK H PARENT 5 61 65 68
REMARK Flexibility Score:  369.900
ROOT
ATOM      1  C   UNL     1       5.298  -1.595   2.831  1.00  0.00     0.117 C 
ENDROOT
BRANCH   1   2
ATOM      2  N   UNL     1       5.598  -0.770   1.660  1.00  0.00    -0.347 N 
ATOM      3  O   UNL     1       7.726  -0.146   2.253  1.00  0.00    -0.273 OA
ATOM      4  C   UNL     1       6.826  -0.184   1.420  1.00  0.00     0.243 C 
ATOM      5  H   UNL     1       4.895  -0.650   0.946  1.00  0.00     0.164 HD
BRANCH   4   6
ATOM      6  C   UNL     1       6.906   0.564   0.066  1.00  0.00     0.171 C 
BRANCH   6   7
ATOM      7  N   UNL     1       5.823   0.125  -0.829  1.00  0.00    -0.344 N 
ATOM      8  C   UNL     1       6.104  -0.582  -1.978  1.00  0.00     0.226 C 
ATOM      9  O   UNL     1       7.248  -0.858  -2.320  1.00  0.00    -0.275 OA
ATOM     10  H   UNL     1       4.871   0.393  -0.615  1.00  0.00     0.164 HD
BRANCH   8  11
ATOM     11  C   UNL     1       4.878  -1.010  -2.765  1.00  0.00     0.109 C 
ATOM     12  C   UNL     1       5.067  -0.690  -4.248  1.00  0.00     0.021 C 
BRANCH  11  13
ATOM     13  C   UNL     1       4.547  -2.484  -2.456  1.00  0.00     0.204 C 
BRANCH  13  14
ATOM     14  N   UNL     1       5.723  -3.351  -2.584  1.00  0.00    -0.340 N 
ATOM     15  C   UNL     1       5.672  -4.599  -3.166  1.00  0.00     0.243 C 
ATOM     16  O   UNL     1       4.648  -5.049  -3.675  1.00  0.00    -0.273 OA
ATOM     17  H   UNL     1       6.561  -3.104  -2.051  1.00  0.00     0.164 HD
BRANCH  15  18
ATOM     18  C   UNL     1       6.980  -5.412  -3.001  1.00  0.00     0.171 C 
BRANCH  18  19
ATOM     19  N   UNL     1       6.838  -6.606  -3.831  1.00  0.00    -0.343 N 
ATOM     20  C   UNL     1       7.087  -6.582  -5.190  1.00  0.00     0.242 CG0
ATOM     21  O   UNL     1       7.309  -5.530  -5.785  1.00  0.00    -0.273 OA
ATOM     22  H   UNL     1       6.544  -7.477  -3.404  1.00  0.00     0.164 HD
ATOM     23  G   UNL     1       6.961  -7.954  -5.884  1.00  0.00     0.000 G0
ENDBRANCH  18  19
BRANCH  18  24
ATOM     24  C   UNL     1       8.194  -4.575  -3.422  1.00  0.00     0.038 C 
BRANCH  24  25
ATOM     25  C   UNL     1       9.484  -4.863  -2.624  1.00  0.00    -0.015 C 
ATOM     26  C   UNL     1      10.362  -3.623  -2.463  1.00  0.00     0.007 C 
ATOM     27  C   UNL     1      10.280  -5.973  -3.316  1.00  0.00     0.007 C 
ENDBRANCH  24  25
ENDBRANCH  18  24
ENDBRANCH  15  18
ENDBRANCH  13  14
BRANCH  13  28
ATOM     28  C   UNL     1       3.979  -2.693  -1.049  1.00  0.00     0.327 C 
ATOM     29  O   UNL     1       2.836  -2.459  -0.689  1.00  0.00    -0.250 OA
BRANCH  28  30
ATOM     30  O   UNL     1       4.913  -3.070  -0.153  1.00  0.00    -0.480 OA
ATOM     31  H   UNL     1       4.823  -4.044  -0.105  1.00  0.00     0.296 HD
ENDBRANCH  28  30
ENDBRANCH  13  28
ENDBRANCH  11  13
ENDBRANCH   8  11
ENDBRANCH   6   7
BRANCH   6  32
ATOM     32  C   UNL     1       6.828   2.074   0.319  1.00  0.00     0.037 C 
BRANCH  32  33
ATOM     33  C   UNL     1       5.468   2.660  -0.086  1.00  0.00     0.026 C 
BRANCH  33  34
ATOM     34  C   UNL     1       5.092   3.891   0.739  1.00  0.00     0.146 C 
BRANCH  34  35
ATOM     35  N   UNL     1       3.705   4.237   0.462  1.00  0.00    -0.254 NA
ATOM     36  C   UNL     1       2.925   4.486   1.447  1.00  0.00     0.185 C 
ATOM     37  N   UNL     1       1.646   4.811   1.203  1.00  0.00    -0.370 N 
ATOM     38  N   UNL     1       3.198   4.476   2.764  1.00  0.00    -0.370 N 
ATOM     39  H   UNL     1       1.365   4.850   0.232  1.00  0.00     0.159 HD
ATOM     40  H   UNL     1       1.025   5.185   1.899  1.00  0.00     0.159 HD
ATOM     41  H   UNL     1       2.464   4.553   3.449  1.00  0.00     0.159 HD
ATOM     42  H   UNL     1       4.119   4.233   3.095  1.00  0.00     0.159 HD
ENDBRANCH  34  35
ENDBRANCH  33  34
ENDBRANCH  32  33
ENDBRANCH   6  32
ENDBRANCH   4   6
ENDBRANCH   1   2
BRANCH   1  43
ATOM     43  C   UNL     1       4.382  -0.780   3.789  1.00  0.00     0.102 C 
ATOM     44  C   UNL     1       3.376  -1.650   4.561  1.00  0.00     0.020 C 
BRANCH  43  45
ATOM     45  C   UNL     1       3.745   0.409   3.062  1.00  0.00     0.225 C 
ATOM     46  O   UNL     1       4.251   1.527   3.035  1.00  0.00    -0.275 OA
ATOM     47  N   UNL     1       2.507   0.171   2.510  1.00  0.00    -0.342 N 
ATOM     48  H   UNL     1       2.179  -0.779   2.409  1.00  0.00     0.164 HD
BRANCH  47  49
ATOM     49  C   UNL     1       1.795   1.205   1.754  1.00  0.00     0.192 C 
BRANCH  49  50
ATOM     50  C   UNL     1       0.346   1.293   2.241  1.00  0.00     0.047 C 
BRANCH  50  51
ATOM     51  C   UNL     1       0.243   1.252   3.772  1.00  0.00     0.103 C 
BRANCH  51  52
ATOM     52  C   UNL     1       0.481   2.625   4.399  1.00  0.00     0.226 C 
ATOM     53  O   UNL     1       0.353   3.640   3.711  1.00  0.00    -0.275 OA
BRANCH  52  54
ATOM     54  N   UNL     1       0.764   2.644   5.777  1.00  0.00    -0.311 N 
ATOM     55  C   UNL     1       0.150   1.669   6.688  1.00  0.00     0.153 C 
BRANCH  54  56
ATOM     56  C   UNL     1       1.645   3.588   6.331  1.00  0.00     0.102 C 
ATOM     57  C   UNL     1       2.984   3.487   6.321  1.00  0.00     0.043 C 
BRANCH  56  58
ATOM     58  C   UNL     1       1.123   4.857   6.963  1.00  0.00     0.268 C 
ATOM     59  O   UNL     1      -0.066   5.070   7.154  1.00  0.00    -0.268 OA
ATOM     60  N   UNL     1       2.123   5.713   7.358  1.00  0.00    -0.339 N 
ATOM     61  H   UNL     1       3.084   5.468   7.153  1.00  0.00     0.164 HD
BRANCH  60  62
ATOM     62  C   UNL     1       1.843   6.972   8.048  1.00  0.00     0.168 CG0
ATOM     63  C   UNL     1       2.768   8.080   7.561  1.00  0.00     0.041 C 
ATOM     64  G   UNL     1       1.987   6.770   9.571  1.00  0.00     0.000 G0
ENDBRANCH  60  62
ENDBRANCH  56  58
ENDBRANCH  54  56
ENDBRANCH  52  54
ENDBRANCH  51  52
ENDBRANCH  50  51
ENDBRANCH  49  50
BRANCH  49  65
ATOM     65  C   UNL     1       1.808   0.914   0.245  1.00  0.00     0.326 C 
ATOM     66  O   UNL     1       0.878   1.111  -0.525  1.00  0.00    -0.250 OA
BRANCH  65  67
ATOM     67  O   UNL     1       2.945   0.343  -0.209  1.00  0.00    -0.480 OA
ATOM     68  H   UNL     1       2.780   0.233  -1.171  1.00  0.00     0.296 HD
ENDBRANCH  65  67
ENDBRANCH  49  65
ENDBRANCH  47  49
ENDBRANCH  43  45
ENDBRANCH   1  43
BRANCH   1  69
ATOM     69  C   UNL     1       6.633  -2.100   3.347  1.00  0.00    -0.001 C 
ATOM     70  C   UNL     1       6.899  -2.614   4.560  1.00  0.00     0.001 C 
BRANCH  70  71
ATOM     71  C   UNL     1       8.187  -3.119   5.040  1.00  0.00    -0.055 C 
ATOM     72  C   UNL     1       9.280  -2.356   4.823  1.00  0.00    -0.018 C 
ATOM     73  C   UNL     1       8.202  -4.448   5.748  1.00  0.00     0.044 C 
BRANCH  72  74
ATOM     74  C   UNL     1      10.729  -2.619   5.206  1.00  0.00     0.038 C 
ATOM     75  C   UNL     1      11.091  -1.626   6.317  1.00  0.00     0.015 C 
BRANCH  74  76
ATOM     76  C   UNL     1      11.611  -2.517   3.927  1.00  0.00     0.128 C 
BRANCH  76  77
ATOM     77  O   UNL     1      12.954  -2.148   4.284  1.00  0.00    -0.381 OA
ATOM     78  C   UNL     1      13.444  -1.018   3.575  1.00  0.00     0.195 C 
ENDBRANCH  76  77
BRANCH  76  79
ATOM     79  C   UNL     1      11.556  -3.774   3.022  1.00  0.00     0.068 C 
BRANCH  79  80
ATOM     80  C   UNL     1      10.296  -4.020   2.229  1.00  0.00    -0.045 A 
ATOM     81  C   UNL     1       9.602  -5.232   2.333  1.00  0.00     0.004 A 
ATOM     82  C   UNL     1       9.813  -3.040   1.347  1.00  0.00     0.004 A 
ATOM     83  C   UNL     1       8.444  -5.457   1.585  1.00  0.00     0.000 A 
ATOM     84  C   UNL     1       8.656  -3.266   0.599  1.00  0.00     0.000 A 
ATOM     85  C   UNL     1       7.971  -4.473   0.719  1.00  0.00     0.000 A 
ENDBRANCH  79  80
ENDBRANCH  76  79
ENDBRANCH  74  76
ENDBRANCH  72  74
ENDBRANCH  70  71
ENDBRANCH   1  69
TORSDOF 17
ENDMDL
MODEL 47
REMARK VINA RESULT:    -5.824      3.800      8.054
REMARK INTER + INTRA:         -24.907
REMARK INTER:                 -15.586
REMARK INTRA:                  -9.320
REMARK UNBOUND:                -7.505
REMARK SMILES C=C1C(=O)N[C@H](C)C(=O)N[C@@H](CC(C)C)C(=O)N[C@@H](C(=O)O)[C@H](C)C(=O)N[C@@H](CCCN=C(N)N)C(=O)N[C@@H](/C=C/C(C)=C/[C@H](C)[C@H](Cc2ccccc2)OC)[C@H](C)C(=O)N[C@@H](C(=O)O)CCC(=O)N1C
REMARK SMILES IDX 39 1 38 2 37 3 36 4 28 6 27 7 25 8 26 9 23 11 24 12 19 13
REMARK SMILES IDX 18 14 16 15 17 16 11 18 10 19 8 20 9 21 12 24 13 25 14 26
REMARK SMILES IDX 15 27 20 28 21 29 22 30 29 32 30 33 31 34 32 35 33 36 34 37
REMARK SMILES IDX 35 38 57 43 58 44 59 45 60 46 61 47 62 49 66 50 67 51 68 52
REMARK SMILES IDX 69 53 70 54 71 55 2 56 1 57 3 58 4 59 5 60 6 62 7 63 63 65
REMARK SMILES IDX 64 66 65 67 40 69 41 70 42 71 44 72 43 73 45 74 46 75 47 76
REMARK SMILES IDX 55 77 56 78 48 79 49 80 50 81 54 82 51 83 53 84 52 85
REMARK H PARENT 38 5 27 10 18 17 10 22 22 31 34 39 34 40 35 41 35 42 61 48
REMARK H PARENT 5 61 65 68
REMARK Flexibility Score:  369.900
ROOT
ATOM      1  C   UNL     1       6.294  -1.830   3.210  1.00  0.00     0.117 C 
ENDROOT
BRANCH   1   2
ATOM      2  N   UNL     1       6.565  -1.125   1.956  1.00  0.00    -0.347 N 
ATOM      3  O   UNL     1       8.515  -0.094   2.592  1.00  0.00    -0.273 OA
ATOM      4  C   UNL     1       7.706  -0.384   1.717  1.00  0.00     0.243 C 
ATOM      5  H   UNL     1       5.916  -1.212   1.189  1.00  0.00     0.164 HD
BRANCH   4   6
ATOM      6  C   UNL     1       7.788   0.188   0.279  1.00  0.00     0.171 C 
BRANCH   6   7
ATOM      7  N   UNL     1       6.490   0.054  -0.402  1.00  0.00    -0.344 N 
ATOM      8  C   UNL     1       6.430  -0.227  -1.750  1.00  0.00     0.226 C 
ATOM      9  O   UNL     1       7.432  -0.354  -2.444  1.00  0.00    -0.275 OA
ATOM     10  H   UNL     1       5.641   0.219   0.123  1.00  0.00     0.164 HD
BRANCH   8  11
ATOM     11  C   UNL     1       5.021  -0.388  -2.293  1.00  0.00     0.109 C 
ATOM     12  C   UNL     1       4.899   0.299  -3.653  1.00  0.00     0.021 C 
BRANCH  11  13
ATOM     13  C   UNL     1       4.625  -1.878  -2.281  1.00  0.00     0.204 C 
BRANCH  13  14
ATOM     14  N   UNL     1       5.764  -2.754  -2.571  1.00  0.00    -0.340 N 
ATOM     15  C   UNL     1       5.618  -4.057  -2.995  1.00  0.00     0.243 C 
ATOM     16  O   UNL     1       4.518  -4.559  -3.219  1.00  0.00    -0.273 OA
ATOM     17  H   UNL     1       6.692  -2.452  -2.263  1.00  0.00     0.164 HD
BRANCH  15  18
ATOM     18  C   UNL     1       6.948  -4.847  -3.036  1.00  0.00     0.171 C 
BRANCH  18  19
ATOM     19  N   UNL     1       6.962  -5.580  -4.300  1.00  0.00    -0.343 N 
ATOM     20  C   UNL     1       6.863  -6.957  -4.346  1.00  0.00     0.242 CG0
ATOM     21  O   UNL     1       6.893  -7.639  -3.324  1.00  0.00    -0.273 OA
ATOM     22  H   UNL     1       7.052  -5.068  -5.171  1.00  0.00     0.164 HD
ATOM     23  G   UNL     1       6.815  -7.545  -5.772  1.00  0.00     0.000 G0
ENDBRANCH  18  19
BRANCH  18  24
ATOM     24  C   UNL     1       8.147  -3.897  -2.924  1.00  0.00     0.038 C 
BRANCH  24  25
ATOM     25  C   UNL     1       9.470  -4.460  -3.484  1.00  0.00    -0.015 C 
ATOM     26  C   UNL     1      10.131  -5.457  -2.533  1.00  0.00     0.007 C 
ATOM     27  C   UNL     1      10.436  -3.308  -3.777  1.00  0.00     0.007 C 
ENDBRANCH  24  25
ENDBRANCH  18  24
ENDBRANCH  15  18
ENDBRANCH  13  14
BRANCH  13  28
ATOM     28  C   UNL     1       4.030  -2.334  -0.946  1.00  0.00     0.327 C 
ATOM     29  O   UNL     1       4.610  -2.372   0.129  1.00  0.00    -0.250 OA
BRANCH  28  30
ATOM     30  O   UNL     1       2.780  -2.826  -1.064  1.00  0.00    -0.480 OA
ATOM     31  H   UNL     1       2.877  -3.586  -1.676  1.00  0.00     0.296 HD
ENDBRANCH  28  30
ENDBRANCH  13  28
ENDBRANCH  11  13
ENDBRANCH   8  11
ENDBRANCH   6   7
BRANCH   6  32
ATOM     32  C   UNL     1       8.222   1.656   0.345  1.00  0.00     0.037 C 
BRANCH  32  33
ATOM     33  C   UNL     1       7.138   2.555   0.955  1.00  0.00     0.026 C 
BRANCH  33  34
ATOM     34  C   UNL     1       6.579   3.563  -0.049  1.00  0.00     0.146 C 
BRANCH  34  35
ATOM     35  N   UNL     1       5.425   2.973  -0.714  1.00  0.00    -0.254 NA
ATOM     36  C   UNL     1       4.298   2.973  -0.105  1.00  0.00     0.185 C 
ATOM     37  N   UNL     1       3.228   2.437  -0.711  1.00  0.00    -0.370 N 
ATOM     38  N   UNL     1       3.998   3.452   1.115  1.00  0.00    -0.370 N 
ATOM     39  H   UNL     1       3.371   2.063  -1.640  1.00  0.00     0.159 HD
ATOM     40  H   UNL     1       2.285   2.552  -0.379  1.00  0.00     0.159 HD
ATOM     41  H   UNL     1       3.105   3.267   1.542  1.00  0.00     0.159 HD
ATOM     42  H   UNL     1       4.711   3.870   1.692  1.00  0.00     0.159 HD
ENDBRANCH  34  35
ENDBRANCH  33  34
ENDBRANCH  32  33
ENDBRANCH   6  32
ENDBRANCH   4   6
ENDBRANCH   1   2
BRANCH   1  43
ATOM     43  C   UNL     1       5.545  -0.861   4.170  1.00  0.00     0.102 C 
ATOM     44  C   UNL     1       4.830  -1.579   5.328  1.00  0.00     0.020 C 
BRANCH  43  45
ATOM     45  C   UNL     1       4.649   0.104   3.389  1.00  0.00     0.225 C 
ATOM     46  O   UNL     1       4.964   1.266   3.149  1.00  0.00    -0.275 OA
ATOM     47  N   UNL     1       3.409  -0.384   3.047  1.00  0.00    -0.342 N 
ATOM     48  H   UNL     1       3.226  -1.376   3.115  1.00  0.00     0.164 HD
BRANCH  47  49
ATOM     49  C   UNL     1       2.459   0.415   2.267  1.00  0.00     0.192 C 
BRANCH  49  50
ATOM     50  C   UNL     1       1.342   0.923   3.182  1.00  0.00     0.047 C 
BRANCH  50  51
ATOM     51  C   UNL     1       1.473   0.386   4.614  1.00  0.00     0.103 C 
BRANCH  51  52
ATOM     52  C   UNL     1       1.927   1.467   5.593  1.00  0.00     0.226 C 
ATOM     53  O   UNL     1       3.004   1.345   6.180  1.00  0.00    -0.275 OA
BRANCH  52  54
ATOM     54  N   UNL     1       1.098   2.598   5.706  1.00  0.00    -0.311 N 
ATOM     55  C   UNL     1       1.550   3.917   5.244  1.00  0.00     0.153 C 
BRANCH  54  56
ATOM     56  C   UNL     1      -0.191   2.509   6.258  1.00  0.00     0.102 C 
ATOM     57  C   UNL     1      -1.333   2.528   5.551  1.00  0.00     0.043 C 
BRANCH  56  58
ATOM     58  C   UNL     1      -0.387   2.332   7.745  1.00  0.00     0.268 C 
ATOM     59  O   UNL     1       0.523   2.043   8.511  1.00  0.00    -0.268 OA
ATOM     60  N   UNL     1      -1.672   2.593   8.156  1.00  0.00    -0.339 N 
ATOM     61  H   UNL     1      -2.371   2.816   7.457  1.00  0.00     0.164 HD
BRANCH  60  62
ATOM     62  C   UNL     1      -2.066   2.543   9.563  1.00  0.00     0.168 CG0
ATOM     63  C   UNL     1      -3.299   1.668   9.756  1.00  0.00     0.041 C 
ATOM     64  G   UNL     1      -2.326   3.974  10.079  1.00  0.00     0.000 G0
ENDBRANCH  60  62
ENDBRANCH  56  58
ENDBRANCH  54  56
ENDBRANCH  52  54
ENDBRANCH  51  52
ENDBRANCH  50  51
ENDBRANCH  49  50
BRANCH  49  65
ATOM     65  C   UNL     1       1.845  -0.398   1.117  1.00  0.00     0.326 C 
ATOM     66  O   UNL     1       1.493   0.054   0.037  1.00  0.00    -0.250 OA
BRANCH  65  67
ATOM     67  O   UNL     1       1.648  -1.706   1.393  1.00  0.00    -0.480 OA
ATOM     68  H   UNL     1       1.010  -1.691   2.138  1.00  0.00     0.296 HD
ENDBRANCH  65  67
ENDBRANCH  49  65
ENDBRANCH  47  49
ENDBRANCH  43  45
ENDBRANCH   1  43
BRANCH   1  69
ATOM     69  C   UNL     1       7.617  -2.427   3.655  1.00  0.00    -0.001 C 
ATOM     70  C   UNL     1       7.807  -3.422   4.539  1.00  0.00     0.001 C 
BRANCH  70  71
ATOM     71  C   UNL     1       9.088  -4.005   4.944  1.00  0.00    -0.055 C 
ATOM     72  C   UNL     1       9.174  -5.351   5.004  1.00  0.00    -0.018 C 
ATOM     73  C   UNL     1      10.220  -3.063   5.258  1.00  0.00     0.044 C 
BRANCH  72  74
ATOM     74  C   UNL     1      10.361  -6.224   5.385  1.00  0.00     0.038 C 
ATOM     75  C   UNL     1      10.773  -5.831   6.809  1.00  0.00     0.015 C 
BRANCH  74  76
ATOM     76  C   UNL     1      11.476  -6.050   4.312  1.00  0.00     0.128 C 
BRANCH  76  77
ATOM     77  O   UNL     1      12.659  -6.760   4.714  1.00  0.00    -0.381 OA
ATOM     78  C   UNL     1      12.590  -8.161   4.487  1.00  0.00     0.195 C 
ENDBRANCH  76  77
BRANCH  76  79
ATOM     79  C   UNL     1      11.024  -6.405   2.872  1.00  0.00     0.068 C 
BRANCH  79  80
ATOM     80  C   UNL     1      10.417  -5.308   2.032  1.00  0.00    -0.045 A 
ATOM     81  C   UNL     1       9.146  -5.456   1.460  1.00  0.00     0.004 A 
ATOM     82  C   UNL     1      11.133  -4.127   1.785  1.00  0.00     0.004 A 
ATOM     83  C   UNL     1       8.597  -4.443   0.671  1.00  0.00     0.000 A 
ATOM     84  C   UNL     1      10.583  -3.114   0.996  1.00  0.00     0.000 A 
ATOM     85  C   UNL     1       9.315  -3.271   0.441  1.00  0.00     0.000 A 
ENDBRANCH  79  80
ENDBRANCH  76  79
ENDBRANCH  74  76
ENDBRANCH  72  74
ENDBRANCH  70  71
ENDBRANCH   1  69
TORSDOF 17
ENDMDL
MODEL 48
REMARK VINA RESULT:    -5.772      2.961     11.800
REMARK INTER + INTRA:         -24.751
REMARK INTER:                 -18.870
REMARK INTRA:                  -5.881
REMARK UNBOUND:                -7.505
REMARK SMILES C=C1C(=O)N[C@H](C)C(=O)N[C@@H](CC(C)C)C(=O)N[C@@H](C(=O)O)[C@H](C)C(=O)N[C@@H](CCCN=C(N)N)C(=O)N[C@@H](/C=C/C(C)=C/[C@H](C)[C@H](Cc2ccccc2)OC)[C@H](C)C(=O)N[C@@H](C(=O)O)CCC(=O)N1C
REMARK SMILES IDX 39 1 38 2 37 3 36 4 28 6 27 7 25 8 26 9 23 11 24 12 19 13
REMARK SMILES IDX 18 14 16 15 17 16 11 18 10 19 8 20 9 21 12 24 13 25 14 26
REMARK SMILES IDX 15 27 20 28 21 29 22 30 29 32 30 33 31 34 32 35 33 36 34 37
REMARK SMILES IDX 35 38 57 43 58 44 59 45 60 46 61 47 62 49 66 50 67 51 68 52
REMARK SMILES IDX 69 53 70 54 71 55 2 56 1 57 3 58 4 59 5 60 6 62 7 63 63 65
REMARK SMILES IDX 64 66 65 67 40 69 41 70 42 71 44 72 43 73 45 74 46 75 47 76
REMARK SMILES IDX 55 77 56 78 48 79 49 80 50 81 54 82 51 83 53 84 52 85
REMARK H PARENT 38 5 27 10 18 17 10 22 22 31 34 39 34 40 35 41 35 42 61 48
REMARK H PARENT 5 61 65 68
REMARK Flexibility Score:  369.900
ROOT
ATOM      1  C   UNL     1       7.304  -2.396   1.791  1.00  0.00     0.117 C 
ENDROOT
BRANCH   1   2
ATOM      2  N   UNL     1       6.035  -1.741   2.107  1.00  0.00    -0.347 N 
ATOM      3  O   UNL     1       6.027  -2.147   4.367  1.00  0.00    -0.273 OA
ATOM      4  C   UNL     1       5.541  -1.589   3.389  1.00  0.00     0.243 C 
ATOM      5  H   UNL     1       5.494  -1.325   1.364  1.00  0.00     0.164 HD
BRANCH   4   6
ATOM      6  C   UNL     1       4.219  -0.782   3.455  1.00  0.00     0.171 C 
BRANCH   6   7
ATOM      7  N   UNL     1       4.388   0.412   4.299  1.00  0.00    -0.344 N 
ATOM      8  C   UNL     1       3.408   0.785   5.193  1.00  0.00     0.226 C 
ATOM      9  O   UNL     1       2.356   0.168   5.315  1.00  0.00    -0.275 OA
ATOM     10  H   UNL     1       5.213   0.986   4.178  1.00  0.00     0.164 HD
BRANCH   8  11
ATOM     11  C   UNL     1       3.754   2.006   6.027  1.00  0.00     0.109 C 
ATOM     12  C   UNL     1       5.246   2.316   5.912  1.00  0.00     0.021 C 
BRANCH  11  13
ATOM     13  C   UNL     1       2.819   3.174   5.656  1.00  0.00     0.204 C 
BRANCH  13  14
ATOM     14  N   UNL     1       1.406   2.785   5.700  1.00  0.00    -0.340 N 
ATOM     15  C   UNL     1       0.532   3.021   4.661  1.00  0.00     0.243 C 
ATOM     16  O   UNL     1       0.891   3.522   3.597  1.00  0.00    -0.273 OA
ATOM     17  H   UNL     1       1.012   2.506   6.603  1.00  0.00     0.164 HD
BRANCH  15  18
ATOM     18  C   UNL     1      -0.945   2.715   5.013  1.00  0.00     0.171 C 
BRANCH  18  19
ATOM     19  N   UNL     1      -1.580   2.247   3.783  1.00  0.00    -0.343 N 
ATOM     20  C   UNL     1      -2.648   2.915   3.214  1.00  0.00     0.242 CG0
ATOM     21  O   UNL     1      -3.196   3.855   3.785  1.00  0.00    -0.273 OA
ATOM     22  H   UNL     1      -1.236   1.406   3.334  1.00  0.00     0.164 HD
ATOM     23  G   UNL     1      -3.133   2.317   1.878  1.00  0.00     0.000 G0
ENDBRANCH  18  19
BRANCH  18  24
ATOM     24  C   UNL     1      -1.029   1.662   6.125  1.00  0.00     0.038 C 
BRANCH  24  25
ATOM     25  C   UNL     1      -2.433   1.489   6.743  1.00  0.00    -0.015 C 
ATOM     26  C   UNL     1      -3.049   2.819   7.179  1.00  0.00     0.007 C 
ATOM     27  C   UNL     1      -2.354   0.541   7.942  1.00  0.00     0.007 C 
ENDBRANCH  24  25
ENDBRANCH  18  24
ENDBRANCH  15  18
ENDBRANCH  13  14
BRANCH  13  28
ATOM     28  C   UNL     1       2.982   4.392   6.569  1.00  0.00     0.327 C 
ATOM     29  O   UNL     1       2.372   4.606   7.605  1.00  0.00    -0.250 OA
BRANCH  28  30
ATOM     30  O   UNL     1       3.816   5.324   6.063  1.00  0.00    -0.480 OA
ATOM     31  H   UNL     1       3.248   5.861   5.473  1.00  0.00     0.296 HD
ENDBRANCH  28  30
ENDBRANCH  13  28
ENDBRANCH  11  13
ENDBRANCH   8  11
ENDBRANCH   6   7
BRANCH   6  32
ATOM     32  C   UNL     1       3.794  -0.393   2.035  1.00  0.00     0.037 C 
BRANCH  32  33
ATOM     33  C   UNL     1       2.418  -0.964   1.666  1.00  0.00     0.026 C 
BRANCH  33  34
ATOM     34  C   UNL     1       1.307   0.083   1.756  1.00  0.00     0.146 C 
BRANCH  34  35
ATOM     35  N   UNL     1       0.919   0.473   0.407  1.00  0.00    -0.254 NA
ATOM     36  C   UNL     1       1.078   1.693   0.051  1.00  0.00     0.185 C 
ATOM     37  N   UNL     1       0.728   2.062  -1.191  1.00  0.00    -0.370 N 
ATOM     38  N   UNL     1       1.569   2.724   0.762  1.00  0.00    -0.370 N 
ATOM     39  H   UNL     1       0.358   1.338  -1.793  1.00  0.00     0.159 HD
ATOM     40  H   UNL     1       0.980   2.946  -1.600  1.00  0.00     0.159 HD
ATOM     41  H   UNL     1       1.514   3.668   0.416  1.00  0.00     0.159 HD
ATOM     42  H   UNL     1       1.858   2.595   1.719  1.00  0.00     0.159 HD
ENDBRANCH  34  35
ENDBRANCH  33  34
ENDBRANCH  32  33
ENDBRANCH   6  32
ENDBRANCH   4   6
ENDBRANCH   1   2
BRANCH   1  43
ATOM     43  C   UNL     1       8.428  -1.320   1.780  1.00  0.00     0.102 C 
ATOM     44  C   UNL     1       8.982  -1.028   0.376  1.00  0.00     0.020 C 
BRANCH  43  45
ATOM     45  C   UNL     1       9.506  -1.640   2.820  1.00  0.00     0.225 C 
ATOM     46  O   UNL     1      10.697  -1.746   2.541  1.00  0.00    -0.275 OA
ATOM     47  N   UNL     1       9.045  -1.898   4.091  1.00  0.00    -0.342 N 
ATOM     48  H   UNL     1       8.095  -1.659   4.336  1.00  0.00     0.164 HD
BRANCH  47  49
ATOM     49  C   UNL     1       9.965  -2.183   5.196  1.00  0.00     0.192 C 
BRANCH  49  50
ATOM     50  C   UNL     1      10.275  -3.682   5.233  1.00  0.00     0.047 C 
BRANCH  50  51
ATOM     51  C   UNL     1       9.002  -4.539   5.249  1.00  0.00     0.103 C 
BRANCH  51  52
ATOM     52  C   UNL     1       9.082  -5.666   6.277  1.00  0.00     0.226 C 
ATOM     53  O   UNL     1       8.156  -5.833   7.073  1.00  0.00    -0.275 OA
BRANCH  52  54
ATOM     54  N   UNL     1      10.206  -6.510   6.196  1.00  0.00    -0.311 N 
ATOM     55  C   UNL     1      11.559  -5.992   6.436  1.00  0.00     0.153 C 
BRANCH  54  56
ATOM     56  C   UNL     1      10.076  -7.874   5.888  1.00  0.00     0.102 C 
ATOM     57  C   UNL     1       9.156  -8.391   5.058  1.00  0.00     0.043 C 
BRANCH  56  58
ATOM     58  C   UNL     1      11.034  -8.892   6.461  1.00  0.00     0.268 C 
ATOM     59  O   UNL     1      11.887  -9.460   5.792  1.00  0.00    -0.268 OA
ATOM     60  N   UNL     1      10.893  -9.063   7.818  1.00  0.00    -0.339 N 
ATOM     61  H   UNL     1      10.155  -8.562   8.298  1.00  0.00     0.164 HD
BRANCH  60  62
ATOM     62  C   UNL     1      11.761  -9.955   8.585  1.00  0.00     0.168 CG0
ATOM     63  C   UNL     1      12.859  -9.173   9.294  1.00  0.00     0.041 C 
ATOM     64  G   UNL     1      12.367 -11.019   7.647  1.00  0.00     0.000 G0
ENDBRANCH  60  62
ENDBRANCH  56  58
ENDBRANCH  54  56
ENDBRANCH  52  54
ENDBRANCH  51  52
ENDBRANCH  50  51
ENDBRANCH  49  50
BRANCH  49  65
ATOM     65  C   UNL     1       9.378  -1.751   6.549  1.00  0.00     0.326 C 
ATOM     66  O   UNL     1       8.218  -1.420   6.746  1.00  0.00    -0.250 OA
BRANCH  65  67
ATOM     67  O   UNL     1      10.272  -1.696   7.560  1.00  0.00    -0.480 OA
ATOM     68  H   UNL     1      10.095  -0.826   7.979  1.00  0.00     0.296 HD
ENDBRANCH  65  67
ENDBRANCH  49  65
ENDBRANCH  47  49
ENDBRANCH  43  45
ENDBRANCH   1  43
BRANCH   1  69
ATOM     69  C   UNL     1       7.059  -3.213   0.535  1.00  0.00    -0.001 C 
ATOM     70  C   UNL     1       5.919  -3.298  -0.174  1.00  0.00     0.001 C 
BRANCH  70  71
ATOM     71  C   UNL     1       5.701  -4.073  -1.397  1.00  0.00    -0.055 C 
ATOM     72  C   UNL     1       6.789  -4.506  -2.069  1.00  0.00    -0.018 C 
ATOM     73  C   UNL     1       4.278  -4.340  -1.814  1.00  0.00     0.044 C 
BRANCH  72  74
ATOM     74  C   UNL     1       6.867  -5.323  -3.350  1.00  0.00     0.038 C 
ATOM     75  C   UNL     1       6.894  -6.801  -2.944  1.00  0.00     0.015 C 
BRANCH  74  76
ATOM     76  C   UNL     1       8.102  -4.849  -4.172  1.00  0.00     0.128 C 
BRANCH  76  77
ATOM     77  O   UNL     1       7.670  -4.104  -5.322  1.00  0.00    -0.381 OA
ATOM     78  C   UNL     1       8.429  -2.925  -5.558  1.00  0.00     0.195 C 
ENDBRANCH  76  77
BRANCH  76  79
ATOM     79  C   UNL     1       9.164  -4.095  -3.333  1.00  0.00     0.068 C 
BRANCH  79  80
ATOM     80  C   UNL     1      10.215  -4.912  -2.622  1.00  0.00    -0.045 A 
ATOM     81  C   UNL     1      11.010  -5.830  -3.321  1.00  0.00     0.004 A 
ATOM     82  C   UNL     1      10.393  -4.784  -1.236  1.00  0.00     0.004 A 
ATOM     83  C   UNL     1      11.971  -6.593  -2.653  1.00  0.00     0.000 A 
ATOM     84  C   UNL     1      11.354  -5.548  -0.570  1.00  0.00     0.000 A 
ATOM     85  C   UNL     1      12.143  -6.451  -1.278  1.00  0.00     0.000 A 
ENDBRANCH  79  80
ENDBRANCH  76  79
ENDBRANCH  74  76
ENDBRANCH  72  74
ENDBRANCH  70  71
ENDBRANCH   1  69
TORSDOF 17
ENDMDL
MODEL 49
REMARK VINA RESULT:    -5.762      4.347      7.601
REMARK INTER + INTRA:         -24.719
REMARK INTER:                 -16.158
REMARK INTRA:                  -8.561
REMARK UNBOUND:                -7.505
REMARK SMILES C=C1C(=O)N[C@H](C)C(=O)N[C@@H](CC(C)C)C(=O)N[C@@H](C(=O)O)[C@H](C)C(=O)N[C@@H](CCCN=C(N)N)C(=O)N[C@@H](/C=C/C(C)=C/[C@H](C)[C@H](Cc2ccccc2)OC)[C@H](C)C(=O)N[C@@H](C(=O)O)CCC(=O)N1C
REMARK SMILES IDX 39 1 38 2 37 3 36 4 28 6 27 7 25 8 26 9 23 11 24 12 19 13
REMARK SMILES IDX 18 14 16 15 17 16 11 18 10 19 8 20 9 21 12 24 13 25 14 26
REMARK SMILES IDX 15 27 20 28 21 29 22 30 29 32 30 33 31 34 32 35 33 36 34 37
REMARK SMILES IDX 35 38 57 43 58 44 59 45 60 46 61 47 62 49 66 50 67 51 68 52
REMARK SMILES IDX 69 53 70 54 71 55 2 56 1 57 3 58 4 59 5 60 6 62 7 63 63 65
REMARK SMILES IDX 64 66 65 67 40 69 41 70 42 71 44 72 43 73 45 74 46 75 47 76
REMARK SMILES IDX 55 77 56 78 48 79 49 80 50 81 54 82 51 83 53 84 52 85
REMARK H PARENT 38 5 27 10 18 17 10 22 22 31 34 39 34 40 35 41 35 42 61 48
REMARK H PARENT 5 61 65 68
REMARK Flexibility Score:  369.900
ROOT
ATOM      1  C   UNL     1       5.945  -1.597   2.948  1.00  0.00     0.117 C 
ENDROOT
BRANCH   1   2
ATOM      2  N   UNL     1       6.077  -0.797   1.730  1.00  0.00    -0.347 N 
ATOM      3  O   UNL     1       8.062   0.235   2.247  1.00  0.00    -0.273 OA
ATOM      4  C   UNL     1       7.175  -0.012   1.436  1.00  0.00     0.243 C 
ATOM      5  H   UNL     1       5.357  -0.846   1.025  1.00  0.00     0.164 HD
BRANCH   4   6
ATOM      6  C   UNL     1       7.104   0.663   0.042  1.00  0.00     0.171 C 
BRANCH   6   7
ATOM      7  N   UNL     1       5.858   0.290  -0.647  1.00  0.00    -0.344 N 
ATOM      8  C   UNL     1       5.884  -0.170  -1.945  1.00  0.00     0.226 C 
ATOM      9  O   UNL     1       6.921  -0.269  -2.590  1.00  0.00    -0.275 OA
ATOM     10  H   UNL     1       4.975   0.421  -0.170  1.00  0.00     0.164 HD
BRANCH   8  11
ATOM     11  C   UNL     1       4.525  -0.566  -2.496  1.00  0.00     0.109 C 
ATOM     12  C   UNL     1       4.411  -0.149  -3.963  1.00  0.00     0.021 C 
BRANCH  11  13
ATOM     13  C   UNL     1       4.267  -2.061  -2.225  1.00  0.00     0.204 C 
BRANCH  13  14
ATOM     14  N   UNL     1       5.461  -2.879  -2.462  1.00  0.00    -0.340 N 
ATOM     15  C   UNL     1       5.401  -4.170  -2.940  1.00  0.00     0.243 C 
ATOM     16  O   UNL     1       4.343  -4.707  -3.259  1.00  0.00    -0.273 OA
ATOM     17  H   UNL     1       6.352  -2.551  -2.078  1.00  0.00     0.164 HD
BRANCH  15  18
ATOM     18  C   UNL     1       6.765  -4.904  -2.912  1.00  0.00     0.171 C 
BRANCH  18  19
ATOM     19  N   UNL     1       6.904  -5.578  -4.201  1.00  0.00    -0.343 N 
ATOM     20  C   UNL     1       6.890  -6.955  -4.309  1.00  0.00     0.242 CG0
ATOM     21  O   UNL     1       6.893  -7.678  -3.315  1.00  0.00    -0.273 OA
ATOM     22  H   UNL     1       7.021  -5.024  -5.042  1.00  0.00     0.164 HD
ATOM     23  G   UNL     1       6.970  -7.481  -5.756  1.00  0.00     0.000 G0
ENDBRANCH  18  19
BRANCH  18  24
ATOM     24  C   UNL     1       7.909  -3.911  -2.669  1.00  0.00     0.038 C 
BRANCH  24  25
ATOM     25  C   UNL     1       8.611  -4.058  -1.303  1.00  0.00    -0.015 C 
ATOM     26  C   UNL     1       7.928  -5.087  -0.401  1.00  0.00     0.007 C 
ATOM     27  C   UNL     1       8.651  -2.701  -0.597  1.00  0.00     0.007 C 
ENDBRANCH  24  25
ENDBRANCH  18  24
ENDBRANCH  15  18
ENDBRANCH  13  14
BRANCH  13  28
ATOM     28  C   UNL     1       3.801  -2.343  -0.794  1.00  0.00     0.327 C 
ATOM     29  O   UNL     1       4.518  -2.547   0.173  1.00  0.00    -0.250 OA
BRANCH  28  30
ATOM     30  O   UNL     1       2.462  -2.470  -0.689  1.00  0.00    -0.480 OA
ATOM     31  H   UNL     1       2.154  -1.574  -0.438  1.00  0.00     0.296 HD
ENDBRANCH  28  30
ENDBRANCH  13  28
ENDBRANCH  11  13
ENDBRANCH   8  11
ENDBRANCH   6   7
BRANCH   6  32
ATOM     32  C   UNL     1       7.200   2.183   0.214  1.00  0.00     0.037 C 
BRANCH  32  33
ATOM     33  C   UNL     1       5.823   2.860   0.162  1.00  0.00     0.026 C 
BRANCH  33  34
ATOM     34  C   UNL     1       5.877   4.330   0.581  1.00  0.00     0.146 C 
BRANCH  34  35
ATOM     35  N   UNL     1       6.291   4.406   1.975  1.00  0.00    -0.254 NA
ATOM     36  C   UNL     1       5.397   4.597   2.872  1.00  0.00     0.185 C 
ATOM     37  N   UNL     1       5.767   4.664   4.160  1.00  0.00    -0.370 N 
ATOM     38  N   UNL     1       4.069   4.750   2.722  1.00  0.00    -0.370 N 
ATOM     39  H   UNL     1       6.753   4.547   4.356  1.00  0.00     0.159 HD
ATOM     40  H   UNL     1       5.117   4.637   4.927  1.00  0.00     0.159 HD
ATOM     41  H   UNL     1       3.487   5.035   3.493  1.00  0.00     0.159 HD
ATOM     42  H   UNL     1       3.652   4.738   1.804  1.00  0.00     0.159 HD
ENDBRANCH  34  35
ENDBRANCH  33  34
ENDBRANCH  32  33
ENDBRANCH   6  32
ENDBRANCH   4   6
ENDBRANCH   1   2
BRANCH   1  43
ATOM     43  C   UNL     1       5.344  -0.698   4.067  1.00  0.00     0.102 C 
ATOM     44  C   UNL     1       4.687  -1.496   5.206  1.00  0.00     0.020 C 
BRANCH  43  45
ATOM     45  C   UNL     1       4.446   0.393   3.474  1.00  0.00     0.225 C 
ATOM     46  O   UNL     1       4.749   1.582   3.471  1.00  0.00    -0.275 OA
ATOM     47  N   UNL     1       3.218  -0.033   3.022  1.00  0.00    -0.342 N 
ATOM     48  H   UNL     1       3.047  -1.020   2.892  1.00  0.00     0.164 HD
BRANCH  47  49
ATOM     49  C   UNL     1       2.269   0.894   2.397  1.00  0.00     0.192 C 
BRANCH  49  50
ATOM     50  C   UNL     1       0.885   0.713   3.025  1.00  0.00     0.047 C 
BRANCH  50  51
ATOM     51  C   UNL     1       0.963   0.189   4.465  1.00  0.00     0.103 C 
BRANCH  51  52
ATOM     52  C   UNL     1       1.317   1.294   5.459  1.00  0.00     0.226 C 
ATOM     53  O   UNL     1       2.420   1.289   6.009  1.00  0.00    -0.275 OA
BRANCH  52  54
ATOM     54  N   UNL     1       0.363   2.315   5.628  1.00  0.00    -0.311 N 
ATOM     55  C   UNL     1       0.655   3.697   5.225  1.00  0.00     0.153 C 
BRANCH  54  56
ATOM     56  C   UNL     1      -0.901   2.051   6.180  1.00  0.00     0.102 C 
ATOM     57  C   UNL     1      -2.044   1.967   5.478  1.00  0.00     0.043 C 
BRANCH  56  58
ATOM     58  C   UNL     1      -1.062   1.788   7.659  1.00  0.00     0.268 C 
ATOM     59  O   UNL     1      -0.598   0.803   8.218  1.00  0.00    -0.268 OA
ATOM     60  N   UNL     1      -1.721   2.798   8.318  1.00  0.00    -0.339 N 
ATOM     61  H   UNL     1      -2.084   3.576   7.780  1.00  0.00     0.164 HD
BRANCH  60  62
ATOM     62  C   UNL     1      -1.930   2.776   9.765  1.00  0.00     0.168 CG0
ATOM     63  C   UNL     1      -3.273   2.145  10.115  1.00  0.00     0.041 C 
ATOM     64  G   UNL     1      -1.840   4.211  10.322  1.00  0.00     0.000 G0
ENDBRANCH  60  62
ENDBRANCH  56  58
ENDBRANCH  54  56
ENDBRANCH  52  54
ENDBRANCH  51  52
ENDBRANCH  50  51
ENDBRANCH  49  50
BRANCH  49  65
ATOM     65  C   UNL     1       2.174   0.669   0.880  1.00  0.00     0.326 C 
ATOM     66  O   UNL     1       2.887   1.194   0.037  1.00  0.00    -0.250 OA
BRANCH  65  67
ATOM     67  O   UNL     1       1.164  -0.141   0.492  1.00  0.00    -0.480 OA
ATOM     68  H   UNL     1       0.358   0.345   0.769  1.00  0.00     0.296 HD
ENDBRANCH  65  67
ENDBRANCH  49  65
ENDBRANCH  47  49
ENDBRANCH  43  45
ENDBRANCH   1  43
BRANCH   1  69
ATOM     69  C   UNL     1       7.296  -2.248   3.177  1.00  0.00    -0.001 C 
ATOM     70  C   UNL     1       7.651  -3.515   2.899  1.00  0.00     0.001 C 
BRANCH  70  71
ATOM     71  C   UNL     1       8.965  -4.126   3.104  1.00  0.00    -0.055 C 
ATOM     72  C   UNL     1      10.051  -3.429   2.708  1.00  0.00    -0.018 C 
ATOM     73  C   UNL     1       9.014  -5.486   3.751  1.00  0.00     0.044 C 
BRANCH  72  74
ATOM     74  C   UNL     1      11.523  -3.806   2.797  1.00  0.00     0.038 C 
ATOM     75  C   UNL     1      12.036  -3.310   4.154  1.00  0.00     0.015 C 
BRANCH  74  76
ATOM     76  C   UNL     1      12.266  -3.216   1.562  1.00  0.00     0.128 C 
BRANCH  76  77
ATOM     77  O   UNL     1      12.625  -1.846   1.813  1.00  0.00    -0.381 OA
ATOM     78  C   UNL     1      13.967  -1.535   1.467  1.00  0.00     0.195 C 
ENDBRANCH  76  77
BRANCH  76  79
ATOM     79  C   UNL     1      13.465  -4.071   1.082  1.00  0.00     0.068 C 
BRANCH  79  80
ATOM     80  C   UNL     1      13.204  -5.134   0.042  1.00  0.00    -0.045 A 
ATOM     81  C   UNL     1      12.013  -5.145  -0.695  1.00  0.00     0.004 A 
ATOM     82  C   UNL     1      14.146  -6.150  -0.183  1.00  0.00     0.004 A 
ATOM     83  C   UNL     1      11.773  -6.140  -1.645  1.00  0.00     0.000 A 
ATOM     84  C   UNL     1      13.904  -7.145  -1.133  1.00  0.00     0.000 A 
ATOM     85  C   UNL     1      12.719  -7.139  -1.865  1.00  0.00     0.000 A 
ENDBRANCH  79  80
ENDBRANCH  76  79
ENDBRANCH  74  76
ENDBRANCH  72  74
ENDBRANCH  70  71
ENDBRANCH   1  69
TORSDOF 17
ENDMDL
MODEL 50
REMARK VINA RESULT:    -5.724      3.471     12.483
REMARK INTER + INTRA:         -24.605
REMARK INTER:                 -16.049
REMARK INTRA:                  -8.556
REMARK UNBOUND:                -7.505
REMARK SMILES C=C1C(=O)N[C@H](C)C(=O)N[C@@H](CC(C)C)C(=O)N[C@@H](C(=O)O)[C@H](C)C(=O)N[C@@H](CCCN=C(N)N)C(=O)N[C@@H](/C=C/C(C)=C/[C@H](C)[C@H](Cc2ccccc2)OC)[C@H](C)C(=O)N[C@@H](C(=O)O)CCC(=O)N1C
REMARK SMILES IDX 39 1 38 2 37 3 36 4 28 6 27 7 25 8 26 9 23 11 24 12 19 13
REMARK SMILES IDX 18 14 16 15 17 16 11 18 10 19 8 20 9 21 12 24 13 25 14 26
REMARK SMILES IDX 15 27 20 28 21 29 22 30 29 32 30 33 31 34 32 35 33 36 34 37
REMARK SMILES IDX 35 38 57 43 58 44 59 45 60 46 61 47 62 49 66 50 67 51 68 52
REMARK SMILES IDX 69 53 70 54 71 55 2 56 1 57 3 58 4 59 5 60 6 62 7 63 63 65
REMARK SMILES IDX 64 66 65 67 40 69 41 70 42 71 44 72 43 73 45 74 46 75 47 76
REMARK SMILES IDX 55 77 56 78 48 79 49 80 50 81 54 82 51 83 53 84 52 85
REMARK H PARENT 38 5 27 10 18 17 10 22 22 31 34 39 34 40 35 41 35 42 61 48
REMARK H PARENT 5 61 65 68
REMARK Flexibility Score:  369.900
ROOT
ATOM      1  C   UNL     1       7.132  -2.003   3.468  1.00  0.00     0.117 C 
ENDROOT
BRANCH   1   2
ATOM      2  N   UNL     1       7.001  -2.574   2.127  1.00  0.00    -0.347 N 
ATOM      3  O   UNL     1       8.699  -1.403   1.120  1.00  0.00    -0.273 OA
ATOM      4  C   UNL     1       7.858  -2.294   1.080  1.00  0.00     0.243 C 
ATOM      5  H   UNL     1       6.278  -3.254   1.948  1.00  0.00     0.164 HD
BRANCH   4   6
ATOM      6  C   UNL     1       7.550  -3.097  -0.210  1.00  0.00     0.171 C 
BRANCH   6   7
ATOM      7  N   UNL     1       7.216  -2.186  -1.316  1.00  0.00    -0.344 N 
ATOM      8  C   UNL     1       5.903  -1.972  -1.678  1.00  0.00     0.226 C 
ATOM      9  O   UNL     1       4.966  -2.533  -1.124  1.00  0.00    -0.275 OA
ATOM     10  H   UNL     1       7.967  -1.756  -1.841  1.00  0.00     0.164 HD
BRANCH   8  11
ATOM     11  C   UNL     1       5.721  -0.964  -2.799  1.00  0.00     0.109 C 
ATOM     12  C   UNL     1       6.374  -1.480  -4.081  1.00  0.00     0.021 C 
BRANCH  11  13
ATOM     13  C   UNL     1       4.229  -0.598  -2.934  1.00  0.00     0.204 C 
BRANCH  13  14
ATOM     14  N   UNL     1       3.829   0.444  -1.983  1.00  0.00    -0.340 N 
ATOM     15  C   UNL     1       4.648   1.497  -1.639  1.00  0.00     0.243 C 
ATOM     16  O   UNL     1       5.751   1.671  -2.153  1.00  0.00    -0.273 OA
ATOM     17  H   UNL     1       2.996   0.278  -1.412  1.00  0.00     0.164 HD
BRANCH  15  18
ATOM     18  C   UNL     1       4.099   2.350  -0.469  1.00  0.00     0.171 C 
BRANCH  18  19
ATOM     19  N   UNL     1       2.644   2.352  -0.598  1.00  0.00    -0.343 N 
ATOM     20  C   UNL     1       1.918   3.527  -0.646  1.00  0.00     0.242 CG0
ATOM     21  O   UNL     1       2.446   4.618  -0.448  1.00  0.00    -0.273 OA
ATOM     22  H   UNL     1       2.148   1.470  -0.648  1.00  0.00     0.164 HD
ATOM     23  G   UNL     1       0.403   3.331  -0.864  1.00  0.00     0.000 G0
ENDBRANCH  18  19
BRANCH  18  24
ATOM     24  C   UNL     1       4.543   1.769   0.879  1.00  0.00     0.038 C 
BRANCH  24  25
ATOM     25  C   UNL     1       5.785   2.447   1.496  1.00  0.00    -0.015 C 
ATOM     26  C   UNL     1       5.982   3.877   0.993  1.00  0.00     0.007 C 
ATOM     27  C   UNL     1       7.032   1.615   1.186  1.00  0.00     0.007 C 
ENDBRANCH  24  25
ENDBRANCH  18  24
ENDBRANCH  15  18
ENDBRANCH  13  14
BRANCH  13  28
ATOM     28  C   UNL     1       3.852  -0.104  -4.334  1.00  0.00     0.327 C 
ATOM     29  O   UNL     1       3.275  -0.748  -5.196  1.00  0.00    -0.250 OA
BRANCH  28  30
ATOM     30  O   UNL     1       4.329   1.127  -4.606  1.00  0.00    -0.480 OA
ATOM     31  H   UNL     1       5.213   0.963  -4.996  1.00  0.00     0.296 HD
ENDBRANCH  28  30
ENDBRANCH  13  28
ENDBRANCH  11  13
ENDBRANCH   8  11
ENDBRANCH   6   7
BRANCH   6  32
ATOM     32  C   UNL     1       8.762  -3.966  -0.563  1.00  0.00     0.037 C 
BRANCH  32  33
ATOM     33  C   UNL     1       9.106  -3.900  -2.058  1.00  0.00     0.026 C 
BRANCH  33  34
ATOM     34  C   UNL     1       8.585  -5.112  -2.832  1.00  0.00     0.146 C 
BRANCH  34  35
ATOM     35  N   UNL     1       7.270  -4.795  -3.371  1.00  0.00    -0.254 NA
ATOM     36  C   UNL     1       6.240  -5.341  -2.840  1.00  0.00     0.185 C 
ATOM     37  N   UNL     1       5.023  -5.052  -3.326  1.00  0.00    -0.370 N 
ATOM     38  N   UNL     1       6.178  -6.207  -1.813  1.00  0.00    -0.370 N 
ATOM     39  H   UNL     1       4.985  -4.397  -4.096  1.00  0.00     0.159 HD
ATOM     40  H   UNL     1       4.166  -5.298  -2.861  1.00  0.00     0.159 HD
ATOM     41  H   UNL     1       5.318  -6.674  -1.576  1.00  0.00     0.159 HD
ATOM     42  H   UNL     1       7.020  -6.526  -1.359  1.00  0.00     0.159 HD
ENDBRANCH  34  35
ENDBRANCH  33  34
ENDBRANCH  32  33
ENDBRANCH   6  32
ENDBRANCH   4   6
ENDBRANCH   1   2
BRANCH   1  43
ATOM     43  C   UNL     1       7.692  -3.099   4.420  1.00  0.00     0.102 C 
ATOM     44  C   UNL     1       7.146  -2.999   5.855  1.00  0.00     0.020 C 
BRANCH  43  45
ATOM     45  C   UNL     1       9.220  -3.169   4.340  1.00  0.00     0.225 C 
ATOM     46  O   UNL     1       9.820  -3.671   3.394  1.00  0.00    -0.275 OA
ATOM     47  N   UNL     1       9.892  -2.712   5.451  1.00  0.00    -0.342 N 
ATOM     48  H   UNL     1       9.400  -2.169   6.146  1.00  0.00     0.164 HD
BRANCH  47  49
ATOM     49  C   UNL     1      11.357  -2.686   5.502  1.00  0.00     0.192 C 
BRANCH  49  50
ATOM     50  C   UNL     1      11.860  -3.789   6.436  1.00  0.00     0.047 C 
BRANCH  50  51
ATOM     51  C   UNL     1      12.041  -5.129   5.710  1.00  0.00     0.103 C 
BRANCH  51  52
ATOM     52  C   UNL     1      10.896  -6.098   5.998  1.00  0.00     0.226 C 
ATOM     53  O   UNL     1       9.923  -5.715   6.652  1.00  0.00    -0.275 OA
BRANCH  52  54
ATOM     54  N   UNL     1      10.995  -7.376   5.419  1.00  0.00    -0.311 N 
ATOM     55  C   UNL     1      10.269  -7.706   4.186  1.00  0.00     0.153 C 
BRANCH  54  56
ATOM     56  C   UNL     1      11.793  -8.380   5.993  1.00  0.00     0.102 C 
ATOM     57  C   UNL     1      11.539  -8.990   7.162  1.00  0.00     0.043 C 
BRANCH  56  58
ATOM     58  C   UNL     1      13.022  -8.895   5.280  1.00  0.00     0.268 C 
ATOM     59  O   UNL     1      14.023  -8.216   5.096  1.00  0.00    -0.268 OA
ATOM     60  N   UNL     1      12.923 -10.218   4.921  1.00  0.00    -0.339 N 
ATOM     61  H   UNL     1      12.055 -10.708   5.100  1.00  0.00     0.164 HD
BRANCH  60  62
ATOM     62  C   UNL     1      14.022 -10.934   4.276  1.00  0.00     0.168 CG0
ATOM     63  C   UNL     1      13.852 -10.948   2.762  1.00  0.00     0.041 C 
ATOM     64  G   UNL     1      14.099 -12.372   4.829  1.00  0.00     0.000 G0
ENDBRANCH  60  62
ENDBRANCH  56  58
ENDBRANCH  54  56
ENDBRANCH  52  54
ENDBRANCH  51  52
ENDBRANCH  50  51
ENDBRANCH  49  50
BRANCH  49  65
ATOM     65  C   UNL     1      11.883  -1.327   5.990  1.00  0.00     0.326 C 
ATOM     66  O   UNL     1      11.493  -0.234   5.605  1.00  0.00    -0.250 OA
BRANCH  65  67
ATOM     67  O   UNL     1      12.898  -1.401   6.879  1.00  0.00    -0.480 OA
ATOM     68  H   UNL     1      12.442  -1.465   7.746  1.00  0.00     0.296 HD
ENDBRANCH  65  67
ENDBRANCH  49  65
ENDBRANCH  47  49
ENDBRANCH  43  45
ENDBRANCH   1  43
BRANCH   1  69
ATOM     69  C   UNL     1       5.793  -1.366   3.789  1.00  0.00    -0.001 C 
ATOM     70  C   UNL     1       5.566  -0.108   4.209  1.00  0.00     0.001 C 
BRANCH  70  71
ATOM     71  C   UNL     1       4.267   0.502   4.496  1.00  0.00    -0.055 C 
ATOM     72  C   UNL     1       3.223   0.155   3.713  1.00  0.00    -0.018 C 
ATOM     73  C   UNL     1       4.184   1.468   5.649  1.00  0.00     0.044 C 
BRANCH  72  74
ATOM     74  C   UNL     1       1.775   0.620   3.776  1.00  0.00     0.038 C 
ATOM     75  C   UNL     1       0.898  -0.637   3.813  1.00  0.00     0.015 C 
BRANCH  74  76
ATOM     76  C   UNL     1       1.502   1.572   2.575  1.00  0.00     0.128 C 
BRANCH  76  77
ATOM     77  O   UNL     1       0.633   0.929   1.627  1.00  0.00    -0.381 OA
ATOM     78  C   UNL     1      -0.546   1.670   1.339  1.00  0.00     0.195 C 
ENDBRANCH  76  77
BRANCH  76  79
ATOM     79  C   UNL     1       1.001   2.979   2.989  1.00  0.00     0.068 C 
BRANCH  79  80
ATOM     80  C   UNL     1       1.934   3.853   3.792  1.00  0.00    -0.045 A 
ATOM     81  C   UNL     1       3.069   4.427   3.206  1.00  0.00     0.004 A 
ATOM     82  C   UNL     1       1.690   4.082   5.155  1.00  0.00     0.004 A 
ATOM     83  C   UNL     1       3.935   5.223   3.960  1.00  0.00     0.000 A 
ATOM     84  C   UNL     1       2.556   4.878   5.908  1.00  0.00     0.000 A 
ATOM     85  C   UNL     1       3.677   5.449   5.310  1.00  0.00     0.000 A 
ENDBRANCH  79  80
ENDBRANCH  76  79
ENDBRANCH  74  76
ENDBRANCH  72  74
ENDBRANCH  70  71
ENDBRANCH   1  69
TORSDOF 17
ENDMDL
