MODEL 1
REMARK VINA RESULT:    -6.105      0.000      0.000
REMARK INTER + INTRA:         -13.390
REMARK INTER:                 -10.923
REMARK INTRA:                  -2.467
REMARK UNBOUND:                -2.467
REMARK SMILES CC[C@H](C)[C@H]1NC(=O)c2coc(n2)[C@H](C(C)C)NC(=O)[C@H]([C@@H](C)O)NC(=O)[C@H](C)NC(=O)c2csc1n2
REMARK SMILES IDX 11 1 13 2 12 3 9 4 10 5 7 6 6 7 8 8 5 10 36 11 35 12 34 13
REMARK SMILES IDX 37 14 33 15 31 16 32 17 30 18 28 20 29 21 3 23 4 24 2 25
REMARK SMILES IDX 1 26 14 27 18 28 19 29 20 30 21 32 25 33 26 34 27 35 22 38
REMARK SMILES IDX 23 39 24 40 15 42 16 43 17 44
REMARK H PARENT 6 9 30 19 18 31 25 36 24 41
REMARK Flexibility Score:   94.900
ROOT
ATOM      1  O   UNL     1      -2.739   4.389  -3.191  1.00  0.00    -0.446 OA
ATOM      2  N   UNL     1      -2.290   2.490  -2.062  1.00  0.00    -0.207 NA
ATOM      3  C   UNL     1      -2.937   3.039  -3.075  1.00  0.00     0.217 A 
ATOM      4  C   UNL     1      -1.600   3.545  -1.490  1.00  0.00     0.167 A 
ATOM      5  C   UNL     1      -1.877   4.698  -2.182  1.00  0.00     0.231 A 
ENDROOT
BRANCH   4   6
ATOM      6  C   UNL     1      -0.754   3.396  -0.318  1.00  0.00     0.273 C 
ATOM      7  N   UNL     1      -0.318   2.104  -0.164  1.00  0.00    -0.341 N 
ATOM      8  O   UNL     1      -0.490   4.315   0.448  1.00  0.00    -0.267 OA
ATOM      9  H   UNL     1      -0.694   1.431  -0.825  1.00  0.00     0.164 HD
BRANCH   7  10
ATOM     10  C   UNL     1       0.328   1.625   1.042  1.00  0.00     0.145 C 
BRANCH  10  11
ATOM     11  C   UNL     1      -0.757   1.083   1.962  1.00  0.00     0.116 A 
ATOM     12  S   UNL     1      -0.326   0.414   3.490  1.00  0.00    -0.124 S 
ATOM     13  C   UNL     1      -1.978   0.131   3.824  1.00  0.00     0.101 A 
ATOM     14  N   UNL     1      -2.052   1.091   1.693  1.00  0.00    -0.234 NA
ATOM     15  C   UNL     1      -2.764   0.558   2.771  1.00  0.00     0.139 A 
BRANCH  15  16
ATOM     16  C   UNL     1      -4.226   0.478   2.764  1.00  0.00     0.271 C 
ATOM     17  O   UNL     1      -4.887   0.303   3.781  1.00  0.00    -0.267 OA
ATOM     18  N   UNL     1      -4.779   0.619   1.508  1.00  0.00    -0.339 N 
ATOM     19  H   UNL     1      -4.121   0.647   0.733  1.00  0.00     0.164 HD
BRANCH  18  20
ATOM     20  C   UNL     1      -6.215   0.500   1.299  1.00  0.00     0.168 CG0
ATOM     21  C   UNL     1      -6.907   1.861   1.397  1.00  0.00     0.041 C 
ATOM     22  G   UNL     1      -6.568  -0.109  -0.068  1.00  0.00     0.000 G0
ENDBRANCH  18  20
ENDBRANCH  15  16
ENDBRANCH  10  11
BRANCH  10  23
ATOM     23  C   UNL     1       1.427   0.573   0.739  1.00  0.00     0.015 C 
ATOM     24  C   UNL     1       1.548   0.232  -0.755  1.00  0.00     0.010 C 
BRANCH  23  25
ATOM     25  C   UNL     1       2.818   0.992   1.265  1.00  0.00     0.002 C 
ATOM     26  C   UNL     1       3.835  -0.141   1.298  1.00  0.00     0.004 C 
ENDBRANCH  23  25
ENDBRANCH  10  23
ENDBRANCH   7  10
ENDBRANCH   4   6
BRANCH   3  27
ATOM     27  C   UNL     1      -3.870   2.352  -4.033  1.00  0.00     0.171 C 
BRANCH  27  28
ATOM     28  N   UNL     1      -5.014   1.863  -3.270  1.00  0.00    -0.342 N 
ATOM     29  C   UNL     1      -5.612   0.648  -3.516  1.00  0.00     0.245 C 
ATOM     30  O   UNL     1      -5.217  -0.123  -4.389  1.00  0.00    -0.273 OA
ATOM     31  H   UNL     1      -5.324   2.396  -2.458  1.00  0.00     0.164 HD
BRANCH  29  32
ATOM     32  C   UNL     1      -6.723   0.247  -2.523  1.00  0.00     0.200 C 
BRANCH  32  33
ATOM     33  N   UNL     1      -6.314   0.670  -1.178  1.00  0.00    -0.340 N 
ATOM     34  C   UNL     1      -6.566  -0.116  -0.073  1.00  0.00     0.243 CG0
ATOM     35  O   UNL     1      -7.195  -1.168  -0.154  1.00  0.00    -0.273 OA
ATOM     36  H   UNL     1      -5.820   1.549  -1.076  1.00  0.00     0.164 HD
ATOM     37  G   UNL     1      -6.208   0.510   1.285  1.00  0.00     0.000 G0
ENDBRANCH  32  33
BRANCH  32  38
ATOM     38  C   UNL     1      -8.094   0.823  -2.946  1.00  0.00     0.143 C 
ATOM     39  C   UNL     1      -8.498   2.086  -2.193  1.00  0.00     0.041 C 
BRANCH  38  40
ATOM     40  O   UNL     1      -8.098   1.101  -4.360  1.00  0.00    -0.391 OA
ATOM     41  H   UNL     1      -7.204   0.885  -4.689  1.00  0.00     0.211 HD
ENDBRANCH  38  40
ENDBRANCH  32  38
ENDBRANCH  29  32
ENDBRANCH  27  28
BRANCH  27  42
ATOM     42  C   UNL     1      -4.319   3.146  -5.285  1.00  0.00     0.015 C 
ATOM     43  C   UNL     1      -4.265   2.377  -6.610  1.00  0.00     0.010 C 
ATOM     44  C   UNL     1      -5.700   3.782  -5.095  1.00  0.00     0.010 C 
ENDBRANCH  27  42
ENDBRANCH   3  27
TORSDOF 5
ENDMDL
MODEL 2
REMARK VINA RESULT:    -6.037      4.701      9.802
REMARK INTER + INTRA:         -13.268
REMARK INTER:                 -11.188
REMARK INTRA:                  -2.080
REMARK UNBOUND:                -2.467
REMARK SMILES CC[C@H](C)[C@H]1NC(=O)c2coc(n2)[C@H](C(C)C)NC(=O)[C@H]([C@@H](C)O)NC(=O)[C@H](C)NC(=O)c2csc1n2
REMARK SMILES IDX 11 1 13 2 12 3 9 4 10 5 7 6 6 7 8 8 5 10 36 11 35 12 34 13
REMARK SMILES IDX 37 14 33 15 31 16 32 17 30 18 28 20 29 21 3 23 4 24 2 25
REMARK SMILES IDX 1 26 14 27 18 28 19 29 20 30 21 32 25 33 26 34 27 35 22 38
REMARK SMILES IDX 23 39 24 40 15 42 16 43 17 44
REMARK H PARENT 6 9 30 19 18 31 25 36 24 41
REMARK Flexibility Score:   94.900
ROOT
ATOM      1  O   UNL     1      -4.411   2.988   7.224  1.00  0.00    -0.446 OA
ATOM      2  N   UNL     1      -3.052   4.194   5.889  1.00  0.00    -0.207 NA
ATOM      3  C   UNL     1      -3.208   3.625   7.071  1.00  0.00     0.217 A 
ATOM      4  C   UNL     1      -4.219   3.889   5.210  1.00  0.00     0.167 A 
ATOM      5  C   UNL     1      -5.042   3.154   6.028  1.00  0.00     0.231 A 
ENDROOT
BRANCH   4   6
ATOM      6  C   UNL     1      -4.486   4.335   3.853  1.00  0.00     0.273 C 
ATOM      7  N   UNL     1      -4.792   3.287   3.023  1.00  0.00    -0.341 N 
ATOM      8  O   UNL     1      -4.419   5.506   3.499  1.00  0.00    -0.267 OA
ATOM      9  H   UNL     1      -4.718   2.361   3.436  1.00  0.00     0.164 HD
BRANCH   7  10
ATOM     10  C   UNL     1      -4.859   3.412   1.580  1.00  0.00     0.145 C 
BRANCH  10  11
ATOM     11  C   UNL     1      -3.529   2.937   1.015  1.00  0.00     0.116 A 
ATOM     12  S   UNL     1      -3.123   3.286  -0.623  1.00  0.00    -0.124 S 
ATOM     13  C   UNL     1      -1.617   2.506  -0.409  1.00  0.00     0.101 A 
ATOM     14  N   UNL     1      -2.613   2.266   1.693  1.00  0.00    -0.234 NA
ATOM     15  C   UNL     1      -1.500   2.029   0.882  1.00  0.00     0.139 A 
BRANCH  15  16
ATOM     16  C   UNL     1      -0.313   1.335   1.388  1.00  0.00     0.271 C 
ATOM     17  O   UNL     1       0.522   0.823   0.650  1.00  0.00    -0.267 OA
ATOM     18  N   UNL     1      -0.230   1.317   2.764  1.00  0.00    -0.339 N 
ATOM     19  H   UNL     1      -1.040   1.677   3.263  1.00  0.00     0.164 HD
BRANCH  18  20
ATOM     20  C   UNL     1       0.847   0.613   3.445  1.00  0.00     0.168 CG0
ATOM     21  C   UNL     1       2.076   1.508   3.617  1.00  0.00     0.041 C 
ATOM     22  G   UNL     1       0.438   0.104   4.837  1.00  0.00     0.000 G0
ENDBRANCH  18  20
ENDBRANCH  15  16
ENDBRANCH  10  11
BRANCH  10  23
ATOM     23  C   UNL     1      -6.066   2.644   0.980  1.00  0.00     0.015 C 
ATOM     24  C   UNL     1      -6.963   1.992   2.046  1.00  0.00     0.010 C 
BRANCH  23  25
ATOM     25  C   UNL     1      -6.945   3.528   0.068  1.00  0.00     0.002 C 
ATOM     26  C   UNL     1      -6.859   5.016   0.380  1.00  0.00     0.004 C 
ENDBRANCH  23  25
ENDBRANCH  10  23
ENDBRANCH   7  10
ENDBRANCH   4   6
BRANCH   3  27
ATOM     27  C   UNL     1      -2.248   3.660   8.229  1.00  0.00     0.171 C 
BRANCH  27  28
ATOM     28  N   UNL     1      -1.120   2.796   7.899  1.00  0.00    -0.342 N 
ATOM     29  C   UNL     1      -1.250   1.440   7.701  1.00  0.00     0.245 C 
ATOM     30  O   UNL     1      -2.332   0.858   7.773  1.00  0.00    -0.273 OA
ATOM     31  H   UNL     1      -0.214   3.223   7.711  1.00  0.00     0.164 HD
BRANCH  29  32
ATOM     32  C   UNL     1       0.030   0.715   7.235  1.00  0.00     0.200 C 
BRANCH  32  33
ATOM     33  N   UNL     1       0.280   1.077   5.834  1.00  0.00    -0.340 N 
ATOM     34  C   UNL     1       0.424   0.111   4.860  1.00  0.00     0.243 CG0
ATOM     35  O   UNL     1       0.414  -1.089   5.127  1.00  0.00    -0.273 OA
ATOM     36  H   UNL     1       0.323   2.059   5.587  1.00  0.00     0.164 HD
ATOM     37  G   UNL     1       0.818   0.625   3.465  1.00  0.00     0.000 G0
ENDBRANCH  32  33
BRANCH  32  38
ATOM     38  C   UNL     1       1.227   1.029   8.161  1.00  0.00     0.143 C 
ATOM     39  C   UNL     1       2.162   2.108   7.627  1.00  0.00     0.041 C 
BRANCH  38  40
ATOM     40  O   UNL     1       0.752   1.425   9.463  1.00  0.00    -0.391 OA
ATOM     41  H   UNL     1       0.829   2.397   9.504  1.00  0.00     0.211 HD
ENDBRANCH  38  40
ENDBRANCH  32  38
ENDBRANCH  29  32
ENDBRANCH  27  28
BRANCH  27  42
ATOM     42  C   UNL     1      -1.776   5.050   8.721  1.00  0.00     0.015 C 
ATOM     43  C   UNL     1      -2.075   5.367  10.191  1.00  0.00     0.010 C 
ATOM     44  C   UNL     1      -0.294   5.293   8.417  1.00  0.00     0.010 C 
ENDBRANCH  27  42
ENDBRANCH   3  27
TORSDOF 5
ENDMDL
MODEL 3
REMARK VINA RESULT:    -5.953      3.718      8.284
REMARK INTER + INTRA:         -13.119
REMARK INTER:                 -10.958
REMARK INTRA:                  -2.161
REMARK UNBOUND:                -2.467
REMARK SMILES CC[C@H](C)[C@H]1NC(=O)c2coc(n2)[C@H](C(C)C)NC(=O)[C@H]([C@@H](C)O)NC(=O)[C@H](C)NC(=O)c2csc1n2
REMARK SMILES IDX 11 1 13 2 12 3 9 4 10 5 7 6 6 7 8 8 5 10 36 11 35 12 34 13
REMARK SMILES IDX 37 14 33 15 31 16 32 17 30 18 28 20 29 21 3 23 4 24 2 25
REMARK SMILES IDX 1 26 14 27 18 28 19 29 20 30 21 32 25 33 26 34 27 35 22 38
REMARK SMILES IDX 23 39 24 40 15 42 16 43 17 44
REMARK H PARENT 6 9 30 19 18 31 25 36 24 41
REMARK Flexibility Score:   94.900
ROOT
ATOM      1  O   UNL     1       0.089   2.531   0.895  1.00  0.00    -0.446 OA
ATOM      2  N   UNL     1      -1.604   1.189   1.538  1.00  0.00    -0.207 NA
ATOM      3  C   UNL     1      -0.323   1.484   1.676  1.00  0.00     0.217 A 
ATOM      4  C   UNL     1      -2.071   2.120   0.627  1.00  0.00     0.167 A 
ATOM      5  C   UNL     1      -1.035   2.935   0.240  1.00  0.00     0.231 A 
ENDROOT
BRANCH   4   6
ATOM      6  C   UNL     1      -3.447   2.157   0.165  1.00  0.00     0.273 C 
ATOM      7  N   UNL     1      -4.255   2.855   1.026  1.00  0.00    -0.341 N 
ATOM      8  O   UNL     1      -3.834   1.606  -0.859  1.00  0.00    -0.267 OA
ATOM      9  H   UNL     1      -3.813   3.177   1.882  1.00  0.00     0.164 HD
BRANCH   7  10
ATOM     10  C   UNL     1      -5.702   2.840   0.942  1.00  0.00     0.145 C 
BRANCH  10  11
ATOM     11  C   UNL     1      -6.228   2.128   2.180  1.00  0.00     0.116 A 
ATOM     12  S   UNL     1      -7.898   1.712   2.282  1.00  0.00    -0.124 S 
ATOM     13  C   UNL     1      -7.617   0.993   3.808  1.00  0.00     0.101 A 
ATOM     14  N   UNL     1      -5.492   1.772   3.220  1.00  0.00    -0.234 NA
ATOM     15  C   UNL     1      -6.285   1.102   4.156  1.00  0.00     0.139 A 
BRANCH  15  16
ATOM     16  C   UNL     1      -5.721   0.560   5.394  1.00  0.00     0.271 C 
ATOM     17  O   UNL     1      -6.417   0.152   6.318  1.00  0.00    -0.267 OA
ATOM     18  N   UNL     1      -4.343   0.553   5.415  1.00  0.00    -0.339 N 
ATOM     19  H   UNL     1      -3.884   1.019   4.637  1.00  0.00     0.164 HD
BRANCH  18  20
ATOM     20  C   UNL     1      -3.608   0.112   6.593  1.00  0.00     0.168 CG0
ATOM     21  C   UNL     1      -3.158  -1.344   6.456  1.00  0.00     0.041 C 
ATOM     22  G   UNL     1      -2.360   0.966   6.869  1.00  0.00     0.000 G0
ENDBRANCH  18  20
ENDBRANCH  15  16
ENDBRANCH  10  11
BRANCH  10  23
ATOM     23  C   UNL     1      -6.295   4.265   0.783  1.00  0.00     0.015 C 
ATOM     24  C   UNL     1      -6.348   5.053   2.103  1.00  0.00     0.010 C 
BRANCH  23  25
ATOM     25  C   UNL     1      -5.543   5.112  -0.269  1.00  0.00     0.002 C 
ATOM     26  C   UNL     1      -5.923   4.790  -1.708  1.00  0.00     0.004 C 
ENDBRANCH  23  25
ENDBRANCH  10  23
ENDBRANCH   7  10
ENDBRANCH   4   6
BRANCH   3  27
ATOM     27  C   UNL     1       0.685   0.770   2.533  1.00  0.00     0.171 C 
BRANCH  27  28
ATOM     28  N   UNL     1       0.170   0.740   3.898  1.00  0.00    -0.342 N 
ATOM     29  C   UNL     1       0.801   1.366   4.949  1.00  0.00     0.245 C 
ATOM     30  O   UNL     1       1.840   2.011   4.812  1.00  0.00    -0.273 OA
ATOM     31  H   UNL     1      -0.745   0.322   4.067  1.00  0.00     0.164 HD
BRANCH  29  32
ATOM     32  C   UNL     1       0.039   1.333   6.290  1.00  0.00     0.200 C 
BRANCH  32  33
ATOM     33  N   UNL     1      -1.251   0.669   6.071  1.00  0.00    -0.340 N 
ATOM     34  C   UNL     1      -2.353   0.973   6.843  1.00  0.00     0.243 CG0
ATOM     35  O   UNL     1      -2.290   1.761   7.784  1.00  0.00    -0.273 OA
ATOM     36  H   UNL     1      -1.327  -0.008   5.321  1.00  0.00     0.164 HD
ATOM     37  G   UNL     1      -3.599   0.107   6.597  1.00  0.00     0.000 G0
ENDBRANCH  32  33
BRANCH  32  38
ATOM     38  C   UNL     1       0.881   0.664   7.402  1.00  0.00     0.143 C 
ATOM     39  C   UNL     1       0.882   1.423   8.724  1.00  0.00     0.041 C 
BRANCH  38  40
ATOM     40  O   UNL     1       0.412  -0.679   7.634  1.00  0.00    -0.391 OA
ATOM     41  H   UNL     1       1.080  -1.115   8.196  1.00  0.00     0.211 HD
ENDBRANCH  38  40
ENDBRANCH  32  38
ENDBRANCH  29  32
ENDBRANCH  27  28
BRANCH  27  42
ATOM     42  C   UNL     1       1.150  -0.633   2.069  1.00  0.00     0.015 C 
ATOM     43  C   UNL     1       2.663  -0.801   1.889  1.00  0.00     0.010 C 
ATOM     44  C   UNL     1       0.594  -1.745   2.964  1.00  0.00     0.010 C 
ENDBRANCH  27  42
ENDBRANCH   3  27
TORSDOF 5
ENDMDL
MODEL 4
REMARK VINA RESULT:    -5.932      4.410      7.311
REMARK INTER + INTRA:         -13.081
REMARK INTER:                 -12.056
REMARK INTRA:                  -1.025
REMARK UNBOUND:                -2.467
REMARK SMILES CC[C@H](C)[C@H]1NC(=O)c2coc(n2)[C@H](C(C)C)NC(=O)[C@H]([C@@H](C)O)NC(=O)[C@H](C)NC(=O)c2csc1n2
REMARK SMILES IDX 11 1 13 2 12 3 9 4 10 5 7 6 6 7 8 8 5 10 36 11 35 12 34 13
REMARK SMILES IDX 37 14 33 15 31 16 32 17 30 18 28 20 29 21 3 23 4 24 2 25
REMARK SMILES IDX 1 26 14 27 18 28 19 29 20 30 21 32 25 33 26 34 27 35 22 38
REMARK SMILES IDX 23 39 24 40 15 42 16 43 17 44
REMARK H PARENT 6 9 30 19 18 31 25 36 24 41
REMARK Flexibility Score:   94.900
ROOT
ATOM      1  O   UNL     1      -4.235   5.337   3.219  1.00  0.00    -0.446 OA
ATOM      2  N   UNL     1      -2.973   3.496   3.536  1.00  0.00    -0.207 NA
ATOM      3  C   UNL     1      -3.447   4.365   2.662  1.00  0.00     0.217 A 
ATOM      4  C   UNL     1      -3.460   3.940   4.753  1.00  0.00     0.167 A 
ATOM      5  C   UNL     1      -4.227   5.062   4.553  1.00  0.00     0.231 A 
ENDROOT
BRANCH   4   6
ATOM      6  C   UNL     1      -3.193   3.262   6.010  1.00  0.00     0.273 C 
ATOM      7  N   UNL     1      -2.312   3.965   6.792  1.00  0.00    -0.341 N 
ATOM      8  O   UNL     1      -3.682   2.180   6.313  1.00  0.00    -0.267 OA
ATOM      9  H   UNL     1      -1.918   4.801   6.369  1.00  0.00     0.164 HD
BRANCH   7  10
ATOM     10  C   UNL     1      -1.685   3.409   7.975  1.00  0.00     0.145 C 
BRANCH  10  11
ATOM     11  C   UNL     1      -0.856   2.210   7.536  1.00  0.00     0.116 A 
ATOM     12  S   UNL     1      -0.085   1.225   8.721  1.00  0.00    -0.124 S 
ATOM     13  C   UNL     1       0.514   0.214   7.480  1.00  0.00     0.101 A 
ATOM     14  N   UNL     1      -0.677   1.831   6.281  1.00  0.00    -0.234 NA
ATOM     15  C   UNL     1       0.099   0.670   6.243  1.00  0.00     0.139 A 
BRANCH  15  16
ATOM     16  C   UNL     1       0.425   0.003   4.980  1.00  0.00     0.271 C 
ATOM     17  O   UNL     1       0.476  -1.216   4.866  1.00  0.00    -0.267 OA
ATOM     18  N   UNL     1       0.666   0.878   3.942  1.00  0.00    -0.339 N 
ATOM     19  H   UNL     1       0.703   1.863   4.191  1.00  0.00     0.164 HD
BRANCH  18  20
ATOM     20  C   UNL     1       1.071   0.397   2.628  1.00  0.00     0.168 CG0
ATOM     21  C   UNL     1       0.005  -0.514   2.016  1.00  0.00     0.041 C 
ATOM     22  G   UNL     1       1.342   1.538   1.635  1.00  0.00     0.000 G0
ENDBRANCH  18  20
ENDBRANCH  15  16
ENDBRANCH  10  11
BRANCH  10  23
ATOM     23  C   UNL     1      -0.842   4.463   8.741  1.00  0.00     0.015 C 
ATOM     24  C   UNL     1       0.224   5.143   7.866  1.00  0.00     0.010 C 
BRANCH  23  25
ATOM     25  C   UNL     1      -1.710   5.556   9.404  1.00  0.00     0.002 C 
ATOM     26  C   UNL     1      -1.085   6.944   9.374  1.00  0.00     0.004 C 
ENDBRANCH  23  25
ENDBRANCH  10  23
ENDBRANCH   7  10
ENDBRANCH   4   6
BRANCH   3  27
ATOM     27  C   UNL     1      -3.250   4.350   1.170  1.00  0.00     0.171 C 
BRANCH  27  28
ATOM     28  N   UNL     1      -2.029   3.602   0.889  1.00  0.00    -0.342 N 
ATOM     29  C   UNL     1      -0.939   4.160   0.259  1.00  0.00     0.245 C 
ATOM     30  O   UNL     1      -0.908   5.336  -0.099  1.00  0.00    -0.273 OA
ATOM     31  H   UNL     1      -1.938   2.656   1.258  1.00  0.00     0.164 HD
BRANCH  29  32
ATOM     32  C   UNL     1       0.305   3.251   0.165  1.00  0.00     0.200 C 
BRANCH  32  33
ATOM     33  N   UNL     1       0.217   2.239   1.224  1.00  0.00    -0.340 N 
ATOM     34  C   UNL     1       1.327   1.525   1.625  1.00  0.00     0.243 CG0
ATOM     35  O   UNL     1       2.418   1.656   1.075  1.00  0.00    -0.273 OA
ATOM     36  H   UNL     1      -0.677   2.086   1.676  1.00  0.00     0.164 HD
ATOM     37  G   UNL     1       1.065   0.403   2.644  1.00  0.00     0.000 G0
ENDBRANCH  32  33
BRANCH  32  38
ATOM     38  C   UNL     1       0.450   2.637  -1.247  1.00  0.00     0.143 C 
ATOM     39  C   UNL     1      -0.822   1.982  -1.775  1.00  0.00     0.041 C 
BRANCH  38  40
ATOM     40  O   UNL     1       0.879   3.645  -2.182  1.00  0.00    -0.391 OA
ATOM     41  H   UNL     1       1.835   3.509  -2.320  1.00  0.00     0.211 HD
ENDBRANCH  38  40
ENDBRANCH  32  38
ENDBRANCH  29  32
ENDBRANCH  27  28
BRANCH  27  42
ATOM     42  C   UNL     1      -4.432   3.860   0.300  1.00  0.00     0.015 C 
ATOM     43  C   UNL     1      -4.378   4.265  -1.178  1.00  0.00     0.010 C 
ATOM     44  C   UNL     1      -4.650   2.348   0.428  1.00  0.00     0.010 C 
ENDBRANCH  27  42
ENDBRANCH   3  27
TORSDOF 5
ENDMDL
MODEL 5
REMARK VINA RESULT:    -5.885      4.043      8.860
REMARK INTER + INTRA:         -12.997
REMARK INTER:                 -10.617
REMARK INTRA:                  -2.380
REMARK UNBOUND:                -2.467
REMARK SMILES CC[C@H](C)[C@H]1NC(=O)c2coc(n2)[C@H](C(C)C)NC(=O)[C@H]([C@@H](C)O)NC(=O)[C@H](C)NC(=O)c2csc1n2
REMARK SMILES IDX 11 1 13 2 12 3 9 4 10 5 7 6 6 7 8 8 5 10 36 11 35 12 34 13
REMARK SMILES IDX 37 14 33 15 31 16 32 17 30 18 28 20 29 21 3 23 4 24 2 25
REMARK SMILES IDX 1 26 14 27 18 28 19 29 20 30 21 32 25 33 26 34 27 35 22 38
REMARK SMILES IDX 23 39 24 40 15 42 16 43 17 44
REMARK H PARENT 6 9 30 19 18 31 25 36 24 41
REMARK Flexibility Score:   94.900
ROOT
ATOM      1  O   UNL     1      -1.970   3.176   6.543  1.00  0.00    -0.446 OA
ATOM      2  N   UNL     1      -3.264   2.340   4.897  1.00  0.00    -0.207 NA
ATOM      3  C   UNL     1      -2.162   2.191   5.611  1.00  0.00     0.217 A 
ATOM      4  C   UNL     1      -3.848   3.485   5.411  1.00  0.00     0.167 A 
ATOM      5  C   UNL     1      -3.056   3.988   6.413  1.00  0.00     0.231 A 
ENDROOT
BRANCH   4   6
ATOM      6  C   UNL     1      -5.092   4.037   4.903  1.00  0.00     0.273 C 
ATOM      7  N   UNL     1      -5.754   3.145   4.097  1.00  0.00    -0.341 N 
ATOM      8  O   UNL     1      -5.481   5.171   5.152  1.00  0.00    -0.267 OA
ATOM      9  H   UNL     1      -5.264   2.275   3.907  1.00  0.00     0.164 HD
BRANCH   7  10
ATOM     10  C   UNL     1      -6.883   3.516   3.267  1.00  0.00     0.145 C 
BRANCH  10  11
ATOM     11  C   UNL     1      -6.333   4.027   1.943  1.00  0.00     0.116 A 
ATOM     12  S   UNL     1      -7.293   5.072   0.965  1.00  0.00    -0.124 S 
ATOM     13  C   UNL     1      -6.018   5.168  -0.170  1.00  0.00     0.101 A 
ATOM     14  N   UNL     1      -5.134   3.743   1.460  1.00  0.00    -0.234 NA
ATOM     15  C   UNL     1      -4.940   4.413   0.249  1.00  0.00     0.139 A 
BRANCH  15  16
ATOM     16  C   UNL     1      -3.681   4.311  -0.493  1.00  0.00     0.271 C 
ATOM     17  O   UNL     1      -3.573   4.645  -1.668  1.00  0.00    -0.267 OA
ATOM     18  N   UNL     1      -2.639   3.809   0.257  1.00  0.00    -0.339 N 
ATOM     19  H   UNL     1      -2.882   3.465   1.182  1.00  0.00     0.164 HD
BRANCH  18  20
ATOM     20  C   UNL     1      -1.328   3.575  -0.335  1.00  0.00     0.168 CG0
ATOM     21  C   UNL     1      -0.341   4.680   0.046  1.00  0.00     0.041 C 
ATOM     22  G   UNL     1      -0.716   2.230   0.091  1.00  0.00     0.000 G0
ENDBRANCH  18  20
ENDBRANCH  15  16
ENDBRANCH  10  11
BRANCH  10  23
ATOM     23  C   UNL     1      -7.882   2.344   3.079  1.00  0.00     0.015 C 
ATOM     24  C   UNL     1      -7.319   1.194   2.226  1.00  0.00     0.010 C 
BRANCH  23  25
ATOM     25  C   UNL     1      -8.383   1.765   4.421  1.00  0.00     0.002 C 
ATOM     26  C   UNL     1      -9.463   2.603   5.092  1.00  0.00     0.004 C 
ENDBRANCH  23  25
ENDBRANCH  10  23
ENDBRANCH   7  10
ENDBRANCH   4   6
BRANCH   3  27
ATOM     27  C   UNL     1      -1.123   1.114   5.460  1.00  0.00     0.171 C 
BRANCH  27  28
ATOM     28  N   UNL     1      -0.404   1.359   4.214  1.00  0.00    -0.342 N 
ATOM     29  C   UNL     1      -0.347   0.439   3.192  1.00  0.00     0.245 C 
ATOM     30  O   UNL     1      -0.912  -0.653   3.246  1.00  0.00    -0.273 OA
ATOM     31  H   UNL     1      -0.009   2.284   4.050  1.00  0.00     0.164 HD
BRANCH  29  32
ATOM     32  C   UNL     1       0.349   0.926   1.903  1.00  0.00     0.200 C 
BRANCH  32  33
ATOM     33  N   UNL     1      -0.379   2.099   1.402  1.00  0.00    -0.340 N 
ATOM     34  C   UNL     1      -0.699   2.225   0.066  1.00  0.00     0.243 CG0
ATOM     35  O   UNL     1      -0.336   1.400  -0.770  1.00  0.00    -0.273 OA
ATOM     36  H   UNL     1      -0.666   2.811   2.063  1.00  0.00     0.164 HD
ATOM     37  G   UNL     1      -1.338   3.562  -0.343  1.00  0.00     0.000 G0
ENDBRANCH  32  33
BRANCH  32  38
ATOM     38  C   UNL     1       1.850   1.207   2.144  1.00  0.00     0.143 C 
ATOM     39  C   UNL     1       2.642  -0.006   2.618  1.00  0.00     0.041 C 
BRANCH  38  40
ATOM     40  O   UNL     1       2.455   1.718   0.940  1.00  0.00    -0.391 OA
ATOM     41  H   UNL     1       1.750   1.754   0.267  1.00  0.00     0.211 HD
ENDBRANCH  38  40
ENDBRANCH  32  38
ENDBRANCH  29  32
ENDBRANCH  27  28
BRANCH  27  42
ATOM     42  C   UNL     1      -0.150   0.890   6.644  1.00  0.00     0.015 C 
ATOM     43  C   UNL     1       0.038  -0.568   7.079  1.00  0.00     0.010 C 
ATOM     44  C   UNL     1       1.210   1.551   6.400  1.00  0.00     0.010 C 
ENDBRANCH  27  42
ENDBRANCH   3  27
TORSDOF 5
ENDMDL
MODEL 6
REMARK VINA RESULT:    -5.836      3.837      7.881
REMARK INTER + INTRA:         -12.909
REMARK INTER:                 -10.886
REMARK INTRA:                  -2.022
REMARK UNBOUND:                -2.467
REMARK SMILES CC[C@H](C)[C@H]1NC(=O)c2coc(n2)[C@H](C(C)C)NC(=O)[C@H]([C@@H](C)O)NC(=O)[C@H](C)NC(=O)c2csc1n2
REMARK SMILES IDX 11 1 13 2 12 3 9 4 10 5 7 6 6 7 8 8 5 10 36 11 35 12 34 13
REMARK SMILES IDX 37 14 33 15 31 16 32 17 30 18 28 20 29 21 3 23 4 24 2 25
REMARK SMILES IDX 1 26 14 27 18 28 19 29 20 30 21 32 25 33 26 34 27 35 22 38
REMARK SMILES IDX 23 39 24 40 15 42 16 43 17 44
REMARK H PARENT 6 9 30 19 18 31 25 36 24 41
REMARK Flexibility Score:   94.900
ROOT
ATOM      1  O   UNL     1       2.533   0.177  -0.112  1.00  0.00    -0.446 OA
ATOM      2  N   UNL     1       0.917   1.547   0.656  1.00  0.00    -0.207 NA
ATOM      3  C   UNL     1       2.038   0.907   0.935  1.00  0.00     0.217 A 
ATOM      4  C   UNL     1       0.672   1.240  -0.671  1.00  0.00     0.167 A 
ATOM      5  C   UNL     1       1.660   0.405  -1.133  1.00  0.00     0.231 A 
ENDROOT
BRANCH   4   6
ATOM      6  C   UNL     1      -0.487   1.728  -1.398  1.00  0.00     0.273 C 
ATOM      7  N   UNL     1      -1.223   2.611  -0.650  1.00  0.00    -0.341 N 
ATOM      8  O   UNL     1      -0.776   1.368  -2.533  1.00  0.00    -0.267 OA
ATOM      9  H   UNL     1      -0.912   2.743   0.308  1.00  0.00     0.164 HD
BRANCH   7  10
ATOM     10  C   UNL     1      -2.549   3.058  -1.029  1.00  0.00     0.145 C 
BRANCH  10  11
ATOM     11  C   UNL     1      -3.368   3.206   0.245  1.00  0.00     0.116 A 
ATOM     12  S   UNL     1      -5.066   2.915   0.209  1.00  0.00    -0.124 S 
ATOM     13  C   UNL     1      -5.149   3.234   1.886  1.00  0.00     0.101 A 
ATOM     14  N   UNL     1      -2.876   3.538   1.427  1.00  0.00    -0.234 NA
ATOM     15  C   UNL     1      -3.896   3.539   2.382  1.00  0.00     0.139 A 
BRANCH  15  16
ATOM     16  C   UNL     1      -3.630   3.835   3.792  1.00  0.00     0.271 C 
ATOM     17  O   UNL     1      -3.922   4.906   4.313  1.00  0.00    -0.267 OA
ATOM     18  N   UNL     1      -3.026   2.796   4.468  1.00  0.00    -0.339 N 
ATOM     19  H   UNL     1      -2.735   2.005   3.900  1.00  0.00     0.164 HD
BRANCH  18  20
ATOM     20  C   UNL     1      -2.626   2.935   5.862  1.00  0.00     0.168 CG0
ATOM     21  C   UNL     1      -3.703   2.396   6.806  1.00  0.00     0.041 C 
ATOM     22  G   UNL     1      -1.313   2.200   6.179  1.00  0.00     0.000 G0
ENDBRANCH  18  20
ENDBRANCH  15  16
ENDBRANCH  10  11
BRANCH  10  23
ATOM     23  C   UNL     1      -2.510   4.366  -1.863  1.00  0.00     0.015 C 
ATOM     24  C   UNL     1      -1.243   5.204  -1.623  1.00  0.00     0.010 C 
BRANCH  23  25
ATOM     25  C   UNL     1      -2.656   4.113  -3.381  1.00  0.00     0.002 C 
ATOM     26  C   UNL     1      -3.845   3.238  -3.750  1.00  0.00     0.004 C 
ENDBRANCH  23  25
ENDBRANCH  10  23
ENDBRANCH   7  10
ENDBRANCH   4   6
BRANCH   3  27
ATOM     27  C   UNL     1       2.754   0.868   2.257  1.00  0.00     0.171 C 
BRANCH  27  28
ATOM     28  N   UNL     1       1.800   0.430   3.270  1.00  0.00    -0.342 N 
ATOM     29  C   UNL     1       1.507   1.174   4.392  1.00  0.00     0.245 C 
ATOM     30  O   UNL     1       2.018   2.270   4.615  1.00  0.00    -0.273 OA
ATOM     31  H   UNL     1       1.253  -0.412   3.097  1.00  0.00     0.164 HD
BRANCH  29  32
ATOM     32  C   UNL     1       0.379   0.610   5.281  1.00  0.00     0.200 C 
BRANCH  32  33
ATOM     33  N   UNL     1      -0.807   1.459   5.114  1.00  0.00    -0.340 N 
ATOM     34  C   UNL     1      -1.311   2.199   6.163  1.00  0.00     0.243 CG0
ATOM     35  O   UNL     1      -0.833   2.132   7.294  1.00  0.00    -0.273 OA
ATOM     36  H   UNL     1      -1.242   1.510   4.200  1.00  0.00     0.164 HD
ATOM     37  G   UNL     1      -2.633   2.933   5.887  1.00  0.00     0.000 G0
ENDBRANCH  32  33
BRANCH  32  38
ATOM     38  C   UNL     1       0.103  -0.879   4.968  1.00  0.00     0.143 C 
ATOM     39  C   UNL     1      -0.675  -1.610   6.056  1.00  0.00     0.041 C 
BRANCH  38  40
ATOM     40  O   UNL     1      -0.612  -0.997   3.723  1.00  0.00    -0.391 OA
ATOM     41  H   UNL     1       0.017  -0.756   3.016  1.00  0.00     0.211 HD
ENDBRANCH  38  40
ENDBRANCH  32  38
ENDBRANCH  29  32
ENDBRANCH  27  28
BRANCH  27  42
ATOM     42  C   UNL     1       4.073   0.059   2.330  1.00  0.00     0.015 C 
ATOM     43  C   UNL     1       3.914  -1.466   2.315  1.00  0.00     0.010 C 
ATOM     44  C   UNL     1       5.075   0.499   1.258  1.00  0.00     0.010 C 
ENDBRANCH  27  42
ENDBRANCH   3  27
TORSDOF 5
ENDMDL
MODEL 7
REMARK VINA RESULT:    -5.697      2.845      3.787
REMARK INTER + INTRA:         -12.661
REMARK INTER:                 -10.027
REMARK INTRA:                  -2.634
REMARK UNBOUND:                -2.467
REMARK SMILES CC[C@H](C)[C@H]1NC(=O)c2coc(n2)[C@H](C(C)C)NC(=O)[C@H]([C@@H](C)O)NC(=O)[C@H](C)NC(=O)c2csc1n2
REMARK SMILES IDX 11 1 13 2 12 3 9 4 10 5 7 6 6 7 8 8 5 10 36 11 35 12 34 13
REMARK SMILES IDX 37 14 33 15 31 16 32 17 30 18 28 20 29 21 3 23 4 24 2 25
REMARK SMILES IDX 1 26 14 27 18 28 19 29 20 30 21 32 25 33 26 34 27 35 22 38
REMARK SMILES IDX 23 39 24 40 15 42 16 43 17 44
REMARK H PARENT 6 9 30 19 18 31 25 36 24 41
REMARK Flexibility Score:   94.900
ROOT
ATOM      1  O   UNL     1      -1.987   3.652  -1.308  1.00  0.00    -0.446 OA
ATOM      2  N   UNL     1      -1.970   1.723  -0.141  1.00  0.00    -0.207 NA
ATOM      3  C   UNL     1      -2.652   2.506  -0.957  1.00  0.00     0.217 A 
ATOM      4  C   UNL     1      -0.766   2.384   0.036  1.00  0.00     0.167 A 
ATOM      5  C   UNL     1      -0.783   3.557  -0.677  1.00  0.00     0.231 A 
ENDROOT
BRANCH   4   6
ATOM      6  C   UNL     1       0.298   1.879   0.886  1.00  0.00     0.273 C 
ATOM      7  N   UNL     1      -0.193   1.171   1.953  1.00  0.00    -0.341 N 
ATOM      8  O   UNL     1       1.488   2.088   0.678  1.00  0.00    -0.267 OA
ATOM      9  H   UNL     1      -1.205   1.160   2.046  1.00  0.00     0.164 HD
BRANCH   7  10
ATOM     10  C   UNL     1       0.624   0.771   3.082  1.00  0.00     0.145 C 
BRANCH  10  11
ATOM     11  C   UNL     1      -0.081   1.234   4.348  1.00  0.00     0.116 A 
ATOM     12  S   UNL     1       0.794   1.321   5.831  1.00  0.00    -0.124 S 
ATOM     13  C   UNL     1      -0.607   1.909   6.614  1.00  0.00     0.101 A 
ATOM     14  N   UNL     1      -1.349   1.605   4.418  1.00  0.00    -0.234 NA
ATOM     15  C   UNL     1      -1.654   2.012   5.719  1.00  0.00     0.139 A 
BRANCH  15  16
ATOM     16  C   UNL     1      -2.984   2.511   6.077  1.00  0.00     0.271 C 
ATOM     17  O   UNL     1      -3.360   2.627   7.239  1.00  0.00    -0.267 OA
ATOM     18  N   UNL     1      -3.762   2.838   4.987  1.00  0.00    -0.339 N 
ATOM     19  H   UNL     1      -3.378   2.593   4.078  1.00  0.00     0.164 HD
BRANCH  18  20
ATOM     20  C   UNL     1      -5.138   3.288   5.149  1.00  0.00     0.168 CG0
ATOM     21  C   UNL     1      -5.217   4.813   5.246  1.00  0.00     0.041 C 
ATOM     22  G   UNL     1      -6.049   2.842   3.994  1.00  0.00     0.000 G0
ENDBRANCH  18  20
ENDBRANCH  15  16
ENDBRANCH  10  11
BRANCH  10  23
ATOM     23  C   UNL     1       0.908  -0.755   3.088  1.00  0.00     0.015 C 
ATOM     24  C   UNL     1      -0.323  -1.605   2.730  1.00  0.00     0.010 C 
BRANCH  23  25
ATOM     25  C   UNL     1       2.071  -1.150   2.151  1.00  0.00     0.002 C 
ATOM     26  C   UNL     1       3.378  -0.428   2.448  1.00  0.00     0.004 C 
ENDBRANCH  23  25
ENDBRANCH  10  23
ENDBRANCH   7  10
ENDBRANCH   4   6
BRANCH   3  27
ATOM     27  C   UNL     1      -4.050   2.287  -1.467  1.00  0.00     0.171 C 
BRANCH  27  28
ATOM     28  N   UNL     1      -4.975   2.845  -0.487  1.00  0.00    -0.342 N 
ATOM     29  C   UNL     1      -5.554   2.090   0.508  1.00  0.00     0.245 C 
ATOM     30  O   UNL     1      -5.321   0.891   0.655  1.00  0.00    -0.273 OA
ATOM     31  H   UNL     1      -5.127   3.853  -0.475  1.00  0.00     0.164 HD
BRANCH  29  32
ATOM     32  C   UNL     1      -6.402   2.881   1.527  1.00  0.00     0.200 C 
BRANCH  32  33
ATOM     33  N   UNL     1      -5.576   3.141   2.712  1.00  0.00    -0.340 N 
ATOM     34  C   UNL     1      -6.027   2.838   3.980  1.00  0.00     0.243 CG0
ATOM     35  O   UNL     1      -7.158   2.400   4.179  1.00  0.00    -0.273 OA
ATOM     36  H   UNL     1      -4.650   3.531   2.581  1.00  0.00     0.164 HD
ATOM     37  G   UNL     1      -5.120   3.289   5.136  1.00  0.00     0.000 G0
ENDBRANCH  32  33
BRANCH  32  38
ATOM     38  C   UNL     1      -6.981   4.171   0.900  1.00  0.00     0.143 C 
ATOM     39  C   UNL     1      -8.328   4.593   1.476  1.00  0.00     0.041 C 
BRANCH  38  40
ATOM     40  O   UNL     1      -6.046   5.256   1.054  1.00  0.00    -0.391 OA
ATOM     41  H   UNL     1      -6.565   6.081   1.004  1.00  0.00     0.211 HD
ENDBRANCH  38  40
ENDBRANCH  32  38
ENDBRANCH  29  32
ENDBRANCH  27  28
BRANCH  27  42
ATOM     42  C   UNL     1      -4.372   2.779  -2.900  1.00  0.00     0.015 C 
ATOM     43  C   UNL     1      -4.081   1.777  -4.024  1.00  0.00     0.010 C 
ATOM     44  C   UNL     1      -5.806   3.306  -3.015  1.00  0.00     0.010 C 
ENDBRANCH  27  42
ENDBRANCH   3  27
TORSDOF 5
ENDMDL
MODEL 8
REMARK VINA RESULT:    -5.665      3.690      8.628
REMARK INTER + INTRA:         -12.603
REMARK INTER:                 -10.327
REMARK INTRA:                  -2.275
REMARK UNBOUND:                -2.467
REMARK SMILES CC[C@H](C)[C@H]1NC(=O)c2coc(n2)[C@H](C(C)C)NC(=O)[C@H]([C@@H](C)O)NC(=O)[C@H](C)NC(=O)c2csc1n2
REMARK SMILES IDX 11 1 13 2 12 3 9 4 10 5 7 6 6 7 8 8 5 10 36 11 35 12 34 13
REMARK SMILES IDX 37 14 33 15 31 16 32 17 30 18 28 20 29 21 3 23 4 24 2 25
REMARK SMILES IDX 1 26 14 27 18 28 19 29 20 30 21 32 25 33 26 34 27 35 22 38
REMARK SMILES IDX 23 39 24 40 15 42 16 43 17 44
REMARK H PARENT 6 9 30 19 18 31 25 36 24 41
REMARK Flexibility Score:   94.900
ROOT
ATOM      1  O   UNL     1      -5.956   1.015   4.029  1.00  0.00    -0.446 OA
ATOM      2  N   UNL     1      -3.952   1.988   3.687  1.00  0.00    -0.207 NA
ATOM      3  C   UNL     1      -4.644   1.124   4.407  1.00  0.00     0.217 A 
ATOM      4  C   UNL     1      -4.861   2.459   2.756  1.00  0.00     0.167 A 
ATOM      5  C   UNL     1      -6.079   1.863   2.970  1.00  0.00     0.231 A 
ENDROOT
BRANCH   4   6
ATOM      6  C   UNL     1      -4.526   3.457   1.755  1.00  0.00     0.273 C 
ATOM      7  N   UNL     1      -4.387   2.900   0.508  1.00  0.00    -0.341 N 
ATOM      8  O   UNL     1      -4.364   4.644   2.008  1.00  0.00    -0.267 OA
ATOM      9  H   UNL     1      -4.460   1.888   0.467  1.00  0.00     0.164 HD
BRANCH   7  10
ATOM     10  C   UNL     1      -3.819   3.614  -0.619  1.00  0.00     0.145 C 
BRANCH  10  11
ATOM     11  C   UNL     1      -2.309   3.439  -0.561  1.00  0.00     0.116 A 
ATOM     12  S   UNL     1      -1.280   4.780  -0.895  1.00  0.00    -0.124 S 
ATOM     13  C   UNL     1       0.086   3.799  -0.590  1.00  0.00     0.101 A 
ATOM     14  N   UNL     1      -1.687   2.313  -0.252  1.00  0.00    -0.234 NA
ATOM     15  C   UNL     1      -0.305   2.518  -0.250  1.00  0.00     0.139 A 
BRANCH  15  16
ATOM     16  C   UNL     1       0.632   1.447   0.096  1.00  0.00     0.271 C 
ATOM     17  O   UNL     1       1.271   0.825  -0.746  1.00  0.00    -0.267 OA
ATOM     18  N   UNL     1       0.723   1.212   1.451  1.00  0.00    -0.339 N 
ATOM     19  H   UNL     1       0.061   1.716   2.035  1.00  0.00     0.164 HD
BRANCH  18  20
ATOM     20  C   UNL     1       1.555   0.137   1.976  1.00  0.00     0.168 CG0
ATOM     21  C   UNL     1       2.995   0.605   2.193  1.00  0.00     0.041 C 
ATOM     22  G   UNL     1       1.035  -0.419   3.312  1.00  0.00     0.000 G0
ENDBRANCH  18  20
ENDBRANCH  15  16
ENDBRANCH  10  11
BRANCH  10  23
ATOM     23  C   UNL     1      -4.417   3.145  -1.971  1.00  0.00     0.015 C 
ATOM     24  C   UNL     1      -5.228   1.842  -1.859  1.00  0.00     0.010 C 
BRANCH  23  25
ATOM     25  C   UNL     1      -5.302   4.221  -2.640  1.00  0.00     0.002 C 
ATOM     26  C   UNL     1      -5.485   5.479  -1.802  1.00  0.00     0.004 C 
ENDBRANCH  23  25
ENDBRANCH  10  23
ENDBRANCH   7  10
ENDBRANCH   4   6
BRANCH   3  27
ATOM     27  C   UNL     1      -4.155   0.327   5.586  1.00  0.00     0.171 C 
BRANCH  27  28
ATOM     28  N   UNL     1      -2.716   0.537   5.699  1.00  0.00    -0.342 N 
ATOM     29  C   UNL     1      -1.790  -0.370   5.234  1.00  0.00     0.245 C 
ATOM     30  O   UNL     1      -2.108  -1.417   4.673  1.00  0.00    -0.273 OA
ATOM     31  H   UNL     1      -2.377   1.432   6.049  1.00  0.00     0.164 HD
BRANCH  29  32
ATOM     32  C   UNL     1      -0.318   0.084   5.327  1.00  0.00     0.200 C 
BRANCH  32  33
ATOM     33  N   UNL     1       0.149   0.414   3.974  1.00  0.00    -0.340 N 
ATOM     34  C   UNL     1       1.038  -0.401   3.305  1.00  0.00     0.243 CG0
ATOM     35  O   UNL     1       1.525  -1.400   3.830  1.00  0.00    -0.273 OA
ATOM     36  H   UNL     1      -0.212   1.248   3.527  1.00  0.00     0.164 HD
ATOM     37  G   UNL     1       1.547   0.133   1.956  1.00  0.00     0.000 G0
ENDBRANCH  32  33
BRANCH  32  38
ATOM     38  C   UNL     1      -0.148   1.253   6.325  1.00  0.00     0.143 C 
ATOM     39  C   UNL     1       0.524   0.861   7.635  1.00  0.00     0.041 C 
BRANCH  38  40
ATOM     40  O   UNL     1       0.606   2.318   5.714  1.00  0.00    -0.391 OA
ATOM     41  H   UNL     1       1.240   2.632   6.385  1.00  0.00     0.211 HD
ENDBRANCH  38  40
ENDBRANCH  32  38
ENDBRANCH  29  32
ENDBRANCH  27  28
BRANCH  27  42
ATOM     42  C   UNL     1      -4.871   0.546   6.941  1.00  0.00     0.015 C 
ATOM     43  C   UNL     1      -5.260   1.994   7.258  1.00  0.00     0.010 C 
ATOM     44  C   UNL     1      -6.083  -0.377   7.104  1.00  0.00     0.010 C 
ENDBRANCH  27  42
ENDBRANCH   3  27
TORSDOF 5
ENDMDL
MODEL 9
REMARK VINA RESULT:    -5.561      3.416      8.501
REMARK INTER + INTRA:         -12.416
REMARK INTER:                 -10.125
REMARK INTRA:                  -2.291
REMARK UNBOUND:                -2.467
REMARK SMILES CC[C@H](C)[C@H]1NC(=O)c2coc(n2)[C@H](C(C)C)NC(=O)[C@H]([C@@H](C)O)NC(=O)[C@H](C)NC(=O)c2csc1n2
REMARK SMILES IDX 11 1 13 2 12 3 9 4 10 5 7 6 6 7 8 8 5 10 36 11 35 12 34 13
REMARK SMILES IDX 37 14 33 15 31 16 32 17 30 18 28 20 29 21 3 23 4 24 2 25
REMARK SMILES IDX 1 26 14 27 18 28 19 29 20 30 21 32 25 33 26 34 27 35 22 38
REMARK SMILES IDX 23 39 24 40 15 42 16 43 17 44
REMARK H PARENT 6 9 30 19 18 31 25 36 24 41
REMARK Flexibility Score:   94.900
ROOT
ATOM      1  O   UNL     1      -2.801   2.998   4.944  1.00  0.00    -0.446 OA
ATOM      2  N   UNL     1      -3.605   1.991   3.094  1.00  0.00    -0.207 NA
ATOM      3  C   UNL     1      -2.721   1.942   4.075  1.00  0.00     0.217 A 
ATOM      4  C   UNL     1      -4.332   3.140   3.349  1.00  0.00     0.167 A 
ATOM      5  C   UNL     1      -3.838   3.748   4.477  1.00  0.00     0.231 A 
ENDROOT
BRANCH   4   6
ATOM      6  C   UNL     1      -5.417   3.598   2.499  1.00  0.00     0.273 C 
ATOM      7  N   UNL     1      -5.699   2.697   1.502  1.00  0.00    -0.341 N 
ATOM      8  O   UNL     1      -5.988   4.671   2.648  1.00  0.00    -0.267 OA
ATOM      9  H   UNL     1      -5.080   1.893   1.448  1.00  0.00     0.164 HD
BRANCH   7  10
ATOM     10  C   UNL     1      -6.557   3.006   0.376  1.00  0.00     0.145 C 
BRANCH  10  11
ATOM     11  C   UNL     1      -5.663   3.418  -0.785  1.00  0.00     0.116 A 
ATOM     12  S   UNL     1      -6.358   4.158  -2.178  1.00  0.00    -0.124 S 
ATOM     13  C   UNL     1      -4.800   4.306  -2.867  1.00  0.00     0.101 A 
ATOM     14  N   UNL     1      -4.349   3.269  -0.820  1.00  0.00    -0.234 NA
ATOM     15  C   UNL     1      -3.843   3.795  -2.011  1.00  0.00     0.139 A 
BRANCH  15  16
ATOM     16  C   UNL     1      -2.408   3.799  -2.303  1.00  0.00     0.271 C 
ATOM     17  O   UNL     1      -1.945   4.216  -3.359  1.00  0.00    -0.267 OA
ATOM     18  N   UNL     1      -1.636   3.293  -1.278  1.00  0.00    -0.339 N 
ATOM     19  H   UNL     1      -2.145   2.878  -0.502  1.00  0.00     0.164 HD
BRANCH  18  20
ATOM     20  C   UNL     1      -0.193   3.157  -1.416  1.00  0.00     0.168 CG0
ATOM     21  C   UNL     1       0.540   4.357  -0.812  1.00  0.00     0.041 C 
ATOM     22  G   UNL     1       0.351   1.886  -0.744  1.00  0.00     0.000 G0
ENDBRANCH  18  20
ENDBRANCH  15  16
ENDBRANCH  10  11
BRANCH  10  23
ATOM     23  C   UNL     1      -7.492   1.823   0.010  1.00  0.00     0.015 C 
ATOM     24  C   UNL     1      -6.942   0.939  -1.122  1.00  0.00     0.010 C 
BRANCH  23  25
ATOM     25  C   UNL     1      -7.821   0.924   1.223  1.00  0.00     0.002 C 
ATOM     26  C   UNL     1      -7.793  -0.567   0.915  1.00  0.00     0.004 C 
ENDBRANCH  23  25
ENDBRANCH  10  23
ENDBRANCH   7  10
ENDBRANCH   4   6
BRANCH   3  27
ATOM     27  C   UNL     1      -1.649   0.907   4.279  1.00  0.00     0.171 C 
BRANCH  27  28
ATOM     28  N   UNL     1      -0.594   1.158   3.304  1.00  0.00    -0.342 N 
ATOM     29  C   UNL     1      -0.175   0.211   2.396  1.00  0.00     0.245 C 
ATOM     30  O   UNL     1      -0.671  -0.912   2.330  1.00  0.00    -0.273 OA
ATOM     31  H   UNL     1      -0.216   2.101   3.223  1.00  0.00     0.164 HD
BRANCH  29  32
ATOM     32  C   UNL     1       0.860   0.702   1.362  1.00  0.00     0.200 C 
BRANCH  32  33
ATOM     33  N   UNL     1       0.268   1.816   0.610  1.00  0.00    -0.340 N 
ATOM     34  C   UNL     1       0.360   1.881  -0.765  1.00  0.00     0.243 CG0
ATOM     35  O   UNL     1       0.992   1.050  -1.414  1.00  0.00    -0.273 OA
ATOM     36  H   UNL     1      -0.234   2.533   1.121  1.00  0.00     0.164 HD
ATOM     37  G   UNL     1      -0.182   3.167  -1.409  1.00  0.00     0.000 G0
ENDBRANCH  32  33
BRANCH  32  38
ATOM     38  C   UNL     1       2.201   1.075   2.036  1.00  0.00     0.143 C 
ATOM     39  C   UNL     1       3.433   0.690   1.226  1.00  0.00     0.041 C 
BRANCH  38  40
ATOM     40  O   UNL     1       2.241   2.490   2.304  1.00  0.00    -0.391 OA
ATOM     41  H   UNL     1       1.570   2.664   2.991  1.00  0.00     0.211 HD
ENDBRANCH  38  40
ENDBRANCH  32  38
ENDBRANCH  29  32
ENDBRANCH  27  28
BRANCH  27  42
ATOM     42  C   UNL     1      -1.077   0.746   5.709  1.00  0.00     0.015 C 
ATOM     43  C   UNL     1      -0.691  -0.683   6.109  1.00  0.00     0.010 C 
ATOM     44  C   UNL     1       0.089   1.704   5.971  1.00  0.00     0.010 C 
ENDBRANCH  27  42
ENDBRANCH   3  27
TORSDOF 5
ENDMDL
MODEL 10
REMARK VINA RESULT:    -5.439      5.598      9.331
REMARK INTER + INTRA:         -12.198
REMARK INTER:                  -9.968
REMARK INTRA:                  -2.230
REMARK UNBOUND:                -2.467
REMARK SMILES CC[C@H](C)[C@H]1NC(=O)c2coc(n2)[C@H](C(C)C)NC(=O)[C@H]([C@@H](C)O)NC(=O)[C@H](C)NC(=O)c2csc1n2
REMARK SMILES IDX 11 1 13 2 12 3 9 4 10 5 7 6 6 7 8 8 5 10 36 11 35 12 34 13
REMARK SMILES IDX 37 14 33 15 31 16 32 17 30 18 28 20 29 21 3 23 4 24 2 25
REMARK SMILES IDX 1 26 14 27 18 28 19 29 20 30 21 32 25 33 26 34 27 35 22 38
REMARK SMILES IDX 23 39 24 40 15 42 16 43 17 44
REMARK H PARENT 6 9 30 19 18 31 25 36 24 41
REMARK Flexibility Score:   94.900
ROOT
ATOM      1  O   UNL     1      -9.196   2.540  -8.701  1.00  0.00    -0.446 OA
ATOM      2  N   UNL     1      -7.301   1.605  -7.916  1.00  0.00    -0.207 NA
ATOM      3  C   UNL     1      -8.005   1.928  -8.986  1.00  0.00     0.217 A 
ATOM      4  C   UNL     1      -8.068   2.058  -6.857  1.00  0.00     0.167 A 
ATOM      5  C   UNL     1      -9.220   2.627  -7.342  1.00  0.00     0.231 A 
ENDROOT
BRANCH   4   6
ATOM      6  C   UNL     1      -7.676   1.898  -5.467  1.00  0.00     0.273 C 
ATOM      7  N   UNL     1      -6.824   2.893  -5.060  1.00  0.00    -0.341 N 
ATOM      8  O   UNL     1      -8.047   0.967  -4.761  1.00  0.00    -0.267 OA
ATOM      9  H   UNL     1      -6.531   3.545  -5.782  1.00  0.00     0.164 HD
BRANCH   7  10
ATOM     10  C   UNL     1      -6.089   2.844  -3.811  1.00  0.00     0.145 C 
BRANCH  10  11
ATOM     11  C   UNL     1      -4.654   3.258  -4.106  1.00  0.00     0.116 A 
ATOM     12  S   UNL     1      -3.413   2.915  -2.960  1.00  0.00    -0.124 S 
ATOM     13  C   UNL     1      -2.260   3.611  -4.012  1.00  0.00     0.101 A 
ATOM     14  N   UNL     1      -4.253   3.869  -5.208  1.00  0.00    -0.234 NA
ATOM     15  C   UNL     1      -2.869   4.060  -5.168  1.00  0.00     0.139 A 
BRANCH  15  16
ATOM     16  C   UNL     1      -2.145   4.682  -6.279  1.00  0.00     0.271 C 
ATOM     17  O   UNL     1      -1.541   5.744  -6.168  1.00  0.00    -0.267 OA
ATOM     18  N   UNL     1      -2.210   3.960  -7.452  1.00  0.00    -0.339 N 
ATOM     19  H   UNL     1      -2.833   3.156  -7.445  1.00  0.00     0.164 HD
BRANCH  18  20
ATOM     20  C   UNL     1      -1.605   4.459  -8.679  1.00  0.00     0.168 CG0
ATOM     21  C   UNL     1      -0.095   4.212  -8.696  1.00  0.00     0.041 C 
ATOM     22  G   UNL     1      -2.202   3.812  -9.940  1.00  0.00     0.000 G0
ENDBRANCH  18  20
ENDBRANCH  15  16
ENDBRANCH  10  11
BRANCH  10  23
ATOM     23  C   UNL     1      -6.743   3.721  -2.711  1.00  0.00     0.015 C 
ATOM     24  C   UNL     1      -6.636   3.110  -1.303  1.00  0.00     0.010 C 
BRANCH  23  25
ATOM     25  C   UNL     1      -6.174   5.157  -2.672  1.00  0.00     0.002 C 
ATOM     26  C   UNL     1      -5.566   5.545  -1.331  1.00  0.00     0.004 C 
ENDBRANCH  23  25
ENDBRANCH  10  23
ENDBRANCH   7  10
ENDBRANCH   4   6
BRANCH   3  27
ATOM     27  C   UNL     1      -7.653   1.646 -10.421  1.00  0.00     0.171 C 
BRANCH  27  28
ATOM     28  N   UNL     1      -6.208   1.461 -10.499  1.00  0.00    -0.342 N 
ATOM     29  C   UNL     1      -5.343   2.472 -10.851  1.00  0.00     0.245 C 
ATOM     30  O   UNL     1      -5.723   3.613 -11.112  1.00  0.00    -0.273 OA
ATOM     31  H   UNL     1      -5.810   0.576 -10.186  1.00  0.00     0.164 HD
BRANCH  29  32
ATOM     32  C   UNL     1      -3.843   2.122 -10.752  1.00  0.00     0.200 C 
BRANCH  32  33
ATOM     33  N   UNL     1      -3.251   2.931  -9.680  1.00  0.00    -0.340 N 
ATOM     34  C   UNL     1      -2.212   3.803  -9.931  1.00  0.00     0.243 CG0
ATOM     35  O   UNL     1      -1.695   3.895 -11.043  1.00  0.00    -0.273 OA
ATOM     36  H   UNL     1      -3.635   2.854  -8.746  1.00  0.00     0.164 HD
ATOM     37  G   UNL     1      -1.598   4.482  -8.696  1.00  0.00     0.000 G0
ENDBRANCH  32  33
BRANCH  32  38
ATOM     38  C   UNL     1      -3.629   0.604 -10.551  1.00  0.00     0.143 C 
ATOM     39  C   UNL     1      -2.208   0.133 -10.836  1.00  0.00     0.041 C 
BRANCH  38  40
ATOM     40  O   UNL     1      -3.985   0.230  -9.206  1.00  0.00    -0.391 OA
ATOM     41  H   UNL     1      -4.521   0.962  -8.845  1.00  0.00     0.211 HD
ENDBRANCH  38  40
ENDBRANCH  32  38
ENDBRANCH  29  32
ENDBRANCH  27  28
BRANCH  27  42
ATOM     42  C   UNL     1      -8.413   0.498 -11.130  1.00  0.00     0.015 C 
ATOM     43  C   UNL     1      -8.254   0.441 -12.654  1.00  0.00     0.010 C 
ATOM     44  C   UNL     1      -8.094  -0.867 -10.512  1.00  0.00     0.010 C 
ENDBRANCH  27  42
ENDBRANCH   3  27
TORSDOF 5
ENDMDL
MODEL 11
REMARK VINA RESULT:    -5.394      3.302      8.801
REMARK INTER + INTRA:         -12.118
REMARK INTER:                 -10.448
REMARK INTRA:                  -1.670
REMARK UNBOUND:                -2.467
REMARK SMILES CC[C@H](C)[C@H]1NC(=O)c2coc(n2)[C@H](C(C)C)NC(=O)[C@H]([C@@H](C)O)NC(=O)[C@H](C)NC(=O)c2csc1n2
REMARK SMILES IDX 11 1 13 2 12 3 9 4 10 5 7 6 6 7 8 8 5 10 36 11 35 12 34 13
REMARK SMILES IDX 37 14 33 15 31 16 32 17 30 18 28 20 29 21 3 23 4 24 2 25
REMARK SMILES IDX 1 26 14 27 18 28 19 29 20 30 21 32 25 33 26 34 27 35 22 38
REMARK SMILES IDX 23 39 24 40 15 42 16 43 17 44
REMARK H PARENT 6 9 30 19 18 31 25 36 24 41
REMARK Flexibility Score:   94.900
ROOT
ATOM      1  O   UNL     1      -2.335  -0.613   5.402  1.00  0.00    -0.446 OA
ATOM      2  N   UNL     1      -2.630   1.341   4.320  1.00  0.00    -0.207 NA
ATOM      3  C   UNL     1      -1.783   0.563   4.969  1.00  0.00     0.217 A 
ATOM      4  C   UNL     1      -3.810   0.618   4.301  1.00  0.00     0.167 A 
ATOM      5  C   UNL     1      -3.623  -0.572   4.961  1.00  0.00     0.231 A 
ENDROOT
BRANCH   4   6
ATOM      6  C   UNL     1      -5.033   1.109   3.690  1.00  0.00     0.273 C 
ATOM      7  N   UNL     1      -5.311   0.461   2.513  1.00  0.00    -0.341 N 
ATOM      8  O   UNL     1      -5.712   2.012   4.164  1.00  0.00    -0.267 OA
ATOM      9  H   UNL     1      -4.608  -0.201   2.198  1.00  0.00     0.164 HD
BRANCH   7  10
ATOM     10  C   UNL     1      -6.323   0.914   1.579  1.00  0.00     0.145 C 
BRANCH  10  11
ATOM     11  C   UNL     1      -5.632   1.780   0.536  1.00  0.00     0.116 A 
ATOM     12  S   UNL     1      -6.508   3.043  -0.243  1.00  0.00    -0.124 S 
ATOM     13  C   UNL     1      -5.103   3.468  -1.119  1.00  0.00     0.101 A 
ATOM     14  N   UNL     1      -4.367   1.658   0.167  1.00  0.00    -0.234 NA
ATOM     15  C   UNL     1      -4.051   2.640  -0.776  1.00  0.00     0.139 A 
BRANCH  15  16
ATOM     16  C   UNL     1      -2.702   2.766  -1.333  1.00  0.00     0.271 C 
ATOM     17  O   UNL     1      -2.492   3.079  -2.500  1.00  0.00    -0.267 OA
ATOM     18  N   UNL     1      -1.703   2.501  -0.421  1.00  0.00    -0.339 N 
ATOM     19  H   UNL     1      -2.007   2.145   0.481  1.00  0.00     0.164 HD
BRANCH  18  20
ATOM     20  C   UNL     1      -0.300   2.511  -0.815  1.00  0.00     0.168 CG0
ATOM     21  C   UNL     1       0.389   3.808  -0.385  1.00  0.00     0.041 C 
ATOM     22  G   UNL     1       0.493   1.337  -0.219  1.00  0.00     0.000 G0
ENDBRANCH  18  20
ENDBRANCH  15  16
ENDBRANCH  10  11
BRANCH  10  23
ATOM     23  C   UNL     1      -7.105  -0.266   0.944  1.00  0.00     0.015 C 
ATOM     24  C   UNL     1      -8.632  -0.088   1.007  1.00  0.00     0.010 C 
BRANCH  23  25
ATOM     25  C   UNL     1      -6.698  -0.533  -0.522  1.00  0.00     0.002 C 
ATOM     26  C   UNL     1      -7.877  -0.697  -1.471  1.00  0.00     0.004 C 
ENDBRANCH  23  25
ENDBRANCH  10  23
ENDBRANCH   7  10
ENDBRANCH   4   6
BRANCH   3  27
ATOM     27  C   UNL     1      -0.349   0.866   5.306  1.00  0.00     0.171 C 
BRANCH  27  28
ATOM     28  N   UNL     1       0.392   0.967   4.054  1.00  0.00    -0.342 N 
ATOM     29  C   UNL     1       0.563  -0.099   3.199  1.00  0.00     0.245 C 
ATOM     30  O   UNL     1       0.090  -1.213   3.421  1.00  0.00    -0.273 OA
ATOM     31  H   UNL     1       0.715   1.884   3.748  1.00  0.00     0.164 HD
BRANCH  29  32
ATOM     32  C   UNL     1       1.264   0.231   1.864  1.00  0.00     0.200 C 
BRANCH  32  33
ATOM     33  N   UNL     1       0.460   1.238   1.159  1.00  0.00    -0.340 N 
ATOM     34  C   UNL     1       0.485   1.338  -0.216  1.00  0.00     0.243 CG0
ATOM     35  O   UNL     1       1.223   0.637  -0.906  1.00  0.00    -0.273 OA
ATOM     36  H   UNL     1      -0.135   1.851   1.703  1.00  0.00     0.164 HD
ATOM     37  G   UNL     1      -0.295   2.521  -0.812  1.00  0.00     0.000 G0
ENDBRANCH  32  33
BRANCH  32  38
ATOM     38  C   UNL     1       2.727   0.677   2.089  1.00  0.00     0.143 C 
ATOM     39  C   UNL     1       3.761  -0.224   1.425  1.00  0.00     0.041 C 
BRANCH  38  40
ATOM     40  O   UNL     1       2.910   2.026   1.616  1.00  0.00    -0.391 OA
ATOM     41  H   UNL     1       2.793   2.000   0.647  1.00  0.00     0.211 HD
ENDBRANCH  38  40
ENDBRANCH  32  38
ENDBRANCH  29  32
ENDBRANCH  27  28
BRANCH  27  42
ATOM     42  C   UNL     1      -0.074   2.078   6.229  1.00  0.00     0.015 C 
ATOM     43  C   UNL     1      -0.904   2.129   7.518  1.00  0.00     0.010 C 
ATOM     44  C   UNL     1       1.416   2.227   6.551  1.00  0.00     0.010 C 
ENDBRANCH  27  42
ENDBRANCH   3  27
TORSDOF 5
ENDMDL
MODEL 12
REMARK VINA RESULT:    -5.359      3.170      8.772
REMARK INTER + INTRA:         -12.055
REMARK INTER:                  -9.770
REMARK INTRA:                  -2.285
REMARK UNBOUND:                -2.467
REMARK SMILES CC[C@H](C)[C@H]1NC(=O)c2coc(n2)[C@H](C(C)C)NC(=O)[C@H]([C@@H](C)O)NC(=O)[C@H](C)NC(=O)c2csc1n2
REMARK SMILES IDX 11 1 13 2 12 3 9 4 10 5 7 6 6 7 8 8 5 10 36 11 35 12 34 13
REMARK SMILES IDX 37 14 33 15 31 16 32 17 30 18 28 20 29 21 3 23 4 24 2 25
REMARK SMILES IDX 1 26 14 27 18 28 19 29 20 30 21 32 25 33 26 34 27 35 22 38
REMARK SMILES IDX 23 39 24 40 15 42 16 43 17 44
REMARK H PARENT 6 9 30 19 18 31 25 36 24 41
REMARK Flexibility Score:   94.900
ROOT
ATOM      1  O   UNL     1      -4.552   0.629   4.554  1.00  0.00    -0.446 OA
ATOM      2  N   UNL     1      -3.944   2.388   3.281  1.00  0.00    -0.207 NA
ATOM      3  C   UNL     1      -3.626   1.605   4.296  1.00  0.00     0.217 A 
ATOM      4  C   UNL     1      -5.147   1.878   2.823  1.00  0.00     0.167 A 
ATOM      5  C   UNL     1      -5.511   0.807   3.602  1.00  0.00     0.231 A 
ENDROOT
BRANCH   4   6
ATOM      6  C   UNL     1      -5.879   2.451   1.707  1.00  0.00     0.273 C 
ATOM      7  N   UNL     1      -6.143   1.518   0.737  1.00  0.00    -0.341 N 
ATOM      8  O   UNL     1      -6.194   3.633   1.640  1.00  0.00    -0.267 OA
ATOM      9  H   UNL     1      -5.738   0.598   0.889  1.00  0.00     0.164 HD
BRANCH   7  10
ATOM     10  C   UNL     1      -6.635   1.864  -0.582  1.00  0.00     0.145 C 
BRANCH  10  11
ATOM     11  C   UNL     1      -5.427   2.100  -1.477  1.00  0.00     0.116 A 
ATOM     12  S   UNL     1      -5.656   2.422  -3.154  1.00  0.00    -0.124 S 
ATOM     13  C   UNL     1      -3.966   2.583  -3.347  1.00  0.00     0.101 A 
ATOM     14  N   UNL     1      -4.169   2.095  -1.069  1.00  0.00    -0.234 NA
ATOM     15  C   UNL     1      -3.321   2.390  -2.140  1.00  0.00     0.139 A 
BRANCH  15  16
ATOM     16  C   UNL     1      -1.870   2.488  -1.969  1.00  0.00     0.271 C 
ATOM     17  O   UNL     1      -1.121   2.878  -2.858  1.00  0.00    -0.267 OA
ATOM     18  N   UNL     1      -1.436   2.104  -0.717  1.00  0.00    -0.339 N 
ATOM     19  H   UNL     1      -2.141   1.697  -0.108  1.00  0.00     0.164 HD
BRANCH  18  20
ATOM     20  C   UNL     1      -0.017   2.073  -0.388  1.00  0.00     0.168 CG0
ATOM     21  C   UNL     1       0.466   3.433   0.120  1.00  0.00     0.041 C 
ATOM     22  G   UNL     1       0.320   1.024   0.684  1.00  0.00     0.000 G0
ENDBRANCH  18  20
ENDBRANCH  15  16
ENDBRANCH  10  11
BRANCH  10  23
ATOM     23  C   UNL     1      -7.592   0.784  -1.152  1.00  0.00     0.015 C 
ATOM     24  C   UNL     1      -7.601  -0.516  -0.331  1.00  0.00     0.010 C 
BRANCH  23  25
ATOM     25  C   UNL     1      -9.046   1.288  -1.295  1.00  0.00     0.002 C 
ATOM     26  C   UNL     1      -9.224   2.764  -0.965  1.00  0.00     0.004 C 
ENDBRANCH  23  25
ENDBRANCH  10  23
ENDBRANCH   7  10
ENDBRANCH   4   6
BRANCH   3  27
ATOM     27  C   UNL     1      -2.419   1.719   5.186  1.00  0.00     0.171 C 
BRANCH  27  28
ATOM     28  N   UNL     1      -1.232   1.622   4.344  1.00  0.00    -0.342 N 
ATOM     29  C   UNL     1      -0.580   0.433   4.106  1.00  0.00     0.245 C 
ATOM     30  O   UNL     1      -0.959  -0.639   4.575  1.00  0.00    -0.273 OA
ATOM     31  H   UNL     1      -0.927   2.448   3.830  1.00  0.00     0.164 HD
BRANCH  29  32
ATOM     32  C   UNL     1       0.577   0.507   3.087  1.00  0.00     0.200 C 
BRANCH  32  33
ATOM     33  N   UNL     1       0.169   1.394   1.991  1.00  0.00    -0.340 N 
ATOM     34  C   UNL     1       0.303   1.010   0.672  1.00  0.00     0.243 CG0
ATOM     35  O   UNL     1       0.825  -0.057   0.356  1.00  0.00    -0.273 OA
ATOM     36  H   UNL     1      -0.237   2.293   2.220  1.00  0.00     0.164 HD
ATOM     37  G   UNL     1      -0.034   2.086  -0.373  1.00  0.00     0.000 G0
ENDBRANCH  32  33
BRANCH  32  38
ATOM     38  C   UNL     1       1.897   0.950   3.761  1.00  0.00     0.143 C 
ATOM     39  C   UNL     1       2.996   1.340   2.780  1.00  0.00     0.041 C 
BRANCH  38  40
ATOM     40  O   UNL     1       1.649   2.057   4.650  1.00  0.00    -0.391 OA
ATOM     41  H   UNL     1       1.600   2.856   4.093  1.00  0.00     0.211 HD
ENDBRANCH  38  40
ENDBRANCH  32  38
ENDBRANCH  29  32
ENDBRANCH  27  28
BRANCH  27  42
ATOM     42  C   UNL     1      -2.346   2.941   6.135  1.00  0.00     0.015 C 
ATOM     43  C   UNL     1      -3.545   3.124   7.072  1.00  0.00     0.010 C 
ATOM     44  C   UNL     1      -1.038   2.969   6.933  1.00  0.00     0.010 C 
ENDBRANCH  27  42
ENDBRANCH   3  27
TORSDOF 5
ENDMDL
MODEL 13
REMARK VINA RESULT:    -5.319      3.492      7.554
REMARK INTER + INTRA:         -11.985
REMARK INTER:                 -10.666
REMARK INTRA:                  -1.318
REMARK UNBOUND:                -2.467
REMARK SMILES CC[C@H](C)[C@H]1NC(=O)c2coc(n2)[C@H](C(C)C)NC(=O)[C@H]([C@@H](C)O)NC(=O)[C@H](C)NC(=O)c2csc1n2
REMARK SMILES IDX 11 1 13 2 12 3 9 4 10 5 7 6 6 7 8 8 5 10 36 11 35 12 34 13
REMARK SMILES IDX 37 14 33 15 31 16 32 17 30 18 28 20 29 21 3 23 4 24 2 25
REMARK SMILES IDX 1 26 14 27 18 28 19 29 20 30 21 32 25 33 26 34 27 35 22 38
REMARK SMILES IDX 23 39 24 40 15 42 16 43 17 44
REMARK H PARENT 6 9 30 19 18 31 25 36 24 41
REMARK Flexibility Score:   94.900
ROOT
ATOM      1  O   UNL     1       0.863   3.175   0.754  1.00  0.00    -0.446 OA
ATOM      2  N   UNL     1      -0.549   1.420   0.671  1.00  0.00    -0.207 NA
ATOM      3  C   UNL     1       0.616   1.873   1.099  1.00  0.00     0.217 A 
ATOM      4  C   UNL     1      -1.117   2.503   0.023  1.00  0.00     0.167 A 
ATOM      5  C   UNL     1      -0.253   3.569   0.078  1.00  0.00     0.231 A 
ENDROOT
BRANCH   4   6
ATOM      6  C   UNL     1      -2.417   2.448  -0.624  1.00  0.00     0.273 C 
ATOM      7  N   UNL     1      -3.356   3.183   0.056  1.00  0.00    -0.341 N 
ATOM      8  O   UNL     1      -2.642   1.801  -1.639  1.00  0.00    -0.267 OA
ATOM      9  H   UNL     1      -3.045   3.591   0.933  1.00  0.00     0.164 HD
BRANCH   7  10
ATOM     10  C   UNL     1      -4.776   3.105  -0.224  1.00  0.00     0.145 C 
BRANCH  10  11
ATOM     11  C   UNL     1      -5.408   2.224   0.844  1.00  0.00     0.116 A 
ATOM     12  S   UNL     1      -6.716   1.182   0.429  1.00  0.00    -0.124 S 
ATOM     13  C   UNL     1      -6.760   0.608   2.038  1.00  0.00     0.101 A 
ATOM     14  N   UNL     1      -5.022   2.170   2.109  1.00  0.00    -0.234 NA
ATOM     15  C   UNL     1      -5.787   1.227   2.799  1.00  0.00     0.139 A 
BRANCH  15  16
ATOM     16  C   UNL     1      -5.551   0.931   4.214  1.00  0.00     0.271 C 
ATOM     17  O   UNL     1      -6.429   1.012   5.066  1.00  0.00    -0.267 OA
ATOM     18  N   UNL     1      -4.253   0.554   4.489  1.00  0.00    -0.339 N 
ATOM     19  H   UNL     1      -3.595   0.633   3.718  1.00  0.00     0.164 HD
BRANCH  18  20
ATOM     20  C   UNL     1      -3.818   0.287   5.853  1.00  0.00     0.168 CG0
ATOM     21  C   UNL     1      -4.579  -0.895   6.458  1.00  0.00     0.041 C 
ATOM     22  G   UNL     1      -2.315  -0.023   5.947  1.00  0.00     0.000 G0
ENDBRANCH  18  20
ENDBRANCH  15  16
ENDBRANCH  10  11
BRANCH  10  23
ATOM     23  C   UNL     1      -5.436   4.507  -0.300  1.00  0.00     0.015 C 
ATOM     24  C   UNL     1      -6.614   4.572  -1.287  1.00  0.00     0.010 C 
BRANCH  23  25
ATOM     25  C   UNL     1      -5.916   5.018   1.077  1.00  0.00     0.002 C 
ATOM     26  C   UNL     1      -7.429   5.119   1.207  1.00  0.00     0.004 C 
ENDBRANCH  23  25
ENDBRANCH  10  23
ENDBRANCH   7  10
ENDBRANCH   4   6
BRANCH   3  27
ATOM     27  C   UNL     1       1.667   1.104   1.851  1.00  0.00     0.171 C 
BRANCH  27  28
ATOM     28  N   UNL     1       0.987   0.171   2.742  1.00  0.00    -0.342 N 
ATOM     29  C   UNL     1       0.592   0.509   4.017  1.00  0.00     0.245 C 
ATOM     30  O   UNL     1       0.771   1.628   4.495  1.00  0.00    -0.273 OA
ATOM     31  H   UNL     1       0.702  -0.737   2.376  1.00  0.00     0.164 HD
BRANCH  29  32
ATOM     32  C   UNL     1      -0.227  -0.567   4.761  1.00  0.00     0.200 C 
BRANCH  32  33
ATOM     33  N   UNL     1      -1.631  -0.140   4.787  1.00  0.00    -0.340 N 
ATOM     34  C   UNL     1      -2.327  -0.039   5.975  1.00  0.00     0.243 CG0
ATOM     35  O   UNL     1      -1.826  -0.360   7.050  1.00  0.00    -0.273 OA
ATOM     36  H   UNL     1      -2.081   0.102   3.912  1.00  0.00     0.164 HD
ATOM     37  G   UNL     1      -3.824   0.285   5.845  1.00  0.00     0.000 G0
ENDBRANCH  32  33
BRANCH  32  38
ATOM     38  C   UNL     1      -0.033  -1.964   4.127  1.00  0.00     0.143 C 
ATOM     39  C   UNL     1      -0.764  -2.153   2.802  1.00  0.00     0.041 C 
BRANCH  38  40
ATOM     40  O   UNL     1       1.370  -2.225   3.928  1.00  0.00    -0.391 OA
ATOM     41  H   UNL     1       1.430  -2.937   3.264  1.00  0.00     0.211 HD
ENDBRANCH  38  40
ENDBRANCH  32  38
ENDBRANCH  29  32
ENDBRANCH  27  28
BRANCH  27  42
ATOM     42  C   UNL     1       2.766   0.398   1.018  1.00  0.00     0.015 C 
ATOM     43  C   UNL     1       4.133   0.271   1.700  1.00  0.00     0.010 C 
ATOM     44  C   UNL     1       2.302  -0.967   0.499  1.00  0.00     0.010 C 
ENDBRANCH  27  42
ENDBRANCH   3  27
TORSDOF 5
ENDMDL
MODEL 14
REMARK VINA RESULT:    -5.309      3.895      8.483
REMARK INTER + INTRA:         -11.967
REMARK INTER:                 -10.282
REMARK INTRA:                  -1.685
REMARK UNBOUND:                -2.467
REMARK SMILES CC[C@H](C)[C@H]1NC(=O)c2coc(n2)[C@H](C(C)C)NC(=O)[C@H]([C@@H](C)O)NC(=O)[C@H](C)NC(=O)c2csc1n2
REMARK SMILES IDX 11 1 13 2 12 3 9 4 10 5 7 6 6 7 8 8 5 10 36 11 35 12 34 13
REMARK SMILES IDX 37 14 33 15 31 16 32 17 30 18 28 20 29 21 3 23 4 24 2 25
REMARK SMILES IDX 1 26 14 27 18 28 19 29 20 30 21 32 25 33 26 34 27 35 22 38
REMARK SMILES IDX 23 39 24 40 15 42 16 43 17 44
REMARK H PARENT 6 9 30 19 18 31 25 36 24 41
REMARK Flexibility Score:   94.900
ROOT
ATOM      1  O   UNL     1      -5.213   2.281   5.037  1.00  0.00    -0.446 OA
ATOM      2  N   UNL     1      -3.241   3.192   4.434  1.00  0.00    -0.207 NA
ATOM      3  C   UNL     1      -3.878   2.430   5.305  1.00  0.00     0.217 A 
ATOM      4  C   UNL     1      -4.216   3.546   3.517  1.00  0.00     0.167 A 
ATOM      5  C   UNL     1      -5.414   2.988   3.890  1.00  0.00     0.231 A 
ENDROOT
BRANCH   4   6
ATOM      6  C   UNL     1      -3.956   4.407   2.376  1.00  0.00     0.273 C 
ATOM      7  N   UNL     1      -4.267   3.789   1.191  1.00  0.00    -0.341 N 
ATOM      8  O   UNL     1      -3.491   5.536   2.470  1.00  0.00    -0.267 OA
ATOM      9  H   UNL     1      -4.556   2.818   1.263  1.00  0.00     0.164 HD
BRANCH   7  10
ATOM     10  C   UNL     1      -3.880   4.316  -0.102  1.00  0.00     0.145 C 
BRANCH  10  11
ATOM     11  C   UNL     1      -2.470   3.826  -0.396  1.00  0.00     0.116 A 
ATOM     12  S   UNL     1      -1.459   4.720  -1.468  1.00  0.00    -0.124 S 
ATOM     13  C   UNL     1      -0.198   3.596  -1.206  1.00  0.00     0.101 A 
ATOM     14  N   UNL     1      -1.920   2.741   0.126  1.00  0.00    -0.234 NA
ATOM     15  C   UNL     1      -0.604   2.613  -0.324  1.00  0.00     0.139 A 
BRANCH  15  16
ATOM     16  C   UNL     1       0.259   1.518   0.124  1.00  0.00     0.271 C 
ATOM     17  O   UNL     1       1.048   0.945  -0.619  1.00  0.00    -0.267 OA
ATOM     18  N   UNL     1       0.098   1.200   1.456  1.00  0.00    -0.339 N 
ATOM     19  H   UNL     1      -0.665   1.670   1.936  1.00  0.00     0.164 HD
BRANCH  18  20
ATOM     20  C   UNL     1       0.824   0.091   2.061  1.00  0.00     0.168 CG0
ATOM     21  C   UNL     1       1.919   0.593   3.005  1.00  0.00     0.041 C 
ATOM     22  G   UNL     1      -0.089  -0.853   2.859  1.00  0.00     0.000 G0
ENDBRANCH  18  20
ENDBRANCH  15  16
ENDBRANCH  10  11
BRANCH  10  23
ATOM     23  C   UNL     1      -4.886   3.929  -1.219  1.00  0.00     0.015 C 
ATOM     24  C   UNL     1      -5.095   5.039  -2.262  1.00  0.00     0.010 C 
BRANCH  23  25
ATOM     25  C   UNL     1      -4.492   2.627  -1.953  1.00  0.00     0.002 C 
ATOM     26  C   UNL     1      -5.337   1.421  -1.568  1.00  0.00     0.004 C 
ENDBRANCH  23  25
ENDBRANCH  10  23
ENDBRANCH   7  10
ENDBRANCH   4   6
BRANCH   3  27
ATOM     27  C   UNL     1      -3.303   1.787   6.537  1.00  0.00     0.171 C 
BRANCH  27  28
ATOM     28  N   UNL     1      -2.285   0.833   6.110  1.00  0.00    -0.342 N 
ATOM     29  C   UNL     1      -2.588  -0.335   5.446  1.00  0.00     0.245 C 
ATOM     30  O   UNL     1      -3.738  -0.654   5.150  1.00  0.00    -0.273 OA
ATOM     31  H   UNL     1      -1.303   1.083   6.219  1.00  0.00     0.164 HD
BRANCH  29  32
ATOM     32  C   UNL     1      -1.371  -1.152   4.962  1.00  0.00     0.200 C 
BRANCH  32  33
ATOM     33  N   UNL     1      -0.601  -0.322   4.028  1.00  0.00    -0.340 N 
ATOM     34  C   UNL     1      -0.087  -0.846   2.860  1.00  0.00     0.243 CG0
ATOM     35  O   UNL     1      -0.194  -2.039   2.581  1.00  0.00    -0.273 OA
ATOM     36  H   UNL     1      -0.469   0.659   4.246  1.00  0.00     0.164 HD
ATOM     37  G   UNL     1       0.813   0.096   2.045  1.00  0.00     0.000 G0
ENDBRANCH  32  33
BRANCH  32  38
ATOM     38  C   UNL     1      -0.525  -1.666   6.150  1.00  0.00     0.143 C 
ATOM     39  C   UNL     1      -1.348  -2.241   7.297  1.00  0.00     0.041 C 
BRANCH  38  40
ATOM     40  O   UNL     1       0.406  -2.666   5.696  1.00  0.00    -0.391 OA
ATOM     41  H   UNL     1      -0.019  -3.532   5.846  1.00  0.00     0.211 HD
ENDBRANCH  38  40
ENDBRANCH  32  38
ENDBRANCH  29  32
ENDBRANCH  27  28
BRANCH  27  42
ATOM     42  C   UNL     1      -2.774   2.724   7.650  1.00  0.00     0.015 C 
ATOM     43  C   UNL     1      -1.336   2.459   8.109  1.00  0.00     0.010 C 
ATOM     44  C   UNL     1      -2.951   4.202   7.287  1.00  0.00     0.010 C 
ENDBRANCH  27  42
ENDBRANCH   3  27
TORSDOF 5
ENDMDL
MODEL 15
REMARK VINA RESULT:    -5.295      3.072      6.589
REMARK INTER + INTRA:         -11.941
REMARK INTER:                  -9.886
REMARK INTRA:                  -2.055
REMARK UNBOUND:                -2.467
REMARK SMILES CC[C@H](C)[C@H]1NC(=O)c2coc(n2)[C@H](C(C)C)NC(=O)[C@H]([C@@H](C)O)NC(=O)[C@H](C)NC(=O)c2csc1n2
REMARK SMILES IDX 11 1 13 2 12 3 9 4 10 5 7 6 6 7 8 8 5 10 36 11 35 12 34 13
REMARK SMILES IDX 37 14 33 15 31 16 32 17 30 18 28 20 29 21 3 23 4 24 2 25
REMARK SMILES IDX 1 26 14 27 18 28 19 29 20 30 21 32 25 33 26 34 27 35 22 38
REMARK SMILES IDX 23 39 24 40 15 42 16 43 17 44
REMARK H PARENT 6 9 30 19 18 31 25 36 24 41
REMARK Flexibility Score:   94.900
ROOT
ATOM      1  O   UNL     1      -5.516   2.997   5.179  1.00  0.00    -0.446 OA
ATOM      2  N   UNL     1      -4.721   1.511   3.683  1.00  0.00    -0.207 NA
ATOM      3  C   UNL     1      -5.525   2.539   3.889  1.00  0.00     0.217 A 
ATOM      4  C   UNL     1      -4.125   1.295   4.913  1.00  0.00     0.167 A 
ATOM      5  C   UNL     1      -4.613   2.204   5.820  1.00  0.00     0.231 A 
ENDROOT
BRANCH   4   6
ATOM      6  C   UNL     1      -3.163   0.233   5.153  1.00  0.00     0.273 C 
ATOM      7  N   UNL     1      -2.011   0.709   5.726  1.00  0.00    -0.341 N 
ATOM      8  O   UNL     1      -3.358  -0.938   4.852  1.00  0.00    -0.267 OA
ATOM      9  H   UNL     1      -1.956   1.718   5.832  1.00  0.00     0.164 HD
BRANCH   7  10
ATOM     10  C   UNL     1      -0.801  -0.081   5.844  1.00  0.00     0.145 C 
BRANCH  10  11
ATOM     11  C   UNL     1      -0.141  -0.121   4.474  1.00  0.00     0.116 A 
ATOM     12  S   UNL     1       0.513  -1.602   3.883  1.00  0.00    -0.124 S 
ATOM     13  C   UNL     1       0.958  -0.818   2.431  1.00  0.00     0.101 A 
ATOM     14  N   UNL     1      -0.030   0.912   3.655  1.00  0.00    -0.234 NA
ATOM     15  C   UNL     1       0.588   0.512   2.467  1.00  0.00     0.139 A 
BRANCH  15  16
ATOM     16  C   UNL     1       0.807   1.447   1.361  1.00  0.00     0.271 C 
ATOM     17  O   UNL     1       1.917   1.674   0.893  1.00  0.00    -0.267 OA
ATOM     18  N   UNL     1      -0.351   2.039   0.903  1.00  0.00    -0.339 N 
ATOM     19  H   UNL     1      -1.190   1.853   1.446  1.00  0.00     0.164 HD
BRANCH  18  20
ATOM     20  C   UNL     1      -0.318   3.047  -0.148  1.00  0.00     0.168 CG0
ATOM     21  C   UNL     1       0.041   2.429  -1.501  1.00  0.00     0.041 C 
ATOM     22  G   UNL     1      -1.659   3.782  -0.308  1.00  0.00     0.000 G0
ENDBRANCH  18  20
ENDBRANCH  15  16
ENDBRANCH  10  11
BRANCH  10  23
ATOM     23  C   UNL     1       0.150   0.465   6.943  1.00  0.00     0.015 C 
ATOM     24  C   UNL     1      -0.160   1.915   7.350  1.00  0.00     0.010 C 
BRANCH  23  25
ATOM     25  C   UNL     1       0.162  -0.414   8.214  1.00  0.00     0.002 C 
ATOM     26  C   UNL     1      -0.144  -1.882   7.954  1.00  0.00     0.004 C 
ENDBRANCH  23  25
ENDBRANCH  10  23
ENDBRANCH   7  10
ENDBRANCH   4   6
BRANCH   3  27
ATOM     27  C   UNL     1      -6.445   3.185   2.890  1.00  0.00     0.171 C 
BRANCH  27  28
ATOM     28  N   UNL     1      -5.810   3.103   1.579  1.00  0.00    -0.342 N 
ATOM     29  C   UNL     1      -4.769   3.921   1.200  1.00  0.00     0.245 C 
ATOM     30  O   UNL     1      -4.288   4.773   1.945  1.00  0.00    -0.273 OA
ATOM     31  H   UNL     1      -6.078   2.346   0.951  1.00  0.00     0.164 HD
BRANCH  29  32
ATOM     32  C   UNL     1      -4.143   3.599  -0.173  1.00  0.00     0.200 C 
BRANCH  32  33
ATOM     33  N   UNL     1      -2.793   3.069   0.049  1.00  0.00    -0.340 N 
ATOM     34  C   UNL     1      -1.673   3.785  -0.320  1.00  0.00     0.243 CG0
ATOM     35  O   UNL     1      -1.754   4.862  -0.906  1.00  0.00    -0.273 OA
ATOM     36  H   UNL     1      -2.694   2.168   0.503  1.00  0.00     0.164 HD
ATOM     37  G   UNL     1      -0.330   3.053  -0.156  1.00  0.00     0.000 G0
ENDBRANCH  32  33
BRANCH  32  38
ATOM     38  C   UNL     1      -5.040   2.642  -0.993  1.00  0.00     0.143 C 
ATOM     39  C   UNL     1      -4.759   2.656  -2.491  1.00  0.00     0.041 C 
BRANCH  38  40
ATOM     40  O   UNL     1      -4.898   1.294  -0.504  1.00  0.00    -0.391 OA
ATOM     41  H   UNL     1      -5.718   1.086  -0.018  1.00  0.00     0.211 HD
ENDBRANCH  38  40
ENDBRANCH  32  38
ENDBRANCH  29  32
ENDBRANCH  27  28
BRANCH  27  42
ATOM     42  C   UNL     1      -7.911   2.688   2.845  1.00  0.00     0.015 C 
ATOM     43  C   UNL     1      -8.107   1.254   2.338  1.00  0.00     0.010 C 
ATOM     44  C   UNL     1      -8.622   2.878   4.188  1.00  0.00     0.010 C 
ENDBRANCH  27  42
ENDBRANCH   3  27
TORSDOF 5
ENDMDL
MODEL 16
REMARK VINA RESULT:    -5.290      6.864     10.809
REMARK INTER + INTRA:         -11.932
REMARK INTER:                  -9.482
REMARK INTRA:                  -2.450
REMARK UNBOUND:                -2.467
REMARK SMILES CC[C@H](C)[C@H]1NC(=O)c2coc(n2)[C@H](C(C)C)NC(=O)[C@H]([C@@H](C)O)NC(=O)[C@H](C)NC(=O)c2csc1n2
REMARK SMILES IDX 11 1 13 2 12 3 9 4 10 5 7 6 6 7 8 8 5 10 36 11 35 12 34 13
REMARK SMILES IDX 37 14 33 15 31 16 32 17 30 18 28 20 29 21 3 23 4 24 2 25
REMARK SMILES IDX 1 26 14 27 18 28 19 29 20 30 21 32 25 33 26 34 27 35 22 38
REMARK SMILES IDX 23 39 24 40 15 42 16 43 17 44
REMARK H PARENT 6 9 30 19 18 31 25 36 24 41
REMARK Flexibility Score:   94.900
ROOT
ATOM      1  O   UNL     1      -6.339   4.821  -5.347  1.00  0.00    -0.446 OA
ATOM      2  N   UNL     1      -7.503   2.891  -5.397  1.00  0.00    -0.207 NA
ATOM      3  C   UNL     1      -6.321   3.465  -5.537  1.00  0.00     0.217 A 
ATOM      4  C   UNL     1      -8.350   3.934  -5.067  1.00  0.00     0.167 A 
ATOM      5  C   UNL     1      -7.635   5.107  -5.037  1.00  0.00     0.231 A 
ENDROOT
BRANCH   4   6
ATOM      6  C   UNL     1      -9.772   3.758  -4.832  1.00  0.00     0.273 C 
ATOM      7  N   UNL     1     -10.128   2.433  -4.830  1.00  0.00    -0.341 N 
ATOM      8  O   UNL     1     -10.554   4.688  -4.680  1.00  0.00    -0.267 OA
ATOM      9  H   UNL     1      -9.387   1.777  -5.062  1.00  0.00     0.164 HD
BRANCH   7  10
ATOM     10  C   UNL     1     -11.506   1.983  -4.866  1.00  0.00     0.145 C 
BRANCH  10  11
ATOM     11  C   UNL     1     -11.909   1.851  -6.328  1.00  0.00     0.116 A 
ATOM     12  S   UNL     1     -13.429   2.469  -6.854  1.00  0.00    -0.124 S 
ATOM     13  C   UNL     1     -13.066   1.982  -8.451  1.00  0.00     0.101 A 
ATOM     14  N   UNL     1     -11.166   1.297  -7.272  1.00  0.00    -0.234 NA
ATOM     15  C   UNL     1     -11.821   1.385  -8.503  1.00  0.00     0.139 A 
BRANCH  15  16
ATOM     16  C   UNL     1     -11.211   0.883  -9.737  1.00  0.00     0.271 C 
ATOM     17  O   UNL     1     -11.833   0.232 -10.569  1.00  0.00    -0.267 OA
ATOM     18  N   UNL     1      -9.879   1.216  -9.867  1.00  0.00    -0.339 N 
ATOM     19  H   UNL     1      -9.451   1.661  -9.060  1.00  0.00     0.164 HD
BRANCH  18  20
ATOM     20  C   UNL     1      -9.091   0.746 -10.998  1.00  0.00     0.168 CG0
ATOM     21  C   UNL     1      -9.053   1.785 -12.120  1.00  0.00     0.041 C 
ATOM     22  G   UNL     1      -7.640   0.414 -10.615  1.00  0.00     0.000 G0
ENDBRANCH  18  20
ENDBRANCH  15  16
ENDBRANCH  10  11
BRANCH  10  23
ATOM     23  C   UNL     1     -11.712   0.664  -4.075  1.00  0.00     0.015 C 
ATOM     24  C   UNL     1     -12.906  -0.165  -4.575  1.00  0.00     0.010 C 
BRANCH  23  25
ATOM     25  C   UNL     1     -10.454  -0.233  -4.068  1.00  0.00     0.002 C 
ATOM     26  C   UNL     1     -10.629  -1.537  -3.302  1.00  0.00     0.004 C 
ENDBRANCH  23  25
ENDBRANCH  10  23
ENDBRANCH   7  10
ENDBRANCH   4   6
BRANCH   3  27
ATOM     27  C   UNL     1      -5.029   2.798  -5.923  1.00  0.00     0.171 C 
BRANCH  27  28
ATOM     28  N   UNL     1      -5.108   2.458  -7.340  1.00  0.00    -0.342 N 
ATOM     29  C   UNL     1      -5.466   1.206  -7.789  1.00  0.00     0.245 C 
ATOM     30  O   UNL     1      -5.760   0.285  -7.028  1.00  0.00    -0.273 OA
ATOM     31  H   UNL     1      -4.990   3.199  -8.029  1.00  0.00     0.164 HD
BRANCH  29  32
ATOM     32  C   UNL     1      -5.619   1.073  -9.319  1.00  0.00     0.200 C 
BRANCH  32  33
ATOM     33  N   UNL     1      -7.043   1.204  -9.652  1.00  0.00    -0.340 N 
ATOM     34  C   UNL     1      -7.625   0.419 -10.625  1.00  0.00     0.243 CG0
ATOM     35  O   UNL     1      -6.971  -0.375 -11.297  1.00  0.00    -0.273 OA
ATOM     36  H   UNL     1      -7.602   1.872  -9.135  1.00  0.00     0.164 HD
ATOM     37  G   UNL     1      -9.086   0.755 -10.967  1.00  0.00     0.000 G0
ENDBRANCH  32  33
BRANCH  32  38
ATOM     38  C   UNL     1      -4.728   2.092 -10.067  1.00  0.00     0.143 C 
ATOM     39  C   UNL     1      -4.043   1.528 -11.306  1.00  0.00     0.041 C 
BRANCH  38  40
ATOM     40  O   UNL     1      -5.508   3.242 -10.447  1.00  0.00    -0.391 OA
ATOM     41  H   UNL     1      -5.724   3.133 -11.393  1.00  0.00     0.211 HD
ENDBRANCH  38  40
ENDBRANCH  32  38
ENDBRANCH  29  32
ENDBRANCH  27  28
BRANCH  27  42
ATOM     42  C   UNL     1      -3.714   3.544  -5.589  1.00  0.00     0.015 C 
ATOM     43  C   UNL     1      -3.083   3.196  -4.236  1.00  0.00     0.010 C 
ATOM     44  C   UNL     1      -2.678   3.407  -6.709  1.00  0.00     0.010 C 
ENDBRANCH  27  42
ENDBRANCH   3  27
TORSDOF 5
ENDMDL
MODEL 17
REMARK VINA RESULT:    -5.234      2.061      2.829
REMARK INTER + INTRA:         -11.831
REMARK INTER:                  -9.660
REMARK INTRA:                  -2.172
REMARK UNBOUND:                -2.467
REMARK SMILES CC[C@H](C)[C@H]1NC(=O)c2coc(n2)[C@H](C(C)C)NC(=O)[C@H]([C@@H](C)O)NC(=O)[C@H](C)NC(=O)c2csc1n2
REMARK SMILES IDX 11 1 13 2 12 3 9 4 10 5 7 6 6 7 8 8 5 10 36 11 35 12 34 13
REMARK SMILES IDX 37 14 33 15 31 16 32 17 30 18 28 20 29 21 3 23 4 24 2 25
REMARK SMILES IDX 1 26 14 27 18 28 19 29 20 30 21 32 25 33 26 34 27 35 22 38
REMARK SMILES IDX 23 39 24 40 15 42 16 43 17 44
REMARK H PARENT 6 9 30 19 18 31 25 36 24 41
REMARK Flexibility Score:   94.900
ROOT
ATOM      1  O   UNL     1      -2.529   2.915  -2.931  1.00  0.00    -0.446 OA
ATOM      2  N   UNL     1      -2.894   2.497  -0.746  1.00  0.00    -0.207 NA
ATOM      3  C   UNL     1      -3.433   2.619  -1.946  1.00  0.00     0.217 A 
ATOM      4  C   UNL     1      -1.541   2.700  -0.960  1.00  0.00     0.167 A 
ATOM      5  C   UNL     1      -1.326   2.953  -2.292  1.00  0.00     0.231 A 
ENDROOT
BRANCH   4   6
ATOM      6  C   UNL     1      -0.556   2.670   0.107  1.00  0.00     0.273 C 
ATOM      7  N   UNL     1      -0.275   1.388   0.506  1.00  0.00    -0.341 N 
ATOM      8  O   UNL     1      -0.062   3.676   0.602  1.00  0.00    -0.267 OA
ATOM      9  H   UNL     1      -0.831   0.659   0.069  1.00  0.00     0.164 HD
BRANCH   7  10
ATOM     10  C   UNL     1       0.477   1.078   1.706  1.00  0.00     0.145 C 
BRANCH  10  11
ATOM     11  C   UNL     1      -0.387   0.170   2.569  1.00  0.00     0.116 A 
ATOM     12  S   UNL     1       0.221  -1.363   3.071  1.00  0.00    -0.124 S 
ATOM     13  C   UNL     1      -1.227  -1.646   3.934  1.00  0.00     0.101 A 
ATOM     14  N   UNL     1      -1.603   0.464   2.999  1.00  0.00    -0.234 NA
ATOM     15  C   UNL     1      -2.087  -0.572   3.801  1.00  0.00     0.139 A 
BRANCH  15  16
ATOM     16  C   UNL     1      -3.400  -0.498   4.444  1.00  0.00     0.271 C 
ATOM     17  O   UNL     1      -3.733  -1.240   5.363  1.00  0.00    -0.267 OA
ATOM     18  N   UNL     1      -4.216   0.481   3.919  1.00  0.00    -0.339 N 
ATOM     19  H   UNL     1      -3.867   0.953   3.089  1.00  0.00     0.164 HD
BRANCH  18  20
ATOM     20  C   UNL     1      -5.584   0.656   4.390  1.00  0.00     0.168 CG0
ATOM     21  C   UNL     1      -5.667   1.737   5.470  1.00  0.00     0.041 C 
ATOM     22  G   UNL     1      -6.555   1.043   3.263  1.00  0.00     0.000 G0
ENDBRANCH  18  20
ENDBRANCH  15  16
ENDBRANCH  10  11
BRANCH  10  23
ATOM     23  C   UNL     1       1.859   0.450   1.386  1.00  0.00     0.015 C 
ATOM     24  C   UNL     1       2.036   0.093  -0.100  1.00  0.00     0.010 C 
BRANCH  23  25
ATOM     25  C   UNL     1       3.039   1.347   1.823  1.00  0.00     0.002 C 
ATOM     26  C   UNL     1       3.037   1.693   3.306  1.00  0.00     0.004 C 
ENDBRANCH  23  25
ENDBRANCH  10  23
ENDBRANCH   7  10
ENDBRANCH   4   6
BRANCH   3  27
ATOM     27  C   UNL     1      -4.892   2.519  -2.298  1.00  0.00     0.171 C 
BRANCH  27  28
ATOM     28  N   UNL     1      -5.661   2.704  -1.073  1.00  0.00    -0.342 N 
ATOM     29  C   UNL     1      -6.111   1.651  -0.308  1.00  0.00     0.245 C 
ATOM     30  O   UNL     1      -5.885   0.477  -0.593  1.00  0.00    -0.273 OA
ATOM     31  H   UNL     1      -5.790   3.649  -0.712  1.00  0.00     0.164 HD
BRANCH  29  32
ATOM     32  C   UNL     1      -6.795   2.045   1.019  1.00  0.00     0.200 C 
BRANCH  32  33
ATOM     33  N   UNL     1      -5.980   1.530   2.127  1.00  0.00    -0.340 N 
ATOM     34  C   UNL     1      -6.564   1.034   3.274  1.00  0.00     0.243 CG0
ATOM     35  O   UNL     1      -7.781   1.059   3.447  1.00  0.00    -0.273 OA
ATOM     36  H   UNL     1      -4.972   1.525   2.027  1.00  0.00     0.164 HD
ATOM     37  G   UNL     1      -5.595   0.658   4.406  1.00  0.00     0.000 G0
ENDBRANCH  32  33
BRANCH  32  38
ATOM     38  C   UNL     1      -7.031   3.571   1.102  1.00  0.00     0.143 C 
ATOM     39  C   UNL     1      -8.405   4.016   0.617  1.00  0.00     0.041 C 
BRANCH  38  40
ATOM     40  O   UNL     1      -6.844   4.025   2.457  1.00  0.00    -0.391 OA
ATOM     41  H   UNL     1      -6.344   3.326   2.920  1.00  0.00     0.211 HD
ENDBRANCH  38  40
ENDBRANCH  32  38
ENDBRANCH  29  32
ENDBRANCH  27  28
BRANCH  27  42
ATOM     42  C   UNL     1      -5.413   3.426  -3.440  1.00  0.00     0.015 C 
ATOM     43  C   UNL     1      -6.253   2.723  -4.512  1.00  0.00     0.010 C 
ATOM     44  C   UNL     1      -6.158   4.653  -2.902  1.00  0.00     0.010 C 
ENDBRANCH  27  42
ENDBRANCH   3  27
TORSDOF 5
ENDMDL
MODEL 18
REMARK VINA RESULT:    -5.186      4.899      8.061
REMARK INTER + INTRA:         -11.746
REMARK INTER:                  -9.531
REMARK INTRA:                  -2.214
REMARK UNBOUND:                -2.467
REMARK SMILES CC[C@H](C)[C@H]1NC(=O)c2coc(n2)[C@H](C(C)C)NC(=O)[C@H]([C@@H](C)O)NC(=O)[C@H](C)NC(=O)c2csc1n2
REMARK SMILES IDX 11 1 13 2 12 3 9 4 10 5 7 6 6 7 8 8 5 10 36 11 35 12 34 13
REMARK SMILES IDX 37 14 33 15 31 16 32 17 30 18 28 20 29 21 3 23 4 24 2 25
REMARK SMILES IDX 1 26 14 27 18 28 19 29 20 30 21 32 25 33 26 34 27 35 22 38
REMARK SMILES IDX 23 39 24 40 15 42 16 43 17 44
REMARK H PARENT 6 9 30 19 18 31 25 36 24 41
REMARK Flexibility Score:   94.900
ROOT
ATOM      1  O   UNL     1      -9.287   0.459  -3.598  1.00  0.00    -0.446 OA
ATOM      2  N   UNL     1      -7.917   2.205  -3.993  1.00  0.00    -0.207 NA
ATOM      3  C   UNL     1      -9.009   1.560  -4.363  1.00  0.00     0.217 A 
ATOM      4  C   UNL     1      -7.461   1.497  -2.895  1.00  0.00     0.167 A 
ATOM      5  C   UNL     1      -8.300   0.435  -2.660  1.00  0.00     0.231 A 
ENDROOT
BRANCH   4   6
ATOM      6  C   UNL     1      -6.255   1.852  -2.167  1.00  0.00     0.273 C 
ATOM      7  N   UNL     1      -5.653   2.967  -2.691  1.00  0.00    -0.341 N 
ATOM      8  O   UNL     1      -5.824   1.210  -1.216  1.00  0.00    -0.267 OA
ATOM      9  H   UNL     1      -6.075   3.339  -3.537  1.00  0.00     0.164 HD
BRANCH   7  10
ATOM     10  C   UNL     1      -4.318   3.395  -2.321  1.00  0.00     0.145 C 
BRANCH  10  11
ATOM     11  C   UNL     1      -3.526   3.594  -3.604  1.00  0.00     0.116 A 
ATOM     12  S   UNL     1      -1.991   4.377  -3.549  1.00  0.00    -0.124 S 
ATOM     13  C   UNL     1      -1.824   4.152  -5.235  1.00  0.00     0.101 A 
ATOM     14  N   UNL     1      -3.913   3.193  -4.804  1.00  0.00    -0.234 NA
ATOM     15  C   UNL     1      -2.928   3.497  -5.747  1.00  0.00     0.139 A 
BRANCH  15  16
ATOM     16  C   UNL     1      -3.075   3.133  -7.158  1.00  0.00     0.271 C 
ATOM     17  O   UNL     1      -2.371   3.606  -8.044  1.00  0.00    -0.267 OA
ATOM     18  N   UNL     1      -4.074   2.211  -7.388  1.00  0.00    -0.339 N 
ATOM     19  H   UNL     1      -4.658   1.981  -6.588  1.00  0.00     0.164 HD
BRANCH  18  20
ATOM     20  C   UNL     1      -4.409   1.781  -8.739  1.00  0.00     0.168 CG0
ATOM     21  C   UNL     1      -4.178   0.280  -8.919  1.00  0.00     0.041 C 
ATOM     22  G   UNL     1      -5.869   2.081  -9.113  1.00  0.00     0.000 G0
ENDBRANCH  18  20
ENDBRANCH  15  16
ENDBRANCH  10  11
BRANCH  10  23
ATOM     23  C   UNL     1      -4.335   4.667  -1.433  1.00  0.00     0.015 C 
ATOM     24  C   UNL     1      -5.633   5.481  -1.560  1.00  0.00     0.010 C 
BRANCH  23  25
ATOM     25  C   UNL     1      -4.090   4.357   0.061  1.00  0.00     0.002 C 
ATOM     26  C   UNL     1      -5.351   4.389   0.914  1.00  0.00     0.004 C 
ENDBRANCH  23  25
ENDBRANCH  10  23
ENDBRANCH   7  10
ENDBRANCH   4   6
BRANCH   3  27
ATOM     27  C   UNL     1      -9.901   1.884  -5.530  1.00  0.00     0.171 C 
BRANCH  27  28
ATOM     28  N   UNL     1      -9.296   1.309  -6.727  1.00  0.00    -0.342 N 
ATOM     29  C   UNL     1      -8.979   2.059  -7.838  1.00  0.00     0.245 C 
ATOM     30  O   UNL     1      -9.169   3.273  -7.897  1.00  0.00    -0.273 OA
ATOM     31  H   UNL     1      -9.004   0.333  -6.709  1.00  0.00     0.164 HD
BRANCH  29  32
ATOM     32  C   UNL     1      -8.229   1.302  -8.953  1.00  0.00     0.200 C 
BRANCH  32  33
ATOM     33  N   UNL     1      -6.812   1.215  -8.579  1.00  0.00    -0.340 N 
ATOM     34  C   UNL     1      -5.875   2.071  -9.120  1.00  0.00     0.243 CG0
ATOM     35  O   UNL     1      -6.170   2.897  -9.982  1.00  0.00    -0.273 OA
ATOM     36  H   UNL     1      -6.533   0.524  -7.893  1.00  0.00     0.164 HD
ATOM     37  G   UNL     1      -4.412   1.781  -8.746  1.00  0.00     0.000 G0
ENDBRANCH  32  33
BRANCH  32  38
ATOM     38  C   UNL     1      -8.866  -0.081  -9.225  1.00  0.00     0.143 C 
ATOM     39  C   UNL     1      -8.486  -0.687 -10.571  1.00  0.00     0.041 C 
BRANCH  38  40
ATOM     40  O   UNL     1      -8.506  -1.004  -8.179  1.00  0.00    -0.391 OA
ATOM     41  H   UNL     1      -8.860  -0.634  -7.347  1.00  0.00     0.211 HD
ENDBRANCH  38  40
ENDBRANCH  32  38
ENDBRANCH  29  32
ENDBRANCH  27  28
BRANCH  27  42
ATOM     42  C   UNL     1     -11.397   1.504  -5.411  1.00  0.00     0.015 C 
ATOM     43  C   UNL     1     -12.006   1.647  -4.011  1.00  0.00     0.010 C 
ATOM     44  C   UNL     1     -12.259   2.241  -6.442  1.00  0.00     0.010 C 
ENDBRANCH  27  42
ENDBRANCH   3  27
TORSDOF 5
ENDMDL
MODEL 19
REMARK VINA RESULT:    -5.131      4.180      9.469
REMARK INTER + INTRA:         -11.648
REMARK INTER:                 -10.910
REMARK INTRA:                  -0.738
REMARK UNBOUND:                -2.467
REMARK SMILES CC[C@H](C)[C@H]1NC(=O)c2coc(n2)[C@H](C(C)C)NC(=O)[C@H]([C@@H](C)O)NC(=O)[C@H](C)NC(=O)c2csc1n2
REMARK SMILES IDX 11 1 13 2 12 3 9 4 10 5 7 6 6 7 8 8 5 10 36 11 35 12 34 13
REMARK SMILES IDX 37 14 33 15 31 16 32 17 30 18 28 20 29 21 3 23 4 24 2 25
REMARK SMILES IDX 1 26 14 27 18 28 19 29 20 30 21 32 25 33 26 34 27 35 22 38
REMARK SMILES IDX 23 39 24 40 15 42 16 43 17 44
REMARK H PARENT 6 9 30 19 18 31 25 36 24 41
REMARK Flexibility Score:   94.900
ROOT
ATOM      1  O   UNL     1      -1.949   1.357   7.594  1.00  0.00    -0.446 OA
ATOM      2  N   UNL     1      -1.859   2.710   5.793  1.00  0.00    -0.207 NA
ATOM      3  C   UNL     1      -1.198   1.871   6.570  1.00  0.00     0.217 A 
ATOM      4  C   UNL     1      -3.137   2.729   6.325  1.00  0.00     0.167 A 
ATOM      5  C   UNL     1      -3.185   1.903   7.421  1.00  0.00     0.231 A 
ENDROOT
BRANCH   4   6
ATOM      6  C   UNL     1      -4.210   3.544   5.782  1.00  0.00     0.273 C 
ATOM      7  N   UNL     1      -5.169   2.781   5.166  1.00  0.00    -0.341 N 
ATOM      8  O   UNL     1      -4.232   4.767   5.850  1.00  0.00    -0.267 OA
ATOM      9  H   UNL     1      -4.969   1.786   5.107  1.00  0.00     0.164 HD
BRANCH   7  10
ATOM     10  C   UNL     1      -6.213   3.342   4.332  1.00  0.00     0.145 C 
BRANCH  10  11
ATOM     11  C   UNL     1      -5.641   3.513   2.932  1.00  0.00     0.116 A 
ATOM     12  S   UNL     1      -6.277   4.732   1.892  1.00  0.00    -0.124 S 
ATOM     13  C   UNL     1      -5.149   4.284   0.689  1.00  0.00     0.101 A 
ATOM     14  N   UNL     1      -4.654   2.795   2.423  1.00  0.00    -0.234 NA
ATOM     15  C   UNL     1      -4.353   3.246   1.135  1.00  0.00     0.139 A 
BRANCH  15  16
ATOM     16  C   UNL     1      -3.271   2.654   0.345  1.00  0.00     0.271 C 
ATOM     17  O   UNL     1      -3.425   2.266  -0.808  1.00  0.00    -0.267 OA
ATOM     18  N   UNL     1      -2.073   2.579   1.023  1.00  0.00    -0.339 N 
ATOM     19  H   UNL     1      -2.102   2.830   2.008  1.00  0.00     0.164 HD
BRANCH  18  20
ATOM     20  C   UNL     1      -0.902   1.957   0.419  1.00  0.00     0.168 CG0
ATOM     21  C   UNL     1       0.054   3.008  -0.152  1.00  0.00     0.041 C 
ATOM     22  G   UNL     1      -0.110   1.091   1.411  1.00  0.00     0.000 G0
ENDBRANCH  18  20
ENDBRANCH  15  16
ENDBRANCH  10  11
BRANCH  10  23
ATOM     23  C   UNL     1      -7.501   2.477   4.343  1.00  0.00     0.015 C 
ATOM     24  C   UNL     1      -7.348   1.168   5.136  1.00  0.00     0.010 C 
BRANCH  23  25
ATOM     25  C   UNL     1      -8.730   3.241   4.884  1.00  0.00     0.002 C 
ATOM     26  C   UNL     1      -9.708   2.370   5.660  1.00  0.00     0.004 C 
ENDBRANCH  23  25
ENDBRANCH  10  23
ENDBRANCH   7  10
ENDBRANCH   4   6
BRANCH   3  27
ATOM     27  C   UNL     1       0.254   1.490   6.466  1.00  0.00     0.171 C 
BRANCH  27  28
ATOM     28  N   UNL     1       0.524   1.136   5.077  1.00  0.00    -0.342 N 
ATOM     29  C   UNL     1       1.625   1.595   4.389  1.00  0.00     0.245 C 
ATOM     30  O   UNL     1       2.472   2.326   4.901  1.00  0.00    -0.273 OA
ATOM     31  H   UNL     1      -0.071   0.444   4.623  1.00  0.00     0.164 HD
BRANCH  29  32
ATOM     32  C   UNL     1       1.810   1.010   2.973  1.00  0.00     0.200 C 
BRANCH  32  33
ATOM     33  N   UNL     1       0.920   1.733   2.056  1.00  0.00    -0.340 N 
ATOM     34  C   UNL     1      -0.136   1.099   1.435  1.00  0.00     0.243 CG0
ATOM     35  O   UNL     1      -0.340  -0.106   1.568  1.00  0.00    -0.273 OA
ATOM     36  H   UNL     1       1.082   2.722   1.902  1.00  0.00     0.164 HD
ATOM     37  G   UNL     1      -0.900   1.938   0.398  1.00  0.00     0.000 G0
ENDBRANCH  32  33
BRANCH  32  38
ATOM     38  C   UNL     1       3.292   1.052   2.533  1.00  0.00     0.143 C 
ATOM     39  C   UNL     1       3.938  -0.321   2.393  1.00  0.00     0.041 C 
BRANCH  38  40
ATOM     40  O   UNL     1       3.414   1.756   1.281  1.00  0.00    -0.391 OA
ATOM     41  H   UNL     1       2.635   2.339   1.212  1.00  0.00     0.211 HD
ENDBRANCH  38  40
ENDBRANCH  32  38
ENDBRANCH  29  32
ENDBRANCH  27  28
BRANCH  27  42
ATOM     42  C   UNL     1       1.296   2.498   7.010  1.00  0.00     0.015 C 
ATOM     43  C   UNL     1       0.721   3.797   7.587  1.00  0.00     0.010 C 
ATOM     44  C   UNL     1       2.251   1.847   8.015  1.00  0.00     0.010 C 
ENDBRANCH  27  42
ENDBRANCH   3  27
TORSDOF 5
ENDMDL
MODEL 20
REMARK VINA RESULT:    -5.030      2.768      4.627
REMARK INTER + INTRA:         -11.467
REMARK INTER:                  -9.414
REMARK INTRA:                  -2.053
REMARK UNBOUND:                -2.467
REMARK SMILES CC[C@H](C)[C@H]1NC(=O)c2coc(n2)[C@H](C(C)C)NC(=O)[C@H]([C@@H](C)O)NC(=O)[C@H](C)NC(=O)c2csc1n2
REMARK SMILES IDX 11 1 13 2 12 3 9 4 10 5 7 6 6 7 8 8 5 10 36 11 35 12 34 13
REMARK SMILES IDX 37 14 33 15 31 16 32 17 30 18 28 20 29 21 3 23 4 24 2 25
REMARK SMILES IDX 1 26 14 27 18 28 19 29 20 30 21 32 25 33 26 34 27 35 22 38
REMARK SMILES IDX 23 39 24 40 15 42 16 43 17 44
REMARK H PARENT 6 9 30 19 18 31 25 36 24 41
REMARK Flexibility Score:   94.900
ROOT
ATOM      1  O   UNL     1      -0.388   1.488   0.199  1.00  0.00    -0.446 OA
ATOM      2  N   UNL     1      -1.935   2.280   1.634  1.00  0.00    -0.207 NA
ATOM      3  C   UNL     1      -1.536   2.213   0.377  1.00  0.00     0.217 A 
ATOM      4  C   UNL     1      -1.003   1.525   2.326  1.00  0.00     0.167 A 
ATOM      5  C   UNL     1      -0.064   1.046   1.446  1.00  0.00     0.231 A 
ENDROOT
BRANCH   4   6
ATOM      6  C   UNL     1      -1.048   1.335   3.766  1.00  0.00     0.273 C 
ATOM      7  N   UNL     1      -2.297   0.964   4.193  1.00  0.00    -0.341 N 
ATOM      8  O   UNL     1      -0.085   1.513   4.502  1.00  0.00    -0.267 OA
ATOM      9  H   UNL     1      -3.020   0.946   3.478  1.00  0.00     0.164 HD
BRANCH   7  10
ATOM     10  C   UNL     1      -2.685   0.948   5.589  1.00  0.00     0.145 C 
BRANCH  10  11
ATOM     11  C   UNL     1      -4.091   1.522   5.683  1.00  0.00     0.116 A 
ATOM     12  S   UNL     1      -4.737   1.955   7.221  1.00  0.00    -0.124 S 
ATOM     13  C   UNL     1      -6.172   2.487   6.461  1.00  0.00     0.101 A 
ATOM     14  N   UNL     1      -4.891   1.741   4.653  1.00  0.00    -0.234 NA
ATOM     15  C   UNL     1      -6.087   2.314   5.093  1.00  0.00     0.139 A 
BRANCH  15  16
ATOM     16  C   UNL     1      -7.146   2.698   4.158  1.00  0.00     0.271 C 
ATOM     17  O   UNL     1      -8.308   2.881   4.507  1.00  0.00    -0.267 OA
ATOM     18  N   UNL     1      -6.710   2.835   2.857  1.00  0.00    -0.339 N 
ATOM     19  H   UNL     1      -5.751   2.549   2.678  1.00  0.00     0.164 HD
BRANCH  18  20
ATOM     20  C   UNL     1      -7.638   3.147   1.778  1.00  0.00     0.168 CG0
ATOM     21  C   UNL     1      -7.594   4.634   1.419  1.00  0.00     0.041 C 
ATOM     22  G   UNL     1      -7.352   2.345   0.498  1.00  0.00     0.000 G0
ENDBRANCH  18  20
ENDBRANCH  15  16
ENDBRANCH  10  11
BRANCH  10  23
ATOM     23  C   UNL     1      -2.582  -0.470   6.211  1.00  0.00     0.015 C 
ATOM     24  C   UNL     1      -1.959  -1.507   5.261  1.00  0.00     0.010 C 
BRANCH  23  25
ATOM     25  C   UNL     1      -1.798  -0.484   7.542  1.00  0.00     0.002 C 
ATOM     26  C   UNL     1      -1.084   0.824   7.854  1.00  0.00     0.004 C 
ENDBRANCH  23  25
ENDBRANCH  10  23
ENDBRANCH   7  10
ENDBRANCH   4   6
BRANCH   3  27
ATOM     27  C   UNL     1      -2.171   2.880  -0.813  1.00  0.00     0.171 C 
BRANCH  27  28
ATOM     28  N   UNL     1      -3.614   2.689  -0.714  1.00  0.00    -0.342 N 
ATOM     29  C   UNL     1      -4.402   2.371  -1.797  1.00  0.00     0.245 C 
ATOM     30  O   UNL     1      -3.945   2.209  -2.927  1.00  0.00    -0.273 OA
ATOM     31  H   UNL     1      -4.047   2.695   0.209  1.00  0.00     0.164 HD
BRANCH  29  32
ATOM     32  C   UNL     1      -5.883   2.083  -1.473  1.00  0.00     0.200 C 
BRANCH  32  33
ATOM     33  N   UNL     1      -6.192   2.673  -0.165  1.00  0.00    -0.340 N 
ATOM     34  C   UNL     1      -7.355   2.356   0.506  1.00  0.00     0.243 CG0
ATOM     35  O   UNL     1      -8.209   1.621   0.015  1.00  0.00    -0.273 OA
ATOM     36  H   UNL     1      -5.521   3.306   0.252  1.00  0.00     0.164 HD
ATOM     37  G   UNL     1      -7.616   3.149   1.797  1.00  0.00     0.000 G0
ENDBRANCH  32  33
BRANCH  32  38
ATOM     38  C   UNL     1      -6.816   2.588  -2.598  1.00  0.00     0.143 C 
ATOM     39  C   UNL     1      -6.695   4.080  -2.884  1.00  0.00     0.041 C 
BRANCH  38  40
ATOM     40  O   UNL     1      -6.563   1.857  -3.814  1.00  0.00    -0.391 OA
ATOM     41  H   UNL     1      -7.432   1.573  -4.156  1.00  0.00     0.211 HD
ENDBRANCH  38  40
ENDBRANCH  32  38
ENDBRANCH  29  32
ENDBRANCH  27  28
BRANCH  27  42
ATOM     42  C   UNL     1      -1.809   4.362  -1.078  1.00  0.00     0.015 C 
ATOM     43  C   UNL     1      -0.985   5.047   0.018  1.00  0.00     0.010 C 
ATOM     44  C   UNL     1      -1.140   4.553  -2.443  1.00  0.00     0.010 C 
ENDBRANCH  27  42
ENDBRANCH   3  27
TORSDOF 5
ENDMDL
MODEL 21
REMARK VINA RESULT:    -5.006      3.084      7.194
REMARK INTER + INTRA:         -11.424
REMARK INTER:                  -9.308
REMARK INTRA:                  -2.116
REMARK UNBOUND:                -2.467
REMARK SMILES CC[C@H](C)[C@H]1NC(=O)c2coc(n2)[C@H](C(C)C)NC(=O)[C@H]([C@@H](C)O)NC(=O)[C@H](C)NC(=O)c2csc1n2
REMARK SMILES IDX 11 1 13 2 12 3 9 4 10 5 7 6 6 7 8 8 5 10 36 11 35 12 34 13
REMARK SMILES IDX 37 14 33 15 31 16 32 17 30 18 28 20 29 21 3 23 4 24 2 25
REMARK SMILES IDX 1 26 14 27 18 28 19 29 20 30 21 32 25 33 26 34 27 35 22 38
REMARK SMILES IDX 23 39 24 40 15 42 16 43 17 44
REMARK H PARENT 6 9 30 19 18 31 25 36 24 41
REMARK Flexibility Score:   94.900
ROOT
ATOM      1  O   UNL     1      -6.460   0.592  -3.173  1.00  0.00    -0.446 OA
ATOM      2  N   UNL     1      -6.992   2.451  -2.013  1.00  0.00    -0.207 NA
ATOM      3  C   UNL     1      -6.282   1.939  -3.003  1.00  0.00     0.217 A 
ATOM      4  C   UNL     1      -7.704   1.373  -1.515  1.00  0.00     0.167 A 
ATOM      5  C   UNL     1      -7.376   0.245  -2.226  1.00  0.00     0.231 A 
ENDROOT
BRANCH   4   6
ATOM      6  C   UNL     1      -8.617   1.478  -0.390  1.00  0.00     0.273 C 
ATOM      7  N   UNL     1      -8.686   2.760   0.093  1.00  0.00    -0.341 N 
ATOM      8  O   UNL     1      -9.228   0.525   0.078  1.00  0.00    -0.267 OA
ATOM      9  H   UNL     1      -8.052   3.428  -0.337  1.00  0.00     0.164 HD
BRANCH   7  10
ATOM     10  C   UNL     1      -9.320   3.099   1.352  1.00  0.00     0.145 C 
BRANCH  10  11
ATOM     11  C   UNL     1      -8.223   3.250   2.395  1.00  0.00     0.116 A 
ATOM     12  S   UNL     1      -8.611   3.114   4.069  1.00  0.00    -0.124 S 
ATOM     13  C   UNL     1      -6.964   3.347   4.462  1.00  0.00     0.101 A 
ATOM     14  N   UNL     1      -6.946   3.469   2.127  1.00  0.00    -0.234 NA
ATOM     15  C   UNL     1      -6.212   3.510   3.314  1.00  0.00     0.139 A 
BRANCH  15  16
ATOM     16  C   UNL     1      -4.760   3.702   3.315  1.00  0.00     0.271 C 
ATOM     17  O   UNL     1      -4.178   4.372   4.161  1.00  0.00    -0.267 OA
ATOM     18  N   UNL     1      -4.119   3.058   2.278  1.00  0.00    -0.339 N 
ATOM     19  H   UNL     1      -4.721   2.628   1.581  1.00  0.00     0.164 HD
BRANCH  18  20
ATOM     20  C   UNL     1      -2.682   3.192   2.080  1.00  0.00     0.168 CG0
ATOM     21  C   UNL     1      -2.010   1.824   1.938  1.00  0.00     0.041 C 
ATOM     22  G   UNL     1      -2.328   4.021   0.834  1.00  0.00     0.000 G0
ENDBRANCH  18  20
ENDBRANCH  15  16
ENDBRANCH  10  11
BRANCH  10  23
ATOM     23  C   UNL     1     -10.207   4.368   1.238  1.00  0.00     0.015 C 
ATOM     24  C   UNL     1     -10.505   4.774  -0.215  1.00  0.00     0.010 C 
BRANCH  23  25
ATOM     25  C   UNL     1     -11.545   4.232   1.998  1.00  0.00     0.002 C 
ATOM     26  C   UNL     1     -12.228   2.884   1.813  1.00  0.00     0.004 C 
ENDBRANCH  23  25
ENDBRANCH  10  23
ENDBRANCH   7  10
ENDBRANCH   4   6
BRANCH   3  27
ATOM     27  C   UNL     1      -5.300   2.663  -3.884  1.00  0.00     0.171 C 
BRANCH  27  28
ATOM     28  N   UNL     1      -4.107   2.937  -3.090  1.00  0.00    -0.342 N 
ATOM     29  C   UNL     1      -3.848   4.168  -2.531  1.00  0.00     0.245 C 
ATOM     30  O   UNL     1      -4.613   5.125  -2.645  1.00  0.00    -0.273 OA
ATOM     31  H   UNL     1      -3.485   2.164  -2.857  1.00  0.00     0.164 HD
BRANCH  29  32
ATOM     32  C   UNL     1      -2.604   4.230  -1.620  1.00  0.00     0.200 C 
BRANCH  32  33
ATOM     33  N   UNL     1      -2.948   3.624  -0.328  1.00  0.00    -0.340 N 
ATOM     34  C   UNL     1      -2.317   4.012   0.836  1.00  0.00     0.243 CG0
ATOM     35  O   UNL     1      -1.401   4.831   0.836  1.00  0.00    -0.273 OA
ATOM     36  H   UNL     1      -3.679   2.923  -0.300  1.00  0.00     0.164 HD
ATOM     37  G   UNL     1      -2.676   3.200   2.091  1.00  0.00     0.000 G0
ENDBRANCH  32  33
BRANCH  32  38
ATOM     38  C   UNL     1      -1.379   3.567  -2.290  1.00  0.00     0.143 C 
ATOM     39  C   UNL     1      -1.199   2.094  -1.939  1.00  0.00     0.041 C 
BRANCH  38  40
ATOM     40  O   UNL     1      -1.469   3.698  -3.722  1.00  0.00    -0.391 OA
ATOM     41  H   UNL     1      -1.183   2.845  -4.100  1.00  0.00     0.211 HD
ENDBRANCH  38  40
ENDBRANCH  32  38
ENDBRANCH  29  32
ENDBRANCH  27  28
BRANCH  27  42
ATOM     42  C   UNL     1      -4.944   2.011  -5.242  1.00  0.00     0.015 C 
ATOM     43  C   UNL     1      -6.134   1.695  -6.156  1.00  0.00     0.010 C 
ATOM     44  C   UNL     1      -3.888   2.816  -6.005  1.00  0.00     0.010 C 
ENDBRANCH  27  42
ENDBRANCH   3  27
TORSDOF 5
ENDMDL
MODEL 22
REMARK VINA RESULT:    -4.960      6.359      9.029
REMARK INTER + INTRA:         -11.342
REMARK INTER:                  -8.960
REMARK INTRA:                  -2.382
REMARK UNBOUND:                -2.467
REMARK SMILES CC[C@H](C)[C@H]1NC(=O)c2coc(n2)[C@H](C(C)C)NC(=O)[C@H]([C@@H](C)O)NC(=O)[C@H](C)NC(=O)c2csc1n2
REMARK SMILES IDX 11 1 13 2 12 3 9 4 10 5 7 6 6 7 8 8 5 10 36 11 35 12 34 13
REMARK SMILES IDX 37 14 33 15 31 16 32 17 30 18 28 20 29 21 3 23 4 24 2 25
REMARK SMILES IDX 1 26 14 27 18 28 19 29 20 30 21 32 25 33 26 34 27 35 22 38
REMARK SMILES IDX 23 39 24 40 15 42 16 43 17 44
REMARK H PARENT 6 9 30 19 18 31 25 36 24 41
REMARK Flexibility Score:   94.900
ROOT
ATOM      1  O   UNL     1      -6.355   3.132  -6.945  1.00  0.00    -0.446 OA
ATOM      2  N   UNL     1      -7.136   1.395  -5.738  1.00  0.00    -0.207 NA
ATOM      3  C   UNL     1      -6.709   1.809  -6.918  1.00  0.00     0.217 A 
ATOM      4  C   UNL     1      -7.032   2.513  -4.929  1.00  0.00     0.167 A 
ATOM      5  C   UNL     1      -6.555   3.567  -5.669  1.00  0.00     0.231 A 
ENDROOT
BRANCH   4   6
ATOM      6  C   UNL     1      -7.414   2.516  -3.527  1.00  0.00     0.273 C 
ATOM      7  N   UNL     1      -8.242   1.464  -3.223  1.00  0.00    -0.341 N 
ATOM      8  O   UNL     1      -7.056   3.373  -2.729  1.00  0.00    -0.267 OA
ATOM      9  H   UNL     1      -8.528   0.887  -4.008  1.00  0.00     0.164 HD
BRANCH   7  10
ATOM     10  C   UNL     1      -8.967   1.364  -1.971  1.00  0.00     0.145 C 
BRANCH  10  11
ATOM     11  C   UNL     1     -10.447   1.242  -2.305  1.00  0.00     0.116 A 
ATOM     12  S   UNL     1     -11.601   1.102  -1.033  1.00  0.00    -0.124 S 
ATOM     13  C   UNL     1     -12.859   1.064  -2.189  1.00  0.00     0.101 A 
ATOM     14  N   UNL     1     -10.951   1.248  -3.528  1.00  0.00    -0.234 NA
ATOM     15  C   UNL     1     -12.344   1.162  -3.468  1.00  0.00     0.139 A 
BRANCH  15  16
ATOM     16  C   UNL     1     -13.170   1.186  -4.677  1.00  0.00     0.271 C 
ATOM     17  O   UNL     1     -14.395   1.206  -4.645  1.00  0.00    -0.267 OA
ATOM     18  N   UNL     1     -12.437   1.184  -5.845  1.00  0.00    -0.339 N 
ATOM     19  H   UNL     1     -11.434   1.053  -5.740  1.00  0.00     0.164 HD
BRANCH  18  20
ATOM     20  C   UNL     1     -13.090   1.137  -7.146  1.00  0.00     0.168 CG0
ATOM     21  C   UNL     1     -13.301   2.543  -7.713  1.00  0.00     0.041 C 
ATOM     22  G   UNL     1     -12.294   0.327  -8.182  1.00  0.00     0.000 G0
ENDBRANCH  18  20
ENDBRANCH  15  16
ENDBRANCH  10  11
BRANCH  10  23
ATOM     23  C   UNL     1      -8.460   0.190  -1.093  1.00  0.00     0.015 C 
ATOM     24  C   UNL     1      -7.723  -0.896  -1.894  1.00  0.00     0.010 C 
BRANCH  23  25
ATOM     25  C   UNL     1      -7.546   0.659   0.062  1.00  0.00     0.002 C 
ATOM     26  C   UNL     1      -7.975   1.976   0.695  1.00  0.00     0.004 C 
ENDBRANCH  23  25
ENDBRANCH  10  23
ENDBRANCH   7  10
ENDBRANCH   4   6
BRANCH   3  27
ATOM     27  C   UNL     1      -6.633   1.007  -8.188  1.00  0.00     0.171 C 
BRANCH  27  28
ATOM     28  N   UNL     1      -7.951   1.032  -8.812  1.00  0.00    -0.342 N 
ATOM     29  C   UNL     1      -8.766  -0.076  -8.881  1.00  0.00     0.245 C 
ATOM     30  O   UNL     1      -8.449  -1.166  -8.408  1.00  0.00    -0.273 OA
ATOM     31  H   UNL     1      -8.329   1.926  -9.123  1.00  0.00     0.164 HD
BRANCH  29  32
ATOM     32  C   UNL     1     -10.174   0.176  -9.461  1.00  0.00     0.200 C 
BRANCH  32  33
ATOM     33  N   UNL     1     -11.006   0.771  -8.409  1.00  0.00    -0.340 N 
ATOM     34  C   UNL     1     -12.298   0.340  -8.188  1.00  0.00     0.243 CG0
ATOM     35  O   UNL     1     -12.830  -0.511  -8.899  1.00  0.00    -0.273 OA
ATOM     36  H   UNL     1     -10.606   1.497  -7.826  1.00  0.00     0.164 HD
ATOM     37  G   UNL     1     -13.100   1.142  -7.150  1.00  0.00     0.000 G0
ENDBRANCH  32  33
BRANCH  32  38
ATOM     38  C   UNL     1     -10.111   1.041 -10.742  1.00  0.00     0.143 C 
ATOM     39  C   UNL     1     -10.448   0.284 -12.021  1.00  0.00     0.041 C 
BRANCH  38  40
ATOM     40  O   UNL     1     -11.000   2.169 -10.619  1.00  0.00    -0.391 OA
ATOM     41  H   UNL     1     -10.438   2.967 -10.604  1.00  0.00     0.211 HD
ENDBRANCH  38  40
ENDBRANCH  32  38
ENDBRANCH  29  32
ENDBRANCH  27  28
BRANCH  27  42
ATOM     42  C   UNL     1      -5.518   1.373  -9.198  1.00  0.00     0.015 C 
ATOM     43  C   UNL     1      -4.085   1.087  -8.733  1.00  0.00     0.010 C 
ATOM     44  C   UNL     1      -5.765   0.749 -10.575  1.00  0.00     0.010 C 
ENDBRANCH  27  42
ENDBRANCH   3  27
TORSDOF 5
ENDMDL
MODEL 23
REMARK VINA RESULT:    -4.953      1.796      2.160
REMARK INTER + INTRA:         -11.330
REMARK INTER:                  -9.341
REMARK INTRA:                  -1.989
REMARK UNBOUND:                -2.467
REMARK SMILES CC[C@H](C)[C@H]1NC(=O)c2coc(n2)[C@H](C(C)C)NC(=O)[C@H]([C@@H](C)O)NC(=O)[C@H](C)NC(=O)c2csc1n2
REMARK SMILES IDX 11 1 13 2 12 3 9 4 10 5 7 6 6 7 8 8 5 10 36 11 35 12 34 13
REMARK SMILES IDX 37 14 33 15 31 16 32 17 30 18 28 20 29 21 3 23 4 24 2 25
REMARK SMILES IDX 1 26 14 27 18 28 19 29 20 30 21 32 25 33 26 34 27 35 22 38
REMARK SMILES IDX 23 39 24 40 15 42 16 43 17 44
REMARK H PARENT 6 9 30 19 18 31 25 36 24 41
REMARK Flexibility Score:   94.900
ROOT
ATOM      1  O   UNL     1      -2.274   2.273  -2.632  1.00  0.00    -0.446 OA
ATOM      2  N   UNL     1      -3.602   2.719  -0.867  1.00  0.00    -0.207 NA
ATOM      3  C   UNL     1      -3.543   2.488  -2.166  1.00  0.00     0.217 A 
ATOM      4  C   UNL     1      -2.287   2.624  -0.445  1.00  0.00     0.167 A 
ATOM      5  C   UNL     1      -1.484   2.351  -1.525  1.00  0.00     0.231 A 
ENDROOT
BRANCH   4   6
ATOM      6  C   UNL     1      -1.879   2.824   0.934  1.00  0.00     0.273 C 
ATOM      7  N   UNL     1      -1.433   1.660   1.508  1.00  0.00    -0.341 N 
ATOM      8  O   UNL     1      -1.953   3.901   1.513  1.00  0.00    -0.267 OA
ATOM      9  H   UNL     1      -1.517   0.826   0.934  1.00  0.00     0.164 HD
BRANCH   7  10
ATOM     10  C   UNL     1      -1.201   1.517   2.932  1.00  0.00     0.145 C 
BRANCH  10  11
ATOM     11  C   UNL     1      -2.557   1.375   3.608  1.00  0.00     0.116 A 
ATOM     12  S   UNL     1      -2.672   1.483   5.324  1.00  0.00    -0.124 S 
ATOM     13  C   UNL     1      -4.366   1.278   5.216  1.00  0.00     0.101 A 
ATOM     14  N   UNL     1      -3.703   1.184   2.975  1.00  0.00    -0.234 NA
ATOM     15  C   UNL     1      -4.753   1.143   3.896  1.00  0.00     0.139 A 
BRANCH  15  16
ATOM     16  C   UNL     1      -6.145   0.979   3.470  1.00  0.00     0.271 C 
ATOM     17  O   UNL     1      -7.079   0.919   4.262  1.00  0.00    -0.267 OA
ATOM     18  N   UNL     1      -6.296   0.902   2.102  1.00  0.00    -0.339 N 
ATOM     19  H   UNL     1      -5.437   0.853   1.562  1.00  0.00     0.164 HD
BRANCH  18  20
ATOM     20  C   UNL     1      -7.602   0.671   1.500  1.00  0.00     0.168 CG0
ATOM     21  C   UNL     1      -8.359   1.984   1.289  1.00  0.00     0.041 C 
ATOM     22  G   UNL     1      -7.512  -0.043   0.141  1.00  0.00     0.000 G0
ENDBRANCH  18  20
ENDBRANCH  15  16
ENDBRANCH  10  11
BRANCH  10  23
ATOM     23  C   UNL     1      -0.252   0.333   3.255  1.00  0.00     0.015 C 
ATOM     24  C   UNL     1       0.256  -0.399   2.002  1.00  0.00     0.010 C 
BRANCH  23  25
ATOM     25  C   UNL     1       0.964   0.756   4.109  1.00  0.00     0.002 C 
ATOM     26  C   UNL     1       0.780   0.530   5.603  1.00  0.00     0.004 C 
ENDBRANCH  23  25
ENDBRANCH  10  23
ENDBRANCH   7  10
ENDBRANCH   4   6
BRANCH   3  27
ATOM     27  C   UNL     1      -4.689   2.495  -3.141  1.00  0.00     0.171 C 
BRANCH  27  28
ATOM     28  N   UNL     1      -5.812   1.805  -2.516  1.00  0.00    -0.342 N 
ATOM     29  C   UNL     1      -6.599   0.898  -3.188  1.00  0.00     0.245 C 
ATOM     30  O   UNL     1      -6.405   0.590  -4.363  1.00  0.00    -0.273 OA
ATOM     31  H   UNL     1      -5.963   1.922  -1.514  1.00  0.00     0.164 HD
BRANCH  29  32
ATOM     32  C   UNL     1      -7.656   0.175  -2.326  1.00  0.00     0.200 C 
BRANCH  32  33
ATOM     33  N   UNL     1      -7.625   0.754  -0.978  1.00  0.00    -0.340 N 
ATOM     34  C   UNL     1      -7.490  -0.043   0.141  1.00  0.00     0.243 CG0
ATOM     35  O   UNL     1      -7.453  -1.269   0.064  1.00  0.00    -0.273 OA
ATOM     36  H   UNL     1      -7.683   1.761  -0.881  1.00  0.00     0.164 HD
ATOM     37  G   UNL     1      -7.611   0.680   1.492  1.00  0.00     0.000 G0
ENDBRANCH  32  33
BRANCH  32  38
ATOM     38  C   UNL     1      -9.057   0.238  -2.978  1.00  0.00     0.143 C 
ATOM     39  C   UNL     1     -10.200   0.392  -1.982  1.00  0.00     0.041 C 
BRANCH  38  40
ATOM     40  O   UNL     1      -9.111   1.324  -3.924  1.00  0.00    -0.391 OA
ATOM     41  H   UNL     1      -8.455   1.123  -4.618  1.00  0.00     0.211 HD
ENDBRANCH  38  40
ENDBRANCH  32  38
ENDBRANCH  29  32
ENDBRANCH  27  28
BRANCH  27  42
ATOM     42  C   UNL     1      -5.117   3.862  -3.729  1.00  0.00     0.015 C 
ATOM     43  C   UNL     1      -5.654   3.826  -5.164  1.00  0.00     0.010 C 
ATOM     44  C   UNL     1      -6.101   4.597  -2.812  1.00  0.00     0.010 C 
ENDBRANCH  27  42
ENDBRANCH   3  27
TORSDOF 5
ENDMDL
MODEL 24
REMARK VINA RESULT:    -4.891      2.550      6.707
REMARK INTER + INTRA:         -11.217
REMARK INTER:                  -9.014
REMARK INTRA:                  -2.203
REMARK UNBOUND:                -2.467
REMARK SMILES CC[C@H](C)[C@H]1NC(=O)c2coc(n2)[C@H](C(C)C)NC(=O)[C@H]([C@@H](C)O)NC(=O)[C@H](C)NC(=O)c2csc1n2
REMARK SMILES IDX 11 1 13 2 12 3 9 4 10 5 7 6 6 7 8 8 5 10 36 11 35 12 34 13
REMARK SMILES IDX 37 14 33 15 31 16 32 17 30 18 28 20 29 21 3 23 4 24 2 25
REMARK SMILES IDX 1 26 14 27 18 28 19 29 20 30 21 32 25 33 26 34 27 35 22 38
REMARK SMILES IDX 23 39 24 40 15 42 16 43 17 44
REMARK H PARENT 6 9 30 19 18 31 25 36 24 41
REMARK Flexibility Score:   94.900
ROOT
ATOM      1  O   UNL     1      -6.268   0.448  -3.194  1.00  0.00    -0.446 OA
ATOM      2  N   UNL     1      -6.598   1.681  -1.336  1.00  0.00    -0.207 NA
ATOM      3  C   UNL     1      -6.230   1.684  -2.604  1.00  0.00     0.217 A 
ATOM      4  C   UNL     1      -6.925   0.361  -1.080  1.00  0.00     0.167 A 
ATOM      5  C   UNL     1      -6.723  -0.384  -2.216  1.00  0.00     0.231 A 
ENDROOT
BRANCH   4   6
ATOM      6  C   UNL     1      -7.376  -0.108   0.219  1.00  0.00     0.273 C 
ATOM      7  N   UNL     1      -7.674   0.934   1.061  1.00  0.00    -0.341 N 
ATOM      8  O   UNL     1      -7.453  -1.292   0.523  1.00  0.00    -0.267 OA
ATOM      9  H   UNL     1      -7.474   1.863   0.702  1.00  0.00     0.164 HD
BRANCH   7  10
ATOM     10  C   UNL     1      -7.907   0.761   2.482  1.00  0.00     0.145 C 
BRANCH  10  11
ATOM     11  C   UNL     1      -6.638   1.180   3.210  1.00  0.00     0.116 A 
ATOM     12  S   UNL     1      -6.500   0.915   4.907  1.00  0.00    -0.124 S 
ATOM     13  C   UNL     1      -4.921   1.571   4.874  1.00  0.00     0.101 A 
ATOM     14  N   UNL     1      -5.583   1.737   2.637  1.00  0.00    -0.234 NA
ATOM     15  C   UNL     1      -4.583   1.949   3.589  1.00  0.00     0.139 A 
BRANCH  15  16
ATOM     16  C   UNL     1      -3.284   2.522   3.226  1.00  0.00     0.271 C 
ATOM     17  O   UNL     1      -2.593   3.156   4.016  1.00  0.00    -0.267 OA
ATOM     18  N   UNL     1      -2.920   2.277   1.919  1.00  0.00    -0.339 N 
ATOM     19  H   UNL     1      -3.628   1.837   1.336  1.00  0.00     0.164 HD
BRANCH  18  20
ATOM     20  C   UNL     1      -1.692   2.826   1.362  1.00  0.00     0.168 CG0
ATOM     21  C   UNL     1      -0.832   1.733   0.725  1.00  0.00     0.041 C 
ATOM     22  G   UNL     1      -1.953   3.901   0.294  1.00  0.00     0.000 G0
ENDBRANCH  18  20
ENDBRANCH  15  16
ENDBRANCH  10  11
BRANCH  10  23
ATOM     23  C   UNL     1      -9.154   1.544   2.970  1.00  0.00     0.015 C 
ATOM     24  C   UNL     1      -8.890   3.045   3.176  1.00  0.00     0.010 C 
BRANCH  23  25
ATOM     25  C   UNL     1     -10.369   1.380   2.029  1.00  0.00     0.002 C 
ATOM     26  C   UNL     1     -11.319   0.261   2.435  1.00  0.00     0.004 C 
ENDBRANCH  23  25
ENDBRANCH  10  23
ENDBRANCH   7  10
ENDBRANCH   4   6
BRANCH   3  27
ATOM     27  C   UNL     1      -5.743   2.861  -3.405  1.00  0.00     0.171 C 
BRANCH  27  28
ATOM     28  N   UNL     1      -4.351   3.104  -3.040  1.00  0.00    -0.342 N 
ATOM     29  C   UNL     1      -3.908   4.311  -2.549  1.00  0.00     0.245 C 
ATOM     30  O   UNL     1      -4.656   5.271  -2.367  1.00  0.00    -0.273 OA
ATOM     31  H   UNL     1      -3.697   2.322  -3.055  1.00  0.00     0.164 HD
BRANCH  29  32
ATOM     32  C   UNL     1      -2.432   4.338  -2.098  1.00  0.00     0.200 C 
BRANCH  32  33
ATOM     33  N   UNL     1      -2.283   3.429  -0.954  1.00  0.00    -0.340 N 
ATOM     34  C   UNL     1      -1.949   3.903   0.298  1.00  0.00     0.243 CG0
ATOM     35  O   UNL     1      -1.700   5.090   0.498  1.00  0.00    -0.273 OA
ATOM     36  H   UNL     1      -2.453   2.441  -1.095  1.00  0.00     0.164 HD
ATOM     37  G   UNL     1      -1.692   2.831   1.369  1.00  0.00     0.000 G0
ENDBRANCH  32  33
BRANCH  32  38
ATOM     38  C   UNL     1      -1.478   3.998  -3.266  1.00  0.00     0.143 C 
ATOM     39  C   UNL     1      -1.825   4.694  -4.577  1.00  0.00     0.041 C 
BRANCH  38  40
ATOM     40  O   UNL     1      -0.122   4.328  -2.907  1.00  0.00    -0.391 OA
ATOM     41  H   UNL     1       0.100   5.152  -3.380  1.00  0.00     0.211 HD
ENDBRANCH  38  40
ENDBRANCH  32  38
ENDBRANCH  29  32
ENDBRANCH  27  28
BRANCH  27  42
ATOM     42  C   UNL     1      -5.927   2.803  -4.941  1.00  0.00     0.015 C 
ATOM     43  C   UNL     1      -6.707   3.970  -5.557  1.00  0.00     0.010 C 
ATOM     44  C   UNL     1      -4.593   2.611  -5.671  1.00  0.00     0.010 C 
ENDBRANCH  27  42
ENDBRANCH   3  27
TORSDOF 5
ENDMDL
MODEL 25
REMARK VINA RESULT:    -4.798      3.398      4.993
REMARK INTER + INTRA:         -11.053
REMARK INTER:                  -8.644
REMARK INTRA:                  -2.408
REMARK UNBOUND:                -2.467
REMARK SMILES CC[C@H](C)[C@H]1NC(=O)c2coc(n2)[C@H](C(C)C)NC(=O)[C@H]([C@@H](C)O)NC(=O)[C@H](C)NC(=O)c2csc1n2
REMARK SMILES IDX 11 1 13 2 12 3 9 4 10 5 7 6 6 7 8 8 5 10 36 11 35 12 34 13
REMARK SMILES IDX 37 14 33 15 31 16 32 17 30 18 28 20 29 21 3 23 4 24 2 25
REMARK SMILES IDX 1 26 14 27 18 28 19 29 20 30 21 32 25 33 26 34 27 35 22 38
REMARK SMILES IDX 23 39 24 40 15 42 16 43 17 44
REMARK H PARENT 6 9 30 19 18 31 25 36 24 41
REMARK Flexibility Score:   94.900
ROOT
ATOM      1  O   UNL     1      -2.111   1.660   0.446  1.00  0.00    -0.446 OA
ATOM      2  N   UNL     1      -3.728   2.230   1.910  1.00  0.00    -0.207 NA
ATOM      3  C   UNL     1      -3.405   2.065   0.640  1.00  0.00     0.217 A 
ATOM      4  C   UNL     1      -2.578   1.885   2.600  1.00  0.00     0.167 A 
ATOM      5  C   UNL     1      -1.598   1.538   1.703  1.00  0.00     0.231 A 
ENDROOT
BRANCH   4   6
ATOM      6  C   UNL     1      -2.477   1.934   4.048  1.00  0.00     0.273 C 
ATOM      7  N   UNL     1      -2.645   0.695   4.613  1.00  0.00    -0.341 N 
ATOM      8  O   UNL     1      -2.289   2.967   4.679  1.00  0.00    -0.267 OA
ATOM      9  H   UNL     1      -2.886  -0.054   3.970  1.00  0.00     0.164 HD
BRANCH   7  10
ATOM     10  C   UNL     1      -2.838   0.493   6.036  1.00  0.00     0.145 C 
BRANCH  10  11
ATOM     11  C   UNL     1      -4.311   0.728   6.338  1.00  0.00     0.116 A 
ATOM     12  S   UNL     1      -4.762   1.739   7.660  1.00  0.00    -0.124 S 
ATOM     13  C   UNL     1      -6.409   1.497   7.273  1.00  0.00     0.101 A 
ATOM     14  N   UNL     1      -5.318   0.220   5.646  1.00  0.00    -0.234 NA
ATOM     15  C   UNL     1      -6.531   0.674   6.170  1.00  0.00     0.139 A 
BRANCH  15  16
ATOM     16  C   UNL     1      -7.815   0.298   5.574  1.00  0.00     0.271 C 
ATOM     17  O   UNL     1      -8.605  -0.463   6.122  1.00  0.00    -0.267 OA
ATOM     18  N   UNL     1      -8.044   0.884   4.347  1.00  0.00    -0.339 N 
ATOM     19  H   UNL     1      -7.267   1.405   3.951  1.00  0.00     0.164 HD
BRANCH  18  20
ATOM     20  C   UNL     1      -9.240   0.573   3.575  1.00  0.00     0.168 CG0
ATOM     21  C   UNL     1     -10.481   1.230   4.183  1.00  0.00     0.041 C 
ATOM     22  G   UNL     1      -9.137   1.029   2.110  1.00  0.00     0.000 G0
ENDBRANCH  18  20
ENDBRANCH  15  16
ENDBRANCH  10  11
BRANCH  10  23
ATOM     23  C   UNL     1      -2.355  -0.906   6.500  1.00  0.00     0.015 C 
ATOM     24  C   UNL     1      -1.519  -1.644   5.441  1.00  0.00     0.010 C 
BRANCH  23  25
ATOM     25  C   UNL     1      -1.549  -0.854   7.817  1.00  0.00     0.002 C 
ATOM     26  C   UNL     1      -1.058   0.539   8.187  1.00  0.00     0.004 C 
ENDBRANCH  23  25
ENDBRANCH  10  23
ENDBRANCH   7  10
ENDBRANCH   4   6
BRANCH   3  27
ATOM     27  C   UNL     1      -4.276   2.325  -0.559  1.00  0.00     0.171 C 
BRANCH  27  28
ATOM     28  N   UNL     1      -5.584   2.753  -0.075  1.00  0.00    -0.342 N 
ATOM     29  C   UNL     1      -6.708   1.961  -0.158  1.00  0.00     0.245 C 
ATOM     30  O   UNL     1      -6.688   0.826  -0.632  1.00  0.00    -0.273 OA
ATOM     31  H   UNL     1      -5.654   3.634   0.434  1.00  0.00     0.164 HD
BRANCH  29  32
ATOM     32  C   UNL     1      -7.969   2.533   0.523  1.00  0.00     0.200 C 
BRANCH  32  33
ATOM     33  N   UNL     1      -8.109   1.900   1.840  1.00  0.00    -0.340 N 
ATOM     34  C   UNL     1      -9.147   1.033   2.111  1.00  0.00     0.243 CG0
ATOM     35  O   UNL     1     -10.032   0.802   1.290  1.00  0.00    -0.273 OA
ATOM     36  H   UNL     1      -7.412   2.095   2.548  1.00  0.00     0.164 HD
ATOM     37  G   UNL     1      -9.251   0.552   3.568  1.00  0.00     0.000 G0
ENDBRANCH  32  33
BRANCH  32  38
ATOM     38  C   UNL     1      -7.921   4.076   0.597  1.00  0.00     0.143 C 
ATOM     39  C   UNL     1      -9.277   4.731   0.836  1.00  0.00     0.041 C 
BRANCH  38  40
ATOM     40  O   UNL     1      -7.012   4.491   1.636  1.00  0.00    -0.391 OA
ATOM     41  H   UNL     1      -6.939   3.743   2.258  1.00  0.00     0.211 HD
ENDBRANCH  38  40
ENDBRANCH  32  38
ENDBRANCH  29  32
ENDBRANCH  27  28
BRANCH  27  42
ATOM     42  C   UNL     1      -3.729   3.283  -1.645  1.00  0.00     0.015 C 
ATOM     43  C   UNL     1      -3.840   2.779  -3.088  1.00  0.00     0.010 C 
ATOM     44  C   UNL     1      -4.329   4.687  -1.525  1.00  0.00     0.010 C 
ENDBRANCH  27  42
ENDBRANCH   3  27
TORSDOF 5
ENDMDL
MODEL 26
REMARK VINA RESULT:    -4.707      6.340     10.309
REMARK INTER + INTRA:         -10.888
REMARK INTER:                  -8.781
REMARK INTRA:                  -2.107
REMARK UNBOUND:                -2.467
REMARK SMILES CC[C@H](C)[C@H]1NC(=O)c2coc(n2)[C@H](C(C)C)NC(=O)[C@H]([C@@H](C)O)NC(=O)[C@H](C)NC(=O)c2csc1n2
REMARK SMILES IDX 11 1 13 2 12 3 9 4 10 5 7 6 6 7 8 8 5 10 36 11 35 12 34 13
REMARK SMILES IDX 37 14 33 15 31 16 32 17 30 18 28 20 29 21 3 23 4 24 2 25
REMARK SMILES IDX 1 26 14 27 18 28 19 29 20 30 21 32 25 33 26 34 27 35 22 38
REMARK SMILES IDX 23 39 24 40 15 42 16 43 17 44
REMARK H PARENT 6 9 30 19 18 31 25 36 24 41
REMARK Flexibility Score:   94.900
ROOT
ATOM      1  O   UNL     1     -10.173   1.910  -9.201  1.00  0.00    -0.446 OA
ATOM      2  N   UNL     1      -8.189   1.314  -8.314  1.00  0.00    -0.207 NA
ATOM      3  C   UNL     1      -8.913   1.419  -9.414  1.00  0.00     0.217 A 
ATOM      4  C   UNL     1      -9.019   1.792  -7.315  1.00  0.00     0.167 A 
ATOM      5  C   UNL     1     -10.226   2.154  -7.862  1.00  0.00     0.231 A 
ENDROOT
BRANCH   4   6
ATOM      6  C   UNL     1      -8.628   1.847  -5.917  1.00  0.00     0.273 C 
ATOM      7  N   UNL     1      -7.835   2.935  -5.651  1.00  0.00    -0.341 N 
ATOM      8  O   UNL     1      -8.952   1.004  -5.089  1.00  0.00    -0.267 OA
ATOM      9  H   UNL     1      -7.573   3.496  -6.457  1.00  0.00     0.164 HD
BRANCH   7  10
ATOM     10  C   UNL     1      -7.107   3.100  -4.409  1.00  0.00     0.145 C 
BRANCH  10  11
ATOM     11  C   UNL     1      -5.633   3.255  -4.756  1.00  0.00     0.116 A 
ATOM     12  S   UNL     1      -4.485   3.537  -3.503  1.00  0.00    -0.124 S 
ATOM     13  C   UNL     1      -3.230   3.537  -4.663  1.00  0.00     0.101 A 
ATOM     14  N   UNL     1      -5.130   3.175  -5.977  1.00  0.00    -0.234 NA
ATOM     15  C   UNL     1      -3.741   3.320  -5.928  1.00  0.00     0.139 A 
BRANCH  15  16
ATOM     16  C   UNL     1      -2.915   3.237  -7.135  1.00  0.00     0.271 C 
ATOM     17  O   UNL     1      -1.752   3.623  -7.172  1.00  0.00    -0.267 OA
ATOM     18  N   UNL     1      -3.572   2.685  -8.214  1.00  0.00    -0.339 N 
ATOM     19  H   UNL     1      -4.565   2.508  -8.087  1.00  0.00     0.164 HD
BRANCH  18  20
ATOM     20  C   UNL     1      -2.929   2.584  -9.517  1.00  0.00     0.168 CG0
ATOM     21  C   UNL     1      -2.729   1.124  -9.928  1.00  0.00     0.041 C 
ATOM     22  G   UNL     1      -3.730   3.280 -10.630  1.00  0.00     0.000 G0
ENDBRANCH  18  20
ENDBRANCH  15  16
ENDBRANCH  10  11
BRANCH  10  23
ATOM     23  C   UNL     1      -7.644   4.287  -3.567  1.00  0.00     0.015 C 
ATOM     24  C   UNL     1      -8.102   5.481  -4.422  1.00  0.00     0.010 C 
BRANCH  23  25
ATOM     25  C   UNL     1      -8.801   3.879  -2.627  1.00  0.00     0.002 C 
ATOM     26  C   UNL     1     -10.184   4.223  -3.163  1.00  0.00     0.004 C 
ENDBRANCH  23  25
ENDBRANCH  10  23
ENDBRANCH   7  10
ENDBRANCH   4   6
BRANCH   3  27
ATOM     27  C   UNL     1      -8.511   1.013 -10.805  1.00  0.00     0.171 C 
BRANCH  27  28
ATOM     28  N   UNL     1      -7.212   1.615 -11.088  1.00  0.00    -0.342 N 
ATOM     29  C   UNL     1      -6.977   2.400 -12.194  1.00  0.00     0.245 C 
ATOM     30  O   UNL     1      -7.850   2.666 -13.019  1.00  0.00    -0.273 OA
ATOM     31  H   UNL     1      -6.472   1.534 -10.391  1.00  0.00     0.164 HD
BRANCH  29  32
ATOM     32  C   UNL     1      -5.580   3.053 -12.255  1.00  0.00     0.200 C 
BRANCH  32  33
ATOM     33  N   UNL     1      -4.789   2.556 -11.123  1.00  0.00    -0.340 N 
ATOM     34  C   UNL     1      -3.732   3.281 -10.615  1.00  0.00     0.243 CG0
ATOM     35  O   UNL     1      -3.365   4.338 -11.124  1.00  0.00    -0.273 OA
ATOM     36  H   UNL     1      -5.049   1.672 -10.701  1.00  0.00     0.164 HD
ATOM     37  G   UNL     1      -2.908   2.582  -9.522  1.00  0.00     0.000 G0
ENDBRANCH  32  33
BRANCH  32  38
ATOM     38  C   UNL     1      -4.899   2.803 -13.621  1.00  0.00     0.143 C 
ATOM     39  C   UNL     1      -4.843   1.336 -14.031  1.00  0.00     0.041 C 
BRANCH  38  40
ATOM     40  O   UNL     1      -5.574   3.551 -14.652  1.00  0.00    -0.391 OA
ATOM     41  H   UNL     1      -5.597   2.978 -15.442  1.00  0.00     0.211 HD
ENDBRANCH  38  40
ENDBRANCH  32  38
ENDBRANCH  29  32
ENDBRANCH  27  28
BRANCH  27  42
ATOM     42  C   UNL     1      -8.524  -0.498 -11.140  1.00  0.00     0.015 C 
ATOM     43  C   UNL     1      -7.600  -0.930 -12.285  1.00  0.00     0.010 C 
ATOM     44  C   UNL     1      -8.270  -1.361  -9.899  1.00  0.00     0.010 C 
ENDBRANCH  27  42
ENDBRANCH   3  27
TORSDOF 5
ENDMDL
MODEL 27
REMARK VINA RESULT:    -4.672      3.348      7.704
REMARK INTER + INTRA:         -10.827
REMARK INTER:                  -8.528
REMARK INTRA:                  -2.299
REMARK UNBOUND:                -2.467
REMARK SMILES CC[C@H](C)[C@H]1NC(=O)c2coc(n2)[C@H](C(C)C)NC(=O)[C@H]([C@@H](C)O)NC(=O)[C@H](C)NC(=O)c2csc1n2
REMARK SMILES IDX 11 1 13 2 12 3 9 4 10 5 7 6 6 7 8 8 5 10 36 11 35 12 34 13
REMARK SMILES IDX 37 14 33 15 31 16 32 17 30 18 28 20 29 21 3 23 4 24 2 25
REMARK SMILES IDX 1 26 14 27 18 28 19 29 20 30 21 32 25 33 26 34 27 35 22 38
REMARK SMILES IDX 23 39 24 40 15 42 16 43 17 44
REMARK H PARENT 6 9 30 19 18 31 25 36 24 41
REMARK Flexibility Score:   94.900
ROOT
ATOM      1  O   UNL     1      -4.553   1.747  -3.290  1.00  0.00    -0.446 OA
ATOM      2  N   UNL     1      -5.524   1.562  -1.264  1.00  0.00    -0.207 NA
ATOM      3  C   UNL     1      -4.534   2.088  -1.964  1.00  0.00     0.217 A 
ATOM      4  C   UNL     1      -6.257   0.849  -2.196  1.00  0.00     0.167 A 
ATOM      5  C   UNL     1      -5.660   0.966  -3.428  1.00  0.00     0.231 A 
ENDROOT
BRANCH   4   6
ATOM      6  C   UNL     1      -7.446   0.087  -1.857  1.00  0.00     0.273 C 
ATOM      7  N   UNL     1      -8.573   0.868  -1.869  1.00  0.00    -0.341 N 
ATOM      8  O   UNL     1      -7.428  -1.104  -1.570  1.00  0.00    -0.267 OA
ATOM      9  H   UNL     1      -8.420   1.859  -2.035  1.00  0.00     0.164 HD
BRANCH   7  10
ATOM     10  C   UNL     1      -9.847   0.430  -1.334  1.00  0.00     0.145 C 
BRANCH  10  11
ATOM     11  C   UNL     1     -10.058   1.142  -0.006  1.00  0.00     0.116 A 
ATOM     12  S   UNL     1     -11.606   1.793   0.379  1.00  0.00    -0.124 S 
ATOM     13  C   UNL     1     -11.005   2.308   1.894  1.00  0.00     0.101 A 
ATOM     14  N   UNL     1      -9.130   1.302   0.924  1.00  0.00    -0.234 NA
ATOM     15  C   UNL     1      -9.675   1.959   2.030  1.00  0.00     0.139 A 
BRANCH  15  16
ATOM     16  C   UNL     1      -8.881   2.236   3.229  1.00  0.00     0.271 C 
ATOM     17  O   UNL     1      -9.375   2.650   4.272  1.00  0.00    -0.267 OA
ATOM     18  N   UNL     1      -7.535   1.985   3.068  1.00  0.00    -0.339 N 
ATOM     19  H   UNL     1      -7.236   1.752   2.125  1.00  0.00     0.164 HD
BRANCH  18  20
ATOM     20  C   UNL     1      -6.582   2.267   4.133  1.00  0.00     0.168 CG0
ATOM     21  C   UNL     1      -6.126   0.982   4.827  1.00  0.00     0.041 C 
ATOM     22  G   UNL     1      -5.328   3.000   3.630  1.00  0.00     0.000 G0
ENDBRANCH  18  20
ENDBRANCH  15  16
ENDBRANCH  10  11
BRANCH  10  23
ATOM     23  C   UNL     1     -11.015   0.672  -2.327  1.00  0.00     0.015 C 
ATOM     24  C   UNL     1     -10.544   0.941  -3.766  1.00  0.00     0.010 C 
BRANCH  23  25
ATOM     25  C   UNL     1     -12.032  -0.491  -2.348  1.00  0.00     0.002 C 
ATOM     26  C   UNL     1     -11.654  -1.627  -3.288  1.00  0.00     0.004 C 
ENDBRANCH  23  25
ENDBRANCH  10  23
ENDBRANCH   7  10
ENDBRANCH   4   6
BRANCH   3  27
ATOM     27  C   UNL     1      -3.412   2.944  -1.444  1.00  0.00     0.171 C 
BRANCH  27  28
ATOM     28  N   UNL     1      -3.152   2.550  -0.064  1.00  0.00    -0.342 N 
ATOM     29  C   UNL     1      -3.377   3.387   1.007  1.00  0.00     0.245 C 
ATOM     30  O   UNL     1      -3.829   4.523   0.879  1.00  0.00    -0.273 OA
ATOM     31  H   UNL     1      -2.885   1.585   0.129  1.00  0.00     0.164 HD
BRANCH  29  32
ATOM     32  C   UNL     1      -3.166   2.750   2.397  1.00  0.00     0.200 C 
BRANCH  32  33
ATOM     33  N   UNL     1      -4.454   2.220   2.861  1.00  0.00    -0.340 N 
ATOM     34  C   UNL     1      -5.316   2.992   3.612  1.00  0.00     0.243 CG0
ATOM     35  O   UNL     1      -5.021   4.128   3.978  1.00  0.00    -0.273 OA
ATOM     36  H   UNL     1      -4.712   1.276   2.601  1.00  0.00     0.164 HD
ATOM     37  G   UNL     1      -6.564   2.269   4.146  1.00  0.00     0.000 G0
ENDBRANCH  32  33
BRANCH  32  38
ATOM     38  C   UNL     1      -2.050   1.680   2.365  1.00  0.00     0.143 C 
ATOM     39  C   UNL     1      -1.471   1.344   3.735  1.00  0.00     0.041 C 
BRANCH  38  40
ATOM     40  O   UNL     1      -2.543   0.471   1.757  1.00  0.00    -0.391 OA
ATOM     41  H   UNL     1      -1.869  -0.216   1.915  1.00  0.00     0.211 HD
ENDBRANCH  38  40
ENDBRANCH  32  38
ENDBRANCH  29  32
ENDBRANCH  27  28
BRANCH  27  42
ATOM     42  C   UNL     1      -2.108   2.992  -2.278  1.00  0.00     0.015 C 
ATOM     43  C   UNL     1      -1.562   4.395  -2.570  1.00  0.00     0.010 C 
ATOM     44  C   UNL     1      -1.009   2.110  -1.675  1.00  0.00     0.010 C 
ENDBRANCH  27  42
ENDBRANCH   3  27
TORSDOF 5
ENDMDL
MODEL 28
REMARK VINA RESULT:    -4.670      3.747      9.181
REMARK INTER + INTRA:         -10.822
REMARK INTER:                  -8.520
REMARK INTRA:                  -2.303
REMARK UNBOUND:                -2.467
REMARK SMILES CC[C@H](C)[C@H]1NC(=O)c2coc(n2)[C@H](C(C)C)NC(=O)[C@H]([C@@H](C)O)NC(=O)[C@H](C)NC(=O)c2csc1n2
REMARK SMILES IDX 11 1 13 2 12 3 9 4 10 5 7 6 6 7 8 8 5 10 36 11 35 12 34 13
REMARK SMILES IDX 37 14 33 15 31 16 32 17 30 18 28 20 29 21 3 23 4 24 2 25
REMARK SMILES IDX 1 26 14 27 18 28 19 29 20 30 21 32 25 33 26 34 27 35 22 38
REMARK SMILES IDX 23 39 24 40 15 42 16 43 17 44
REMARK H PARENT 6 9 30 19 18 31 25 36 24 41
REMARK Flexibility Score:   94.900
ROOT
ATOM      1  O   UNL     1      -8.009   0.264   1.921  1.00  0.00    -0.446 OA
ATOM      2  N   UNL     1      -7.966   2.179   0.733  1.00  0.00    -0.207 NA
ATOM      3  C   UNL     1      -7.383   1.457   1.673  1.00  0.00     0.217 A 
ATOM      4  C   UNL     1      -9.031   1.399   0.317  1.00  0.00     0.167 A 
ATOM      5  C   UNL     1      -9.051   0.234   1.044  1.00  0.00     0.231 A 
ENDROOT
BRANCH   4   6
ATOM      6  C   UNL     1      -9.967   1.818  -0.712  1.00  0.00     0.273 C 
ATOM      7  N   UNL     1     -10.075   0.885  -1.713  1.00  0.00    -0.341 N 
ATOM      8  O   UNL     1     -10.562   2.888  -0.691  1.00  0.00    -0.267 OA
ATOM      9  H   UNL     1      -9.450   0.087  -1.641  1.00  0.00     0.164 HD
BRANCH   7  10
ATOM     10  C   UNL     1     -10.742   1.150  -2.973  1.00  0.00     0.145 C 
BRANCH  10  11
ATOM     11  C   UNL     1      -9.775   1.933  -3.849  1.00  0.00     0.116 A 
ATOM     12  S   UNL     1     -10.231   2.360  -5.455  1.00  0.00    -0.124 S 
ATOM     13  C   UNL     1      -8.736   3.164  -5.658  1.00  0.00     0.101 A 
ATOM     14  N   UNL     1      -8.575   2.345  -3.474  1.00  0.00    -0.234 NA
ATOM     15  C   UNL     1      -7.978   3.071  -4.507  1.00  0.00     0.139 A 
BRANCH  15  16
ATOM     16  C   UNL     1      -6.655   3.681  -4.355  1.00  0.00     0.271 C 
ATOM     17  O   UNL     1      -6.101   4.301  -5.256  1.00  0.00    -0.267 OA
ATOM     18  N   UNL     1      -6.101   3.490  -3.106  1.00  0.00    -0.339 N 
ATOM     19  H   UNL     1      -6.609   2.866  -2.485  1.00  0.00     0.164 HD
BRANCH  18  20
ATOM     20  C   UNL     1      -4.761   3.969  -2.794  1.00  0.00     0.168 CG0
ATOM     21  C   UNL     1      -4.809   5.236  -1.937  1.00  0.00     0.041 C 
ATOM     22  G   UNL     1      -3.918   2.925  -2.044  1.00  0.00     0.000 G0
ENDBRANCH  18  20
ENDBRANCH  15  16
ENDBRANCH  10  11
BRANCH  10  23
ATOM     23  C   UNL     1     -11.239  -0.151  -3.657  1.00  0.00     0.015 C 
ATOM     24  C   UNL     1     -10.381  -1.382  -3.321  1.00  0.00     0.010 C 
BRANCH  23  25
ATOM     25  C   UNL     1     -12.715  -0.472  -3.330  1.00  0.00     0.002 C 
ATOM     26  C   UNL     1     -13.534   0.741  -2.913  1.00  0.00     0.004 C 
ENDBRANCH  23  25
ENDBRANCH  10  23
ENDBRANCH   7  10
ENDBRANCH   4   6
BRANCH   3  27
ATOM     27  C   UNL     1      -6.181   1.836   2.493  1.00  0.00     0.171 C 
BRANCH  27  28
ATOM     28  N   UNL     1      -5.151   2.320   1.579  1.00  0.00    -0.342 N 
ATOM     29  C   UNL     1      -4.017   1.597   1.281  1.00  0.00     0.245 C 
ATOM     30  O   UNL     1      -3.796   0.483   1.752  1.00  0.00    -0.273 OA
ATOM     31  H   UNL     1      -5.320   3.182   1.064  1.00  0.00     0.164 HD
BRANCH  29  32
ATOM     32  C   UNL     1      -3.109   2.214   0.197  1.00  0.00     0.200 C 
BRANCH  32  33
ATOM     33  N   UNL     1      -3.934   3.073  -0.661  1.00  0.00    -0.340 N 
ATOM     34  C   UNL     1      -3.941   2.921  -2.032  1.00  0.00     0.243 CG0
ATOM     35  O   UNL     1      -3.214   2.107  -2.599  1.00  0.00    -0.273 OA
ATOM     36  H   UNL     1      -4.521   3.774  -0.225  1.00  0.00     0.164 HD
ATOM     37  G   UNL     1      -4.740   3.974  -2.816  1.00  0.00     0.000 G0
ENDBRANCH  32  33
BRANCH  32  38
ATOM     38  C   UNL     1      -1.908   2.961   0.823  1.00  0.00     0.143 C 
ATOM     39  C   UNL     1      -1.771   4.410   0.369  1.00  0.00     0.041 C 
BRANCH  38  40
ATOM     40  O   UNL     1      -2.003   2.929   2.260  1.00  0.00    -0.391 OA
ATOM     41  H   UNL     1      -1.088   2.916   2.600  1.00  0.00     0.211 HD
ENDBRANCH  38  40
ENDBRANCH  32  38
ENDBRANCH  29  32
ENDBRANCH  27  28
BRANCH  27  42
ATOM     42  C   UNL     1      -6.402   2.815   3.672  1.00  0.00     0.015 C 
ATOM     43  C   UNL     1      -6.954   2.188   4.957  1.00  0.00     0.010 C 
ATOM     44  C   UNL     1      -5.144   3.635   3.979  1.00  0.00     0.010 C 
ENDBRANCH  27  42
ENDBRANCH   3  27
TORSDOF 5
ENDMDL
MODEL 29
REMARK VINA RESULT:    -4.655      5.766      9.551
REMARK INTER + INTRA:         -10.796
REMARK INTER:                  -8.353
REMARK INTRA:                  -2.443
REMARK UNBOUND:                -2.467
REMARK SMILES CC[C@H](C)[C@H]1NC(=O)c2coc(n2)[C@H](C(C)C)NC(=O)[C@H]([C@@H](C)O)NC(=O)[C@H](C)NC(=O)c2csc1n2
REMARK SMILES IDX 11 1 13 2 12 3 9 4 10 5 7 6 6 7 8 8 5 10 36 11 35 12 34 13
REMARK SMILES IDX 37 14 33 15 31 16 32 17 30 18 28 20 29 21 3 23 4 24 2 25
REMARK SMILES IDX 1 26 14 27 18 28 19 29 20 30 21 32 25 33 26 34 27 35 22 38
REMARK SMILES IDX 23 39 24 40 15 42 16 43 17 44
REMARK H PARENT 6 9 30 19 18 31 25 36 24 41
REMARK Flexibility Score:   94.900
ROOT
ATOM      1  O   UNL     1     -12.673   0.265  -6.058  1.00  0.00    -0.446 OA
ATOM      2  N   UNL     1     -10.491   0.819  -5.941  1.00  0.00    -0.207 NA
ATOM      3  C   UNL     1     -11.589   0.831  -6.675  1.00  0.00     0.217 A 
ATOM      4  C   UNL     1     -10.885   0.230  -4.752  1.00  0.00     0.167 A 
ATOM      5  C   UNL     1     -12.215  -0.105  -4.830  1.00  0.00     0.231 A 
ENDROOT
BRANCH   4   6
ATOM      6  C   UNL     1      -9.976  -0.002  -3.642  1.00  0.00     0.273 C 
ATOM      7  N   UNL     1      -9.325   1.146  -3.268  1.00  0.00    -0.341 N 
ATOM      8  O   UNL     1      -9.802  -1.100  -3.127  1.00  0.00    -0.267 OA
ATOM      9  H   UNL     1      -9.503   1.962  -3.847  1.00  0.00     0.164 HD
BRANCH   7  10
ATOM     10  C   UNL     1      -8.193   1.156  -2.363  1.00  0.00     0.145 C 
BRANCH  10  11
ATOM     11  C   UNL     1      -7.075   1.942  -3.033  1.00  0.00     0.116 A 
ATOM     12  S   UNL     1      -6.198   3.119  -2.129  1.00  0.00    -0.124 S 
ATOM     13  C   UNL     1      -5.227   3.436  -3.499  1.00  0.00     0.101 A 
ATOM     14  N   UNL     1      -6.689   1.791  -4.289  1.00  0.00    -0.234 NA
ATOM     15  C   UNL     1      -5.612   2.638  -4.559  1.00  0.00     0.139 A 
BRANCH  15  16
ATOM     16  C   UNL     1      -4.955   2.654  -5.868  1.00  0.00     0.271 C 
ATOM     17  O   UNL     1      -3.873   3.197  -6.063  1.00  0.00    -0.267 OA
ATOM     18  N   UNL     1      -5.669   2.001  -6.851  1.00  0.00    -0.339 N 
ATOM     19  H   UNL     1      -6.601   1.690  -6.590  1.00  0.00     0.164 HD
BRANCH  18  20
ATOM     20  C   UNL     1      -5.202   1.973  -8.230  1.00  0.00     0.168 CG0
ATOM     21  C   UNL     1      -4.450   0.677  -8.537  1.00  0.00     0.041 C 
ATOM     22  G   UNL     1      -6.347   2.104  -9.248  1.00  0.00     0.000 G0
ENDBRANCH  18  20
ENDBRANCH  15  16
ENDBRANCH  10  11
BRANCH  10  23
ATOM     23  C   UNL     1      -8.562   1.724  -0.968  1.00  0.00     0.015 C 
ATOM     24  C   UNL     1      -9.886   2.507  -0.960  1.00  0.00     0.010 C 
BRANCH  23  25
ATOM     25  C   UNL     1      -8.627   0.633   0.125  1.00  0.00     0.002 C 
ATOM     26  C   UNL     1      -9.653   0.909   1.215  1.00  0.00     0.004 C 
ENDBRANCH  23  25
ENDBRANCH  10  23
ENDBRANCH   7  10
ENDBRANCH   4   6
BRANCH   3  27
ATOM     27  C   UNL     1     -11.732   1.339  -8.084  1.00  0.00     0.171 C 
BRANCH  27  28
ATOM     28  N   UNL     1     -10.558   0.908  -8.835  1.00  0.00    -0.342 N 
ATOM     29  C   UNL     1      -9.715   1.790  -9.474  1.00  0.00     0.245 C 
ATOM     30  O   UNL     1      -9.881   3.008  -9.445  1.00  0.00    -0.273 OA
ATOM     31  H   UNL     1     -10.292  -0.076  -8.808  1.00  0.00     0.164 HD
BRANCH  29  32
ATOM     32  C   UNL     1      -8.457   1.159 -10.106  1.00  0.00     0.200 C 
BRANCH  32  33
ATOM     33  N   UNL     1      -7.370   1.212  -9.121  1.00  0.00    -0.340 N 
ATOM     34  C   UNL     1      -6.332   2.112  -9.248  1.00  0.00     0.243 CG0
ATOM     35  O   UNL     1      -6.237   2.862 -10.218  1.00  0.00    -0.273 OA
ATOM     36  H   UNL     1      -7.404   0.585  -8.326  1.00  0.00     0.164 HD
ATOM     37  G   UNL     1      -5.194   1.966  -8.225  1.00  0.00     0.000 G0
ENDBRANCH  32  33
BRANCH  32  38
ATOM     38  C   UNL     1      -8.739  -0.274 -10.617  1.00  0.00     0.143 C 
ATOM     39  C   UNL     1      -8.030  -0.620 -11.921  1.00  0.00     0.041 C 
BRANCH  38  40
ATOM     40  O   UNL     1      -8.365  -1.237  -9.612  1.00  0.00    -0.391 OA
ATOM     41  H   UNL     1      -7.461  -1.007  -9.327  1.00  0.00     0.211 HD
ENDBRANCH  38  40
ENDBRANCH  32  38
ENDBRANCH  29  32
ENDBRANCH  27  28
BRANCH  27  42
ATOM     42  C   UNL     1     -13.044   1.000  -8.834  1.00  0.00     0.015 C 
ATOM     43  C   UNL     1     -13.930   2.200  -9.189  1.00  0.00     0.010 C 
ATOM     44  C   UNL     1     -12.788   0.143 -10.077  1.00  0.00     0.010 C 
ENDBRANCH  27  42
ENDBRANCH   3  27
TORSDOF 5
ENDMDL
MODEL 30
REMARK VINA RESULT:    -4.639      6.368     10.048
REMARK INTER + INTRA:         -10.767
REMARK INTER:                  -8.470
REMARK INTRA:                  -2.297
REMARK UNBOUND:                -2.467
REMARK SMILES CC[C@H](C)[C@H]1NC(=O)c2coc(n2)[C@H](C(C)C)NC(=O)[C@H]([C@@H](C)O)NC(=O)[C@H](C)NC(=O)c2csc1n2
REMARK SMILES IDX 11 1 13 2 12 3 9 4 10 5 7 6 6 7 8 8 5 10 36 11 35 12 34 13
REMARK SMILES IDX 37 14 33 15 31 16 32 17 30 18 28 20 29 21 3 23 4 24 2 25
REMARK SMILES IDX 1 26 14 27 18 28 19 29 20 30 21 32 25 33 26 34 27 35 22 38
REMARK SMILES IDX 23 39 24 40 15 42 16 43 17 44
REMARK H PARENT 6 9 30 19 18 31 25 36 24 41
REMARK Flexibility Score:   94.900
ROOT
ATOM      1  O   UNL     1      -5.094   4.022  -4.603  1.00  0.00    -0.446 OA
ATOM      2  N   UNL     1      -6.840   2.769  -5.283  1.00  0.00    -0.207 NA
ATOM      3  C   UNL     1      -6.419   3.710  -4.456  1.00  0.00     0.217 A 
ATOM      4  C   UNL     1      -5.725   2.460  -6.041  1.00  0.00     0.167 A 
ATOM      5  C   UNL     1      -4.665   3.227  -5.623  1.00  0.00     0.231 A 
ENDROOT
BRANCH   4   6
ATOM      6  C   UNL     1      -5.729   1.448  -7.083  1.00  0.00     0.273 C 
ATOM      7  N   UNL     1      -5.760   2.006  -8.336  1.00  0.00    -0.341 N 
ATOM      8  O   UNL     1      -5.730   0.244  -6.858  1.00  0.00    -0.267 OA
ATOM      9  H   UNL     1      -5.850   3.018  -8.366  1.00  0.00     0.164 HD
BRANCH   7  10
ATOM     10  C   UNL     1      -6.018   1.239  -9.539  1.00  0.00     0.145 C 
BRANCH  10  11
ATOM     11  C   UNL     1      -7.527   1.157  -9.718  1.00  0.00     0.116 A 
ATOM     12  S   UNL     1      -8.243  -0.306 -10.279  1.00  0.00    -0.124 S 
ATOM     13  C   UNL     1      -9.790   0.410 -10.152  1.00  0.00     0.101 A 
ATOM     14  N   UNL     1      -8.376   2.139  -9.459  1.00  0.00    -0.234 NA
ATOM     15  C   UNL     1      -9.685   1.709  -9.692  1.00  0.00     0.139 A 
BRANCH  15  16
ATOM     16  C   UNL     1     -10.836   2.581  -9.450  1.00  0.00     0.271 C 
ATOM     17  O   UNL     1     -11.458   3.126 -10.355  1.00  0.00    -0.267 OA
ATOM     18  N   UNL     1     -11.147   2.726  -8.115  1.00  0.00    -0.339 N 
ATOM     19  H   UNL     1     -10.489   2.314  -7.458  1.00  0.00     0.164 HD
BRANCH  18  20
ATOM     20  C   UNL     1     -12.220   3.610  -7.682  1.00  0.00     0.168 CG0
ATOM     21  C   UNL     1     -13.564   2.879  -7.647  1.00  0.00     0.041 C 
ATOM     22  G   UNL     1     -11.973   4.206  -6.286  1.00  0.00     0.000 G0
ENDBRANCH  18  20
ENDBRANCH  15  16
ENDBRANCH  10  11
BRANCH  10  23
ATOM     23  C   UNL     1      -5.307   1.839 -10.781  1.00  0.00     0.015 C 
ATOM     24  C   UNL     1      -4.128   2.759 -10.422  1.00  0.00     0.010 C 
BRANCH  23  25
ATOM     25  C   UNL     1      -4.808   0.757 -11.765  1.00  0.00     0.002 C 
ATOM     26  C   UNL     1      -3.943   1.299 -12.894  1.00  0.00     0.004 C 
ENDBRANCH  23  25
ENDBRANCH  10  23
ENDBRANCH   7  10
ENDBRANCH   4   6
BRANCH   3  27
ATOM     27  C   UNL     1      -7.218   4.396  -3.382  1.00  0.00     0.171 C 
BRANCH  27  28
ATOM     28  N   UNL     1      -8.581   3.881  -3.440  1.00  0.00    -0.342 N 
ATOM     29  C   UNL     1      -9.637   4.614  -3.933  1.00  0.00     0.245 C 
ATOM     30  O   UNL     1      -9.506   5.755  -4.375  1.00  0.00    -0.273 OA
ATOM     31  H   UNL     1      -8.747   2.904  -3.198  1.00  0.00     0.164 HD
BRANCH  29  32
ATOM     32  C   UNL     1     -10.977   3.856  -4.034  1.00  0.00     0.200 C 
BRANCH  32  33
ATOM     33  N   UNL     1     -11.180   3.463  -5.434  1.00  0.00    -0.340 N 
ATOM     34  C   UNL     1     -11.983   4.205  -6.276  1.00  0.00     0.243 CG0
ATOM     35  O   UNL     1     -12.611   5.184  -5.879  1.00  0.00    -0.273 OA
ATOM     36  H   UNL     1     -10.699   2.642  -5.782  1.00  0.00     0.164 HD
ATOM     37  G   UNL     1     -12.217   3.606  -7.672  1.00  0.00     0.000 G0
ENDBRANCH  32  33
BRANCH  32  38
ATOM     38  C   UNL     1     -11.023   2.656  -3.059  1.00  0.00     0.143 C 
ATOM     39  C   UNL     1     -12.409   2.363  -2.496  1.00  0.00     0.041 C 
BRANCH  38  40
ATOM     40  O   UNL     1     -10.524   1.472  -3.711  1.00  0.00    -0.391 OA
ATOM     41  H   UNL     1      -9.557   1.582  -3.787  1.00  0.00     0.211 HD
ENDBRANCH  38  40
ENDBRANCH  32  38
ENDBRANCH  29  32
ENDBRANCH  27  28
BRANCH  27  42
ATOM     42  C   UNL     1      -6.655   4.357  -1.940  1.00  0.00     0.015 C 
ATOM     43  C   UNL     1      -6.030   3.025  -1.511  1.00  0.00     0.010 C 
ATOM     44  C   UNL     1      -5.683   5.511  -1.673  1.00  0.00     0.010 C 
ENDBRANCH  27  42
ENDBRANCH   3  27
TORSDOF 5
ENDMDL
MODEL 31
REMARK VINA RESULT:    -4.617      2.959      7.300
REMARK INTER + INTRA:         -10.728
REMARK INTER:                  -8.147
REMARK INTRA:                  -2.581
REMARK UNBOUND:                -2.467
REMARK SMILES CC[C@H](C)[C@H]1NC(=O)c2coc(n2)[C@H](C(C)C)NC(=O)[C@H]([C@@H](C)O)NC(=O)[C@H](C)NC(=O)c2csc1n2
REMARK SMILES IDX 11 1 13 2 12 3 9 4 10 5 7 6 6 7 8 8 5 10 36 11 35 12 34 13
REMARK SMILES IDX 37 14 33 15 31 16 32 17 30 18 28 20 29 21 3 23 4 24 2 25
REMARK SMILES IDX 1 26 14 27 18 28 19 29 20 30 21 32 25 33 26 34 27 35 22 38
REMARK SMILES IDX 23 39 24 40 15 42 16 43 17 44
REMARK H PARENT 6 9 30 19 18 31 25 36 24 41
REMARK Flexibility Score:   94.900
ROOT
ATOM      1  O   UNL     1      -2.947   2.864  -3.667  1.00  0.00    -0.446 OA
ATOM      2  N   UNL     1      -4.587   2.756  -2.124  1.00  0.00    -0.207 NA
ATOM      3  C   UNL     1      -3.327   3.073  -2.368  1.00  0.00     0.217 A 
ATOM      4  C   UNL     1      -5.075   2.337  -3.349  1.00  0.00     0.167 A 
ATOM      5  C   UNL     1      -4.071   2.405  -4.285  1.00  0.00     0.231 A 
ENDROOT
BRANCH   4   6
ATOM      6  C   UNL     1      -6.438   1.875  -3.544  1.00  0.00     0.273 C 
ATOM      7  N   UNL     1      -7.309   2.475  -2.671  1.00  0.00    -0.341 N 
ATOM      8  O   UNL     1      -6.756   1.032  -4.374  1.00  0.00    -0.267 OA
ATOM      9  H   UNL     1      -6.887   3.085  -1.977  1.00  0.00     0.164 HD
BRANCH   7  10
ATOM     10  C   UNL     1      -8.674   2.024  -2.479  1.00  0.00     0.145 C 
BRANCH  10  11
ATOM     11  C   UNL     1      -8.896   1.854  -0.983  1.00  0.00     0.116 A 
ATOM     12  S   UNL     1      -9.936   0.605  -0.410  1.00  0.00    -0.124 S 
ATOM     13  C   UNL     1      -9.599   1.072   1.199  1.00  0.00     0.101 A 
ATOM     14  N   UNL     1      -8.332   2.595  -0.043  1.00  0.00    -0.234 NA
ATOM     15  C   UNL     1      -8.720   2.138   1.218  1.00  0.00     0.139 A 
BRANCH  15  16
ATOM     16  C   UNL     1      -8.214   2.752   2.448  1.00  0.00     0.271 C 
ATOM     17  O   UNL     1      -8.832   3.614   3.064  1.00  0.00    -0.267 OA
ATOM     18  N   UNL     1      -6.985   2.266   2.842  1.00  0.00    -0.339 N 
ATOM     19  H   UNL     1      -6.527   1.636   2.189  1.00  0.00     0.164 HD
BRANCH  18  20
ATOM     20  C   UNL     1      -6.297   2.808   4.005  1.00  0.00     0.168 CG0
ATOM     21  C   UNL     1      -6.651   2.030   5.274  1.00  0.00     0.041 C 
ATOM     22  G   UNL     1      -4.767   2.789   3.853  1.00  0.00     0.000 G0
ENDBRANCH  18  20
ENDBRANCH  15  16
ENDBRANCH  10  11
BRANCH  10  23
ATOM     23  C   UNL     1      -9.705   2.987  -3.124  1.00  0.00     0.015 C 
ATOM     24  C   UNL     1      -9.169   4.416  -3.314  1.00  0.00     0.010 C 
BRANCH  23  25
ATOM     25  C   UNL     1     -10.236   2.473  -4.481  1.00  0.00     0.002 C 
ATOM     26  C   UNL     1     -10.291   0.956  -4.589  1.00  0.00     0.004 C 
ENDBRANCH  23  25
ENDBRANCH  10  23
ENDBRANCH   7  10
ENDBRANCH   4   6
BRANCH   3  27
ATOM     27  C   UNL     1      -2.308   3.567  -1.379  1.00  0.00     0.171 C 
BRANCH  27  28
ATOM     28  N   UNL     1      -2.516   2.848  -0.126  1.00  0.00    -0.342 N 
ATOM     29  C   UNL     1      -2.482   3.464   1.104  1.00  0.00     0.245 C 
ATOM     30  O   UNL     1      -2.289   4.671   1.238  1.00  0.00    -0.273 OA
ATOM     31  H   UNL     1      -2.795   1.868  -0.165  1.00  0.00     0.164 HD
BRANCH  29  32
ATOM     32  C   UNL     1      -2.852   2.565   2.303  1.00  0.00     0.200 C 
BRANCH  32  33
ATOM     33  N   UNL     1      -4.287   2.722   2.570  1.00  0.00    -0.340 N 
ATOM     34  C   UNL     1      -4.772   2.788   3.860  1.00  0.00     0.243 CG0
ATOM     35  O   UNL     1      -4.038   2.656   4.838  1.00  0.00    -0.273 OA
ATOM     36  H   UNL     1      -4.921   2.803   1.784  1.00  0.00     0.164 HD
ATOM     37  G   UNL     1      -6.303   2.813   3.996  1.00  0.00     0.000 G0
ENDBRANCH  32  33
BRANCH  32  38
ATOM     38  C   UNL     1      -2.442   1.095   2.055  1.00  0.00     0.143 C 
ATOM     39  C   UNL     1      -1.803   0.415   3.260  1.00  0.00     0.041 C 
BRANCH  38  40
ATOM     40  O   UNL     1      -3.588   0.327   1.639  1.00  0.00    -0.391 OA
ATOM     41  H   UNL     1      -4.333   0.954   1.564  1.00  0.00     0.211 HD
ENDBRANCH  38  40
ENDBRANCH  32  38
ENDBRANCH  29  32
ENDBRANCH  27  28
BRANCH  27  42
ATOM     42  C   UNL     1      -0.822   3.540  -1.811  1.00  0.00     0.015 C 
ATOM     43  C   UNL     1       0.046   4.680  -1.267  1.00  0.00     0.010 C 
ATOM     44  C   UNL     1      -0.165   2.186  -1.519  1.00  0.00     0.010 C 
ENDBRANCH  27  42
ENDBRANCH   3  27
TORSDOF 5
ENDMDL
MODEL 32
REMARK VINA RESULT:    -4.594      7.280     10.696
REMARK INTER + INTRA:         -10.686
REMARK INTER:                  -8.393
REMARK INTRA:                  -2.294
REMARK UNBOUND:                -2.467
REMARK SMILES CC[C@H](C)[C@H]1NC(=O)c2coc(n2)[C@H](C(C)C)NC(=O)[C@H]([C@@H](C)O)NC(=O)[C@H](C)NC(=O)c2csc1n2
REMARK SMILES IDX 11 1 13 2 12 3 9 4 10 5 7 6 6 7 8 8 5 10 36 11 35 12 34 13
REMARK SMILES IDX 37 14 33 15 31 16 32 17 30 18 28 20 29 21 3 23 4 24 2 25
REMARK SMILES IDX 1 26 14 27 18 28 19 29 20 30 21 32 25 33 26 34 27 35 22 38
REMARK SMILES IDX 23 39 24 40 15 42 16 43 17 44
REMARK H PARENT 6 9 30 19 18 31 25 36 24 41
REMARK Flexibility Score:   94.900
ROOT
ATOM      1  O   UNL     1      -4.821   2.586  -6.657  1.00  0.00    -0.446 OA
ATOM      2  N   UNL     1      -6.711   1.359  -6.730  1.00  0.00    -0.207 NA
ATOM      3  C   UNL     1      -5.580   1.672  -7.338  1.00  0.00     0.217 A 
ATOM      4  C   UNL     1      -6.681   2.096  -5.559  1.00  0.00     0.167 A 
ATOM      5  C   UNL     1      -5.528   2.840  -5.520  1.00  0.00     0.231 A 
ENDROOT
BRANCH   4   6
ATOM      6  C   UNL     1      -7.752   2.068  -4.577  1.00  0.00     0.273 C 
ATOM      7  N   UNL     1      -8.670   1.087  -4.852  1.00  0.00    -0.341 N 
ATOM      8  O   UNL     1      -7.828   2.848  -3.636  1.00  0.00    -0.267 OA
ATOM      9  H   UNL     1      -8.525   0.577  -5.719  1.00  0.00     0.164 HD
BRANCH   7  10
ATOM     10  C   UNL     1      -9.955   0.996  -4.187  1.00  0.00     0.145 C 
BRANCH  10  11
ATOM     11  C   UNL     1     -11.033   1.247  -5.232  1.00  0.00     0.116 A 
ATOM     12  S   UNL     1     -12.362   2.278  -4.857  1.00  0.00    -0.124 S 
ATOM     13  C   UNL     1     -12.977   2.046  -6.435  1.00  0.00     0.101 A 
ATOM     14  N   UNL     1     -11.038   0.739  -6.453  1.00  0.00    -0.234 NA
ATOM     15  C   UNL     1     -12.148   1.210  -7.158  1.00  0.00     0.139 A 
BRANCH  15  16
ATOM     16  C   UNL     1     -12.387   0.838  -8.555  1.00  0.00     0.271 C 
ATOM     17  O   UNL     1     -13.382   0.220  -8.917  1.00  0.00    -0.267 OA
ATOM     18  N   UNL     1     -11.390   1.251  -9.413  1.00  0.00    -0.339 N 
ATOM     19  H   UNL     1     -10.567   1.656  -8.975  1.00  0.00     0.164 HD
BRANCH  18  20
ATOM     20  C   UNL     1     -11.425   0.912 -10.829  1.00  0.00     0.168 CG0
ATOM     21  C   UNL     1     -12.210   1.953 -11.631  1.00  0.00     0.041 C 
ATOM     22  G   UNL     1     -10.023   0.801 -11.448  1.00  0.00     0.000 G0
ENDBRANCH  18  20
ENDBRANCH  15  16
ENDBRANCH  10  11
BRANCH  10  23
ATOM     23  C   UNL     1     -10.143  -0.360  -3.457  1.00  0.00     0.015 C 
ATOM     24  C   UNL     1      -8.966  -0.725  -2.537  1.00  0.00     0.010 C 
BRANCH  23  25
ATOM     25  C   UNL     1     -11.451  -0.422  -2.636  1.00  0.00     0.002 C 
ATOM     26  C   UNL     1     -11.522   0.600  -1.510  1.00  0.00     0.004 C 
ENDBRANCH  23  25
ENDBRANCH  10  23
ENDBRANCH   7  10
ENDBRANCH   4   6
BRANCH   3  27
ATOM     27  C   UNL     1      -5.102   1.177  -8.676  1.00  0.00     0.171 C 
BRANCH  27  28
ATOM     28  N   UNL     1      -5.998   1.712  -9.696  1.00  0.00    -0.342 N 
ATOM     29  C   UNL     1      -6.718   0.910 -10.553  1.00  0.00     0.245 C 
ATOM     30  O   UNL     1      -6.670  -0.319 -10.512  1.00  0.00    -0.273 OA
ATOM     31  H   UNL     1      -6.177   2.715  -9.714  1.00  0.00     0.164 HD
BRANCH  29  32
ATOM     32  C   UNL     1      -7.708   1.651 -11.475  1.00  0.00     0.200 C 
BRANCH  32  33
ATOM     33  N   UNL     1      -9.047   1.563 -10.880  1.00  0.00    -0.340 N 
ATOM     34  C   UNL     1     -10.040   0.801 -11.461  1.00  0.00     0.243 CG0
ATOM     35  O   UNL     1      -9.870   0.217 -12.529  1.00  0.00    -0.273 OA
ATOM     36  H   UNL     1      -9.227   2.058 -10.015  1.00  0.00     0.164 HD
ATOM     37  G   UNL     1     -11.428   0.908 -10.810  1.00  0.00     0.000 G0
ENDBRANCH  32  33
BRANCH  32  38
ATOM     38  C   UNL     1      -7.258   3.108 -11.733  1.00  0.00     0.143 C 
ATOM     39  C   UNL     1      -6.260   3.259 -12.875  1.00  0.00     0.041 C 
BRANCH  38  40
ATOM     40  O   UNL     1      -8.405   3.938 -12.001  1.00  0.00    -0.391 OA
ATOM     41  H   UNL     1      -8.167   4.505 -12.759  1.00  0.00     0.211 HD
ENDBRANCH  38  40
ENDBRANCH  32  38
ENDBRANCH  29  32
ENDBRANCH  27  28
BRANCH  27  42
ATOM     42  C   UNL     1      -3.617   1.421  -9.038  1.00  0.00     0.015 C 
ATOM     43  C   UNL     1      -2.885   0.229  -9.664  1.00  0.00     0.010 C 
ATOM     44  C   UNL     1      -3.437   2.671  -9.906  1.00  0.00     0.010 C 
ENDBRANCH  27  42
ENDBRANCH   3  27
TORSDOF 5
ENDMDL
MODEL 33
REMARK VINA RESULT:    -4.583      2.717      3.544
REMARK INTER + INTRA:         -10.668
REMARK INTER:                  -8.442
REMARK INTRA:                  -2.226
REMARK UNBOUND:                -2.467
REMARK SMILES CC[C@H](C)[C@H]1NC(=O)c2coc(n2)[C@H](C(C)C)NC(=O)[C@H]([C@@H](C)O)NC(=O)[C@H](C)NC(=O)c2csc1n2
REMARK SMILES IDX 11 1 13 2 12 3 9 4 10 5 7 6 6 7 8 8 5 10 36 11 35 12 34 13
REMARK SMILES IDX 37 14 33 15 31 16 32 17 30 18 28 20 29 21 3 23 4 24 2 25
REMARK SMILES IDX 1 26 14 27 18 28 19 29 20 30 21 32 25 33 26 34 27 35 22 38
REMARK SMILES IDX 23 39 24 40 15 42 16 43 17 44
REMARK H PARENT 6 9 30 19 18 31 25 36 24 41
REMARK Flexibility Score:   94.900
ROOT
ATOM      1  O   UNL     1      -2.989   2.454  -2.189  1.00  0.00    -0.446 OA
ATOM      2  N   UNL     1      -4.192   2.289  -0.290  1.00  0.00    -0.207 NA
ATOM      3  C   UNL     1      -4.201   2.194  -1.607  1.00  0.00     0.217 A 
ATOM      4  C   UNL     1      -2.880   2.606   0.018  1.00  0.00     0.167 A 
ATOM      5  C   UNL     1      -2.153   2.705  -1.144  1.00  0.00     0.231 A 
ENDROOT
BRANCH   4   6
ATOM      6  C   UNL     1      -2.413   2.822   1.376  1.00  0.00     0.273 C 
ATOM      7  N   UNL     1      -2.256   1.640   2.055  1.00  0.00    -0.341 N 
ATOM      8  O   UNL     1      -2.212   3.932   1.855  1.00  0.00    -0.267 OA
ATOM      9  H   UNL     1      -2.550   0.804   1.558  1.00  0.00     0.164 HD
BRANCH   7  10
ATOM     10  C   UNL     1      -2.042   1.572   3.487  1.00  0.00     0.145 C 
BRANCH  10  11
ATOM     11  C   UNL     1      -3.374   1.860   4.166  1.00  0.00     0.116 A 
ATOM     12  S   UNL     1      -3.504   3.175   5.271  1.00  0.00    -0.124 S 
ATOM     13  C   UNL     1      -5.162   2.820   5.487  1.00  0.00     0.101 A 
ATOM     14  N   UNL     1      -4.489   1.175   3.967  1.00  0.00    -0.234 NA
ATOM     15  C   UNL     1      -5.528   1.735   4.714  1.00  0.00     0.139 A 
BRANCH  15  16
ATOM     16  C   UNL     1      -6.891   1.201   4.658  1.00  0.00     0.271 C 
ATOM     17  O   UNL     1      -7.355   0.472   5.527  1.00  0.00    -0.267 OA
ATOM     18  N   UNL     1      -7.592   1.598   3.539  1.00  0.00    -0.339 N 
ATOM     19  H   UNL     1      -7.061   2.110   2.840  1.00  0.00     0.164 HD
BRANCH  18  20
ATOM     20  C   UNL     1      -8.940   1.110   3.281  1.00  0.00     0.168 CG0
ATOM     21  C   UNL     1      -9.985   1.933   4.038  1.00  0.00     0.041 C 
ATOM     22  G   UNL     1      -9.308   1.141   1.789  1.00  0.00     0.000 G0
ENDBRANCH  18  20
ENDBRANCH  15  16
ENDBRANCH  10  11
BRANCH  10  23
ATOM     23  C   UNL     1      -1.436   0.213   3.925  1.00  0.00     0.015 C 
ATOM     24  C   UNL     1      -1.648  -0.095   5.417  1.00  0.00     0.010 C 
BRANCH  23  25
ATOM     25  C   UNL     1      -1.970  -0.976   3.094  1.00  0.00     0.002 C 
ATOM     26  C   UNL     1      -0.913  -2.020   2.759  1.00  0.00     0.004 C 
ENDBRANCH  23  25
ENDBRANCH  10  23
ENDBRANCH   7  10
ENDBRANCH   4   6
BRANCH   3  27
ATOM     27  C   UNL     1      -5.385   1.893  -2.486  1.00  0.00     0.171 C 
BRANCH  27  28
ATOM     28  N   UNL     1      -6.588   2.306  -1.771  1.00  0.00    -0.342 N 
ATOM     29  C   UNL     1      -7.510   1.410  -1.279  1.00  0.00     0.245 C 
ATOM     30  O   UNL     1      -7.379   0.192  -1.392  1.00  0.00    -0.273 OA
ATOM     31  H   UNL     1      -6.706   3.292  -1.540  1.00  0.00     0.164 HD
BRANCH  29  32
ATOM     32  C   UNL     1      -8.649   2.028  -0.441  1.00  0.00     0.200 C 
BRANCH  32  33
ATOM     33  N   UNL     1      -8.371   1.768   0.977  1.00  0.00    -0.340 N 
ATOM     34  C   UNL     1      -9.309   1.168   1.792  1.00  0.00     0.243 CG0
ATOM     35  O   UNL     1     -10.434   0.885   1.388  1.00  0.00    -0.273 OA
ATOM     36  H   UNL     1      -7.461   2.019   1.347  1.00  0.00     0.164 HD
ATOM     37  G   UNL     1      -8.939   1.082   3.282  1.00  0.00     0.000 G0
ENDBRANCH  32  33
BRANCH  32  38
ATOM     38  C   UNL     1      -8.829   3.532  -0.754  1.00  0.00     0.143 C 
ATOM     39  C   UNL     1     -10.126   4.128  -0.219  1.00  0.00     0.041 C 
BRANCH  38  40
ATOM     40  O   UNL     1      -7.717   4.282  -0.226  1.00  0.00    -0.391 OA
ATOM     41  H   UNL     1      -7.861   5.212  -0.483  1.00  0.00     0.211 HD
ENDBRANCH  38  40
ENDBRANCH  32  38
ENDBRANCH  29  32
ENDBRANCH  27  28
BRANCH  27  42
ATOM     42  C   UNL     1      -5.360   2.450  -3.930  1.00  0.00     0.015 C 
ATOM     43  C   UNL     1      -4.857   1.479  -5.005  1.00  0.00     0.010 C 
ATOM     44  C   UNL     1      -6.714   3.040  -4.340  1.00  0.00     0.010 C 
ENDBRANCH  27  42
ENDBRANCH   3  27
TORSDOF 5
ENDMDL
MODEL 34
REMARK VINA RESULT:    -4.577      3.934      8.220
REMARK INTER + INTRA:         -10.656
REMARK INTER:                  -8.480
REMARK INTRA:                  -2.176
REMARK UNBOUND:                -2.467
REMARK SMILES CC[C@H](C)[C@H]1NC(=O)c2coc(n2)[C@H](C(C)C)NC(=O)[C@H]([C@@H](C)O)NC(=O)[C@H](C)NC(=O)c2csc1n2
REMARK SMILES IDX 11 1 13 2 12 3 9 4 10 5 7 6 6 7 8 8 5 10 36 11 35 12 34 13
REMARK SMILES IDX 37 14 33 15 31 16 32 17 30 18 28 20 29 21 3 23 4 24 2 25
REMARK SMILES IDX 1 26 14 27 18 28 19 29 20 30 21 32 25 33 26 34 27 35 22 38
REMARK SMILES IDX 23 39 24 40 15 42 16 43 17 44
REMARK H PARENT 6 9 30 19 18 31 25 36 24 41
REMARK Flexibility Score:   94.900
ROOT
ATOM      1  O   UNL     1      -7.185   4.095  -5.413  1.00  0.00    -0.446 OA
ATOM      2  N   UNL     1      -7.053   2.245  -4.132  1.00  0.00    -0.207 NA
ATOM      3  C   UNL     1      -6.411   3.293  -4.617  1.00  0.00     0.217 A 
ATOM      4  C   UNL     1      -8.341   2.380  -4.621  1.00  0.00     0.167 A 
ATOM      5  C   UNL     1      -8.415   3.509  -5.399  1.00  0.00     0.231 A 
ENDROOT
BRANCH   4   6
ATOM      6  C   UNL     1      -9.399   1.425  -4.344  1.00  0.00     0.273 C 
ATOM      7  N   UNL     1     -10.453   2.007  -3.685  1.00  0.00    -0.341 N 
ATOM      8  O   UNL     1      -9.337   0.239  -4.644  1.00  0.00    -0.267 OA
ATOM      9  H   UNL     1     -10.323   2.979  -3.420  1.00  0.00     0.164 HD
BRANCH   7  10
ATOM     10  C   UNL     1     -11.522   1.244  -3.072  1.00  0.00     0.145 C 
BRANCH  10  11
ATOM     11  C   UNL     1     -11.230   1.156  -1.581  1.00  0.00     0.116 A 
ATOM     12  S   UNL     1     -12.529   0.970  -0.465  1.00  0.00    -0.124 S 
ATOM     13  C   UNL     1     -11.406   0.923   0.823  1.00  0.00     0.101 A 
ATOM     14  N   UNL     1     -10.023   1.198  -1.042  1.00  0.00    -0.234 NA
ATOM     15  C   UNL     1     -10.116   1.047   0.344  1.00  0.00     0.139 A 
BRANCH  15  16
ATOM     16  C   UNL     1      -8.926   1.016   1.197  1.00  0.00     0.271 C 
ATOM     17  O   UNL     1      -8.969   0.728   2.388  1.00  0.00    -0.267 OA
ATOM     18  N   UNL     1      -7.763   1.339   0.531  1.00  0.00    -0.339 N 
ATOM     19  H   UNL     1      -7.874   1.667  -0.425  1.00  0.00     0.164 HD
BRANCH  18  20
ATOM     20  C   UNL     1      -6.490   1.427   1.235  1.00  0.00     0.168 CG0
ATOM     21  C   UNL     1      -5.543   0.301   0.813  1.00  0.00     0.041 C 
ATOM     22  G   UNL     1      -5.769   2.763   0.994  1.00  0.00     0.000 G0
ENDBRANCH  18  20
ENDBRANCH  15  16
ENDBRANCH  10  11
BRANCH  10  23
ATOM     23  C   UNL     1     -12.919   1.853  -3.366  1.00  0.00     0.015 C 
ATOM     24  C   UNL     1     -12.856   3.151  -4.188  1.00  0.00     0.010 C 
BRANCH  23  25
ATOM     25  C   UNL     1     -13.866   0.861  -4.079  1.00  0.00     0.002 C 
ATOM     26  C   UNL     1     -13.201  -0.448  -4.481  1.00  0.00     0.004 C 
ENDBRANCH  23  25
ENDBRANCH  10  23
ENDBRANCH   7  10
ENDBRANCH   4   6
BRANCH   3  27
ATOM     27  C   UNL     1      -4.960   3.637  -4.424  1.00  0.00     0.171 C 
BRANCH  27  28
ATOM     28  N   UNL     1      -4.655   3.507  -3.003  1.00  0.00    -0.342 N 
ATOM     29  C   UNL     1      -4.790   4.548  -2.112  1.00  0.00     0.245 C 
ATOM     30  O   UNL     1      -5.192   5.661  -2.445  1.00  0.00    -0.273 OA
ATOM     31  H   UNL     1      -4.427   2.585  -2.633  1.00  0.00     0.164 HD
BRANCH  29  32
ATOM     32  C   UNL     1      -4.546   4.185  -0.632  1.00  0.00     0.200 C 
BRANCH  32  33
ATOM     33  N   UNL     1      -5.361   3.008  -0.305  1.00  0.00    -0.340 N 
ATOM     34  C   UNL     1      -5.775   2.761   0.988  1.00  0.00     0.243 CG0
ATOM     35  O   UNL     1      -5.428   3.472   1.928  1.00  0.00    -0.273 OA
ATOM     36  H   UNL     1      -5.637   2.386  -1.055  1.00  0.00     0.164 HD
ATOM     37  G   UNL     1      -6.504   1.426   1.210  1.00  0.00     0.000 G0
ENDBRANCH  32  33
BRANCH  32  38
ATOM     38  C   UNL     1      -3.041   3.974  -0.342  1.00  0.00     0.143 C 
ATOM     39  C   UNL     1      -2.114   4.729  -1.288  1.00  0.00     0.041 C 
BRANCH  38  40
ATOM     40  O   UNL     1      -2.742   4.361   1.013  1.00  0.00    -0.391 OA
ATOM     41  H   UNL     1      -3.594   4.573   1.438  1.00  0.00     0.211 HD
ENDBRANCH  38  40
ENDBRANCH  32  38
ENDBRANCH  29  32
ENDBRANCH  27  28
BRANCH  27  42
ATOM     42  C   UNL     1      -3.927   2.885  -5.299  1.00  0.00     0.015 C 
ATOM     43  C   UNL     1      -4.477   2.269  -6.590  1.00  0.00     0.010 C 
ATOM     44  C   UNL     1      -2.698   3.749  -5.604  1.00  0.00     0.010 C 
ENDBRANCH  27  42
ENDBRANCH   3  27
TORSDOF 5
ENDMDL
MODEL 35
REMARK VINA RESULT:    -4.561      4.016      7.904
REMARK INTER + INTRA:         -10.628
REMARK INTER:                  -8.362
REMARK INTRA:                  -2.267
REMARK UNBOUND:                -2.467
REMARK SMILES CC[C@H](C)[C@H]1NC(=O)c2coc(n2)[C@H](C(C)C)NC(=O)[C@H]([C@@H](C)O)NC(=O)[C@H](C)NC(=O)c2csc1n2
REMARK SMILES IDX 11 1 13 2 12 3 9 4 10 5 7 6 6 7 8 8 5 10 36 11 35 12 34 13
REMARK SMILES IDX 37 14 33 15 31 16 32 17 30 18 28 20 29 21 3 23 4 24 2 25
REMARK SMILES IDX 1 26 14 27 18 28 19 29 20 30 21 32 25 33 26 34 27 35 22 38
REMARK SMILES IDX 23 39 24 40 15 42 16 43 17 44
REMARK H PARENT 6 9 30 19 18 31 25 36 24 41
REMARK Flexibility Score:   94.900
ROOT
ATOM      1  O   UNL     1      -3.642   4.869   3.725  1.00  0.00    -0.446 OA
ATOM      2  N   UNL     1      -4.109   2.680   3.457  1.00  0.00    -0.207 NA
ATOM      3  C   UNL     1      -3.979   3.679   4.312  1.00  0.00     0.217 A 
ATOM      4  C   UNL     1      -3.867   3.257   2.222  1.00  0.00     0.167 A 
ATOM      5  C   UNL     1      -3.584   4.591   2.393  1.00  0.00     0.231 A 
ENDROOT
BRANCH   4   6
ATOM      6  C   UNL     1      -3.891   2.509   0.978  1.00  0.00     0.273 C 
ATOM      7  N   UNL     1      -4.720   3.088   0.051  1.00  0.00    -0.341 N 
ATOM      8  O   UNL     1      -3.264   1.472   0.798  1.00  0.00    -0.267 OA
ATOM      9  H   UNL     1      -5.247   3.894   0.374  1.00  0.00     0.164 HD
BRANCH   7  10
ATOM     10  C   UNL     1      -5.122   2.427  -1.175  1.00  0.00     0.145 C 
BRANCH  10  11
ATOM     11  C   UNL     1      -6.319   1.544  -0.851  1.00  0.00     0.116 A 
ATOM     12  S   UNL     1      -6.548   0.067  -1.709  1.00  0.00    -0.124 S 
ATOM     13  C   UNL     1      -7.943  -0.251  -0.774  1.00  0.00     0.101 A 
ATOM     14  N   UNL     1      -7.227   1.808   0.073  1.00  0.00    -0.234 NA
ATOM     15  C   UNL     1      -8.158   0.768   0.135  1.00  0.00     0.139 A 
BRANCH  15  16
ATOM     16  C   UNL     1      -9.259   0.777   1.100  1.00  0.00     0.271 C 
ATOM     17  O   UNL     1     -10.435   0.869   0.766  1.00  0.00    -0.267 OA
ATOM     18  N   UNL     1      -8.844   0.670   2.410  1.00  0.00    -0.339 N 
ATOM     19  H   UNL     1      -7.840   0.712   2.563  1.00  0.00     0.164 HD
BRANCH  18  20
ATOM     20  C   UNL     1      -9.796   0.729   3.511  1.00  0.00     0.168 CG0
ATOM     21  C   UNL     1     -10.330  -0.662   3.861  1.00  0.00     0.041 C 
ATOM     22  G   UNL     1      -9.192   1.336   4.788  1.00  0.00     0.000 G0
ENDBRANCH  18  20
ENDBRANCH  15  16
ENDBRANCH  10  11
BRANCH  10  23
ATOM     23  C   UNL     1      -5.422   3.436  -2.315  1.00  0.00     0.015 C 
ATOM     24  C   UNL     1      -5.832   4.827  -1.803  1.00  0.00     0.010 C 
BRANCH  23  25
ATOM     25  C   UNL     1      -4.241   3.598  -3.297  1.00  0.00     0.002 C 
ATOM     26  C   UNL     1      -4.029   2.401  -4.213  1.00  0.00     0.004 C 
ENDBRANCH  23  25
ENDBRANCH  10  23
ENDBRANCH   7  10
ENDBRANCH   4   6
BRANCH   3  27
ATOM     27  C   UNL     1      -4.109   3.613   5.809  1.00  0.00     0.171 C 
BRANCH  27  28
ATOM     28  N   UNL     1      -5.029   2.528   6.130  1.00  0.00    -0.342 N 
ATOM     29  C   UNL     1      -6.398   2.662   6.058  1.00  0.00     0.245 C 
ATOM     30  O   UNL     1      -6.946   3.704   5.702  1.00  0.00    -0.273 OA
ATOM     31  H   UNL     1      -4.647   1.602   6.322  1.00  0.00     0.164 HD
BRANCH  29  32
ATOM     32  C   UNL     1      -7.202   1.369   6.309  1.00  0.00     0.200 C 
BRANCH  32  33
ATOM     33  N   UNL     1      -7.864   0.987   5.056  1.00  0.00    -0.340 N 
ATOM     34  C   UNL     1      -9.173   1.340   4.802  1.00  0.00     0.243 CG0
ATOM     35  O   UNL     1      -9.860   1.931   5.633  1.00  0.00    -0.273 OA
ATOM     36  H   UNL     1      -7.333   0.474   4.364  1.00  0.00     0.164 HD
ATOM     37  G   UNL     1      -9.783   0.759   3.516  1.00  0.00     0.000 G0
ENDBRANCH  32  33
BRANCH  32  38
ATOM     38  C   UNL     1      -6.304   0.248   6.883  1.00  0.00     0.143 C 
ATOM     39  C   UNL     1      -7.072  -0.865   7.587  1.00  0.00     0.041 C 
BRANCH  38  40
ATOM     40  O   UNL     1      -5.505  -0.329   5.832  1.00  0.00    -0.391 OA
ATOM     41  H   UNL     1      -5.008   0.405   5.424  1.00  0.00     0.211 HD
ENDBRANCH  38  40
ENDBRANCH  32  38
ENDBRANCH  29  32
ENDBRANCH  27  28
BRANCH  27  42
ATOM     42  C   UNL     1      -2.803   3.516   6.635  1.00  0.00     0.015 C 
ATOM     43  C   UNL     1      -2.586   4.631   7.664  1.00  0.00     0.010 C 
ATOM     44  C   UNL     1      -2.646   2.143   7.299  1.00  0.00     0.010 C 
ENDBRANCH  27  42
ENDBRANCH   3  27
TORSDOF 5
ENDMDL
MODEL 36
REMARK VINA RESULT:    -4.532      3.623      7.341
REMARK INTER + INTRA:         -10.576
REMARK INTER:                  -8.471
REMARK INTRA:                  -2.104
REMARK UNBOUND:                -2.467
REMARK SMILES CC[C@H](C)[C@H]1NC(=O)c2coc(n2)[C@H](C(C)C)NC(=O)[C@H]([C@@H](C)O)NC(=O)[C@H](C)NC(=O)c2csc1n2
REMARK SMILES IDX 11 1 13 2 12 3 9 4 10 5 7 6 6 7 8 8 5 10 36 11 35 12 34 13
REMARK SMILES IDX 37 14 33 15 31 16 32 17 30 18 28 20 29 21 3 23 4 24 2 25
REMARK SMILES IDX 1 26 14 27 18 28 19 29 20 30 21 32 25 33 26 34 27 35 22 38
REMARK SMILES IDX 23 39 24 40 15 42 16 43 17 44
REMARK H PARENT 6 9 30 19 18 31 25 36 24 41
REMARK Flexibility Score:   94.900
ROOT
ATOM      1  O   UNL     1      -6.190   1.428   7.669  1.00  0.00    -0.446 OA
ATOM      2  N   UNL     1      -5.760   0.686   5.585  1.00  0.00    -0.207 NA
ATOM      3  C   UNL     1      -6.613   1.317   6.372  1.00  0.00     0.217 A 
ATOM      4  C   UNL     1      -4.693   0.386   6.413  1.00  0.00     0.167 A 
ATOM      5  C   UNL     1      -4.961   0.841   7.681  1.00  0.00     0.231 A 
ENDROOT
BRANCH   4   6
ATOM      6  C   UNL     1      -3.514  -0.332   5.960  1.00  0.00     0.273 C 
ATOM      7  N   UNL     1      -2.423   0.494   5.857  1.00  0.00    -0.341 N 
ATOM      8  O   UNL     1      -3.511  -1.525   5.682  1.00  0.00    -0.267 OA
ATOM      9  H   UNL     1      -2.598   1.480   6.032  1.00  0.00     0.164 HD
BRANCH   7  10
ATOM     10  C   UNL     1      -1.192   0.102   5.199  1.00  0.00     0.145 C 
BRANCH  10  11
ATOM     11  C   UNL     1      -1.168   0.770   3.832  1.00  0.00     0.116 A 
ATOM     12  S   UNL     1      -0.180   0.118   2.580  1.00  0.00    -0.124 S 
ATOM     13  C   UNL     1      -0.742   1.331   1.515  1.00  0.00     0.101 A 
ATOM     14  N   UNL     1      -1.872   1.839   3.498  1.00  0.00    -0.234 NA
ATOM     15  C   UNL     1      -1.644   2.158   2.157  1.00  0.00     0.139 A 
BRANCH  15  16
ATOM     16  C   UNL     1      -2.326   3.279   1.505  1.00  0.00     0.271 C 
ATOM     17  O   UNL     1      -1.755   4.324   1.212  1.00  0.00    -0.267 OA
ATOM     18  N   UNL     1      -3.661   3.041   1.256  1.00  0.00    -0.339 N 
ATOM     19  H   UNL     1      -4.040   2.182   1.647  1.00  0.00     0.164 HD
BRANCH  18  20
ATOM     20  C   UNL     1      -4.514   4.069   0.675  1.00  0.00     0.168 CG0
ATOM     21  C   UNL     1      -4.679   3.868  -0.833  1.00  0.00     0.041 C 
ATOM     22  G   UNL     1      -5.918   4.100   1.301  1.00  0.00     0.000 G0
ENDBRANCH  18  20
ENDBRANCH  15  16
ENDBRANCH  10  11
BRANCH  10  23
ATOM     23  C   UNL     1       0.061   0.445   6.048  1.00  0.00     0.015 C 
ATOM     24  C   UNL     1       0.774   1.728   5.590  1.00  0.00     0.010 C 
BRANCH  23  25
ATOM     25  C   UNL     1      -0.253   0.564   7.556  1.00  0.00     0.002 C 
ATOM     26  C   UNL     1       0.427  -0.494   8.414  1.00  0.00     0.004 C 
ENDBRANCH  23  25
ENDBRANCH  10  23
ENDBRANCH   7  10
ENDBRANCH   4   6
BRANCH   3  27
ATOM     27  C   UNL     1      -7.969   1.849   5.997  1.00  0.00     0.171 C 
BRANCH  27  28
ATOM     28  N   UNL     1      -8.046   1.889   4.541  1.00  0.00    -0.342 N 
ATOM     29  C   UNL     1      -7.802   3.030   3.810  1.00  0.00     0.245 C 
ATOM     30  O   UNL     1      -7.485   4.098   4.331  1.00  0.00    -0.273 OA
ATOM     31  H   UNL     1      -8.191   1.016   4.034  1.00  0.00     0.164 HD
BRANCH  29  32
ATOM     32  C   UNL     1      -7.805   2.845   2.278  1.00  0.00     0.200 C 
BRANCH  32  33
ATOM     33  N   UNL     1      -6.420   2.945   1.799  1.00  0.00    -0.340 N 
ATOM     34  C   UNL     1      -5.924   4.124   1.283  1.00  0.00     0.243 CG0
ATOM     35  O   UNL     1      -6.631   5.120   1.142  1.00  0.00    -0.273 OA
ATOM     36  H   UNL     1      -5.822   2.131   1.874  1.00  0.00     0.164 HD
ATOM     37  G   UNL     1      -4.506   4.049   0.694  1.00  0.00     0.000 G0
ENDBRANCH  32  33
BRANCH  32  38
ATOM     38  C   UNL     1      -8.491   1.521   1.869  1.00  0.00     0.143 C 
ATOM     39  C   UNL     1      -9.826   1.705   1.157  1.00  0.00     0.041 C 
BRANCH  38  40
ATOM     40  O   UNL     1      -7.613   0.752   1.024  1.00  0.00    -0.391 OA
ATOM     41  H   UNL     1      -7.636   1.170   0.143  1.00  0.00     0.211 HD
ENDBRANCH  38  40
ENDBRANCH  32  38
ENDBRANCH  29  32
ENDBRANCH  27  28
BRANCH  27  42
ATOM     42  C   UNL     1      -9.206   1.151   6.614  1.00  0.00     0.015 C 
ATOM     43  C   UNL     1     -10.559   1.555   6.019  1.00  0.00     0.010 C 
ATOM     44  C   UNL     1      -9.060  -0.375   6.616  1.00  0.00     0.010 C 
ENDBRANCH  27  42
ENDBRANCH   3  27
TORSDOF 5
ENDMDL
MODEL 37
REMARK VINA RESULT:    -4.499     11.948     14.246
REMARK INTER + INTRA:         -10.518
REMARK INTER:                  -8.335
REMARK INTRA:                  -2.182
REMARK UNBOUND:                -2.467
REMARK SMILES CC[C@H](C)[C@H]1NC(=O)c2coc(n2)[C@H](C(C)C)NC(=O)[C@H]([C@@H](C)O)NC(=O)[C@H](C)NC(=O)c2csc1n2
REMARK SMILES IDX 11 1 13 2 12 3 9 4 10 5 7 6 6 7 8 8 5 10 36 11 35 12 34 13
REMARK SMILES IDX 37 14 33 15 31 16 32 17 30 18 28 20 29 21 3 23 4 24 2 25
REMARK SMILES IDX 1 26 14 27 18 28 19 29 20 30 21 32 25 33 26 34 27 35 22 38
REMARK SMILES IDX 23 39 24 40 15 42 16 43 17 44
REMARK H PARENT 6 9 30 19 18 31 25 36 24 41
REMARK Flexibility Score:   94.900
ROOT
ATOM      1  O   UNL     1      -8.383   6.463 -11.470  1.00  0.00    -0.446 OA
ATOM      2  N   UNL     1     -10.559   5.891 -11.337  1.00  0.00    -0.207 NA
ATOM      3  C   UNL     1      -9.308   5.466 -11.312  1.00  0.00     0.217 A 
ATOM      4  C   UNL     1     -10.449   7.261 -11.497  1.00  0.00     0.167 A 
ATOM      5  C   UNL     1      -9.121   7.603 -11.576  1.00  0.00     0.231 A 
ENDROOT
BRANCH   4   6
ATOM      6  C   UNL     1     -11.598   8.144 -11.592  1.00  0.00     0.273 C 
ATOM      7  N   UNL     1     -11.831   8.806 -10.413  1.00  0.00    -0.341 N 
ATOM      8  O   UNL     1     -12.284   8.257 -12.600  1.00  0.00    -0.267 OA
ATOM      9  H   UNL     1     -11.235   8.542  -9.634  1.00  0.00     0.164 HD
BRANCH   7  10
ATOM     10  C   UNL     1     -13.046   9.553 -10.151  1.00  0.00     0.145 C 
BRANCH  10  11
ATOM     11  C   UNL     1     -14.033   8.607  -9.482  1.00  0.00     0.116 A 
ATOM     12  S   UNL     1     -15.677   8.581 -10.000  1.00  0.00    -0.124 S 
ATOM     13  C   UNL     1     -16.006   7.344  -8.867  1.00  0.00     0.101 A 
ATOM     14  N   UNL     1     -13.732   7.760  -8.512  1.00  0.00    -0.234 NA
ATOM     15  C   UNL     1     -14.863   7.016  -8.164  1.00  0.00     0.139 A 
BRANCH  15  16
ATOM     16  C   UNL     1     -14.811   5.972  -7.138  1.00  0.00     0.271 C 
ATOM     17  O   UNL     1     -15.258   6.128  -6.007  1.00  0.00    -0.267 OA
ATOM     18  N   UNL     1     -14.217   4.805  -7.570  1.00  0.00    -0.339 N 
ATOM     19  H   UNL     1     -13.788   4.839  -8.492  1.00  0.00     0.164 HD
BRANCH  18  20
ATOM     20  C   UNL     1     -14.017   3.680  -6.666  1.00  0.00     0.168 CG0
ATOM     21  C   UNL     1     -15.326   2.930  -6.413  1.00  0.00     0.041 C 
ATOM     22  G   UNL     1     -12.989   2.667  -7.196  1.00  0.00     0.000 G0
ENDBRANCH  18  20
ENDBRANCH  15  16
ENDBRANCH  10  11
BRANCH  10  23
ATOM     23  C   UNL     1     -12.780  10.826  -9.304  1.00  0.00     0.015 C 
ATOM     24  C   UNL     1     -11.795  11.803  -9.967  1.00  0.00     0.010 C 
BRANCH  23  25
ATOM     25  C   UNL     1     -14.076  11.592  -8.953  1.00  0.00     0.002 C 
ATOM     26  C   UNL     1     -13.850  13.052  -8.584  1.00  0.00     0.004 C 
ENDBRANCH  23  25
ENDBRANCH  10  23
ENDBRANCH   7  10
ENDBRANCH   4   6
BRANCH   3  27
ATOM     27  C   UNL     1      -8.836   4.044 -11.184  1.00  0.00     0.171 C 
BRANCH  27  28
ATOM     28  N   UNL     1      -9.961   3.240 -10.716  1.00  0.00    -0.342 N 
ATOM     29  C   UNL     1     -10.120   2.875  -9.398  1.00  0.00     0.245 C 
ATOM     30  O   UNL     1      -9.334   3.212  -8.514  1.00  0.00    -0.273 OA
ATOM     31  H   UNL     1     -10.712   3.021 -11.369  1.00  0.00     0.164 HD
BRANCH  29  32
ATOM     32  C   UNL     1     -11.436   2.137  -9.073  1.00  0.00     0.200 C 
BRANCH  32  33
ATOM     33  N   UNL     1     -12.319   3.064  -8.354  1.00  0.00    -0.340 N 
ATOM     34  C   UNL     1     -12.998   2.671  -7.219  1.00  0.00     0.243 CG0
ATOM     35  O   UNL     1     -12.945   1.518  -6.797  1.00  0.00    -0.273 OA
ATOM     36  H   UNL     1     -12.406   4.014  -8.696  1.00  0.00     0.164 HD
ATOM     37  G   UNL     1     -13.991   3.697  -6.649  1.00  0.00     0.000 G0
ENDBRANCH  32  33
BRANCH  32  38
ATOM     38  C   UNL     1     -12.086   1.551 -10.348  1.00  0.00     0.143 C 
ATOM     39  C   UNL     1     -12.824   0.237 -10.123  1.00  0.00     0.041 C 
BRANCH  38  40
ATOM     40  O   UNL     1     -12.998   2.508 -10.920  1.00  0.00    -0.391 OA
ATOM     41  H   UNL     1     -12.737   2.620 -11.854  1.00  0.00     0.211 HD
ENDBRANCH  38  40
ENDBRANCH  32  38
ENDBRANCH  29  32
ENDBRANCH  27  28
BRANCH  27  42
ATOM     42  C   UNL     1      -8.156   3.405 -12.420  1.00  0.00     0.015 C 
ATOM     43  C   UNL     1      -8.316   1.886 -12.551  1.00  0.00     0.010 C 
ATOM     44  C   UNL     1      -8.568   4.097 -13.723  1.00  0.00     0.010 C 
ENDBRANCH  27  42
ENDBRANCH   3  27
TORSDOF 5
ENDMDL
MODEL 38
REMARK VINA RESULT:    -4.460      5.523      8.340
REMARK INTER + INTRA:         -10.448
REMARK INTER:                  -8.209
REMARK INTRA:                  -2.238
REMARK UNBOUND:                -2.467
REMARK SMILES CC[C@H](C)[C@H]1NC(=O)c2coc(n2)[C@H](C(C)C)NC(=O)[C@H]([C@@H](C)O)NC(=O)[C@H](C)NC(=O)c2csc1n2
REMARK SMILES IDX 11 1 13 2 12 3 9 4 10 5 7 6 6 7 8 8 5 10 36 11 35 12 34 13
REMARK SMILES IDX 37 14 33 15 31 16 32 17 30 18 28 20 29 21 3 23 4 24 2 25
REMARK SMILES IDX 1 26 14 27 18 28 19 29 20 30 21 32 25 33 26 34 27 35 22 38
REMARK SMILES IDX 23 39 24 40 15 42 16 43 17 44
REMARK H PARENT 6 9 30 19 18 31 25 36 24 41
REMARK Flexibility Score:   94.900
ROOT
ATOM      1  O   UNL     1      -3.037   2.894  -6.793  1.00  0.00    -0.446 OA
ATOM      2  N   UNL     1      -5.196   2.361  -6.422  1.00  0.00    -0.207 NA
ATOM      3  C   UNL     1      -4.165   2.262  -7.243  1.00  0.00     0.217 A 
ATOM      4  C   UNL     1      -4.705   3.084  -5.348  1.00  0.00     0.167 A 
ATOM      5  C   UNL     1      -3.390   3.405  -5.580  1.00  0.00     0.231 A 
ENDROOT
BRANCH   4   6
ATOM      6  C   UNL     1      -5.516   3.445  -4.198  1.00  0.00     0.273 C 
ATOM      7  N   UNL     1      -5.949   2.338  -3.513  1.00  0.00    -0.341 N 
ATOM      8  O   UNL     1      -5.794   4.601  -3.901  1.00  0.00    -0.267 OA
ATOM      9  H   UNL     1      -5.716   1.442  -3.931  1.00  0.00     0.164 HD
BRANCH   7  10
ATOM     10  C   UNL     1      -6.967   2.394  -2.481  1.00  0.00     0.145 C 
BRANCH  10  11
ATOM     11  C   UNL     1      -8.321   2.439  -3.173  1.00  0.00     0.116 A 
ATOM     12  S   UNL     1      -9.493   3.604  -2.683  1.00  0.00    -0.124 S 
ATOM     13  C   UNL     1     -10.561   3.024  -3.884  1.00  0.00     0.101 A 
ATOM     14  N   UNL     1      -8.693   1.646  -4.164  1.00  0.00    -0.234 NA
ATOM     15  C   UNL     1      -9.979   1.989  -4.590  1.00  0.00     0.139 A 
BRANCH  15  16
ATOM     16  C   UNL     1     -10.631   1.298  -5.705  1.00  0.00     0.271 C 
ATOM     17  O   UNL     1     -11.660   0.645  -5.571  1.00  0.00    -0.267 OA
ATOM     18  N   UNL     1      -9.977   1.455  -6.909  1.00  0.00    -0.339 N 
ATOM     19  H   UNL     1      -9.076   1.925  -6.867  1.00  0.00     0.164 HD
BRANCH  18  20
ATOM     20  C   UNL     1     -10.443   0.783  -8.114  1.00  0.00     0.168 CG0
ATOM     21  C   UNL     1     -11.574   1.566  -8.785  1.00  0.00     0.041 C 
ATOM     22  G   UNL     1      -9.328   0.584  -9.153  1.00  0.00     0.000 G0
ENDBRANCH  18  20
ENDBRANCH  15  16
ENDBRANCH  10  11
BRANCH  10  23
ATOM     23  C   UNL     1      -6.852   1.213  -1.482  1.00  0.00     0.015 C 
ATOM     24  C   UNL     1      -6.621  -0.144  -2.166  1.00  0.00     0.010 C 
BRANCH  23  25
ATOM     25  C   UNL     1      -5.746   1.429  -0.424  1.00  0.00     0.002 C 
ATOM     26  C   UNL     1      -5.885   2.726   0.360  1.00  0.00     0.004 C 
ENDBRANCH  23  25
ENDBRANCH  10  23
ENDBRANCH   7  10
ENDBRANCH   4   6
BRANCH   3  27
ATOM     27  C   UNL     1      -4.141   1.593  -8.590  1.00  0.00     0.171 C 
BRANCH  27  28
ATOM     28  N   UNL     1      -5.363   1.963  -9.295  1.00  0.00    -0.342 N 
ATOM     29  C   UNL     1      -6.193   1.038  -9.887  1.00  0.00     0.245 C 
ATOM     30  O   UNL     1      -5.973  -0.172  -9.852  1.00  0.00    -0.273 OA
ATOM     31  H   UNL     1      -5.671   2.935  -9.266  1.00  0.00     0.164 HD
BRANCH  29  32
ATOM     32  C   UNL     1      -7.504   1.606 -10.471  1.00  0.00     0.200 C 
BRANCH  32  33
ATOM     33  N   UNL     1      -8.508   1.642  -9.401  1.00  0.00    -0.340 N 
ATOM     34  C   UNL     1      -9.346   0.571  -9.169  1.00  0.00     0.243 CG0
ATOM     35  O   UNL     1      -9.333  -0.430  -9.882  1.00  0.00    -0.273 OA
ATOM     36  H   UNL     1      -8.563   2.467  -8.815  1.00  0.00     0.164 HD
ATOM     37  G   UNL     1     -10.438   0.796  -8.111  1.00  0.00     0.000 G0
ENDBRANCH  32  33
BRANCH  32  38
ATOM     38  C   UNL     1      -7.277   2.985 -11.132  1.00  0.00     0.143 C 
ATOM     39  C   UNL     1      -6.850   2.913 -12.594  1.00  0.00     0.041 C 
BRANCH  38  40
ATOM     40  O   UNL     1      -8.474   3.782 -11.034  1.00  0.00    -0.391 OA
ATOM     41  H   UNL     1      -8.721   4.027 -11.946  1.00  0.00     0.211 HD
ENDBRANCH  38  40
ENDBRANCH  32  38
ENDBRANCH  29  32
ENDBRANCH  27  28
BRANCH  27  42
ATOM     42  C   UNL     1      -2.887   1.812  -9.472  1.00  0.00     0.015 C 
ATOM     43  C   UNL     1      -2.338   0.559 -10.163  1.00  0.00     0.010 C 
ATOM     44  C   UNL     1      -3.094   2.935 -10.494  1.00  0.00     0.010 C 
ENDBRANCH  27  42
ENDBRANCH   3  27
TORSDOF 5
ENDMDL
MODEL 39
REMARK VINA RESULT:    -4.394      5.383     10.114
REMARK INTER + INTRA:         -10.330
REMARK INTER:                  -8.429
REMARK INTRA:                  -1.901
REMARK UNBOUND:                -2.467
REMARK SMILES CC[C@H](C)[C@H]1NC(=O)c2coc(n2)[C@H](C(C)C)NC(=O)[C@H]([C@@H](C)O)NC(=O)[C@H](C)NC(=O)c2csc1n2
REMARK SMILES IDX 11 1 13 2 12 3 9 4 10 5 7 6 6 7 8 8 5 10 36 11 35 12 34 13
REMARK SMILES IDX 37 14 33 15 31 16 32 17 30 18 28 20 29 21 3 23 4 24 2 25
REMARK SMILES IDX 1 26 14 27 18 28 19 29 20 30 21 32 25 33 26 34 27 35 22 38
REMARK SMILES IDX 23 39 24 40 15 42 16 43 17 44
REMARK H PARENT 6 9 30 19 18 31 25 36 24 41
REMARK Flexibility Score:   94.900
ROOT
ATOM      1  O   UNL     1      -8.338   2.861  -8.463  1.00  0.00    -0.446 OA
ATOM      2  N   UNL     1      -8.964   1.044  -7.285  1.00  0.00    -0.207 NA
ATOM      3  C   UNL     1      -7.954   1.759  -7.746  1.00  0.00     0.217 A 
ATOM      4  C   UNL     1     -10.088   1.735  -7.704  1.00  0.00     0.167 A 
ATOM      5  C   UNL     1      -9.700   2.840  -8.420  1.00  0.00     0.231 A 
ENDROOT
BRANCH   4   6
ATOM      6  C   UNL     1     -11.442   1.290  -7.425  1.00  0.00     0.273 C 
ATOM      7  N   UNL     1     -12.136   2.207  -6.676  1.00  0.00    -0.341 N 
ATOM      8  O   UNL     1     -11.892   0.213  -7.798  1.00  0.00    -0.267 OA
ATOM      9  H   UNL     1     -11.603   3.013  -6.362  1.00  0.00     0.164 HD
BRANCH   7  10
ATOM     10  C   UNL     1     -13.411   1.916  -6.051  1.00  0.00     0.145 C 
BRANCH  10  11
ATOM     11  C   UNL     1     -13.126   1.284  -4.696  1.00  0.00     0.116 A 
ATOM     12  S   UNL     1     -14.292   0.238  -3.978  1.00  0.00    -0.124 S 
ATOM     13  C   UNL     1     -13.242  -0.013  -2.654  1.00  0.00     0.101 A 
ATOM     14  N   UNL     1     -12.017   1.459  -3.996  1.00  0.00    -0.234 NA
ATOM     15  C   UNL     1     -12.070   0.700  -2.824  1.00  0.00     0.139 A 
BRANCH  15  16
ATOM     16  C   UNL     1     -10.957   0.672  -1.874  1.00  0.00     0.271 C 
ATOM     17  O   UNL     1     -11.120   0.606  -0.660  1.00  0.00    -0.267 OA
ATOM     18  N   UNL     1      -9.717   0.726  -2.476  1.00  0.00    -0.339 N 
ATOM     19  H   UNL     1      -9.717   0.891  -3.479  1.00  0.00     0.164 HD
BRANCH  18  20
ATOM     20  C   UNL     1      -8.496   0.776  -1.684  1.00  0.00     0.168 CG0
ATOM     21  C   UNL     1      -7.755  -0.562  -1.718  1.00  0.00     0.041 C 
ATOM     22  G   UNL     1      -7.522   1.865  -2.163  1.00  0.00     0.000 G0
ENDBRANCH  18  20
ENDBRANCH  15  16
ENDBRANCH  10  11
BRANCH  10  23
ATOM     23  C   UNL     1     -14.310   3.176  -5.938  1.00  0.00     0.015 C 
ATOM     24  C   UNL     1     -13.518   4.494  -5.981  1.00  0.00     0.010 C 
BRANCH  23  25
ATOM     25  C   UNL     1     -15.410   3.225  -7.023  1.00  0.00     0.002 C 
ATOM     26  C   UNL     1     -15.871   4.633  -7.373  1.00  0.00     0.004 C 
ENDBRANCH  23  25
ENDBRANCH  10  23
ENDBRANCH   7  10
ENDBRANCH   4   6
BRANCH   3  27
ATOM     27  C   UNL     1      -6.488   1.454  -7.605  1.00  0.00     0.171 C 
BRANCH  27  28
ATOM     28  N   UNL     1      -6.159   1.489  -6.184  1.00  0.00    -0.342 N 
ATOM     29  C   UNL     1      -6.127   2.656  -5.454  1.00  0.00     0.245 C 
ATOM     30  O   UNL     1      -6.390   3.754  -5.942  1.00  0.00    -0.273 OA
ATOM     31  H   UNL     1      -6.042   0.608  -5.686  1.00  0.00     0.164 HD
BRANCH  29  32
ATOM     32  C   UNL     1      -5.886   2.480  -3.940  1.00  0.00     0.200 C 
BRANCH  32  33
ATOM     33  N   UNL     1      -6.938   1.606  -3.404  1.00  0.00    -0.340 N 
ATOM     34  C   UNL     1      -7.521   1.855  -2.179  1.00  0.00     0.243 CG0
ATOM     35  O   UNL     1      -7.145   2.776  -1.456  1.00  0.00    -0.273 OA
ATOM     36  H   UNL     1      -7.247   0.821  -3.964  1.00  0.00     0.164 HD
ATOM     37  G   UNL     1      -8.506   0.786  -1.680  1.00  0.00     0.000 G0
ENDBRANCH  32  33
BRANCH  32  38
ATOM     38  C   UNL     1      -4.461   1.954  -3.651  1.00  0.00     0.143 C 
ATOM     39  C   UNL     1      -3.350   2.919  -4.049  1.00  0.00     0.041 C 
BRANCH  38  40
ATOM     40  O   UNL     1      -4.326   1.637  -2.252  1.00  0.00    -0.391 OA
ATOM     41  H   UNL     1      -4.285   2.488  -1.776  1.00  0.00     0.211 HD
ENDBRANCH  38  40
ENDBRANCH  32  38
ENDBRANCH  29  32
ENDBRANCH  27  28
BRANCH  27  42
ATOM     42  C   UNL     1      -5.960   0.164  -8.280  1.00  0.00     0.015 C 
ATOM     43  C   UNL     1      -6.910  -0.490  -9.291  1.00  0.00     0.010 C 
ATOM     44  C   UNL     1      -4.577   0.370  -8.907  1.00  0.00     0.010 C 
ENDBRANCH  27  42
ENDBRANCH   3  27
TORSDOF 5
ENDMDL
MODEL 40
REMARK VINA RESULT:    -4.374      7.204     10.307
REMARK INTER + INTRA:         -10.294
REMARK INTER:                  -8.170
REMARK INTRA:                  -2.123
REMARK UNBOUND:                -2.467
REMARK SMILES CC[C@H](C)[C@H]1NC(=O)c2coc(n2)[C@H](C(C)C)NC(=O)[C@H]([C@@H](C)O)NC(=O)[C@H](C)NC(=O)c2csc1n2
REMARK SMILES IDX 11 1 13 2 12 3 9 4 10 5 7 6 6 7 8 8 5 10 36 11 35 12 34 13
REMARK SMILES IDX 37 14 33 15 31 16 32 17 30 18 28 20 29 21 3 23 4 24 2 25
REMARK SMILES IDX 1 26 14 27 18 28 19 29 20 30 21 32 25 33 26 34 27 35 22 38
REMARK SMILES IDX 23 39 24 40 15 42 16 43 17 44
REMARK H PARENT 6 9 30 19 18 31 25 36 24 41
REMARK Flexibility Score:   94.900
ROOT
ATOM      1  O   UNL     1      -6.909   3.044  -4.399  1.00  0.00    -0.446 OA
ATOM      2  N   UNL     1      -7.744   1.532  -5.848  1.00  0.00    -0.207 NA
ATOM      3  C   UNL     1      -7.999   2.335  -4.830  1.00  0.00     0.217 A 
ATOM      4  C   UNL     1      -6.404   1.746  -6.121  1.00  0.00     0.167 A 
ATOM      5  C   UNL     1      -5.902   2.668  -5.235  1.00  0.00     0.231 A 
ENDROOT
BRANCH   4   6
ATOM      6  C   UNL     1      -5.687   1.047  -7.174  1.00  0.00     0.273 C 
ATOM      7  N   UNL     1      -4.847   1.886  -7.862  1.00  0.00    -0.341 N 
ATOM      8  O   UNL     1      -5.841  -0.142  -7.424  1.00  0.00    -0.267 OA
ATOM      9  H   UNL     1      -4.894   2.867  -7.602  1.00  0.00     0.164 HD
BRANCH   7  10
ATOM     10  C   UNL     1      -4.204   1.515  -9.107  1.00  0.00     0.145 C 
BRANCH  10  11
ATOM     11  C   UNL     1      -5.254   1.587 -10.206  1.00  0.00     0.116 A 
ATOM     12  S   UNL     1      -4.887   0.987 -11.780  1.00  0.00    -0.124 S 
ATOM     13  C   UNL     1      -6.468   1.385 -12.293  1.00  0.00     0.101 A 
ATOM     14  N   UNL     1      -6.476   2.072 -10.058  1.00  0.00    -0.234 NA
ATOM     15  C   UNL     1      -7.187   1.944 -11.253  1.00  0.00     0.139 A 
BRANCH  15  16
ATOM     16  C   UNL     1      -8.584   2.367 -11.367  1.00  0.00     0.271 C 
ATOM     17  O   UNL     1      -9.125   2.593 -12.444  1.00  0.00    -0.267 OA
ATOM     18  N   UNL     1      -9.226   2.481 -10.152  1.00  0.00    -0.339 N 
ATOM     19  H   UNL     1      -8.640   2.375  -9.328  1.00  0.00     0.164 HD
BRANCH  18  20
ATOM     20  C   UNL     1     -10.600   2.956 -10.066  1.00  0.00     0.168 CG0
ATOM     21  C   UNL     1     -11.572   1.802  -9.810  1.00  0.00     0.041 C 
ATOM     22  G   UNL     1     -10.801   3.997  -8.953  1.00  0.00     0.000 G0
ENDBRANCH  18  20
ENDBRANCH  15  16
ENDBRANCH  10  11
BRANCH  10  23
ATOM     23  C   UNL     1      -2.967   2.400  -9.413  1.00  0.00     0.015 C 
ATOM     24  C   UNL     1      -2.439   3.156  -8.182  1.00  0.00     0.010 C 
BRANCH  23  25
ATOM     25  C   UNL     1      -1.801   1.601 -10.040  1.00  0.00     0.002 C 
ATOM     26  C   UNL     1      -0.462   1.817  -9.350  1.00  0.00     0.004 C 
ENDBRANCH  23  25
ENDBRANCH  10  23
ENDBRANCH   7  10
ENDBRANCH   4   6
BRANCH   3  27
ATOM     27  C   UNL     1      -9.307   2.491  -4.104  1.00  0.00     0.171 C 
BRANCH  27  28
ATOM     28  N   UNL     1     -10.312   2.906  -5.078  1.00  0.00    -0.342 N 
ATOM     29  C   UNL     1     -10.468   4.213  -5.480  1.00  0.00     0.245 C 
ATOM     30  O   UNL     1      -9.761   5.128  -5.059  1.00  0.00    -0.273 OA
ATOM     31  H   UNL     1     -10.857   2.188  -5.555  1.00  0.00     0.164 HD
BRANCH  29  32
ATOM     32  C   UNL     1     -11.494   4.437  -6.611  1.00  0.00     0.200 C 
BRANCH  32  33
ATOM     33  N   UNL     1     -11.170   3.525  -7.714  1.00  0.00    -0.340 N 
ATOM     34  C   UNL     1     -10.782   4.003  -8.948  1.00  0.00     0.243 CG0
ATOM     35  O   UNL     1     -10.751   5.206  -9.199  1.00  0.00    -0.273 OA
ATOM     36  H   UNL     1     -11.215   2.526  -7.547  1.00  0.00     0.164 HD
ATOM     37  G   UNL     1     -10.607   2.944 -10.049  1.00  0.00     0.000 G0
ENDBRANCH  32  33
BRANCH  32  38
ATOM     38  C   UNL     1     -12.944   4.274  -6.099  1.00  0.00     0.143 C 
ATOM     39  C   UNL     1     -13.641   3.013  -6.597  1.00  0.00     0.041 C 
BRANCH  38  40
ATOM     40  O   UNL     1     -12.962   4.281  -4.659  1.00  0.00    -0.391 OA
ATOM     41  H   UNL     1     -12.630   3.410  -4.371  1.00  0.00     0.211 HD
ENDBRANCH  38  40
ENDBRANCH  32  38
ENDBRANCH  29  32
ENDBRANCH  27  28
BRANCH  27  42
ATOM     42  C   UNL     1      -9.798   1.294  -3.254  1.00  0.00     0.015 C 
ATOM     43  C   UNL     1     -10.597   0.228  -4.012  1.00  0.00     0.010 C 
ATOM     44  C   UNL     1      -8.654   0.642  -2.469  1.00  0.00     0.010 C 
ENDBRANCH  27  42
ENDBRANCH   3  27
TORSDOF 5
ENDMDL
MODEL 41
REMARK VINA RESULT:    -4.294      6.016      8.260
REMARK INTER + INTRA:         -10.150
REMARK INTER:                  -7.745
REMARK INTRA:                  -2.405
REMARK UNBOUND:                -2.467
REMARK SMILES CC[C@H](C)[C@H]1NC(=O)c2coc(n2)[C@H](C(C)C)NC(=O)[C@H]([C@@H](C)O)NC(=O)[C@H](C)NC(=O)c2csc1n2
REMARK SMILES IDX 11 1 13 2 12 3 9 4 10 5 7 6 6 7 8 8 5 10 36 11 35 12 34 13
REMARK SMILES IDX 37 14 33 15 31 16 32 17 30 18 28 20 29 21 3 23 4 24 2 25
REMARK SMILES IDX 1 26 14 27 18 28 19 29 20 30 21 32 25 33 26 34 27 35 22 38
REMARK SMILES IDX 23 39 24 40 15 42 16 43 17 44
REMARK H PARENT 6 9 30 19 18 31 25 36 24 41
REMARK Flexibility Score:   94.900
ROOT
ATOM      1  O   UNL     1      -6.214   4.028  -4.802  1.00  0.00    -0.446 OA
ATOM      2  N   UNL     1      -7.420   2.352  -3.899  1.00  0.00    -0.207 NA
ATOM      3  C   UNL     1      -6.847   2.829  -4.990  1.00  0.00     0.217 A 
ATOM      4  C   UNL     1      -7.122   3.287  -2.923  1.00  0.00     0.167 A 
ATOM      5  C   UNL     1      -6.387   4.305  -3.479  1.00  0.00     0.231 A 
ENDROOT
BRANCH   4   6
ATOM      6  C   UNL     1      -7.574   3.170  -1.547  1.00  0.00     0.273 C 
ATOM      7  N   UNL     1      -8.178   1.961  -1.310  1.00  0.00    -0.341 N 
ATOM      8  O   UNL     1      -7.449   4.060  -0.715  1.00  0.00    -0.267 OA
ATOM      9  H   UNL     1      -8.293   1.360  -2.121  1.00  0.00     0.164 HD
BRANCH   7  10
ATOM     10  C   UNL     1      -8.935   1.677  -0.107  1.00  0.00     0.145 C 
BRANCH  10  11
ATOM     11  C   UNL     1     -10.404   1.919  -0.418  1.00  0.00     0.116 A 
ATOM     12  S   UNL     1     -11.501   2.277   0.862  1.00  0.00    -0.124 S 
ATOM     13  C   UNL     1     -12.768   2.426  -0.276  1.00  0.00     0.101 A 
ATOM     14  N   UNL     1     -10.937   1.893  -1.629  1.00  0.00    -0.234 NA
ATOM     15  C   UNL     1     -12.298   2.202  -1.555  1.00  0.00     0.139 A 
BRANCH  15  16
ATOM     16  C   UNL     1     -13.134   2.283  -2.755  1.00  0.00     0.271 C 
ATOM     17  O   UNL     1     -14.326   1.993  -2.755  1.00  0.00    -0.267 OA
ATOM     18  N   UNL     1     -12.453   2.716  -3.873  1.00  0.00    -0.339 N 
ATOM     19  H   UNL     1     -11.447   2.816  -3.769  1.00  0.00     0.164 HD
BRANCH  18  20
ATOM     20  C   UNL     1     -13.108   2.793  -5.172  1.00  0.00     0.168 CG0
ATOM     21  C   UNL     1     -13.363   4.246  -5.580  1.00  0.00     0.041 C 
ATOM     22  G   UNL     1     -12.290   2.127  -6.290  1.00  0.00     0.000 G0
ENDBRANCH  18  20
ENDBRANCH  15  16
ENDBRANCH  10  11
BRANCH  10  23
ATOM     23  C   UNL     1      -8.671   0.243   0.425  1.00  0.00     0.015 C 
ATOM     24  C   UNL     1      -7.525  -0.477  -0.306  1.00  0.00     0.010 C 
BRANCH  23  25
ATOM     25  C   UNL     1      -8.387   0.211   1.944  1.00  0.00     0.002 C 
ATOM     26  C   UNL     1      -9.583  -0.207   2.788  1.00  0.00     0.004 C 
ENDBRANCH  23  25
ENDBRANCH  10  23
ENDBRANCH   7  10
ENDBRANCH   4   6
BRANCH   3  27
ATOM     27  C   UNL     1      -6.875   2.224  -6.366  1.00  0.00     0.171 C 
BRANCH  27  28
ATOM     28  N   UNL     1      -8.116   2.639  -7.012  1.00  0.00    -0.342 N 
ATOM     29  C   UNL     1      -9.113   1.754  -7.353  1.00  0.00     0.245 C 
ATOM     30  O   UNL     1      -9.039   0.548  -7.124  1.00  0.00    -0.273 OA
ATOM     31  H   UNL     1      -8.297   3.636  -7.129  1.00  0.00     0.164 HD
BRANCH  29  32
ATOM     32  C   UNL     1     -10.403   2.395  -7.908  1.00  0.00     0.200 C 
BRANCH  32  33
ATOM     33  N   UNL     1     -11.208   2.867  -6.775  1.00  0.00    -0.340 N 
ATOM     34  C   UNL     1     -12.262   2.124  -6.287  1.00  0.00     0.243 CG0
ATOM     35  O   UNL     1     -12.615   1.071  -6.815  1.00  0.00    -0.273 OA
ATOM     36  H   UNL     1     -10.961   3.747  -6.337  1.00  0.00     0.164 HD
ATOM     37  G   UNL     1     -13.102   2.798  -5.190  1.00  0.00     0.000 G0
ENDBRANCH  32  33
BRANCH  32  38
ATOM     38  C   UNL     1     -10.084   3.513  -8.928  1.00  0.00     0.143 C 
ATOM     39  C   UNL     1     -11.197   3.769  -9.939  1.00  0.00     0.041 C 
BRANCH  38  40
ATOM     40  O   UNL     1      -9.789   4.742  -8.237  1.00  0.00    -0.391 OA
ATOM     41  H   UNL     1      -9.413   4.492  -7.372  1.00  0.00     0.211 HD
ENDBRANCH  38  40
ENDBRANCH  32  38
ENDBRANCH  29  32
ENDBRANCH  27  28
BRANCH  27  42
ATOM     42  C   UNL     1      -5.648   2.470  -7.278  1.00  0.00     0.015 C 
ATOM     43  C   UNL     1      -4.326   1.874  -6.783  1.00  0.00     0.010 C 
ATOM     44  C   UNL     1      -5.915   2.042  -8.725  1.00  0.00     0.010 C 
ENDBRANCH  27  42
ENDBRANCH   3  27
TORSDOF 5
ENDMDL
MODEL 42
REMARK VINA RESULT:    -4.253      6.682      9.841
REMARK INTER + INTRA:         -10.077
REMARK INTER:                  -7.798
REMARK INTRA:                  -2.278
REMARK UNBOUND:                -2.467
REMARK SMILES CC[C@H](C)[C@H]1NC(=O)c2coc(n2)[C@H](C(C)C)NC(=O)[C@H]([C@@H](C)O)NC(=O)[C@H](C)NC(=O)c2csc1n2
REMARK SMILES IDX 11 1 13 2 12 3 9 4 10 5 7 6 6 7 8 8 5 10 36 11 35 12 34 13
REMARK SMILES IDX 37 14 33 15 31 16 32 17 30 18 28 20 29 21 3 23 4 24 2 25
REMARK SMILES IDX 1 26 14 27 18 28 19 29 20 30 21 32 25 33 26 34 27 35 22 38
REMARK SMILES IDX 23 39 24 40 15 42 16 43 17 44
REMARK H PARENT 6 9 30 19 18 31 25 36 24 41
REMARK Flexibility Score:   94.900
ROOT
ATOM      1  O   UNL     1     -12.076   4.370  -8.725  1.00  0.00    -0.446 OA
ATOM      2  N   UNL     1     -11.566   4.554  -6.537  1.00  0.00    -0.207 NA
ATOM      3  C   UNL     1     -12.524   4.572  -7.447  1.00  0.00     0.217 A 
ATOM      4  C   UNL     1     -10.415   4.297  -7.262  1.00  0.00     0.167 A 
ATOM      5  C   UNL     1     -10.733   4.186  -8.593  1.00  0.00     0.231 A 
ENDROOT
BRANCH   4   6
ATOM      6  C   UNL     1      -9.099   4.204  -6.654  1.00  0.00     0.273 C 
ATOM      7  N   UNL     1      -8.614   2.921  -6.682  1.00  0.00    -0.341 N 
ATOM      8  O   UNL     1      -8.513   5.158  -6.156  1.00  0.00    -0.267 OA
ATOM      9  H   UNL     1      -9.251   2.217  -7.044  1.00  0.00     0.164 HD
BRANCH   7  10
ATOM     10  C   UNL     1      -7.447   2.499  -5.933  1.00  0.00     0.145 C 
BRANCH  10  11
ATOM     11  C   UNL     1      -7.922   2.024  -4.568  1.00  0.00     0.116 A 
ATOM     12  S   UNL     1      -6.768   1.626  -3.352  1.00  0.00    -0.124 S 
ATOM     13  C   UNL     1      -8.043   1.277  -2.267  1.00  0.00     0.101 A 
ATOM     14  N   UNL     1      -9.189   1.895  -4.209  1.00  0.00    -0.234 NA
ATOM     15  C   UNL     1      -9.265   1.481  -2.877  1.00  0.00     0.139 A 
BRANCH  15  16
ATOM     16  C   UNL     1     -10.551   1.294  -2.202  1.00  0.00     0.271 C 
ATOM     17  O   UNL     1     -10.653   0.768  -1.099  1.00  0.00    -0.267 OA
ATOM     18  N   UNL     1     -11.627   1.765  -2.925  1.00  0.00    -0.339 N 
ATOM     19  H   UNL     1     -11.424   2.076  -3.871  1.00  0.00     0.164 HD
BRANCH  18  20
ATOM     20  C   UNL     1     -12.991   1.603  -2.440  1.00  0.00     0.168 CG0
ATOM     21  C   UNL     1     -13.495   2.878  -1.760  1.00  0.00     0.041 C 
ATOM     22  G   UNL     1     -13.981   1.245  -3.560  1.00  0.00     0.000 G0
ENDBRANCH  18  20
ENDBRANCH  15  16
ENDBRANCH  10  11
BRANCH  10  23
ATOM     23  C   UNL     1      -6.629   1.415  -6.685  1.00  0.00     0.015 C 
ATOM     24  C   UNL     1      -6.972   1.322  -8.181  1.00  0.00     0.010 C 
BRANCH  23  25
ATOM     25  C   UNL     1      -5.102   1.609  -6.538  1.00  0.00     0.002 C 
ATOM     26  C   UNL     1      -4.688   3.041  -6.228  1.00  0.00     0.004 C 
ENDBRANCH  23  25
ENDBRANCH  10  23
ENDBRANCH   7  10
ENDBRANCH   4   6
BRANCH   3  27
ATOM     27  C   UNL     1     -13.987   4.836  -7.218  1.00  0.00     0.171 C 
BRANCH  27  28
ATOM     28  N   UNL     1     -14.441   3.945  -6.156  1.00  0.00    -0.342 N 
ATOM     29  C   UNL     1     -15.440   3.015  -6.338  1.00  0.00     0.245 C 
ATOM     30  O   UNL     1     -16.013   2.856  -7.415  1.00  0.00    -0.273 OA
ATOM     31  H   UNL     1     -13.936   3.939  -5.271  1.00  0.00     0.164 HD
BRANCH  29  32
ATOM     32  C   UNL     1     -15.693   2.076  -5.140  1.00  0.00     0.200 C 
BRANCH  32  33
ATOM     33  N   UNL     1     -14.635   2.300  -4.147  1.00  0.00    -0.340 N 
ATOM     34  C   UNL     1     -13.971   1.244  -3.558  1.00  0.00     0.243 CG0
ATOM     35  O   UNL     1     -14.276   0.076  -3.787  1.00  0.00    -0.273 OA
ATOM     36  H   UNL     1     -14.383   3.253  -3.915  1.00  0.00     0.164 HD
ATOM     37  G   UNL     1     -12.987   1.619  -2.438  1.00  0.00     0.000 G0
ENDBRANCH  32  33
BRANCH  32  38
ATOM     38  C   UNL     1     -17.114   2.268  -4.561  1.00  0.00     0.143 C 
ATOM     39  C   UNL     1     -17.410   3.690  -4.097  1.00  0.00     0.041 C 
BRANCH  38  40
ATOM     40  O   UNL     1     -18.101   1.881  -5.538  1.00  0.00    -0.391 OA
ATOM     41  H   UNL     1     -18.580   1.118  -5.162  1.00  0.00     0.211 HD
ENDBRANCH  38  40
ENDBRANCH  32  38
ENDBRANCH  29  32
ENDBRANCH  27  28
BRANCH  27  42
ATOM     42  C   UNL     1     -14.414   6.301  -6.953  1.00  0.00     0.015 C 
ATOM     43  C   UNL     1     -13.942   7.325  -7.991  1.00  0.00     0.010 C 
ATOM     44  C   UNL     1     -15.925   6.426  -6.732  1.00  0.00     0.010 C 
ENDBRANCH  27  42
ENDBRANCH   3  27
TORSDOF 5
ENDMDL
MODEL 43
REMARK VINA RESULT:    -4.243      4.169      8.491
REMARK INTER + INTRA:         -10.059
REMARK INTER:                  -8.643
REMARK INTRA:                  -1.417
REMARK UNBOUND:                -2.467
REMARK SMILES CC[C@H](C)[C@H]1NC(=O)c2coc(n2)[C@H](C(C)C)NC(=O)[C@H]([C@@H](C)O)NC(=O)[C@H](C)NC(=O)c2csc1n2
REMARK SMILES IDX 11 1 13 2 12 3 9 4 10 5 7 6 6 7 8 8 5 10 36 11 35 12 34 13
REMARK SMILES IDX 37 14 33 15 31 16 32 17 30 18 28 20 29 21 3 23 4 24 2 25
REMARK SMILES IDX 1 26 14 27 18 28 19 29 20 30 21 32 25 33 26 34 27 35 22 38
REMARK SMILES IDX 23 39 24 40 15 42 16 43 17 44
REMARK H PARENT 6 9 30 19 18 31 25 36 24 41
REMARK Flexibility Score:   94.900
ROOT
ATOM      1  O   UNL     1      -3.314  -1.303   5.385  1.00  0.00    -0.446 OA
ATOM      2  N   UNL     1      -3.818   0.843   4.913  1.00  0.00    -0.207 NA
ATOM      3  C   UNL     1      -3.095  -0.213   4.585  1.00  0.00     0.217 A 
ATOM      4  C   UNL     1      -4.583   0.411   5.982  1.00  0.00     0.167 A 
ATOM      5  C   UNL     1      -4.271  -0.897   6.265  1.00  0.00     0.231 A 
ENDROOT
BRANCH   4   6
ATOM      6  C   UNL     1      -5.528   1.267   6.679  1.00  0.00     0.273 C 
ATOM      7  N   UNL     1      -6.763   0.679   6.788  1.00  0.00    -0.341 N 
ATOM      8  O   UNL     1      -5.252   2.386   7.091  1.00  0.00    -0.267 OA
ATOM      9  H   UNL     1      -6.869  -0.215   6.317  1.00  0.00     0.164 HD
BRANCH   7  10
ATOM     10  C   UNL     1      -7.948   1.398   7.212  1.00  0.00     0.145 C 
BRANCH  10  11
ATOM     11  C   UNL     1      -8.579   2.016   5.973  1.00  0.00     0.116 A 
ATOM     12  S   UNL     1     -10.040   2.918   6.117  1.00  0.00    -0.124 S 
ATOM     13  C   UNL     1     -10.002   3.235   4.438  1.00  0.00     0.101 A 
ATOM     14  N   UNL     1      -8.084   1.934   4.749  1.00  0.00    -0.234 NA
ATOM     15  C   UNL     1      -8.891   2.649   3.861  1.00  0.00     0.139 A 
BRANCH  15  16
ATOM     16  C   UNL     1      -8.560   2.762   2.439  1.00  0.00     0.271 C 
ATOM     17  O   UNL     1      -9.395   2.632   1.550  1.00  0.00    -0.267 OA
ATOM     18  N   UNL     1      -7.228   3.026   2.203  1.00  0.00    -0.339 N 
ATOM     19  H   UNL     1      -6.619   3.000   3.016  1.00  0.00     0.164 HD
BRANCH  18  20
ATOM     20  C   UNL     1      -6.703   3.105   0.846  1.00  0.00     0.168 CG0
ATOM     21  C   UNL     1      -6.398   4.551   0.450  1.00  0.00     0.041 C 
ATOM     22  G   UNL     1      -5.416   2.285   0.659  1.00  0.00     0.000 G0
ENDBRANCH  18  20
ENDBRANCH  15  16
ENDBRANCH  10  11
BRANCH  10  23
ATOM     23  C   UNL     1      -8.937   0.492   7.991  1.00  0.00     0.015 C 
ATOM     24  C   UNL     1      -8.687  -1.010   7.774  1.00  0.00     0.010 C 
BRANCH  23  25
ATOM     25  C   UNL     1      -8.943   0.778   9.509  1.00  0.00     0.002 C 
ATOM     26  C   UNL     1      -7.599   0.548  10.187  1.00  0.00     0.004 C 
ENDBRANCH  23  25
ENDBRANCH  10  23
ENDBRANCH   7  10
ENDBRANCH   4   6
BRANCH   3  27
ATOM     27  C   UNL     1      -2.061  -0.301   3.496  1.00  0.00     0.171 C 
BRANCH  27  28
ATOM     28  N   UNL     1      -2.578   0.409   2.331  1.00  0.00    -0.342 N 
ATOM     29  C   UNL     1      -2.429   1.767   2.157  1.00  0.00     0.245 C 
ATOM     30  O   UNL     1      -1.835   2.480   2.964  1.00  0.00    -0.273 OA
ATOM     31  H   UNL     1      -2.981  -0.131   1.566  1.00  0.00     0.164 HD
BRANCH  29  32
ATOM     32  C   UNL     1      -2.928   2.317   0.804  1.00  0.00     0.200 C 
BRANCH  32  33
ATOM     33  N   UNL     1      -4.241   2.939   1.015  1.00  0.00    -0.340 N 
ATOM     34  C   UNL     1      -5.406   2.281   0.682  1.00  0.00     0.243 CG0
ATOM     35  O   UNL     1      -5.398   1.178   0.139  1.00  0.00    -0.273 OA
ATOM     36  H   UNL     1      -4.279   3.861   1.433  1.00  0.00     0.164 HD
ATOM     37  G   UNL     1      -6.699   3.101   0.827  1.00  0.00     0.000 G0
ENDBRANCH  32  33
BRANCH  32  38
ATOM     38  C   UNL     1      -1.898   3.282   0.172  1.00  0.00     0.143 C 
ATOM     39  C   UNL     1      -2.241   3.716  -1.248  1.00  0.00     0.041 C 
BRANCH  38  40
ATOM     40  O   UNL     1      -1.751   4.455   0.996  1.00  0.00    -0.391 OA
ATOM     41  H   UNL     1      -1.336   5.139   0.437  1.00  0.00     0.211 HD
ENDBRANCH  38  40
ENDBRANCH  32  38
ENDBRANCH  29  32
ENDBRANCH  27  28
BRANCH  27  42
ATOM     42  C   UNL     1      -0.620   0.146   3.842  1.00  0.00     0.015 C 
ATOM     43  C   UNL     1      -0.247   0.080   5.328  1.00  0.00     0.010 C 
ATOM     44  C   UNL     1       0.426  -0.589   2.998  1.00  0.00     0.010 C 
ENDBRANCH  27  42
ENDBRANCH   3  27
TORSDOF 5
ENDMDL
MODEL 44
REMARK VINA RESULT:    -4.221      5.272      9.756
REMARK INTER + INTRA:         -10.020
REMARK INTER:                  -7.835
REMARK INTRA:                  -2.185
REMARK UNBOUND:                -2.467
REMARK SMILES CC[C@H](C)[C@H]1NC(=O)c2coc(n2)[C@H](C(C)C)NC(=O)[C@H]([C@@H](C)O)NC(=O)[C@H](C)NC(=O)c2csc1n2
REMARK SMILES IDX 11 1 13 2 12 3 9 4 10 5 7 6 6 7 8 8 5 10 36 11 35 12 34 13
REMARK SMILES IDX 37 14 33 15 31 16 32 17 30 18 28 20 29 21 3 23 4 24 2 25
REMARK SMILES IDX 1 26 14 27 18 28 19 29 20 30 21 32 25 33 26 34 27 35 22 38
REMARK SMILES IDX 23 39 24 40 15 42 16 43 17 44
REMARK H PARENT 6 9 30 19 18 31 25 36 24 41
REMARK Flexibility Score:   94.900
ROOT
ATOM      1  O   UNL     1      -8.101   3.931  -6.659  1.00  0.00    -0.446 OA
ATOM      2  N   UNL     1      -8.783   2.118  -5.506  1.00  0.00    -0.207 NA
ATOM      3  C   UNL     1      -7.811   2.989  -5.708  1.00  0.00     0.217 A 
ATOM      4  C   UNL     1      -9.790   2.528  -6.362  1.00  0.00     0.167 A 
ATOM      5  C   UNL     1      -9.368   3.633  -7.061  1.00  0.00     0.231 A 
ENDROOT
BRANCH   4   6
ATOM      6  C   UNL     1     -11.061   1.836  -6.481  1.00  0.00     0.273 C 
ATOM      7  N   UNL     1     -12.052   2.462  -5.769  1.00  0.00    -0.341 N 
ATOM      8  O   UNL     1     -11.213   0.803  -7.123  1.00  0.00    -0.267 OA
ATOM      9  H   UNL     1     -11.757   3.258  -5.210  1.00  0.00     0.164 HD
BRANCH   7  10
ATOM     10  C   UNL     1     -13.345   1.859  -5.512  1.00  0.00     0.145 C 
BRANCH  10  11
ATOM     11  C   UNL     1     -13.306   1.267  -4.111  1.00  0.00     0.116 A 
ATOM     12  S   UNL     1     -14.561   0.202  -3.598  1.00  0.00    -0.124 S 
ATOM     13  C   UNL     1     -13.774   0.012  -2.093  1.00  0.00     0.101 A 
ATOM     14  N   UNL     1     -12.355   1.490  -3.219  1.00  0.00    -0.234 NA
ATOM     15  C   UNL     1     -12.610   0.755  -2.058  1.00  0.00     0.139 A 
BRANCH  15  16
ATOM     16  C   UNL     1     -11.696   0.782  -0.914  1.00  0.00     0.271 C 
ATOM     17  O   UNL     1     -12.060   0.547   0.233  1.00  0.00    -0.267 OA
ATOM     18  N   UNL     1     -10.396   1.093  -1.254  1.00  0.00    -0.339 N 
ATOM     19  H   UNL     1     -10.245   1.374  -2.219  1.00  0.00     0.164 HD
BRANCH  18  20
ATOM     20  C   UNL     1      -9.363   1.231  -0.237  1.00  0.00     0.168 CG0
ATOM     21  C   UNL     1      -8.336   0.100  -0.330  1.00  0.00     0.041 C 
ATOM     22  G   UNL     1      -8.604   2.564  -0.339  1.00  0.00     0.000 G0
ENDBRANCH  18  20
ENDBRANCH  15  16
ENDBRANCH  10  11
BRANCH  10  23
ATOM     23  C   UNL     1     -14.509   2.869  -5.695  1.00  0.00     0.015 C 
ATOM     24  C   UNL     1     -14.501   4.002  -4.656  1.00  0.00     0.010 C 
BRANCH  23  25
ATOM     25  C   UNL     1     -14.542   3.494  -7.108  1.00  0.00     0.002 C 
ATOM     26  C   UNL     1     -14.452   2.476  -8.237  1.00  0.00     0.004 C 
ENDBRANCH  23  25
ENDBRANCH  10  23
ENDBRANCH   7  10
ENDBRANCH   4   6
BRANCH   3  27
ATOM     27  C   UNL     1      -6.456   3.005  -5.054  1.00  0.00     0.171 C 
BRANCH  27  28
ATOM     28  N   UNL     1      -6.657   2.942  -3.610  1.00  0.00    -0.342 N 
ATOM     29  C   UNL     1      -6.189   3.908  -2.748  1.00  0.00     0.245 C 
ATOM     30  O   UNL     1      -5.580   4.905  -3.133  1.00  0.00    -0.273 OA
ATOM     31  H   UNL     1      -7.250   2.205  -3.229  1.00  0.00     0.164 HD
BRANCH  29  32
ATOM     32  C   UNL     1      -6.609   3.735  -1.273  1.00  0.00     0.200 C 
BRANCH  32  33
ATOM     33  N   UNL     1      -7.496   2.569  -1.180  1.00  0.00    -0.340 N 
ATOM     34  C   UNL     1      -8.591   2.567  -0.341  1.00  0.00     0.243 CG0
ATOM     35  O   UNL     1      -8.836   3.510   0.410  1.00  0.00    -0.273 OA
ATOM     36  H   UNL     1      -7.302   1.764  -1.764  1.00  0.00     0.164 HD
ATOM     37  G   UNL     1      -9.351   1.235  -0.240  1.00  0.00     0.000 G0
ENDBRANCH  32  33
BRANCH  32  38
ATOM     38  C   UNL     1      -5.378   3.632  -0.342  1.00  0.00     0.143 C 
ATOM     39  C   UNL     1      -5.330   4.698   0.747  1.00  0.00     0.041 C 
BRANCH  38  40
ATOM     40  O   UNL     1      -5.335   2.331   0.275  1.00  0.00    -0.391 OA
ATOM     41  H   UNL     1      -5.700   2.436   1.174  1.00  0.00     0.211 HD
ENDBRANCH  38  40
ENDBRANCH  32  38
ENDBRANCH  29  32
ENDBRANCH  27  28
BRANCH  27  42
ATOM     42  C   UNL     1      -5.422   1.956  -5.531  1.00  0.00     0.015 C 
ATOM     43  C   UNL     1      -4.176   2.524  -6.221  1.00  0.00     0.010 C 
ATOM     44  C   UNL     1      -5.016   0.998  -4.407  1.00  0.00     0.010 C 
ENDBRANCH  27  42
ENDBRANCH   3  27
TORSDOF 5
ENDMDL
MODEL 45
REMARK VINA RESULT:    -4.210      8.444     12.251
REMARK INTER + INTRA:         -10.000
REMARK INTER:                  -7.493
REMARK INTRA:                  -2.507
REMARK UNBOUND:                -2.467
REMARK SMILES CC[C@H](C)[C@H]1NC(=O)c2coc(n2)[C@H](C(C)C)NC(=O)[C@H]([C@@H](C)O)NC(=O)[C@H](C)NC(=O)c2csc1n2
REMARK SMILES IDX 11 1 13 2 12 3 9 4 10 5 7 6 6 7 8 8 5 10 36 11 35 12 34 13
REMARK SMILES IDX 37 14 33 15 31 16 32 17 30 18 28 20 29 21 3 23 4 24 2 25
REMARK SMILES IDX 1 26 14 27 18 28 19 29 20 30 21 32 25 33 26 34 27 35 22 38
REMARK SMILES IDX 23 39 24 40 15 42 16 43 17 44
REMARK H PARENT 6 9 30 19 18 31 25 36 24 41
REMARK Flexibility Score:   94.900
ROOT
ATOM      1  O   UNL     1     -15.522   5.525  -7.317  1.00  0.00    -0.446 OA
ATOM      2  N   UNL     1     -14.601   3.506  -6.920  1.00  0.00    -0.207 NA
ATOM      3  C   UNL     1     -15.691   4.250  -6.847  1.00  0.00     0.217 A 
ATOM      4  C   UNL     1     -13.660   4.339  -7.501  1.00  0.00     0.167 A 
ATOM      5  C   UNL     1     -14.228   5.567  -7.741  1.00  0.00     0.231 A 
ENDROOT
BRANCH   4   6
ATOM      6  C   UNL     1     -12.291   3.930  -7.760  1.00  0.00     0.273 C 
ATOM      7  N   UNL     1     -12.173   2.566  -7.840  1.00  0.00    -0.341 N 
ATOM      8  O   UNL     1     -11.357   4.716  -7.867  1.00  0.00    -0.267 OA
ATOM      9  H   UNL     1     -13.017   2.038  -7.638  1.00  0.00     0.164 HD
BRANCH   7  10
ATOM     10  C   UNL     1     -10.896   1.880  -7.844  1.00  0.00     0.145 C 
BRANCH  10  11
ATOM     11  C   UNL     1     -10.420   1.783  -6.402  1.00  0.00     0.116 A 
ATOM     12  S   UNL     1      -8.733   1.811  -6.055  1.00  0.00    -0.124 S 
ATOM     13  C   UNL     1      -9.082   1.711  -4.385  1.00  0.00     0.101 A 
ATOM     14  N   UNL     1     -11.213   1.690  -5.347  1.00  0.00    -0.234 NA
ATOM     15  C   UNL     1     -10.448   1.665  -4.179  1.00  0.00     0.139 A 
BRANCH  15  16
ATOM     16  C   UNL     1     -11.068   1.604  -2.853  1.00  0.00     0.271 C 
ATOM     17  O   UNL     1     -10.507   1.115  -1.879  1.00  0.00    -0.267 OA
ATOM     18  N   UNL     1     -12.334   2.148  -2.812  1.00  0.00    -0.339 N 
ATOM     19  H   UNL     1     -12.731   2.419  -3.708  1.00  0.00     0.164 HD
BRANCH  18  20
ATOM     20  C   UNL     1     -13.131   2.114  -1.593  1.00  0.00     0.168 CG0
ATOM     21  C   UNL     1     -12.959   3.399  -0.781  1.00  0.00     0.041 C 
ATOM     22  G   UNL     1     -14.632   1.929  -1.869  1.00  0.00     0.000 G0
ENDBRANCH  18  20
ENDBRANCH  15  16
ENDBRANCH  10  11
BRANCH  10  23
ATOM     23  C   UNL     1     -10.978   0.492  -8.534  1.00  0.00     0.015 C 
ATOM     24  C   UNL     1     -12.417  -0.028  -8.685  1.00  0.00     0.010 C 
BRANCH  23  25
ATOM     25  C   UNL     1     -10.296   0.473  -9.921  1.00  0.00     0.002 C 
ATOM     26  C   UNL     1     -11.199   0.927 -11.060  1.00  0.00     0.004 C 
ENDBRANCH  23  25
ENDBRANCH  10  23
ENDBRANCH   7  10
ENDBRANCH   4   6
BRANCH   3  27
ATOM     27  C   UNL     1     -17.022   3.854  -6.271  1.00  0.00     0.171 C 
BRANCH  27  28
ATOM     28  N   UNL     1     -16.912   3.906  -4.817  1.00  0.00    -0.342 N 
ATOM     29  C   UNL     1     -17.046   2.794  -4.016  1.00  0.00     0.245 C 
ATOM     30  O   UNL     1     -17.253   1.669  -4.470  1.00  0.00    -0.273 OA
ATOM     31  H   UNL     1     -16.628   4.782  -4.378  1.00  0.00     0.164 HD
BRANCH  29  32
ATOM     32  C   UNL     1     -16.770   3.024  -2.516  1.00  0.00     0.200 C 
BRANCH  32  33
ATOM     33  N   UNL     1     -15.316   3.044  -2.313  1.00  0.00    -0.340 N 
ATOM     34  C   UNL     1     -14.636   1.921  -1.888  1.00  0.00     0.243 CG0
ATOM     35  O   UNL     1     -15.221   0.879  -1.600  1.00  0.00    -0.273 OA
ATOM     36  H   UNL     1     -14.810   3.899  -2.513  1.00  0.00     0.164 HD
ATOM     37  G   UNL     1     -13.142   2.121  -1.585  1.00  0.00     0.000 G0
ENDBRANCH  32  33
BRANCH  32  38
ATOM     38  C   UNL     1     -17.468   4.305  -2.002  1.00  0.00     0.143 C 
ATOM     39  C   UNL     1     -17.711   4.320  -0.497  1.00  0.00     0.041 C 
BRANCH  38  40
ATOM     40  O   UNL     1     -16.695   5.466  -2.362  1.00  0.00    -0.391 OA
ATOM     41  H   UNL     1     -17.249   6.244  -2.160  1.00  0.00     0.211 HD
ENDBRANCH  38  40
ENDBRANCH  32  38
ENDBRANCH  29  32
ENDBRANCH  27  28
BRANCH  27  42
ATOM     42  C   UNL     1     -18.273   4.614  -6.775  1.00  0.00     0.015 C 
ATOM     43  C   UNL     1     -19.391   3.738  -7.352  1.00  0.00     0.010 C 
ATOM     44  C   UNL     1     -18.836   5.561  -5.710  1.00  0.00     0.010 C 
ENDBRANCH  27  42
ENDBRANCH   3  27
TORSDOF 5
ENDMDL
MODEL 46
REMARK VINA RESULT:    -4.194      7.421     10.379
REMARK INTER + INTRA:          -9.971
REMARK INTER:                  -7.688
REMARK INTRA:                  -2.283
REMARK UNBOUND:                -2.467
REMARK SMILES CC[C@H](C)[C@H]1NC(=O)c2coc(n2)[C@H](C(C)C)NC(=O)[C@H]([C@@H](C)O)NC(=O)[C@H](C)NC(=O)c2csc1n2
REMARK SMILES IDX 11 1 13 2 12 3 9 4 10 5 7 6 6 7 8 8 5 10 36 11 35 12 34 13
REMARK SMILES IDX 37 14 33 15 31 16 32 17 30 18 28 20 29 21 3 23 4 24 2 25
REMARK SMILES IDX 1 26 14 27 18 28 19 29 20 30 21 32 25 33 26 34 27 35 22 38
REMARK SMILES IDX 23 39 24 40 15 42 16 43 17 44
REMARK H PARENT 6 9 30 19 18 31 25 36 24 41
REMARK Flexibility Score:   94.900
ROOT
ATOM      1  O   UNL     1      -6.382   3.237  -6.618  1.00  0.00    -0.446 OA
ATOM      2  N   UNL     1      -7.807   1.651  -5.885  1.00  0.00    -0.207 NA
ATOM      3  C   UNL     1      -7.058   2.076  -6.887  1.00  0.00     0.217 A 
ATOM      4  C   UNL     1      -7.589   2.578  -4.882  1.00  0.00     0.167 A 
ATOM      5  C   UNL     1      -6.721   3.541  -5.334  1.00  0.00     0.231 A 
ENDROOT
BRANCH   4   6
ATOM      6  C   UNL     1      -8.235   2.508  -3.582  1.00  0.00     0.273 C 
ATOM      7  N   UNL     1      -9.524   2.048  -3.679  1.00  0.00    -0.341 N 
ATOM      8  O   UNL     1      -7.694   2.845  -2.537  1.00  0.00    -0.267 OA
ATOM      9  H   UNL     1      -9.868   1.895  -4.622  1.00  0.00     0.164 HD
BRANCH   7  10
ATOM     10  C   UNL     1     -10.472   2.112  -2.583  1.00  0.00     0.145 C 
BRANCH  10  11
ATOM     11  C   UNL     1     -11.821   2.507  -3.164  1.00  0.00     0.116 A 
ATOM     12  S   UNL     1     -13.048   3.132  -2.128  1.00  0.00    -0.124 S 
ATOM     13  C   UNL     1     -14.080   3.324  -3.477  1.00  0.00     0.101 A 
ATOM     14  N   UNL     1     -12.149   2.427  -4.443  1.00  0.00    -0.234 NA
ATOM     15  C   UNL     1     -13.445   2.913  -4.633  1.00  0.00     0.139 A 
BRANCH  15  16
ATOM     16  C   UNL     1     -14.056   2.978  -5.962  1.00  0.00     0.271 C 
ATOM     17  O   UNL     1     -15.258   2.822  -6.150  1.00  0.00    -0.267 OA
ATOM     18  N   UNL     1     -13.152   3.231  -6.972  1.00  0.00    -0.339 N 
ATOM     19  H   UNL     1     -12.172   3.229  -6.702  1.00  0.00     0.164 HD
BRANCH  18  20
ATOM     20  C   UNL     1     -13.569   3.263  -8.368  1.00  0.00     0.168 CG0
ATOM     21  C   UNL     1     -13.688   4.700  -8.879  1.00  0.00     0.041 C 
ATOM     22  G   UNL     1     -12.599   2.513  -9.295  1.00  0.00     0.000 G0
ENDBRANCH  18  20
ENDBRANCH  15  16
ENDBRANCH  10  11
BRANCH  10  23
ATOM     23  C   UNL     1     -10.538   0.781  -1.787  1.00  0.00     0.015 C 
ATOM     24  C   UNL     1     -10.890   0.977  -0.303  1.00  0.00     0.010 C 
BRANCH  23  25
ATOM     25  C   UNL     1     -11.527  -0.235  -2.401  1.00  0.00     0.002 C 
ATOM     26  C   UNL     1     -10.895  -1.180  -3.413  1.00  0.00     0.004 C 
ENDBRANCH  23  25
ENDBRANCH  10  23
ENDBRANCH   7  10
ENDBRANCH   4   6
BRANCH   3  27
ATOM     27  C   UNL     1      -6.931   1.456  -8.252  1.00  0.00     0.171 C 
BRANCH  27  28
ATOM     28  N   UNL     1      -7.987   2.009  -9.093  1.00  0.00    -0.342 N 
ATOM     29  C   UNL     1      -9.227   1.424  -9.217  1.00  0.00     0.245 C 
ATOM     30  O   UNL     1      -9.543   0.400  -8.614  1.00  0.00    -0.273 OA
ATOM     31  H   UNL     1      -7.838   2.917  -9.533  1.00  0.00     0.164 HD
BRANCH  29  32
ATOM     32  C   UNL     1     -10.253   2.223 -10.048  1.00  0.00     0.200 C 
BRANCH  32  33
ATOM     33  N   UNL     1     -11.263   2.769  -9.133  1.00  0.00    -0.340 N 
ATOM     34  C   UNL     1     -12.606   2.511  -9.313  1.00  0.00     0.243 CG0
ATOM     35  O   UNL     1     -13.021   1.871 -10.278  1.00  0.00    -0.273 OA
ATOM     36  H   UNL     1     -10.954   3.326  -8.346  1.00  0.00     0.164 HD
ATOM     37  G   UNL     1     -13.561   3.255  -8.366  1.00  0.00     0.000 G0
ENDBRANCH  32  33
BRANCH  32  38
ATOM     38  C   UNL     1      -9.563   3.312 -10.903  1.00  0.00     0.143 C 
ATOM     39  C   UNL     1     -10.310   3.662 -12.185  1.00  0.00     0.041 C 
BRANCH  38  40
ATOM     40  O   UNL     1      -9.385   4.510 -10.124  1.00  0.00    -0.391 OA
ATOM     41  H   UNL     1      -8.680   5.025 -10.561  1.00  0.00     0.211 HD
ENDBRANCH  38  40
ENDBRANCH  32  38
ENDBRANCH  29  32
ENDBRANCH  27  28
BRANCH  27  42
ATOM     42  C   UNL     1      -5.549   1.536  -8.946  1.00  0.00     0.015 C 
ATOM     43  C   UNL     1      -4.350   1.138  -8.077  1.00  0.00     0.010 C 
ATOM     44  C   UNL     1      -5.527   0.762 -10.268  1.00  0.00     0.010 C 
ENDBRANCH  27  42
ENDBRANCH   3  27
TORSDOF 5
ENDMDL
MODEL 47
REMARK VINA RESULT:    -4.181      9.344     13.772
REMARK INTER + INTRA:          -9.947
REMARK INTER:                  -7.919
REMARK INTRA:                  -2.028
REMARK UNBOUND:                -2.467
REMARK SMILES CC[C@H](C)[C@H]1NC(=O)c2coc(n2)[C@H](C(C)C)NC(=O)[C@H]([C@@H](C)O)NC(=O)[C@H](C)NC(=O)c2csc1n2
REMARK SMILES IDX 11 1 13 2 12 3 9 4 10 5 7 6 6 7 8 8 5 10 36 11 35 12 34 13
REMARK SMILES IDX 37 14 33 15 31 16 32 17 30 18 28 20 29 21 3 23 4 24 2 25
REMARK SMILES IDX 1 26 14 27 18 28 19 29 20 30 21 32 25 33 26 34 27 35 22 38
REMARK SMILES IDX 23 39 24 40 15 42 16 43 17 44
REMARK H PARENT 6 9 30 19 18 31 25 36 24 41
REMARK Flexibility Score:   94.900
ROOT
ATOM      1  O   UNL     1     -11.172   3.654 -13.445  1.00  0.00    -0.446 OA
ATOM      2  N   UNL     1     -11.647   2.232 -11.761  1.00  0.00    -0.207 NA
ATOM      3  C   UNL     1     -10.727   2.672 -12.602  1.00  0.00     0.217 A 
ATOM      4  C   UNL     1     -12.764   2.995 -12.053  1.00  0.00     0.167 A 
ATOM      5  C   UNL     1     -12.469   3.859 -13.079  1.00  0.00     0.231 A 
ENDROOT
BRANCH   4   6
ATOM      6  C   UNL     1     -14.035   2.835 -11.368  1.00  0.00     0.273 C 
ATOM      7  N   UNL     1     -14.271   3.859 -10.486  1.00  0.00    -0.341 N 
ATOM      8  O   UNL     1     -14.786   1.883 -11.545  1.00  0.00    -0.267 OA
ATOM      9  H   UNL     1     -13.515   4.530 -10.378  1.00  0.00     0.164 HD
BRANCH   7  10
ATOM     10  C   UNL     1     -15.332   3.826  -9.499  1.00  0.00     0.145 C 
BRANCH  10  11
ATOM     11  C   UNL     1     -14.726   4.209  -8.157  1.00  0.00     0.116 A 
ATOM     12  S   UNL     1     -15.692   5.018  -6.982  1.00  0.00    -0.124 S 
ATOM     13  C   UNL     1     -14.368   5.016  -5.902  1.00  0.00     0.101 A 
ATOM     14  N   UNL     1     -13.481   3.956  -7.788  1.00  0.00    -0.234 NA
ATOM     15  C   UNL     1     -13.272   4.404  -6.481  1.00  0.00     0.139 A 
BRANCH  15  16
ATOM     16  C   UNL     1     -11.989   4.221  -5.800  1.00  0.00     0.271 C 
ATOM     17  O   UNL     1     -11.728   4.744  -4.722  1.00  0.00    -0.267 OA
ATOM     18  N   UNL     1     -11.113   3.406  -6.485  1.00  0.00    -0.339 N 
ATOM     19  H   UNL     1     -11.405   3.125  -7.418  1.00  0.00     0.164 HD
BRANCH  18  20
ATOM     20  C   UNL     1      -9.764   3.164  -5.992  1.00  0.00     0.168 CG0
ATOM     21  C   UNL     1      -9.738   2.011  -4.987  1.00  0.00     0.041 C 
ATOM     22  G   UNL     1      -8.771   2.830  -7.117  1.00  0.00     0.000 G0
ENDBRANCH  18  20
ENDBRANCH  15  16
ENDBRANCH  10  11
BRANCH  10  23
ATOM     23  C   UNL     1     -16.525   4.738  -9.891  1.00  0.00     0.015 C 
ATOM     24  C   UNL     1     -16.110   5.951 -10.741  1.00  0.00     0.010 C 
BRANCH  23  25
ATOM     25  C   UNL     1     -17.644   3.973 -10.634  1.00  0.00     0.002 C 
ATOM     26  C   UNL     1     -18.612   3.245  -9.712  1.00  0.00     0.004 C 
ENDBRANCH  23  25
ENDBRANCH  10  23
ENDBRANCH   7  10
ENDBRANCH   4   6
BRANCH   3  27
ATOM     27  C   UNL     1      -9.315   2.173 -12.743  1.00  0.00     0.171 C 
BRANCH  27  28
ATOM     28  N   UNL     1      -8.933   1.550 -11.480  1.00  0.00    -0.342 N 
ATOM     29  C   UNL     1      -8.504   2.273 -10.390  1.00  0.00     0.245 C 
ATOM     30  O   UNL     1      -8.425   3.500 -10.395  1.00  0.00    -0.273 OA
ATOM     31  H   UNL     1      -9.081   0.548 -11.363  1.00  0.00     0.164 HD
BRANCH  29  32
ATOM     32  C   UNL     1      -8.269   1.452  -9.104  1.00  0.00     0.200 C 
BRANCH  32  33
ATOM     33  N   UNL     1      -9.180   1.950  -8.066  1.00  0.00    -0.340 N 
ATOM     34  C   UNL     1      -8.750   2.837  -7.101  1.00  0.00     0.243 CG0
ATOM     35  O   UNL     1      -7.577   3.198  -7.028  1.00  0.00    -0.273 OA
ATOM     36  H   UNL     1     -10.147   1.646  -8.082  1.00  0.00     0.164 HD
ATOM     37  G   UNL     1      -9.768   3.168  -5.999  1.00  0.00     0.000 G0
ENDBRANCH  32  33
BRANCH  32  38
ATOM     38  C   UNL     1      -8.425  -0.065  -9.366  1.00  0.00     0.143 C 
ATOM     39  C   UNL     1      -7.146  -0.750  -9.832  1.00  0.00     0.041 C 
BRANCH  38  40
ATOM     40  O   UNL     1      -8.901  -0.724  -8.176  1.00  0.00    -0.391 OA
ATOM     41  H   UNL     1      -9.875  -0.740  -8.236  1.00  0.00     0.211 HD
ENDBRANCH  38  40
ENDBRANCH  32  38
ENDBRANCH  29  32
ENDBRANCH  27  28
BRANCH  27  42
ATOM     42  C   UNL     1      -9.000   1.254 -13.949  1.00  0.00     0.015 C 
ATOM     43  C   UNL     1      -7.812   0.303 -13.763  1.00  0.00     0.010 C 
ATOM     44  C   UNL     1     -10.236   0.476 -14.414  1.00  0.00     0.010 C 
ENDBRANCH  27  42
ENDBRANCH   3  27
TORSDOF 5
ENDMDL
MODEL 48
REMARK VINA RESULT:    -4.124      7.433     12.481
REMARK INTER + INTRA:          -9.846
REMARK INTER:                  -7.584
REMARK INTRA:                  -2.261
REMARK UNBOUND:                -2.467
REMARK SMILES CC[C@H](C)[C@H]1NC(=O)c2coc(n2)[C@H](C(C)C)NC(=O)[C@H]([C@@H](C)O)NC(=O)[C@H](C)NC(=O)c2csc1n2
REMARK SMILES IDX 11 1 13 2 12 3 9 4 10 5 7 6 6 7 8 8 5 10 36 11 35 12 34 13
REMARK SMILES IDX 37 14 33 15 31 16 32 17 30 18 28 20 29 21 3 23 4 24 2 25
REMARK SMILES IDX 1 26 14 27 18 28 19 29 20 30 21 32 25 33 26 34 27 35 22 38
REMARK SMILES IDX 23 39 24 40 15 42 16 43 17 44
REMARK H PARENT 6 9 30 19 18 31 25 36 24 41
REMARK Flexibility Score:   94.900
ROOT
ATOM      1  O   UNL     1      -8.087   1.382  -5.251  1.00  0.00    -0.446 OA
ATOM      2  N   UNL     1      -8.061   2.995  -6.825  1.00  0.00    -0.207 NA
ATOM      3  C   UNL     1      -7.372   2.052  -6.209  1.00  0.00     0.217 A 
ATOM      4  C   UNL     1      -9.320   2.924  -6.255  1.00  0.00     0.167 A 
ATOM      5  C   UNL     1      -9.329   1.940  -5.297  1.00  0.00     0.231 A 
ENDROOT
BRANCH   4   6
ATOM      6  C   UNL     1     -10.412   3.805  -6.630  1.00  0.00     0.273 C 
ATOM      7  N   UNL     1     -11.601   3.129  -6.730  1.00  0.00    -0.341 N 
ATOM      8  O   UNL     1     -10.271   5.002  -6.853  1.00  0.00    -0.267 OA
ATOM      9  H   UNL     1     -11.547   2.122  -6.606  1.00  0.00     0.164 HD
BRANCH   7  10
ATOM     10  C   UNL     1     -12.793   3.705  -7.322  1.00  0.00     0.145 C 
BRANCH  10  11
ATOM     11  C   UNL     1     -12.667   3.570  -8.833  1.00  0.00     0.116 A 
ATOM     12  S   UNL     1     -14.054   3.797  -9.830  1.00  0.00    -0.124 S 
ATOM     13  C   UNL     1     -13.091   3.532 -11.217  1.00  0.00     0.101 A 
ATOM     14  N   UNL     1     -11.545   3.297  -9.479  1.00  0.00    -0.234 NA
ATOM     15  C   UNL     1     -11.780   3.291 -10.856  1.00  0.00     0.139 A 
BRANCH  15  16
ATOM     16  C   UNL     1     -10.702   3.053 -11.819  1.00  0.00     0.271 C 
ATOM     17  O   UNL     1     -10.911   2.803 -13.001  1.00  0.00    -0.267 OA
ATOM     18  N   UNL     1      -9.442   3.140 -11.268  1.00  0.00    -0.339 N 
ATOM     19  H   UNL     1      -9.405   3.242 -10.257  1.00  0.00     0.164 HD
BRANCH  18  20
ATOM     20  C   UNL     1      -8.251   2.867 -12.061  1.00  0.00     0.168 CG0
ATOM     21  C   UNL     1      -7.272   4.042 -12.018  1.00  0.00     0.041 C 
ATOM     22  G   UNL     1      -7.499   1.611 -11.591  1.00  0.00     0.000 G0
ENDBRANCH  18  20
ENDBRANCH  15  16
ENDBRANCH  10  11
BRANCH  10  23
ATOM     23  C   UNL     1     -14.091   3.055  -6.776  1.00  0.00     0.015 C 
ATOM     24  C   UNL     1     -13.829   1.911  -5.783  1.00  0.00     0.010 C 
BRANCH  23  25
ATOM     25  C   UNL     1     -15.039   4.079  -6.112  1.00  0.00     0.002 C 
ATOM     26  C   UNL     1     -14.645   5.530  -6.348  1.00  0.00     0.004 C 
ENDBRANCH  23  25
ENDBRANCH  10  23
ENDBRANCH   7  10
ENDBRANCH   4   6
BRANCH   3  27
ATOM     27  C   UNL     1      -5.924   1.702  -6.418  1.00  0.00     0.171 C 
BRANCH  27  28
ATOM     28  N   UNL     1      -5.681   1.651  -7.856  1.00  0.00    -0.342 N 
ATOM     29  C   UNL     1      -5.896   0.519  -8.610  1.00  0.00     0.245 C 
ATOM     30  O   UNL     1      -6.325  -0.529  -8.130  1.00  0.00    -0.273 OA
ATOM     31  H   UNL     1      -5.435   2.512  -8.342  1.00  0.00     0.164 HD
BRANCH  29  32
ATOM     32  C   UNL     1      -5.706   0.695 -10.132  1.00  0.00     0.200 C 
BRANCH  32  33
ATOM     33  N   UNL     1      -6.572   1.793 -10.580  1.00  0.00    -0.340 N 
ATOM     34  C   UNL     1      -7.503   1.607 -11.581  1.00  0.00     0.243 CG0
ATOM     35  O   UNL     1      -7.605   0.540 -12.184  1.00  0.00    -0.273 OA
ATOM     36  H   UNL     1      -6.489   2.693 -10.123  1.00  0.00     0.164 HD
ATOM     37  G   UNL     1      -8.243   2.871 -12.046  1.00  0.00     0.000 G0
ENDBRANCH  32  33
BRANCH  32  38
ATOM     38  C   UNL     1      -4.219   0.913 -10.494  1.00  0.00     0.143 C 
ATOM     39  C   UNL     1      -3.882   2.342 -10.905  1.00  0.00     0.041 C 
BRANCH  38  40
ATOM     40  O   UNL     1      -3.380   0.536  -9.385  1.00  0.00    -0.391 OA
ATOM     41  H   UNL     1      -3.278   1.331  -8.829  1.00  0.00     0.211 HD
ENDBRANCH  38  40
ENDBRANCH  32  38
ENDBRANCH  29  32
ENDBRANCH  27  28
BRANCH  27  42
ATOM     42  C   UNL     1      -4.868   2.571  -5.692  1.00  0.00     0.015 C 
ATOM     43  C   UNL     1      -4.401   2.044  -4.331  1.00  0.00     0.010 C 
ATOM     44  C   UNL     1      -3.662   2.873  -6.587  1.00  0.00     0.010 C 
ENDBRANCH  27  42
ENDBRANCH   3  27
TORSDOF 5
ENDMDL
MODEL 49
REMARK VINA RESULT:    -4.115     10.118     15.586
REMARK INTER + INTRA:          -9.830
REMARK INTER:                  -7.750
REMARK INTRA:                  -2.080
REMARK UNBOUND:                -2.467
REMARK SMILES CC[C@H](C)[C@H]1NC(=O)c2coc(n2)[C@H](C(C)C)NC(=O)[C@H]([C@@H](C)O)NC(=O)[C@H](C)NC(=O)c2csc1n2
REMARK SMILES IDX 11 1 13 2 12 3 9 4 10 5 7 6 6 7 8 8 5 10 36 11 35 12 34 13
REMARK SMILES IDX 37 14 33 15 31 16 32 17 30 18 28 20 29 21 3 23 4 24 2 25
REMARK SMILES IDX 1 26 14 27 18 28 19 29 20 30 21 32 25 33 26 34 27 35 22 38
REMARK SMILES IDX 23 39 24 40 15 42 16 43 17 44
REMARK H PARENT 6 9 30 19 18 31 25 36 24 41
REMARK Flexibility Score:   94.900
ROOT
ATOM      1  O   UNL     1     -16.850  -2.133  -0.025  1.00  0.00    -0.446 OA
ATOM      2  N   UNL     1     -16.960   0.045  -0.598  1.00  0.00    -0.207 NA
ATOM      3  C   UNL     1     -16.186  -0.947  -0.194  1.00  0.00     0.217 A 
ATOM      4  C   UNL     1     -18.211  -0.533  -0.729  1.00  0.00     0.167 A 
ATOM      5  C   UNL     1     -18.137  -1.860  -0.379  1.00  0.00     0.231 A 
ENDROOT
BRANCH   4   6
ATOM      6  C   UNL     1     -19.388   0.209  -1.145  1.00  0.00     0.273 C 
ATOM      7  N   UNL     1     -19.770  -0.114  -2.422  1.00  0.00    -0.341 N 
ATOM      8  O   UNL     1     -19.950   1.039  -0.440  1.00  0.00    -0.267 OA
ATOM      9  H   UNL     1     -19.153  -0.752  -2.918  1.00  0.00     0.164 HD
BRANCH   7  10
ATOM     10  C   UNL     1     -20.751   0.645  -3.172  1.00  0.00     0.145 C 
BRANCH  10  11
ATOM     11  C   UNL     1     -19.995   1.560  -4.125  1.00  0.00     0.116 A 
ATOM     12  S   UNL     1     -20.856   2.740  -5.040  1.00  0.00    -0.124 S 
ATOM     13  C   UNL     1     -19.382   3.276  -5.720  1.00  0.00     0.101 A 
ATOM     14  N   UNL     1     -18.686   1.544  -4.313  1.00  0.00    -0.234 NA
ATOM     15  C   UNL     1     -18.324   2.543  -5.220  1.00  0.00     0.139 A 
BRANCH  15  16
ATOM     16  C   UNL     1     -16.926   2.779  -5.587  1.00  0.00     0.271 C 
ATOM     17  O   UNL     1     -16.587   3.166  -6.700  1.00  0.00    -0.267 OA
ATOM     18  N   UNL     1     -16.037   2.526  -4.564  1.00  0.00    -0.339 N 
ATOM     19  H   UNL     1     -16.431   2.105  -3.727  1.00  0.00     0.164 HD
BRANCH  18  20
ATOM     20  C   UNL     1     -14.599   2.642  -4.767  1.00  0.00     0.168 CG0
ATOM     21  C   UNL     1     -13.961   3.556  -3.719  1.00  0.00     0.041 C 
ATOM     22  G   UNL     1     -13.880   1.284  -4.708  1.00  0.00     0.000 G0
ENDBRANCH  18  20
ENDBRANCH  15  16
ENDBRANCH  10  11
BRANCH  10  23
ATOM     23  C   UNL     1     -21.763  -0.271  -3.910  1.00  0.00     0.015 C 
ATOM     24  C   UNL     1     -21.094  -1.263  -4.876  1.00  0.00     0.010 C 
BRANCH  23  25
ATOM     25  C   UNL     1     -22.672  -1.060  -2.941  1.00  0.00     0.002 C 
ATOM     26  C   UNL     1     -23.110  -2.418  -3.472  1.00  0.00     0.004 C 
ENDBRANCH  23  25
ENDBRANCH  10  23
ENDBRANCH   7  10
ENDBRANCH   4   6
BRANCH   3  27
ATOM     27  C   UNL     1     -14.720  -0.877   0.134  1.00  0.00     0.171 C 
BRANCH  27  28
ATOM     28  N   UNL     1     -14.025  -0.352  -1.037  1.00  0.00    -0.342 N 
ATOM     29  C   UNL     1     -13.444  -1.161  -1.987  1.00  0.00     0.245 C 
ATOM     30  O   UNL     1     -13.480  -2.389  -1.926  1.00  0.00    -0.273 OA
ATOM     31  H   UNL     1     -14.054   0.652  -1.214  1.00  0.00     0.164 HD
BRANCH  29  32
ATOM     32  C   UNL     1     -12.869  -0.428  -3.217  1.00  0.00     0.200 C 
BRANCH  32  33
ATOM     33  N   UNL     1     -13.657   0.792  -3.436  1.00  0.00    -0.340 N 
ATOM     34  C   UNL     1     -13.871   1.287  -4.705  1.00  0.00     0.243 CG0
ATOM     35  O   UNL     1     -13.363   0.772  -5.698  1.00  0.00    -0.273 OA
ATOM     36  H   UNL     1     -14.063   1.257  -2.633  1.00  0.00     0.164 HD
ATOM     37  G   UNL     1     -14.594   2.642  -4.778  1.00  0.00     0.000 G0
ENDBRANCH  32  33
BRANCH  32  38
ATOM     38  C   UNL     1     -11.357  -0.148  -3.053  1.00  0.00     0.143 C 
ATOM     39  C   UNL     1     -10.462  -1.323  -3.427  1.00  0.00     0.041 C 
BRANCH  38  40
ATOM     40  O   UNL     1     -10.980   0.996  -3.844  1.00  0.00    -0.391 OA
ATOM     41  H   UNL     1     -11.658   1.091  -4.539  1.00  0.00     0.211 HD
ENDBRANCH  38  40
ENDBRANCH  32  38
ENDBRANCH  29  32
ENDBRANCH  27  28
BRANCH  27  42
ATOM     42  C   UNL     1     -14.312  -0.123   1.423  1.00  0.00     0.015 C 
ATOM     43  C   UNL     1     -13.368  -0.883   2.362  1.00  0.00     0.010 C 
ATOM     44  C   UNL     1     -13.751   1.270   1.120  1.00  0.00     0.010 C 
ENDBRANCH  27  42
ENDBRANCH   3  27
TORSDOF 5
ENDMDL
MODEL 50
REMARK VINA RESULT:    -4.114      7.455     12.360
REMARK INTER + INTRA:          -9.829
REMARK INTER:                  -7.433
REMARK INTRA:                  -2.395
REMARK UNBOUND:                -2.467
REMARK SMILES CC[C@H](C)[C@H]1NC(=O)c2coc(n2)[C@H](C(C)C)NC(=O)[C@H]([C@@H](C)O)NC(=O)[C@H](C)NC(=O)c2csc1n2
REMARK SMILES IDX 11 1 13 2 12 3 9 4 10 5 7 6 6 7 8 8 5 10 36 11 35 12 34 13
REMARK SMILES IDX 37 14 33 15 31 16 32 17 30 18 28 20 29 21 3 23 4 24 2 25
REMARK SMILES IDX 1 26 14 27 18 28 19 29 20 30 21 32 25 33 26 34 27 35 22 38
REMARK SMILES IDX 23 39 24 40 15 42 16 43 17 44
REMARK H PARENT 6 9 30 19 18 31 25 36 24 41
REMARK Flexibility Score:   94.900
ROOT
ATOM      1  O   UNL     1     -11.638   5.094  -8.640  1.00  0.00    -0.446 OA
ATOM      2  N   UNL     1     -12.341   3.250  -7.550  1.00  0.00    -0.207 NA
ATOM      3  C   UNL     1     -11.302   3.968  -7.937  1.00  0.00     0.217 A 
ATOM      4  C   UNL     1     -13.435   3.964  -8.007  1.00  0.00     0.167 A 
ATOM      5  C   UNL     1     -13.000   5.086  -8.669  1.00  0.00     0.231 A 
ENDROOT
BRANCH   4   6
ATOM      6  C   UNL     1     -14.806   3.526  -7.813  1.00  0.00     0.273 C 
ATOM      7  N   UNL     1     -15.319   3.968  -6.619  1.00  0.00    -0.341 N 
ATOM      8  O   UNL     1     -15.414   2.826  -8.614  1.00  0.00    -0.267 OA
ATOM      9  H   UNL     1     -14.667   4.462  -6.016  1.00  0.00     0.164 HD
BRANCH   7  10
ATOM     10  C   UNL     1     -16.564   3.478  -6.062  1.00  0.00     0.145 C 
BRANCH  10  11
ATOM     11  C   UNL     1     -16.217   2.490  -4.957  1.00  0.00     0.116 A 
ATOM     12  S   UNL     1     -17.410   1.377  -4.401  1.00  0.00    -0.124 S 
ATOM     13  C   UNL     1     -16.269   0.708  -3.318  1.00  0.00     0.101 A 
ATOM     14  N   UNL     1     -15.036   2.393  -4.371  1.00  0.00    -0.234 NA
ATOM     15  C   UNL     1     -15.054   1.355  -3.435  1.00  0.00     0.139 A 
BRANCH  15  16
ATOM     16  C   UNL     1     -13.864   0.996  -2.661  1.00  0.00     0.271 C 
ATOM     17  O   UNL     1     -13.919   0.357  -1.616  1.00  0.00    -0.267 OA
ATOM     18  N   UNL     1     -12.686   1.444  -3.221  1.00  0.00    -0.339 N 
ATOM     19  H   UNL     1     -12.782   2.057  -4.027  1.00  0.00     0.164 HD
BRANCH  18  20
ATOM     20  C   UNL     1     -11.408   1.239  -2.554  1.00  0.00     0.168 CG0
ATOM     21  C   UNL     1     -10.705  -0.018  -3.073  1.00  0.00     0.041 C 
ATOM     22  G   UNL     1     -10.446   2.424  -2.736  1.00  0.00     0.000 G0
ENDBRANCH  18  20
ENDBRANCH  15  16
ENDBRANCH  10  11
BRANCH  10  23
ATOM     23  C   UNL     1     -17.476   4.629  -5.561  1.00  0.00     0.015 C 
ATOM     24  C   UNL     1     -16.707   5.926  -5.257  1.00  0.00     0.010 C 
BRANCH  23  25
ATOM     25  C   UNL     1     -18.624   4.954  -6.544  1.00  0.00     0.002 C 
ATOM     26  C   UNL     1     -19.792   3.981  -6.473  1.00  0.00     0.004 C 
ENDBRANCH  23  25
ENDBRANCH  10  23
ENDBRANCH   7  10
ENDBRANCH   4   6
BRANCH   3  27
ATOM     27  C   UNL     1      -9.848   3.643  -7.729  1.00  0.00     0.171 C 
BRANCH  27  28
ATOM     28  N   UNL     1      -9.660   3.319  -6.318  1.00  0.00    -0.342 N 
ATOM     29  C   UNL     1      -8.583   3.766  -5.586  1.00  0.00     0.245 C 
ATOM     30  O   UNL     1      -7.707   4.485  -6.063  1.00  0.00    -0.273 OA
ATOM     31  H   UNL     1     -10.403   2.823  -5.826  1.00  0.00     0.164 HD
BRANCH  29  32
ATOM     32  C   UNL     1      -8.624   3.429  -4.080  1.00  0.00     0.200 C 
BRANCH  32  33
ATOM     33  N   UNL     1      -9.669   2.420  -3.862  1.00  0.00    -0.340 N 
ATOM     34  C   UNL     1     -10.441   2.426  -2.719  1.00  0.00     0.243 CG0
ATOM     35  O   UNL     1     -10.249   3.230  -1.809  1.00  0.00    -0.273 OA
ATOM     36  H   UNL     1      -9.830   1.725  -4.581  1.00  0.00     0.164 HD
ATOM     37  G   UNL     1     -11.400   1.236  -2.557  1.00  0.00     0.000 G0
ENDBRANCH  32  33
BRANCH  32  38
ATOM     38  C   UNL     1      -7.237   2.981  -3.564  1.00  0.00     0.143 C 
ATOM     39  C   UNL     1      -6.730   1.684  -4.183  1.00  0.00     0.041 C 
BRANCH  38  40
ATOM     40  O   UNL     1      -6.266   4.020  -3.796  1.00  0.00    -0.391 OA
ATOM     41  H   UNL     1      -5.472   3.584  -4.160  1.00  0.00     0.211 HD
ENDBRANCH  38  40
ENDBRANCH  32  38
ENDBRANCH  29  32
ENDBRANCH  27  28
BRANCH  27  42
ATOM     42  C   UNL     1      -9.218   2.568  -8.648  1.00  0.00     0.015 C 
ATOM     43  C   UNL     1      -8.987   1.197  -8.002  1.00  0.00     0.010 C 
ATOM     44  C   UNL     1      -9.994   2.412  -9.961  1.00  0.00     0.010 C 
ENDBRANCH  27  42
ENDBRANCH   3  27
TORSDOF 5
ENDMDL
