MODEL 1
REMARK VINA RESULT:    -7.428      0.000      0.000
REMARK INTER + INTRA:         -23.594
REMARK INTER:                 -18.501
REMARK INTRA:                  -5.093
REMARK UNBOUND:                -5.093
REMARK SMILES CCCCCCC[C@H](N)[C@H](O)C(=O)N[C@H](C)C(=O)N(C)[C@H](CC(C)C)C(=O)N[C@@H](Cc1ccc(O)cc1)C(=O)N[C@@H](Cc1ccc(O)cc1)C(=O)O
REMARK SMILES IDX 18 1 17 2 15 3 16 4 14 5 12 6 13 7 10 9 11 10 8 12 9 13 7 16
REMARK SMILES IDX 6 17 5 18 4 19 3 20 2 21 1 22 19 23 20 24 21 25 22 26 23 27
REMARK SMILES IDX 24 28 25 29 26 30 27 31 28 32 29 34 30 35 31 36 32 37 37 38
REMARK SMILES IDX 33 39 36 40 34 41 35 42 38 44 39 45 40 46 41 48 42 49 43 50
REMARK SMILES IDX 44 51 49 52 45 53 48 54 46 55 47 56 50 58 51 59 52 60
REMARK H PARENT 14 8 11 11 9 14 9 15 28 33 35 43 40 47 47 57 52 61
ROOT
ATOM      1  O   UNL     1      -7.735   1.608   5.833  1.00  0.00    -0.272 OA
ATOM      2  C   UNL     1      -8.407   1.628   6.875  1.00  0.00     0.245 C 
ENDROOT
BRANCH   2   3
ATOM      3  C   UNL     1      -8.777   0.280   7.543  1.00  0.00     0.168 C 
ATOM      4  C   UNL     1      -8.457   0.309   9.034  1.00  0.00     0.041 C 
BRANCH   3   5
ATOM      5  N   UNL     1     -10.135  -0.175   7.289  1.00  0.00    -0.342 N 
ATOM      6  C   UNL     1     -10.452  -1.515   7.214  1.00  0.00     0.251 C 
ATOM      7  O   UNL     1      -9.622  -2.412   7.312  1.00  0.00    -0.272 OA
ATOM      8  H   UNL     1     -10.904   0.479   7.156  1.00  0.00     0.164 HD
BRANCH   6   9
ATOM      9  C   UNL     1     -11.963  -1.762   7.082  1.00  0.00     0.219 C 
BRANCH   9  10
ATOM     10  O   UNL     1     -12.508  -2.465   8.205  1.00  0.00    -0.382 OA
ATOM     11  H   UNL     1     -11.745  -2.979   8.548  1.00  0.00     0.211 HD
ENDBRANCH   9  10
BRANCH   9  12
ATOM     12  C   UNL     1     -12.770  -0.467   6.799  1.00  0.00     0.089 C 
BRANCH  12  13
ATOM     13  N   UNL     1     -12.805  -0.250   5.335  1.00  0.00    -0.325 NA
ATOM     14  H   UNL     1     -13.631  -0.710   4.947  1.00  0.00     0.119 HD
ATOM     15  H   UNL     1     -12.009  -0.730   4.909  1.00  0.00     0.119 HD
ENDBRANCH  12  13
BRANCH  12  16
ATOM     16  C   UNL     1     -14.204  -0.422   7.378  1.00  0.00     0.022 C 
BRANCH  16  17
ATOM     17  C   UNL     1     -15.189   0.630   6.851  1.00  0.00     0.002 C 
BRANCH  17  18
ATOM     18  C   UNL     1     -14.878   2.068   7.260  1.00  0.00     0.000 C 
BRANCH  18  19
ATOM     19  C   UNL     1     -15.547   3.128   6.375  1.00  0.00    -0.000 C 
BRANCH  19  20
ATOM     20  C   UNL     1     -17.072   3.201   6.488  1.00  0.00    -0.000 C 
BRANCH  20  21
ATOM     21  C   UNL     1     -17.777   3.140   5.130  1.00  0.00    -0.003 C 
ATOM     22  C   UNL     1     -18.343   1.755   4.861  1.00  0.00     0.004 C 
ENDBRANCH  20  21
ENDBRANCH  19  20
ENDBRANCH  18  19
ENDBRANCH  17  18
ENDBRANCH  16  17
ENDBRANCH  12  16
ENDBRANCH   9  12
ENDBRANCH   6   9
ENDBRANCH   3   5
ENDBRANCH   2   3
BRANCH   2  23
ATOM     23  N   UNL     1      -8.708   2.841   7.485  1.00  0.00    -0.332 N 
ATOM     24  C   UNL     1      -7.745   3.671   8.192  1.00  0.00     0.147 C 
BRANCH  23  25
ATOM     25  C   UNL     1     -10.062   3.442   7.333  1.00  0.00     0.174 C 
BRANCH  25  26
ATOM     26  C   UNL     1     -11.055   2.970   8.421  1.00  0.00     0.038 C 
BRANCH  26  27
ATOM     27  C   UNL     1     -11.641   4.054   9.353  1.00  0.00    -0.015 C 
ATOM     28  C   UNL     1     -10.786   4.277  10.600  1.00  0.00     0.007 C 
ATOM     29  C   UNL     1     -11.914   5.379   8.645  1.00  0.00     0.007 C 
ENDBRANCH  26  27
ENDBRANCH  25  26
BRANCH  25  30
ATOM     30  C   UNL     1     -10.577   3.237   5.890  1.00  0.00     0.243 C 
ATOM     31  O   UNL     1     -11.503   2.470   5.634  1.00  0.00    -0.273 OA
ATOM     32  N   UNL     1      -9.929   3.959   4.921  1.00  0.00    -0.342 N 
ATOM     33  H   UNL     1      -9.268   4.677   5.228  1.00  0.00     0.164 HD
BRANCH  32  34
ATOM     34  C   UNL     1     -10.264   3.871   3.497  1.00  0.00     0.175 C 
BRANCH  34  35
ATOM     35  C   UNL     1     -11.159   5.040   3.060  1.00  0.00     0.070 C 
BRANCH  35  36
ATOM     36  C   UNL     1     -10.695   6.370   3.611  1.00  0.00    -0.045 A 
ATOM     37  C   UNL     1      -9.634   7.052   2.996  1.00  0.00     0.007 A 
ATOM     38  C   UNL     1     -11.295   6.926   4.748  1.00  0.00     0.007 A 
ATOM     39  C   UNL     1      -9.189   8.273   3.505  1.00  0.00     0.046 A 
ATOM     40  C   UNL     1     -10.850   8.147   5.259  1.00  0.00     0.046 A 
ATOM     41  C   UNL     1      -9.801   8.811   4.632  1.00  0.00     0.115 A 
BRANCH  41  42
ATOM     42  O   UNL     1      -9.334  10.004   5.099  1.00  0.00    -0.508 OA
ATOM     43  H   UNL     1      -9.775  10.193   5.944  1.00  0.00     0.293 HD
ENDBRANCH  41  42
ENDBRANCH  35  36
ENDBRANCH  34  35
BRANCH  34  44
ATOM     44  C   UNL     1      -8.943   3.824   2.697  1.00  0.00     0.243 C 
ATOM     45  O   UNL     1      -8.871   3.881   1.473  1.00  0.00    -0.273 OA
ATOM     46  N   UNL     1      -7.835   3.577   3.480  1.00  0.00    -0.341 N 
ATOM     47  H   UNL     1      -7.960   3.420   4.477  1.00  0.00     0.164 HD
BRANCH  46  48
ATOM     48  C   UNL     1      -6.483   3.422   2.938  1.00  0.00     0.196 C 
BRANCH  48  49
ATOM     49  C   UNL     1      -5.425   3.978   3.906  1.00  0.00     0.072 C 
BRANCH  49  50
ATOM     50  C   UNL     1      -4.659   5.144   3.322  1.00  0.00    -0.045 A 
ATOM     51  C   UNL     1      -3.760   4.931   2.266  1.00  0.00     0.007 A 
ATOM     52  C   UNL     1      -4.815   6.438   3.834  1.00  0.00     0.007 A 
ATOM     53  C   UNL     1      -3.038   5.996   1.728  1.00  0.00     0.046 A 
ATOM     54  C   UNL     1      -4.091   7.505   3.296  1.00  0.00     0.046 A 
ATOM     55  C   UNL     1      -3.209   7.274   2.246  1.00  0.00     0.115 A 
BRANCH  55  56
ATOM     56  O   UNL     1      -2.483   8.288   1.694  1.00  0.00    -0.508 OA
ATOM     57  H   UNL     1      -1.569   7.983   1.580  1.00  0.00     0.293 HD
ENDBRANCH  55  56
ENDBRANCH  49  50
ENDBRANCH  48  49
BRANCH  48  58
ATOM     58  C   UNL     1      -6.215   1.932   2.684  1.00  0.00     0.326 C 
ATOM     59  O   UNL     1      -6.248   1.348   1.613  1.00  0.00    -0.250 OA
BRANCH  58  60
ATOM     60  O   UNL     1      -5.899   1.239   3.807  1.00  0.00    -0.480 OA
ATOM     61  H   UNL     1      -6.208   1.827   4.530  1.00  0.00     0.296 HD
ENDBRANCH  58  60
ENDBRANCH  48  58
ENDBRANCH  46  48
ENDBRANCH  34  44
ENDBRANCH  32  34
ENDBRANCH  25  30
ENDBRANCH  23  25
ENDBRANCH   2  23
TORSDOF 28
ENDMDL
MODEL 2
REMARK VINA RESULT:    -7.388      1.344      2.290
REMARK INTER + INTRA:         -23.495
REMARK INTER:                 -18.666
REMARK INTRA:                  -4.829
REMARK UNBOUND:                -5.093
REMARK SMILES CCCCCCC[C@H](N)[C@H](O)C(=O)N[C@H](C)C(=O)N(C)[C@H](CC(C)C)C(=O)N[C@@H](Cc1ccc(O)cc1)C(=O)N[C@@H](Cc1ccc(O)cc1)C(=O)O
REMARK SMILES IDX 18 1 17 2 15 3 16 4 14 5 12 6 13 7 10 9 11 10 8 12 9 13 7 16
REMARK SMILES IDX 6 17 5 18 4 19 3 20 2 21 1 22 19 23 20 24 21 25 22 26 23 27
REMARK SMILES IDX 24 28 25 29 26 30 27 31 28 32 29 34 30 35 31 36 32 37 37 38
REMARK SMILES IDX 33 39 36 40 34 41 35 42 38 44 39 45 40 46 41 48 42 49 43 50
REMARK SMILES IDX 44 51 49 52 45 53 48 54 46 55 47 56 50 58 51 59 52 60
REMARK H PARENT 14 8 11 11 9 14 9 15 28 33 35 43 40 47 47 57 52 61
ROOT
ATOM      1  O   UNL     1     -11.885   2.956   9.637  1.00  0.00    -0.272 OA
ATOM      2  C   UNL     1     -10.871   2.857   8.930  1.00  0.00     0.245 C 
ENDROOT
BRANCH   2   3
ATOM      3  C   UNL     1      -9.972   1.607   9.095  1.00  0.00     0.168 C 
ATOM      4  C   UNL     1      -9.465   1.490  10.528  1.00  0.00     0.041 C 
BRANCH   3   5
ATOM      5  N   UNL     1     -10.562   0.363   8.625  1.00  0.00    -0.342 N 
ATOM      6  C   UNL     1      -9.973  -0.394   7.635  1.00  0.00     0.251 C 
ATOM      7  O   UNL     1      -8.946  -0.064   7.052  1.00  0.00    -0.272 OA
ATOM      8  H   UNL     1     -11.433   0.005   9.010  1.00  0.00     0.164 HD
BRANCH   6   9
ATOM      9  C   UNL     1     -10.694  -1.732   7.402  1.00  0.00     0.219 C 
BRANCH   9  10
ATOM     10  O   UNL     1     -11.568  -2.084   8.481  1.00  0.00    -0.382 OA
ATOM     11  H   UNL     1     -10.953  -2.362   9.195  1.00  0.00     0.211 HD
ENDBRANCH   9  10
BRANCH   9  12
ATOM     12  C   UNL     1     -11.442  -1.792   6.045  1.00  0.00     0.089 C 
BRANCH  12  13
ATOM     13  N   UNL     1     -12.392  -2.927   6.085  1.00  0.00    -0.325 NA
ATOM     14  H   UNL     1     -12.858  -3.008   5.179  1.00  0.00     0.119 HD
ATOM     15  H   UNL     1     -13.138  -2.710   6.750  1.00  0.00     0.119 HD
ENDBRANCH  12  13
BRANCH  12  16
ATOM     16  C   UNL     1     -12.176  -0.499   5.617  1.00  0.00     0.022 C 
BRANCH  16  17
ATOM     17  C   UNL     1     -13.463  -0.094   6.348  1.00  0.00     0.002 C 
BRANCH  17  18
ATOM     18  C   UNL     1     -13.711   1.411   6.430  1.00  0.00     0.000 C 
BRANCH  18  19
ATOM     19  C   UNL     1     -13.787   2.107   5.065  1.00  0.00    -0.000 C 
BRANCH  19  20
ATOM     20  C   UNL     1     -14.927   1.636   4.157  1.00  0.00    -0.000 C 
BRANCH  20  21
ATOM     21  C   UNL     1     -16.259   2.327   4.461  1.00  0.00    -0.003 C 
ATOM     22  C   UNL     1     -17.299   1.334   4.954  1.00  0.00     0.004 C 
ENDBRANCH  20  21
ENDBRANCH  19  20
ENDBRANCH  18  19
ENDBRANCH  17  18
ENDBRANCH  16  17
ENDBRANCH  12  16
ENDBRANCH   9  12
ENDBRANCH   6   9
ENDBRANCH   3   5
ENDBRANCH   2   3
BRANCH   2  23
ATOM     23  N   UNL     1     -10.626   3.793   7.931  1.00  0.00    -0.332 N 
ATOM     24  C   UNL     1     -11.387   5.019   7.743  1.00  0.00     0.147 C 
BRANCH  23  25
ATOM     25  C   UNL     1      -9.443   3.648   7.039  1.00  0.00     0.174 C 
BRANCH  25  26
ATOM     26  C   UNL     1      -8.474   4.851   7.122  1.00  0.00     0.038 C 
BRANCH  26  27
ATOM     27  C   UNL     1      -7.119   4.612   7.824  1.00  0.00    -0.015 C 
ATOM     28  C   UNL     1      -6.914   3.149   8.217  1.00  0.00     0.007 C 
ATOM     29  C   UNL     1      -5.923   5.126   7.027  1.00  0.00     0.007 C 
ENDBRANCH  26  27
ENDBRANCH  25  26
BRANCH  25  30
ATOM     30  C   UNL     1      -9.899   3.315   5.600  1.00  0.00     0.243 C 
ATOM     31  O   UNL     1     -10.430   2.242   5.319  1.00  0.00    -0.273 OA
ATOM     32  N   UNL     1      -9.666   4.289   4.664  1.00  0.00    -0.342 N 
ATOM     33  H   UNL     1      -9.352   5.203   4.999  1.00  0.00     0.164 HD
BRANCH  32  34
ATOM     34  C   UNL     1     -10.007   4.137   3.247  1.00  0.00     0.175 C 
BRANCH  34  35
ATOM     35  C   UNL     1     -10.691   5.398   2.698  1.00  0.00     0.070 C 
BRANCH  35  36
ATOM     36  C   UNL     1     -10.188   6.667   3.349  1.00  0.00    -0.045 A 
ATOM     37  C   UNL     1     -10.892   7.229   4.425  1.00  0.00     0.007 A 
ATOM     38  C   UNL     1      -9.035   7.308   2.879  1.00  0.00     0.007 A 
ATOM     39  C   UNL     1     -10.443   8.407   5.024  1.00  0.00     0.046 A 
ATOM     40  C   UNL     1      -8.586   8.488   3.477  1.00  0.00     0.046 A 
ATOM     41  C   UNL     1      -9.295   9.026   4.546  1.00  0.00     0.115 A 
BRANCH  41  42
ATOM     42  O   UNL     1      -8.892  10.177   5.157  1.00  0.00    -0.508 OA
ATOM     43  H   UNL     1      -9.270  10.928   4.670  1.00  0.00     0.293 HD
ENDBRANCH  41  42
ENDBRANCH  35  36
ENDBRANCH  34  35
BRANCH  34  44
ATOM     44  C   UNL     1      -8.710   3.802   2.476  1.00  0.00     0.243 C 
ATOM     45  O   UNL     1      -8.658   3.578   1.270  1.00  0.00    -0.273 OA
ATOM     46  N   UNL     1      -7.611   3.644   3.293  1.00  0.00    -0.341 N 
ATOM     47  H   UNL     1      -7.728   3.725   4.300  1.00  0.00     0.164 HD
BRANCH  46  48
ATOM     48  C   UNL     1      -6.287   3.259   2.798  1.00  0.00     0.196 C 
BRANCH  48  49
ATOM     49  C   UNL     1      -5.169   3.825   3.691  1.00  0.00     0.072 C 
BRANCH  49  50
ATOM     50  C   UNL     1      -4.587   5.111   3.149  1.00  0.00    -0.045 A 
ATOM     51  C   UNL     1      -3.545   5.066   2.211  1.00  0.00     0.007 A 
ATOM     52  C   UNL     1      -5.059   6.356   3.585  1.00  0.00     0.007 A 
ATOM     53  C   UNL     1      -2.991   6.246   1.714  1.00  0.00     0.046 A 
ATOM     54  C   UNL     1      -4.503   7.537   3.089  1.00  0.00     0.046 A 
ATOM     55  C   UNL     1      -3.474   7.472   2.156  1.00  0.00     0.115 A 
BRANCH  55  56
ATOM     56  O   UNL     1      -2.904   8.601   1.647  1.00  0.00    -0.508 OA
ATOM     57  H   UNL     1      -3.599   9.130   1.223  1.00  0.00     0.293 HD
ENDBRANCH  55  56
ENDBRANCH  49  50
ENDBRANCH  48  49
BRANCH  48  58
ATOM     58  C   UNL     1      -6.193   1.728   2.764  1.00  0.00     0.326 C 
ATOM     59  O   UNL     1      -5.782   0.993   3.647  1.00  0.00    -0.250 OA
BRANCH  58  60
ATOM     60  O   UNL     1      -6.643   1.183   1.606  1.00  0.00    -0.480 OA
ATOM     61  H   UNL     1      -7.290   0.510   1.909  1.00  0.00     0.296 HD
ENDBRANCH  58  60
ENDBRANCH  48  58
ENDBRANCH  46  48
ENDBRANCH  34  44
ENDBRANCH  32  34
ENDBRANCH  25  30
ENDBRANCH  23  25
ENDBRANCH   2  23
TORSDOF 28
ENDMDL
MODEL 3
REMARK VINA RESULT:    -7.354      4.134      8.249
REMARK INTER + INTRA:         -23.409
REMARK INTER:                 -19.258
REMARK INTRA:                  -4.151
REMARK UNBOUND:                -5.093
REMARK SMILES CCCCCCC[C@H](N)[C@H](O)C(=O)N[C@H](C)C(=O)N(C)[C@H](CC(C)C)C(=O)N[C@@H](Cc1ccc(O)cc1)C(=O)N[C@@H](Cc1ccc(O)cc1)C(=O)O
REMARK SMILES IDX 18 1 17 2 15 3 16 4 14 5 12 6 13 7 10 9 11 10 8 12 9 13 7 16
REMARK SMILES IDX 6 17 5 18 4 19 3 20 2 21 1 22 19 23 20 24 21 25 22 26 23 27
REMARK SMILES IDX 24 28 25 29 26 30 27 31 28 32 29 34 30 35 31 36 32 37 37 38
REMARK SMILES IDX 33 39 36 40 34 41 35 42 38 44 39 45 40 46 41 48 42 49 43 50
REMARK SMILES IDX 44 51 49 52 45 53 48 54 46 55 47 56 50 58 51 59 52 60
REMARK H PARENT 14 8 11 11 9 14 9 15 28 33 35 43 40 47 47 57 52 61
ROOT
ATOM      1  O   UNL     1     -12.441   4.248   6.996  1.00  0.00    -0.272 OA
ATOM      2  C   UNL     1     -11.589   3.364   6.824  1.00  0.00     0.245 C 
ENDROOT
BRANCH   2   3
ATOM      3  C   UNL     1     -11.988   1.890   7.086  1.00  0.00     0.168 C 
ATOM      4  C   UNL     1     -13.293   1.813   7.870  1.00  0.00     0.041 C 
BRANCH   3   5
ATOM      5  N   UNL     1     -12.015   1.045   5.903  1.00  0.00    -0.342 N 
ATOM      6  C   UNL     1     -11.136  -0.005   5.737  1.00  0.00     0.251 C 
ATOM      7  O   UNL     1     -10.250  -0.277   6.540  1.00  0.00    -0.272 OA
ATOM      8  H   UNL     1     -12.684   1.195   5.152  1.00  0.00     0.164 HD
BRANCH   6   9
ATOM      9  C   UNL     1     -11.441  -0.844   4.486  1.00  0.00     0.219 C 
BRANCH   9  10
ATOM     10  O   UNL     1     -12.255  -1.988   4.773  1.00  0.00    -0.382 OA
ATOM     11  H   UNL     1     -12.490  -1.872   5.720  1.00  0.00     0.211 HD
ENDBRANCH   9  10
BRANCH   9  12
ATOM     12  C   UNL     1     -12.051  -0.011   3.328  1.00  0.00     0.089 C 
BRANCH  12  13
ATOM     13  N   UNL     1     -11.116   1.091   3.003  1.00  0.00    -0.325 NA
ATOM     14  H   UNL     1     -10.966   1.116   1.993  1.00  0.00     0.119 HD
ATOM     15  H   UNL     1     -10.200   0.877   3.404  1.00  0.00     0.119 HD
ENDBRANCH  12  13
BRANCH  12  16
ATOM     16  C   UNL     1     -12.412  -0.798   2.045  1.00  0.00     0.022 C 
BRANCH  16  17
ATOM     17  C   UNL     1     -11.461  -0.741   0.842  1.00  0.00     0.002 C 
BRANCH  17  18
ATOM     18  C   UNL     1     -12.111  -0.319  -0.474  1.00  0.00     0.000 C 
BRANCH  18  19
ATOM     19  C   UNL     1     -11.393  -0.847  -1.723  1.00  0.00    -0.000 C 
BRANCH  19  20
ATOM     20  C   UNL     1     -11.312  -2.372  -1.831  1.00  0.00    -0.000 C 
BRANCH  20  21
ATOM     21  C   UNL     1      -9.895  -2.879  -2.116  1.00  0.00    -0.003 C 
ATOM     22  C   UNL     1      -9.094  -3.036  -0.833  1.00  0.00     0.004 C 
ENDBRANCH  20  21
ENDBRANCH  19  20
ENDBRANCH  18  19
ENDBRANCH  17  18
ENDBRANCH  16  17
ENDBRANCH  12  16
ENDBRANCH   9  12
ENDBRANCH   6   9
ENDBRANCH   3   5
ENDBRANCH   2   3
BRANCH   2  23
ATOM     23  N   UNL     1     -10.347   3.689   6.289  1.00  0.00    -0.332 N 
ATOM     24  C   UNL     1      -9.091   3.071   6.683  1.00  0.00     0.147 C 
BRANCH  23  25
ATOM     25  C   UNL     1     -10.247   4.639   5.147  1.00  0.00     0.174 C 
BRANCH  25  26
ATOM     26  C   UNL     1      -9.310   4.134   4.024  1.00  0.00     0.038 C 
BRANCH  26  27
ATOM     27  C   UNL     1      -9.824   4.261   2.573  1.00  0.00    -0.015 C 
ATOM     28  C   UNL     1     -10.122   5.708   2.183  1.00  0.00     0.007 C 
ATOM     29  C   UNL     1      -8.906   3.606   1.544  1.00  0.00     0.007 C 
ENDBRANCH  26  27
ENDBRANCH  25  26
BRANCH  25  30
ATOM     30  C   UNL     1      -9.896   6.054   5.661  1.00  0.00     0.243 C 
ATOM     31  O   UNL     1      -8.742   6.376   5.942  1.00  0.00    -0.273 OA
ATOM     32  N   UNL     1     -10.953   6.919   5.786  1.00  0.00    -0.342 N 
ATOM     33  H   UNL     1     -11.854   6.625   5.400  1.00  0.00     0.164 HD
BRANCH  32  34
ATOM     34  C   UNL     1     -10.812   8.290   6.284  1.00  0.00     0.175 C 
BRANCH  34  35
ATOM     35  C   UNL     1     -11.040   9.317   5.164  1.00  0.00     0.070 C 
BRANCH  35  36
ATOM     36  C   UNL     1      -9.751   9.789   4.531  1.00  0.00    -0.045 A 
ATOM     37  C   UNL     1      -9.274  11.083   4.790  1.00  0.00     0.007 A 
ATOM     38  C   UNL     1      -9.030   8.958   3.664  1.00  0.00     0.007 A 
ATOM     39  C   UNL     1      -8.093  11.532   4.200  1.00  0.00     0.046 A 
ATOM     40  C   UNL     1      -7.847   9.407   3.071  1.00  0.00     0.046 A 
ATOM     41  C   UNL     1      -7.389  10.691   3.346  1.00  0.00     0.115 A 
BRANCH  41  42
ATOM     42  O   UNL     1      -6.241  11.170   2.787  1.00  0.00    -0.508 OA
ATOM     43  H   UNL     1      -6.391  11.288   1.835  1.00  0.00     0.293 HD
ENDBRANCH  41  42
ENDBRANCH  35  36
ENDBRANCH  34  35
BRANCH  34  44
ATOM     44  C   UNL     1     -11.804   8.480   7.453  1.00  0.00     0.243 C 
ATOM     45  O   UNL     1     -11.862   9.483   8.158  1.00  0.00    -0.273 OA
ATOM     46  N   UNL     1     -12.551   7.353   7.727  1.00  0.00    -0.341 N 
ATOM     47  H   UNL     1     -12.384   6.507   7.188  1.00  0.00     0.164 HD
BRANCH  46  48
ATOM     48  C   UNL     1     -13.508   7.271   8.832  1.00  0.00     0.196 C 
BRANCH  48  49
ATOM     49  C   UNL     1     -14.851   6.682   8.367  1.00  0.00     0.072 C 
BRANCH  49  50
ATOM     50  C   UNL     1     -15.887   7.747   8.087  1.00  0.00    -0.045 A 
ATOM     51  C   UNL     1     -17.186   7.609   8.597  1.00  0.00     0.007 A 
ATOM     52  C   UNL     1     -15.577   8.866   7.303  1.00  0.00     0.007 A 
ATOM     53  C   UNL     1     -18.154   8.579   8.335  1.00  0.00     0.046 A 
ATOM     54  C   UNL     1     -16.547   9.836   7.039  1.00  0.00     0.046 A 
ATOM     55  C   UNL     1     -17.828   9.684   7.559  1.00  0.00     0.115 A 
BRANCH  55  56
ATOM     56  O   UNL     1     -18.803  10.607   7.324  1.00  0.00    -0.508 OA
ATOM     57  H   UNL     1     -19.600  10.141   7.024  1.00  0.00     0.293 HD
ENDBRANCH  55  56
ENDBRANCH  49  50
ENDBRANCH  48  49
BRANCH  48  58
ATOM     58  C   UNL     1     -12.917   6.390   9.941  1.00  0.00     0.326 C 
ATOM     59  O   UNL     1     -13.129   6.469  11.140  1.00  0.00    -0.250 OA
BRANCH  58  60
ATOM     60  O   UNL     1     -12.083   5.424   9.478  1.00  0.00    -0.480 OA
ATOM     61  H   UNL     1     -12.626   4.609   9.537  1.00  0.00     0.296 HD
ENDBRANCH  58  60
ENDBRANCH  48  58
ENDBRANCH  46  48
ENDBRANCH  34  44
ENDBRANCH  32  34
ENDBRANCH  25  30
ENDBRANCH  23  25
ENDBRANCH   2  23
TORSDOF 28
ENDMDL
MODEL 4
REMARK VINA RESULT:    -7.315      3.472      7.229
REMARK INTER + INTRA:         -23.314
REMARK INTER:                 -18.168
REMARK INTRA:                  -5.145
REMARK UNBOUND:                -5.093
REMARK SMILES CCCCCCC[C@H](N)[C@H](O)C(=O)N[C@H](C)C(=O)N(C)[C@H](CC(C)C)C(=O)N[C@@H](Cc1ccc(O)cc1)C(=O)N[C@@H](Cc1ccc(O)cc1)C(=O)O
REMARK SMILES IDX 18 1 17 2 15 3 16 4 14 5 12 6 13 7 10 9 11 10 8 12 9 13 7 16
REMARK SMILES IDX 6 17 5 18 4 19 3 20 2 21 1 22 19 23 20 24 21 25 22 26 23 27
REMARK SMILES IDX 24 28 25 29 26 30 27 31 28 32 29 34 30 35 31 36 32 37 37 38
REMARK SMILES IDX 33 39 36 40 34 41 35 42 38 44 39 45 40 46 41 48 42 49 43 50
REMARK SMILES IDX 44 51 49 52 45 53 48 54 46 55 47 56 50 58 51 59 52 60
REMARK H PARENT 14 8 11 11 9 14 9 15 28 33 35 43 40 47 47 57 52 61
ROOT
ATOM      1  O   UNL     1     -11.305   3.770  10.112  1.00  0.00    -0.272 OA
ATOM      2  C   UNL     1     -12.131   3.013   9.580  1.00  0.00     0.245 C 
ENDROOT
BRANCH   2   3
ATOM      3  C   UNL     1     -11.626   1.974   8.549  1.00  0.00     0.168 C 
ATOM      4  C   UNL     1     -12.586   1.871   7.369  1.00  0.00     0.041 C 
BRANCH   3   5
ATOM      5  N   UNL     1     -10.251   2.162   8.113  1.00  0.00    -0.342 N 
ATOM      6  C   UNL     1      -9.187   1.630   8.811  1.00  0.00     0.251 C 
ATOM      7  O   UNL     1      -9.310   1.003   9.857  1.00  0.00    -0.272 OA
ATOM      8  H   UNL     1     -10.021   2.695   7.278  1.00  0.00     0.164 HD
BRANCH   6   9
ATOM      9  C   UNL     1      -7.844   1.834   8.092  1.00  0.00     0.219 C 
BRANCH   9  10
ATOM     10  O   UNL     1      -7.743   1.072   6.882  1.00  0.00    -0.382 OA
ATOM     11  H   UNL     1      -6.926   1.416   6.460  1.00  0.00     0.211 HD
ENDBRANCH   9  10
BRANCH   9  12
ATOM     12  C   UNL     1      -7.512   3.327   7.832  1.00  0.00     0.089 C 
BRANCH  12  13
ATOM     13  N   UNL     1      -8.259   4.148   8.812  1.00  0.00    -0.325 NA
ATOM     14  H   UNL     1      -7.614   4.797   9.267  1.00  0.00     0.119 HD
ATOM     15  H   UNL     1      -8.600   3.542   9.561  1.00  0.00     0.119 HD
ENDBRANCH  12  13
BRANCH  12  16
ATOM     16  C   UNL     1      -6.011   3.702   7.858  1.00  0.00     0.022 C 
BRANCH  16  17
ATOM     17  C   UNL     1      -5.584   5.103   7.401  1.00  0.00     0.002 C 
BRANCH  17  18
ATOM     18  C   UNL     1      -5.491   5.288   5.888  1.00  0.00     0.000 C 
BRANCH  18  19
ATOM     19  C   UNL     1      -4.698   4.186   5.172  1.00  0.00    -0.000 C 
BRANCH  19  20
ATOM     20  C   UNL     1      -4.788   4.209   3.643  1.00  0.00    -0.000 C 
BRANCH  20  21
ATOM     21  C   UNL     1      -5.163   5.585   3.085  1.00  0.00    -0.003 C 
ATOM     22  C   UNL     1      -3.930   6.357   2.641  1.00  0.00     0.004 C 
ENDBRANCH  20  21
ENDBRANCH  19  20
ENDBRANCH  18  19
ENDBRANCH  17  18
ENDBRANCH  16  17
ENDBRANCH  12  16
ENDBRANCH   9  12
ENDBRANCH   6   9
ENDBRANCH   3   5
ENDBRANCH   2   3
BRANCH   2  23
ATOM     23  N   UNL     1     -13.456   3.024  10.001  1.00  0.00    -0.332 N 
ATOM     24  C   UNL     1     -14.168   1.866  10.519  1.00  0.00     0.147 C 
BRANCH  23  25
ATOM     25  C   UNL     1     -14.213   4.305  10.064  1.00  0.00     0.174 C 
BRANCH  25  26
ATOM     26  C   UNL     1     -15.611   4.147  10.708  1.00  0.00     0.038 C 
BRANCH  26  27
ATOM     27  C   UNL     1     -15.993   5.163  11.808  1.00  0.00    -0.015 C 
ATOM     28  C   UNL     1     -15.575   4.699  13.203  1.00  0.00     0.007 C 
ATOM     29  C   UNL     1     -15.481   6.575  11.535  1.00  0.00     0.007 C 
ENDBRANCH  26  27
ENDBRANCH  25  26
BRANCH  25  30
ATOM     30  C   UNL     1     -14.243   4.974   8.671  1.00  0.00     0.243 C 
ATOM     31  O   UNL     1     -14.901   4.511   7.741  1.00  0.00    -0.273 OA
ATOM     32  N   UNL     1     -13.486   6.110   8.543  1.00  0.00    -0.342 N 
ATOM     33  H   UNL     1     -13.083   6.510   9.394  1.00  0.00     0.164 HD
BRANCH  32  34
ATOM     34  C   UNL     1     -13.373   6.861   7.289  1.00  0.00     0.175 C 
BRANCH  34  35
ATOM     35  C   UNL     1     -13.662   8.355   7.505  1.00  0.00     0.070 C 
BRANCH  35  36
ATOM     36  C   UNL     1     -15.094   8.725   7.188  1.00  0.00    -0.045 A 
ATOM     37  C   UNL     1     -15.373   9.627   6.151  1.00  0.00     0.007 A 
ATOM     38  C   UNL     1     -16.155   8.195   7.934  1.00  0.00     0.007 A 
ATOM     39  C   UNL     1     -16.689   9.985   5.860  1.00  0.00     0.046 A 
ATOM     40  C   UNL     1     -17.474   8.555   7.645  1.00  0.00     0.046 A 
ATOM     41  C   UNL     1     -17.729   9.446   6.609  1.00  0.00     0.115 A 
BRANCH  41  42
ATOM     42  O   UNL     1     -19.001   9.825   6.295  1.00  0.00    -0.508 OA
ATOM     43  H   UNL     1     -18.954  10.504   5.602  1.00  0.00     0.293 HD
ENDBRANCH  41  42
ENDBRANCH  35  36
ENDBRANCH  34  35
BRANCH  34  44
ATOM     44  C   UNL     1     -11.958   6.624   6.715  1.00  0.00     0.243 C 
ATOM     45  O   UNL     1     -11.094   5.942   7.258  1.00  0.00    -0.273 OA
ATOM     46  N   UNL     1     -11.696   7.362   5.580  1.00  0.00    -0.341 N 
ATOM     47  H   UNL     1     -12.405   8.003   5.233  1.00  0.00     0.164 HD
BRANCH  46  48
ATOM     48  C   UNL     1     -10.402   7.355   4.895  1.00  0.00     0.196 C 
BRANCH  48  49
ATOM     49  C   UNL     1     -10.524   6.788   3.471  1.00  0.00     0.072 C 
BRANCH  49  50
ATOM     50  C   UNL     1      -9.744   5.506   3.286  1.00  0.00    -0.045 A 
ATOM     51  C   UNL     1      -9.168   4.872   4.396  1.00  0.00     0.007 A 
ATOM     52  C   UNL     1      -9.568   4.947   2.014  1.00  0.00     0.007 A 
ATOM     53  C   UNL     1      -8.436   3.696   4.236  1.00  0.00     0.046 A 
ATOM     54  C   UNL     1      -8.833   3.770   1.853  1.00  0.00     0.046 A 
ATOM     55  C   UNL     1      -8.274   3.154   2.967  1.00  0.00     0.115 A 
BRANCH  55  56
ATOM     56  O   UNL     1      -7.549   2.004   2.853  1.00  0.00    -0.508 OA
ATOM     57  H   UNL     1      -8.160   1.252   2.898  1.00  0.00     0.293 HD
ENDBRANCH  55  56
ENDBRANCH  49  50
ENDBRANCH  48  49
BRANCH  48  58
ATOM     58  C   UNL     1      -9.862   8.791   4.833  1.00  0.00     0.326 C 
ATOM     59  O   UNL     1      -9.370   9.354   3.869  1.00  0.00    -0.250 OA
BRANCH  58  60
ATOM     60  O   UNL     1      -9.982   9.465   6.004  1.00  0.00    -0.480 OA
ATOM     61  H   UNL     1      -9.346  10.207   5.905  1.00  0.00     0.296 HD
ENDBRANCH  58  60
ENDBRANCH  48  58
ENDBRANCH  46  48
ENDBRANCH  34  44
ENDBRANCH  32  34
ENDBRANCH  25  30
ENDBRANCH  23  25
ENDBRANCH   2  23
TORSDOF 28
ENDMDL
MODEL 5
REMARK VINA RESULT:    -7.263      3.553      7.387
REMARK INTER + INTRA:         -23.182
REMARK INTER:                 -20.166
REMARK INTRA:                  -3.017
REMARK UNBOUND:                -5.093
REMARK SMILES CCCCCCC[C@H](N)[C@H](O)C(=O)N[C@H](C)C(=O)N(C)[C@H](CC(C)C)C(=O)N[C@@H](Cc1ccc(O)cc1)C(=O)N[C@@H](Cc1ccc(O)cc1)C(=O)O
REMARK SMILES IDX 18 1 17 2 15 3 16 4 14 5 12 6 13 7 10 9 11 10 8 12 9 13 7 16
REMARK SMILES IDX 6 17 5 18 4 19 3 20 2 21 1 22 19 23 20 24 21 25 22 26 23 27
REMARK SMILES IDX 24 28 25 29 26 30 27 31 28 32 29 34 30 35 31 36 32 37 37 38
REMARK SMILES IDX 33 39 36 40 34 41 35 42 38 44 39 45 40 46 41 48 42 49 43 50
REMARK SMILES IDX 44 51 49 52 45 53 48 54 46 55 47 56 50 58 51 59 52 60
REMARK H PARENT 14 8 11 11 9 14 9 15 28 33 35 43 40 47 47 57 52 61
ROOT
ATOM      1  O   UNL     1     -10.797   9.460   7.613  1.00  0.00    -0.272 OA
ATOM      2  C   UNL     1     -11.456   9.429   6.563  1.00  0.00     0.245 C 
ENDROOT
BRANCH   2   3
ATOM      3  C   UNL     1     -12.377  10.629   6.231  1.00  0.00     0.168 C 
ATOM      4  C   UNL     1     -11.899  11.347   4.973  1.00  0.00     0.041 C 
BRANCH   3   5
ATOM      5  N   UNL     1     -13.795  10.312   6.168  1.00  0.00    -0.342 N 
ATOM      6  C   UNL     1     -14.764  11.249   6.460  1.00  0.00     0.251 C 
ATOM      7  O   UNL     1     -14.512  12.390   6.830  1.00  0.00    -0.272 OA
ATOM      8  H   UNL     1     -14.127   9.387   5.906  1.00  0.00     0.164 HD
BRANCH   6   9
ATOM      9  C   UNL     1     -16.188  10.735   6.189  1.00  0.00     0.219 C 
BRANCH   9  10
ATOM     10  O   UNL     1     -16.248   9.835   5.077  1.00  0.00    -0.382 OA
ATOM     11  H   UNL     1     -15.457  10.071   4.545  1.00  0.00     0.211 HD
ENDBRANCH   9  10
BRANCH   9  12
ATOM     12  C   UNL     1     -16.858  10.111   7.441  1.00  0.00     0.089 C 
BRANCH  12  13
ATOM     13  N   UNL     1     -18.275  10.540   7.474  1.00  0.00    -0.325 NA
ATOM     14  H   UNL     1     -18.407  11.203   8.240  1.00  0.00     0.119 HD
ATOM     15  H   UNL     1     -18.859   9.735   7.715  1.00  0.00     0.119 HD
ENDBRANCH  12  13
BRANCH  12  16
ATOM     16  C   UNL     1     -16.766   8.571   7.562  1.00  0.00     0.022 C 
BRANCH  16  17
ATOM     17  C   UNL     1     -15.471   7.940   8.093  1.00  0.00     0.002 C 
BRANCH  17  18
ATOM     18  C   UNL     1     -15.598   6.484   8.535  1.00  0.00     0.000 C 
BRANCH  18  19
ATOM     19  C   UNL     1     -16.369   6.294   9.848  1.00  0.00    -0.000 C 
BRANCH  19  20
ATOM     20  C   UNL     1     -15.637   6.771  11.106  1.00  0.00    -0.000 C 
BRANCH  20  21
ATOM     21  C   UNL     1     -14.986   5.628  11.890  1.00  0.00    -0.003 C 
ATOM     22  C   UNL     1     -16.023   4.627  12.376  1.00  0.00     0.004 C 
ENDBRANCH  20  21
ENDBRANCH  19  20
ENDBRANCH  18  19
ENDBRANCH  17  18
ENDBRANCH  16  17
ENDBRANCH  12  16
ENDBRANCH   9  12
ENDBRANCH   6   9
ENDBRANCH   3   5
ENDBRANCH   2   3
BRANCH   2  23
ATOM     23  N   UNL     1     -11.270   8.392   5.656  1.00  0.00    -0.332 N 
ATOM     24  C   UNL     1     -12.347   7.648   5.019  1.00  0.00     0.147 C 
BRANCH  23  25
ATOM     25  C   UNL     1      -9.903   8.056   5.169  1.00  0.00     0.174 C 
BRANCH  25  26
ATOM     26  C   UNL     1      -9.650   8.521   3.716  1.00  0.00     0.038 C 
BRANCH  26  27
ATOM     27  C   UNL     1      -8.546   9.580   3.502  1.00  0.00    -0.015 C 
ATOM     28  C   UNL     1      -8.413  10.533   4.690  1.00  0.00     0.007 C 
ATOM     29  C   UNL     1      -7.190   8.980   3.140  1.00  0.00     0.007 C 
ENDBRANCH  26  27
ENDBRANCH  25  26
BRANCH  25  30
ATOM     30  C   UNL     1      -9.610   6.556   5.402  1.00  0.00     0.243 C 
ATOM     31  O   UNL     1      -9.289   6.120   6.507  1.00  0.00    -0.273 OA
ATOM     32  N   UNL     1      -9.725   5.750   4.299  1.00  0.00    -0.342 N 
ATOM     33  H   UNL     1     -10.131   6.160   3.454  1.00  0.00     0.164 HD
BRANCH  32  34
ATOM     34  C   UNL     1      -9.458   4.310   4.326  1.00  0.00     0.175 C 
BRANCH  34  35
ATOM     35  C   UNL     1     -10.717   3.502   3.977  1.00  0.00     0.070 C 
BRANCH  35  36
ATOM     36  C   UNL     1     -10.710   2.117   4.583  1.00  0.00    -0.045 A 
ATOM     37  C   UNL     1     -11.489   1.097   4.014  1.00  0.00     0.007 A 
ATOM     38  C   UNL     1      -9.951   1.837   5.727  1.00  0.00     0.007 A 
ATOM     39  C   UNL     1     -11.499  -0.180   4.575  1.00  0.00     0.046 A 
ATOM     40  C   UNL     1      -9.963   0.558   6.290  1.00  0.00     0.046 A 
ATOM     41  C   UNL     1     -10.736  -0.440   5.707  1.00  0.00     0.115 A 
BRANCH  41  42
ATOM     42  O   UNL     1     -10.777  -1.700   6.225  1.00  0.00    -0.508 OA
ATOM     43  H   UNL     1     -11.643  -1.828   6.647  1.00  0.00     0.293 HD
ENDBRANCH  41  42
ENDBRANCH  35  36
ENDBRANCH  34  35
BRANCH  34  44
ATOM     44  C   UNL     1      -8.296   4.019   3.349  1.00  0.00     0.243 C 
ATOM     45  O   UNL     1      -8.372   4.129   2.129  1.00  0.00    -0.273 OA
ATOM     46  N   UNL     1      -7.181   3.491   3.965  1.00  0.00    -0.341 N 
ATOM     47  H   UNL     1      -7.208   3.310   4.965  1.00  0.00     0.164 HD
BRANCH  46  48
ATOM     48  C   UNL     1      -5.981   3.074   3.237  1.00  0.00     0.196 C 
BRANCH  48  49
ATOM     49  C   UNL     1      -4.704   3.601   3.914  1.00  0.00     0.072 C 
BRANCH  49  50
ATOM     50  C   UNL     1      -4.242   4.920   3.337  1.00  0.00    -0.045 A 
ATOM     51  C   UNL     1      -3.516   4.943   2.138  1.00  0.00     0.007 A 
ATOM     52  C   UNL     1      -4.510   6.127   3.996  1.00  0.00     0.007 A 
ATOM     53  C   UNL     1      -3.074   6.153   1.603  1.00  0.00     0.046 A 
ATOM     54  C   UNL     1      -4.066   7.339   3.461  1.00  0.00     0.046 A 
ATOM     55  C   UNL     1      -3.352   7.341   2.268  1.00  0.00     0.115 A 
BRANCH  55  56
ATOM     56  O   UNL     1      -2.900   8.502   1.713  1.00  0.00    -0.508 OA
ATOM     57  H   UNL     1      -3.179   8.526   0.784  1.00  0.00     0.293 HD
ENDBRANCH  55  56
ENDBRANCH  49  50
ENDBRANCH  48  49
BRANCH  48  58
ATOM     58  C   UNL     1      -5.939   1.540   3.182  1.00  0.00     0.326 C 
ATOM     59  O   UNL     1      -5.348   0.846   2.370  1.00  0.00    -0.250 OA
BRANCH  58  60
ATOM     60  O   UNL     1      -6.642   0.943   4.176  1.00  0.00    -0.480 OA
ATOM     61  H   UNL     1      -6.902   0.082   3.784  1.00  0.00     0.296 HD
ENDBRANCH  58  60
ENDBRANCH  48  58
ENDBRANCH  46  48
ENDBRANCH  34  44
ENDBRANCH  32  34
ENDBRANCH  25  30
ENDBRANCH  23  25
ENDBRANCH   2  23
TORSDOF 28
ENDMDL
MODEL 6
REMARK VINA RESULT:    -7.253      3.238      7.913
REMARK INTER + INTRA:         -23.157
REMARK INTER:                 -18.871
REMARK INTRA:                  -4.286
REMARK UNBOUND:                -5.093
REMARK SMILES CCCCCCC[C@H](N)[C@H](O)C(=O)N[C@H](C)C(=O)N(C)[C@H](CC(C)C)C(=O)N[C@@H](Cc1ccc(O)cc1)C(=O)N[C@@H](Cc1ccc(O)cc1)C(=O)O
REMARK SMILES IDX 18 1 17 2 15 3 16 4 14 5 12 6 13 7 10 9 11 10 8 12 9 13 7 16
REMARK SMILES IDX 6 17 5 18 4 19 3 20 2 21 1 22 19 23 20 24 21 25 22 26 23 27
REMARK SMILES IDX 24 28 25 29 26 30 27 31 28 32 29 34 30 35 31 36 32 37 37 38
REMARK SMILES IDX 33 39 36 40 34 41 35 42 38 44 39 45 40 46 41 48 42 49 43 50
REMARK SMILES IDX 44 51 49 52 45 53 48 54 46 55 47 56 50 58 51 59 52 60
REMARK H PARENT 14 8 11 11 9 14 9 15 28 33 35 43 40 47 47 57 52 61
ROOT
ATOM      1  O   UNL     1     -12.522   6.871   6.272  1.00  0.00    -0.272 OA
ATOM      2  C   UNL     1     -11.352   7.175   5.999  1.00  0.00     0.245 C 
ENDROOT
BRANCH   2   3
ATOM      3  C   UNL     1     -11.003   8.670   5.794  1.00  0.00     0.168 C 
ATOM      4  C   UNL     1     -10.021   8.844   4.640  1.00  0.00     0.041 C 
BRANCH   3   5
ATOM      5  N   UNL     1     -12.151   9.553   5.665  1.00  0.00    -0.342 N 
ATOM      6  C   UNL     1     -12.643  10.268   6.737  1.00  0.00     0.251 C 
ATOM      7  O   UNL     1     -12.186  10.186   7.872  1.00  0.00    -0.272 OA
ATOM      8  H   UNL     1     -12.636   9.677   4.780  1.00  0.00     0.164 HD
BRANCH   6   9
ATOM      9  C   UNL     1     -13.765  11.240   6.338  1.00  0.00     0.219 C 
BRANCH   9  10
ATOM     10  O   UNL     1     -13.395  12.095   5.250  1.00  0.00    -0.382 OA
ATOM     11  H   UNL     1     -13.459  12.998   5.633  1.00  0.00     0.211 HD
ENDBRANCH   9  10
BRANCH   9  12
ATOM     12  C   UNL     1     -15.112  10.529   6.045  1.00  0.00     0.089 C 
BRANCH  12  13
ATOM     13  N   UNL     1     -15.116  10.101   4.628  1.00  0.00    -0.325 NA
ATOM     14  H   UNL     1     -14.420  10.643   4.111  1.00  0.00     0.119 HD
ATOM     15  H   UNL     1     -16.015  10.353   4.209  1.00  0.00     0.119 HD
ENDBRANCH  12  13
BRANCH  12  16
ATOM     16  C   UNL     1     -15.460   9.332   6.962  1.00  0.00     0.022 C 
BRANCH  16  17
ATOM     17  C   UNL     1     -16.934   8.976   7.200  1.00  0.00     0.002 C 
BRANCH  17  18
ATOM     18  C   UNL     1     -17.176   7.909   8.265  1.00  0.00     0.000 C 
BRANCH  18  19
ATOM     19  C   UNL     1     -15.902   7.438   8.979  1.00  0.00    -0.000 C 
BRANCH  19  20
ATOM     20  C   UNL     1     -16.133   6.553  10.207  1.00  0.00    -0.000 C 
BRANCH  20  21
ATOM     21  C   UNL     1     -15.202   6.891  11.374  1.00  0.00    -0.003 C 
ATOM     22  C   UNL     1     -13.899   7.504  10.884  1.00  0.00     0.004 C 
ENDBRANCH  20  21
ENDBRANCH  19  20
ENDBRANCH  18  19
ENDBRANCH  17  18
ENDBRANCH  16  17
ENDBRANCH  12  16
ENDBRANCH   9  12
ENDBRANCH   6   9
ENDBRANCH   3   5
ENDBRANCH   2   3
BRANCH   2  23
ATOM     23  N   UNL     1     -10.361   6.199   6.001  1.00  0.00    -0.332 N 
ATOM     24  C   UNL     1      -9.271   6.130   6.964  1.00  0.00     0.147 C 
BRANCH  23  25
ATOM     25  C   UNL     1     -10.435   5.051   5.056  1.00  0.00     0.174 C 
BRANCH  25  26
ATOM     26  C   UNL     1     -11.109   5.419   3.714  1.00  0.00     0.038 C 
BRANCH  26  27
ATOM     27  C   UNL     1     -10.320   5.101   2.424  1.00  0.00    -0.015 C 
ATOM     28  C   UNL     1      -9.968   6.359   1.630  1.00  0.00     0.007 C 
ATOM     29  C   UNL     1      -9.073   4.254   2.668  1.00  0.00     0.007 C 
ENDBRANCH  26  27
ENDBRANCH  25  26
BRANCH  25  30
ATOM     30  C   UNL     1     -11.069   3.826   5.755  1.00  0.00     0.243 C 
ATOM     31  O   UNL     1     -10.682   3.433   6.855  1.00  0.00    -0.273 OA
ATOM     32  N   UNL     1     -12.082   3.209   5.067  1.00  0.00    -0.342 N 
ATOM     33  H   UNL     1     -12.440   3.677   4.231  1.00  0.00     0.164 HD
BRANCH  32  34
ATOM     34  C   UNL     1     -12.779   2.019   5.563  1.00  0.00     0.175 C 
BRANCH  34  35
ATOM     35  C   UNL     1     -14.176   1.889   4.937  1.00  0.00     0.070 C 
BRANCH  35  36
ATOM     36  C   UNL     1     -15.242   2.614   5.727  1.00  0.00    -0.045 A 
ATOM     37  C   UNL     1     -14.926   3.190   6.967  1.00  0.00     0.007 A 
ATOM     38  C   UNL     1     -16.556   2.703   5.250  1.00  0.00     0.007 A 
ATOM     39  C   UNL     1     -15.905   3.849   7.710  1.00  0.00     0.046 A 
ATOM     40  C   UNL     1     -17.538   3.362   5.994  1.00  0.00     0.046 A 
ATOM     41  C   UNL     1     -17.202   3.931   7.218  1.00  0.00     0.115 A 
BRANCH  41  42
ATOM     42  O   UNL     1     -18.130   4.581   7.976  1.00  0.00    -0.508 OA
ATOM     43  H   UNL     1     -17.694   4.903   8.783  1.00  0.00     0.293 HD
ENDBRANCH  41  42
ENDBRANCH  35  36
ENDBRANCH  34  35
BRANCH  34  44
ATOM     44  C   UNL     1     -11.896   0.787   5.265  1.00  0.00     0.243 C 
ATOM     45  O   UNL     1     -11.881   0.186   4.195  1.00  0.00    -0.273 OA
ATOM     46  N   UNL     1     -11.204   0.329   6.367  1.00  0.00    -0.341 N 
ATOM     47  H   UNL     1     -11.339   0.791   7.262  1.00  0.00     0.164 HD
BRANCH  46  48
ATOM     48  C   UNL     1     -10.355  -0.864   6.346  1.00  0.00     0.196 C 
BRANCH  48  49
ATOM     49  C   UNL     1      -9.241  -0.778   7.403  1.00  0.00     0.072 C 
BRANCH  49  50
ATOM     50  C   UNL     1      -8.433   0.495   7.294  1.00  0.00    -0.045 A 
ATOM     51  C   UNL     1      -8.049   0.974   6.033  1.00  0.00     0.007 A 
ATOM     52  C   UNL     1      -8.040   1.200   8.439  1.00  0.00     0.007 A 
ATOM     53  C   UNL     1      -7.292   2.140   5.921  1.00  0.00     0.046 A 
ATOM     54  C   UNL     1      -7.281   2.367   8.327  1.00  0.00     0.046 A 
ATOM     55  C   UNL     1      -6.914   2.828   7.068  1.00  0.00     0.115 A 
BRANCH  55  56
ATOM     56  O   UNL     1      -6.173   3.962   6.915  1.00  0.00    -0.508 OA
ATOM     57  H   UNL     1      -5.417   3.918   7.522  1.00  0.00     0.293 HD
ENDBRANCH  55  56
ENDBRANCH  49  50
ENDBRANCH  48  49
BRANCH  48  58
ATOM     58  C   UNL     1     -11.224  -2.100   6.613  1.00  0.00     0.326 C 
ATOM     59  O   UNL     1     -12.170  -2.187   7.380  1.00  0.00    -0.250 OA
BRANCH  58  60
ATOM     60  O   UNL     1     -10.866  -3.184   5.880  1.00  0.00    -0.480 OA
ATOM     61  H   UNL     1      -9.917  -3.022   5.686  1.00  0.00     0.296 HD
ENDBRANCH  58  60
ENDBRANCH  48  58
ENDBRANCH  46  48
ENDBRANCH  34  44
ENDBRANCH  32  34
ENDBRANCH  25  30
ENDBRANCH  23  25
ENDBRANCH   2  23
TORSDOF 28
ENDMDL
MODEL 7
REMARK VINA RESULT:    -7.235      1.909      2.799
REMARK INTER + INTRA:         -23.114
REMARK INTER:                 -17.815
REMARK INTRA:                  -5.299
REMARK UNBOUND:                -5.093
REMARK SMILES CCCCCCC[C@H](N)[C@H](O)C(=O)N[C@H](C)C(=O)N(C)[C@H](CC(C)C)C(=O)N[C@@H](Cc1ccc(O)cc1)C(=O)N[C@@H](Cc1ccc(O)cc1)C(=O)O
REMARK SMILES IDX 18 1 17 2 15 3 16 4 14 5 12 6 13 7 10 9 11 10 8 12 9 13 7 16
REMARK SMILES IDX 6 17 5 18 4 19 3 20 2 21 1 22 19 23 20 24 21 25 22 26 23 27
REMARK SMILES IDX 24 28 25 29 26 30 27 31 28 32 29 34 30 35 31 36 32 37 37 38
REMARK SMILES IDX 33 39 36 40 34 41 35 42 38 44 39 45 40 46 41 48 42 49 43 50
REMARK SMILES IDX 44 51 49 52 45 53 48 54 46 55 47 56 50 58 51 59 52 60
REMARK H PARENT 14 8 11 11 9 14 9 15 28 33 35 43 40 47 47 57 52 61
ROOT
ATOM      1  O   UNL     1      -9.546   1.884   5.791  1.00  0.00    -0.272 OA
ATOM      2  C   UNL     1     -10.399   2.306   6.585  1.00  0.00     0.245 C 
ENDROOT
BRANCH   2   3
ATOM      3  C   UNL     1     -11.580   1.378   6.967  1.00  0.00     0.168 C 
ATOM      4  C   UNL     1     -11.798   1.372   8.476  1.00  0.00     0.041 C 
BRANCH   3   5
ATOM      5  N   UNL     1     -12.815   1.631   6.242  1.00  0.00    -0.342 N 
ATOM      6  C   UNL     1     -13.361   0.698   5.386  1.00  0.00     0.251 C 
ATOM      7  O   UNL     1     -12.836  -0.383   5.140  1.00  0.00    -0.272 OA
ATOM      8  H   UNL     1     -13.323   2.507   6.337  1.00  0.00     0.164 HD
BRANCH   6   9
ATOM      9  C   UNL     1     -14.735   1.122   4.842  1.00  0.00     0.219 C 
BRANCH   9  10
ATOM     10  O   UNL     1     -14.923   0.757   3.470  1.00  0.00    -0.382 OA
ATOM     11  H   UNL     1     -15.236  -0.173   3.518  1.00  0.00     0.211 HD
ENDBRANCH   9  10
BRANCH   9  12
ATOM     12  C   UNL     1     -15.915   0.617   5.713  1.00  0.00     0.089 C 
BRANCH  12  13
ATOM     13  N   UNL     1     -15.383  -0.332   6.717  1.00  0.00    -0.325 NA
ATOM     14  H   UNL     1     -15.516  -1.287   6.380  1.00  0.00     0.119 HD
ATOM     15  H   UNL     1     -15.950  -0.268   7.566  1.00  0.00     0.119 HD
ENDBRANCH  12  13
BRANCH  12  16
ATOM     16  C   UNL     1     -16.759   1.711   6.410  1.00  0.00     0.022 C 
BRANCH  16  17
ATOM     17  C   UNL     1     -16.144   3.099   6.635  1.00  0.00     0.002 C 
BRANCH  17  18
ATOM     18  C   UNL     1     -16.295   3.649   8.052  1.00  0.00     0.000 C 
BRANCH  18  19
ATOM     19  C   UNL     1     -15.820   5.099   8.213  1.00  0.00    -0.000 C 
BRANCH  19  20
ATOM     20  C   UNL     1     -16.764   6.008   9.005  1.00  0.00    -0.000 C 
BRANCH  20  21
ATOM     21  C   UNL     1     -16.597   7.491   8.662  1.00  0.00    -0.003 C 
ATOM     22  C   UNL     1     -17.915   8.110   8.223  1.00  0.00     0.004 C 
ENDBRANCH  20  21
ENDBRANCH  19  20
ENDBRANCH  18  19
ENDBRANCH  17  18
ENDBRANCH  16  17
ENDBRANCH  12  16
ENDBRANCH   9  12
ENDBRANCH   6   9
ENDBRANCH   3   5
ENDBRANCH   2   3
BRANCH   2  23
ATOM     23  N   UNL     1     -10.222   3.538   7.207  1.00  0.00    -0.332 N 
ATOM     24  C   UNL     1      -9.325   3.776   8.327  1.00  0.00     0.147 C 
BRANCH  23  25
ATOM     25  C   UNL     1     -10.874   4.757   6.656  1.00  0.00     0.174 C 
BRANCH  25  26
ATOM     26  C   UNL     1     -12.129   5.183   7.455  1.00  0.00     0.038 C 
BRANCH  26  27
ATOM     27  C   UNL     1     -12.296   6.691   7.743  1.00  0.00    -0.015 C 
ATOM     28  C   UNL     1     -13.040   7.421   6.625  1.00  0.00     0.007 C 
ATOM     29  C   UNL     1     -12.941   6.983   9.096  1.00  0.00     0.007 C 
ENDBRANCH  26  27
ENDBRANCH  25  26
BRANCH  25  30
ATOM     30  C   UNL     1     -11.131   4.585   5.141  1.00  0.00     0.243 C 
ATOM     31  O   UNL     1     -12.231   4.252   4.702  1.00  0.00    -0.273 OA
ATOM     32  N   UNL     1     -10.054   4.821   4.326  1.00  0.00    -0.342 N 
ATOM     33  H   UNL     1      -9.218   5.230   4.752  1.00  0.00     0.164 HD
BRANCH  32  34
ATOM     34  C   UNL     1     -10.106   4.680   2.868  1.00  0.00     0.175 C 
BRANCH  34  35
ATOM     35  C   UNL     1     -10.389   6.028   2.186  1.00  0.00     0.070 C 
BRANCH  35  36
ATOM     36  C   UNL     1      -9.801   7.200   2.940  1.00  0.00    -0.045 A 
ATOM     37  C   UNL     1     -10.563   7.858   3.918  1.00  0.00     0.007 A 
ATOM     38  C   UNL     1      -8.507   7.658   2.662  1.00  0.00     0.007 A 
ATOM     39  C   UNL     1     -10.035   8.949   4.609  1.00  0.00     0.046 A 
ATOM     40  C   UNL     1      -7.978   8.751   3.353  1.00  0.00     0.046 A 
ATOM     41  C   UNL     1      -8.747   9.386   4.322  1.00  0.00     0.115 A 
BRANCH  41  42
ATOM     42  O   UNL     1      -8.270  10.457   5.018  1.00  0.00    -0.508 OA
ATOM     43  H   UNL     1      -7.312  10.344   5.131  1.00  0.00     0.293 HD
ENDBRANCH  41  42
ENDBRANCH  35  36
ENDBRANCH  34  35
BRANCH  34  44
ATOM     44  C   UNL     1      -8.768   4.065   2.399  1.00  0.00     0.243 C 
ATOM     45  O   UNL     1      -8.610   3.479   1.332  1.00  0.00    -0.273 OA
ATOM     46  N   UNL     1      -7.776   4.117   3.355  1.00  0.00    -0.341 N 
ATOM     47  H   UNL     1      -7.989   4.509   4.269  1.00  0.00     0.164 HD
BRANCH  46  48
ATOM     48  C   UNL     1      -6.444   3.538   3.165  1.00  0.00     0.196 C 
BRANCH  48  49
ATOM     49  C   UNL     1      -5.414   4.182   4.108  1.00  0.00     0.072 C 
BRANCH  49  50
ATOM     50  C   UNL     1      -4.684   5.341   3.468  1.00  0.00    -0.045 A 
ATOM     51  C   UNL     1      -3.788   5.107   2.415  1.00  0.00     0.007 A 
ATOM     52  C   UNL     1      -4.872   6.652   3.925  1.00  0.00     0.007 A 
ATOM     53  C   UNL     1      -3.099   6.167   1.825  1.00  0.00     0.046 A 
ATOM     54  C   UNL     1      -4.181   7.713   3.335  1.00  0.00     0.046 A 
ATOM     55  C   UNL     1      -3.301   7.461   2.289  1.00  0.00     0.115 A 
BRANCH  55  56
ATOM     56  O   UNL     1      -2.607   8.469   1.687  1.00  0.00    -0.508 OA
ATOM     57  H   UNL     1      -1.889   8.742   2.280  1.00  0.00     0.293 HD
ENDBRANCH  55  56
ENDBRANCH  49  50
ENDBRANCH  48  49
BRANCH  48  58
ATOM     58  C   UNL     1      -6.513   2.028   3.433  1.00  0.00     0.326 C 
ATOM     59  O   UNL     1      -6.537   1.470   4.518  1.00  0.00    -0.250 OA
BRANCH  58  60
ATOM     60  O   UNL     1      -6.564   1.279   2.302  1.00  0.00    -0.480 OA
ATOM     61  H   UNL     1      -6.468   0.361   2.634  1.00  0.00     0.296 HD
ENDBRANCH  58  60
ENDBRANCH  48  58
ENDBRANCH  46  48
ENDBRANCH  34  44
ENDBRANCH  32  34
ENDBRANCH  25  30
ENDBRANCH  23  25
ENDBRANCH   2  23
TORSDOF 28
ENDMDL
MODEL 8
REMARK VINA RESULT:    -7.079      3.023      4.500
REMARK INTER + INTRA:         -22.725
REMARK INTER:                 -18.833
REMARK INTRA:                  -3.891
REMARK UNBOUND:                -5.093
REMARK SMILES CCCCCCC[C@H](N)[C@H](O)C(=O)N[C@H](C)C(=O)N(C)[C@H](CC(C)C)C(=O)N[C@@H](Cc1ccc(O)cc1)C(=O)N[C@@H](Cc1ccc(O)cc1)C(=O)O
REMARK SMILES IDX 18 1 17 2 15 3 16 4 14 5 12 6 13 7 10 9 11 10 8 12 9 13 7 16
REMARK SMILES IDX 6 17 5 18 4 19 3 20 2 21 1 22 19 23 20 24 21 25 22 26 23 27
REMARK SMILES IDX 24 28 25 29 26 30 27 31 28 32 29 34 30 35 31 36 32 37 37 38
REMARK SMILES IDX 33 39 36 40 34 41 35 42 38 44 39 45 40 46 41 48 42 49 43 50
REMARK SMILES IDX 44 51 49 52 45 53 48 54 46 55 47 56 50 58 51 59 52 60
REMARK H PARENT 14 8 11 11 9 14 9 15 28 33 35 43 40 47 47 57 52 61
ROOT
ATOM      1  O   UNL     1     -11.895   1.883   9.975  1.00  0.00    -0.272 OA
ATOM      2  C   UNL     1     -10.869   2.146   9.330  1.00  0.00     0.245 C 
ENDROOT
BRANCH   2   3
ATOM      3  C   UNL     1     -10.217   1.024   8.484  1.00  0.00     0.168 C 
ATOM      4  C   UNL     1      -9.387   0.095   9.363  1.00  0.00     0.041 C 
BRANCH   3   5
ATOM      5  N   UNL     1     -11.139   0.285   7.635  1.00  0.00    -0.342 N 
ATOM      6  C   UNL     1     -11.335   0.617   6.311  1.00  0.00     0.251 C 
ATOM      7  O   UNL     1     -10.789   1.570   5.765  1.00  0.00    -0.272 OA
ATOM      8  H   UNL     1     -11.676  -0.505   7.986  1.00  0.00     0.164 HD
BRANCH   6   9
ATOM      9  C   UNL     1     -12.240  -0.383   5.574  1.00  0.00     0.219 C 
BRANCH   9  10
ATOM     10  O   UNL     1     -13.566   0.120   5.367  1.00  0.00    -0.382 OA
ATOM     11  H   UNL     1     -13.828   0.453   6.253  1.00  0.00     0.211 HD
ENDBRANCH   9  10
BRANCH   9  12
ATOM     12  C   UNL     1     -11.629  -0.891   4.242  1.00  0.00     0.089 C 
BRANCH  12  13
ATOM     13  N   UNL     1     -11.794  -2.362   4.183  1.00  0.00    -0.325 NA
ATOM     14  H   UNL     1     -11.483  -2.770   5.067  1.00  0.00     0.119 HD
ATOM     15  H   UNL     1     -11.158  -2.738   3.477  1.00  0.00     0.119 HD
ENDBRANCH  12  13
BRANCH  12  16
ATOM     16  C   UNL     1     -12.183  -0.242   2.951  1.00  0.00     0.022 C 
BRANCH  16  17
ATOM     17  C   UNL     1     -12.122  -1.029   1.635  1.00  0.00     0.002 C 
BRANCH  17  18
ATOM     18  C   UNL     1     -11.486  -0.280   0.465  1.00  0.00     0.000 C 
BRANCH  18  19
ATOM     19  C   UNL     1     -10.686  -1.177  -0.489  1.00  0.00    -0.000 C 
BRANCH  19  20
ATOM     20  C   UNL     1     -11.318  -1.386  -1.868  1.00  0.00    -0.000 C 
BRANCH  20  21
ATOM     21  C   UNL     1     -10.953  -2.733  -2.497  1.00  0.00    -0.003 C 
ATOM     22  C   UNL     1      -9.611  -3.236  -1.989  1.00  0.00     0.004 C 
ENDBRANCH  20  21
ENDBRANCH  19  20
ENDBRANCH  18  19
ENDBRANCH  17  18
ENDBRANCH  16  17
ENDBRANCH  12  16
ENDBRANCH   9  12
ENDBRANCH   6   9
ENDBRANCH   3   5
ENDBRANCH   2   3
BRANCH   2  23
ATOM     23  N   UNL     1     -10.396   3.453   9.278  1.00  0.00    -0.332 N 
ATOM     24  C   UNL     1     -10.692   4.478  10.267  1.00  0.00     0.147 C 
BRANCH  23  25
ATOM     25  C   UNL     1      -9.417   3.856   8.231  1.00  0.00     0.174 C 
BRANCH  25  26
ATOM     26  C   UNL     1      -8.153   4.529   8.815  1.00  0.00     0.038 C 
BRANCH  26  27
ATOM     27  C   UNL     1      -6.787   3.960   8.369  1.00  0.00    -0.015 C 
ATOM     28  C   UNL     1      -6.930   2.704   7.510  1.00  0.00     0.007 C 
ATOM     29  C   UNL     1      -5.899   4.989   7.674  1.00  0.00     0.007 C 
ENDBRANCH  26  27
ENDBRANCH  25  26
BRANCH  25  30
ATOM     30  C   UNL     1     -10.121   4.696   7.140  1.00  0.00     0.243 C 
ATOM     31  O   UNL     1     -11.325   4.589   6.913  1.00  0.00    -0.273 OA
ATOM     32  N   UNL     1      -9.314   5.559   6.443  1.00  0.00    -0.342 N 
ATOM     33  H   UNL     1      -8.359   5.693   6.784  1.00  0.00     0.164 HD
BRANCH  32  34
ATOM     34  C   UNL     1      -9.803   6.413   5.358  1.00  0.00     0.175 C 
BRANCH  34  35
ATOM     35  C   UNL     1      -9.593   7.901   5.679  1.00  0.00     0.070 C 
BRANCH  35  36
ATOM     36  C   UNL     1     -10.888   8.680   5.715  1.00  0.00    -0.045 A 
ATOM     37  C   UNL     1     -12.116   8.000   5.732  1.00  0.00     0.007 A 
ATOM     38  C   UNL     1     -10.886  10.081   5.710  1.00  0.00     0.007 A 
ATOM     39  C   UNL     1     -13.317   8.710   5.751  1.00  0.00     0.046 A 
ATOM     40  C   UNL     1     -12.087  10.792   5.729  1.00  0.00     0.046 A 
ATOM     41  C   UNL     1     -13.293  10.099   5.750  1.00  0.00     0.115 A 
BRANCH  41  42
ATOM     42  O   UNL     1     -14.489  10.755   5.767  1.00  0.00    -0.508 OA
ATOM     43  H   UNL     1     -15.005  10.427   6.522  1.00  0.00     0.293 HD
ENDBRANCH  41  42
ENDBRANCH  35  36
ENDBRANCH  34  35
BRANCH  34  44
ATOM     44  C   UNL     1      -9.079   5.996   4.058  1.00  0.00     0.243 C 
ATOM     45  O   UNL     1      -9.400   6.370   2.933  1.00  0.00    -0.273 OA
ATOM     46  N   UNL     1      -8.100   5.045   4.256  1.00  0.00    -0.341 N 
ATOM     47  H   UNL     1      -7.950   4.678   5.192  1.00  0.00     0.164 HD
BRANCH  46  48
ATOM     48  C   UNL     1      -7.326   4.446   3.166  1.00  0.00     0.196 C 
BRANCH  48  49
ATOM     49  C   UNL     1      -5.851   4.265   3.561  1.00  0.00     0.072 C 
BRANCH  49  50
ATOM     50  C   UNL     1      -4.968   5.376   3.039  1.00  0.00    -0.045 A 
ATOM     51  C   UNL     1      -3.797   5.064   2.333  1.00  0.00     0.007 A 
ATOM     52  C   UNL     1      -5.289   6.720   3.268  1.00  0.00     0.007 A 
ATOM     53  C   UNL     1      -2.968   6.080   1.858  1.00  0.00     0.046 A 
ATOM     54  C   UNL     1      -4.458   7.737   2.794  1.00  0.00     0.046 A 
ATOM     55  C   UNL     1      -3.304   7.408   2.091  1.00  0.00     0.115 A 
BRANCH  55  56
ATOM     56  O   UNL     1      -2.466   8.371   1.612  1.00  0.00    -0.508 OA
ATOM     57  H   UNL     1      -2.081   8.055   0.780  1.00  0.00     0.293 HD
ENDBRANCH  55  56
ENDBRANCH  49  50
ENDBRANCH  48  49
BRANCH  48  58
ATOM     58  C   UNL     1      -7.935   3.083   2.810  1.00  0.00     0.326 C 
ATOM     59  O   UNL     1      -7.704   2.405   1.822  1.00  0.00    -0.250 OA
BRANCH  58  60
ATOM     60  O   UNL     1      -8.811   2.623   3.739  1.00  0.00    -0.480 OA
ATOM     61  H   UNL     1      -8.392   1.791   4.051  1.00  0.00     0.296 HD
ENDBRANCH  58  60
ENDBRANCH  48  58
ENDBRANCH  46  48
ENDBRANCH  34  44
ENDBRANCH  32  34
ENDBRANCH  25  30
ENDBRANCH  23  25
ENDBRANCH   2  23
TORSDOF 28
ENDMDL
MODEL 9
REMARK VINA RESULT:    -6.741      3.732      7.500
REMARK INTER + INTRA:         -21.883
REMARK INTER:                 -16.962
REMARK INTRA:                  -4.921
REMARK UNBOUND:                -5.093
REMARK SMILES CCCCCCC[C@H](N)[C@H](O)C(=O)N[C@H](C)C(=O)N(C)[C@H](CC(C)C)C(=O)N[C@@H](Cc1ccc(O)cc1)C(=O)N[C@@H](Cc1ccc(O)cc1)C(=O)O
REMARK SMILES IDX 18 1 17 2 15 3 16 4 14 5 12 6 13 7 10 9 11 10 8 12 9 13 7 16
REMARK SMILES IDX 6 17 5 18 4 19 3 20 2 21 1 22 19 23 20 24 21 25 22 26 23 27
REMARK SMILES IDX 24 28 25 29 26 30 27 31 28 32 29 34 30 35 31 36 32 37 37 38
REMARK SMILES IDX 33 39 36 40 34 41 35 42 38 44 39 45 40 46 41 48 42 49 43 50
REMARK SMILES IDX 44 51 49 52 45 53 48 54 46 55 47 56 50 58 51 59 52 60
REMARK H PARENT 14 8 11 11 9 14 9 15 28 33 35 43 40 47 47 57 52 61
ROOT
ATOM      1  O   UNL     1     -12.032   2.761   7.052  1.00  0.00    -0.272 OA
ATOM      2  C   UNL     1     -11.583   2.416   8.155  1.00  0.00     0.245 C 
ENDROOT
BRANCH   2   3
ATOM      3  C   UNL     1     -12.187   1.167   8.843  1.00  0.00     0.168 C 
ATOM      4  C   UNL     1     -11.088   0.291   9.436  1.00  0.00     0.041 C 
BRANCH   3   5
ATOM      5  N   UNL     1     -13.236   1.448   9.810  1.00  0.00    -0.342 N 
ATOM      6  C   UNL     1     -14.413   0.729   9.837  1.00  0.00     0.251 C 
ATOM      7  O   UNL     1     -14.680  -0.161   9.037  1.00  0.00    -0.272 OA
ATOM      8  H   UNL     1     -13.143   2.188  10.502  1.00  0.00     0.164 HD
BRANCH   6   9
ATOM      9  C   UNL     1     -15.310   1.104  11.028  1.00  0.00     0.219 C 
BRANCH   9  10
ATOM     10  O   UNL     1     -15.301   2.509  11.306  1.00  0.00    -0.382 OA
ATOM     11  H   UNL     1     -15.754   2.576  12.176  1.00  0.00     0.211 HD
ENDBRANCH   9  10
BRANCH   9  12
ATOM     12  C   UNL     1     -16.763   0.581  10.883  1.00  0.00     0.089 C 
BRANCH  12  13
ATOM     13  N   UNL     1     -17.153  -0.074  12.153  1.00  0.00    -0.325 NA
ATOM     14  H   UNL     1     -17.088   0.605  12.914  1.00  0.00     0.119 HD
ATOM     15  H   UNL     1     -16.464  -0.794  12.379  1.00  0.00     0.119 HD
ENDBRANCH  12  13
BRANCH  12  16
ATOM     16  C   UNL     1     -17.825   1.632  10.479  1.00  0.00     0.022 C 
BRANCH  16  17
ATOM     17  C   UNL     1     -17.953   2.036   9.004  1.00  0.00     0.002 C 
BRANCH  17  18
ATOM     18  C   UNL     1     -17.862   3.536   8.736  1.00  0.00     0.000 C 
BRANCH  18  19
ATOM     19  C   UNL     1     -17.343   3.891   7.337  1.00  0.00    -0.000 C 
BRANCH  19  20
ATOM     20  C   UNL     1     -16.332   2.902   6.749  1.00  0.00    -0.000 C 
BRANCH  20  21
ATOM     21  C   UNL     1     -16.505   2.692   5.242  1.00  0.00    -0.003 C 
ATOM     22  C   UNL     1     -17.896   3.100   4.782  1.00  0.00     0.004 C 
ENDBRANCH  20  21
ENDBRANCH  19  20
ENDBRANCH  18  19
ENDBRANCH  17  18
ENDBRANCH  16  17
ENDBRANCH  12  16
ENDBRANCH   9  12
ENDBRANCH   6   9
ENDBRANCH   3   5
ENDBRANCH   2   3
BRANCH   2  23
ATOM     23  N   UNL     1     -10.480   3.072   8.693  1.00  0.00    -0.332 N 
ATOM     24  C   UNL     1     -10.307   3.373  10.106  1.00  0.00     0.147 C 
BRANCH  23  25
ATOM     25  C   UNL     1      -9.311   3.403   7.833  1.00  0.00     0.174 C 
BRANCH  25  26
ATOM     26  C   UNL     1      -7.978   2.854   8.393  1.00  0.00     0.038 C 
BRANCH  26  27
ATOM     27  C   UNL     1      -7.367   1.630   7.673  1.00  0.00    -0.015 C 
ATOM     28  C   UNL     1      -7.691   0.315   8.381  1.00  0.00     0.007 C 
ATOM     29  C   UNL     1      -7.736   1.550   6.194  1.00  0.00     0.007 C 
ENDBRANCH  26  27
ENDBRANCH  25  26
BRANCH  25  30
ATOM     30  C   UNL     1      -9.282   4.920   7.535  1.00  0.00     0.243 C 
ATOM     31  O   UNL     1      -8.269   5.596   7.704  1.00  0.00    -0.273 OA
ATOM     32  N   UNL     1     -10.458   5.457   7.079  1.00  0.00    -0.342 N 
ATOM     33  H   UNL     1     -11.210   4.809   6.831  1.00  0.00     0.164 HD
BRANCH  32  34
ATOM     34  C   UNL     1     -10.623   6.880   6.772  1.00  0.00     0.175 C 
BRANCH  34  35
ATOM     35  C   UNL     1     -10.847   7.105   5.268  1.00  0.00     0.070 C 
BRANCH  35  36
ATOM     36  C   UNL     1      -9.632   7.678   4.575  1.00  0.00    -0.045 A 
ATOM     37  C   UNL     1      -8.533   6.854   4.288  1.00  0.00     0.007 A 
ATOM     38  C   UNL     1      -9.574   9.036   4.232  1.00  0.00     0.007 A 
ATOM     39  C   UNL     1      -7.402   7.377   3.662  1.00  0.00     0.046 A 
ATOM     40  C   UNL     1      -8.441   9.561   3.606  1.00  0.00     0.046 A 
ATOM     41  C   UNL     1      -7.365   8.725   3.325  1.00  0.00     0.115 A 
BRANCH  41  42
ATOM     42  O   UNL     1      -6.239   9.197   2.717  1.00  0.00    -0.508 OA
ATOM     43  H   UNL     1      -6.489   9.551   1.847  1.00  0.00     0.293 HD
ENDBRANCH  41  42
ENDBRANCH  35  36
ENDBRANCH  34  35
BRANCH  34  44
ATOM     44  C   UNL     1     -11.799   7.419   7.617  1.00  0.00     0.243 C 
ATOM     45  O   UNL     1     -12.011   8.610   7.832  1.00  0.00    -0.273 OA
ATOM     46  N   UNL     1     -12.533   6.427   8.232  1.00  0.00    -0.341 N 
ATOM     47  H   UNL     1     -12.247   5.458   8.117  1.00  0.00     0.164 HD
BRANCH  46  48
ATOM     48  C   UNL     1     -13.653   6.697   9.137  1.00  0.00     0.196 C 
BRANCH  48  49
ATOM     49  C   UNL     1     -14.989   6.244   8.524  1.00  0.00     0.072 C 
BRANCH  49  50
ATOM     50  C   UNL     1     -15.923   7.400   8.245  1.00  0.00    -0.045 A 
ATOM     51  C   UNL     1     -17.255   7.343   8.679  1.00  0.00     0.007 A 
ATOM     52  C   UNL     1     -15.484   8.526   7.537  1.00  0.00     0.007 A 
ATOM     53  C   UNL     1     -18.129   8.397   8.415  1.00  0.00     0.046 A 
ATOM     54  C   UNL     1     -16.359   9.581   7.272  1.00  0.00     0.046 A 
ATOM     55  C   UNL     1     -17.675   9.508   7.715  1.00  0.00     0.115 A 
BRANCH  55  56
ATOM     56  O   UNL     1     -18.562  10.517   7.476  1.00  0.00    -0.508 OA
ATOM     57  H   UNL     1     -19.421  10.123   7.257  1.00  0.00     0.293 HD
ENDBRANCH  55  56
ENDBRANCH  49  50
ENDBRANCH  48  49
BRANCH  48  58
ATOM     58  C   UNL     1     -13.416   5.955  10.459  1.00  0.00     0.326 C 
ATOM     59  O   UNL     1     -13.183   6.448  11.551  1.00  0.00    -0.250 OA
BRANCH  58  60
ATOM     60  O   UNL     1     -13.498   4.606  10.346  1.00  0.00    -0.480 OA
ATOM     61  H   UNL     1     -12.716   4.377   9.798  1.00  0.00     0.296 HD
ENDBRANCH  58  60
ENDBRANCH  48  58
ENDBRANCH  46  48
ENDBRANCH  34  44
ENDBRANCH  32  34
ENDBRANCH  25  30
ENDBRANCH  23  25
ENDBRANCH   2  23
TORSDOF 28
ENDMDL
MODEL 10
REMARK VINA RESULT:    -6.733      3.215      7.515
REMARK INTER + INTRA:         -21.864
REMARK INTER:                 -16.570
REMARK INTRA:                  -5.294
REMARK UNBOUND:                -5.093
REMARK SMILES CCCCCCC[C@H](N)[C@H](O)C(=O)N[C@H](C)C(=O)N(C)[C@H](CC(C)C)C(=O)N[C@@H](Cc1ccc(O)cc1)C(=O)N[C@@H](Cc1ccc(O)cc1)C(=O)O
REMARK SMILES IDX 18 1 17 2 15 3 16 4 14 5 12 6 13 7 10 9 11 10 8 12 9 13 7 16
REMARK SMILES IDX 6 17 5 18 4 19 3 20 2 21 1 22 19 23 20 24 21 25 22 26 23 27
REMARK SMILES IDX 24 28 25 29 26 30 27 31 28 32 29 34 30 35 31 36 32 37 37 38
REMARK SMILES IDX 33 39 36 40 34 41 35 42 38 44 39 45 40 46 41 48 42 49 43 50
REMARK SMILES IDX 44 51 49 52 45 53 48 54 46 55 47 56 50 58 51 59 52 60
REMARK H PARENT 14 8 11 11 9 14 9 15 28 33 35 43 40 47 47 57 52 61
ROOT
ATOM      1  O   UNL     1     -10.784   2.111   6.782  1.00  0.00    -0.272 OA
ATOM      2  C   UNL     1      -9.982   2.370   7.692  1.00  0.00     0.245 C 
ENDROOT
BRANCH   2   3
ATOM      3  C   UNL     1     -10.488   2.339   9.156  1.00  0.00     0.168 C 
ATOM      4  C   UNL     1     -10.026   3.578   9.915  1.00  0.00     0.041 C 
BRANCH   3   5
ATOM      5  N   UNL     1     -11.917   2.113   9.304  1.00  0.00    -0.342 N 
ATOM      6  C   UNL     1     -12.439   0.851   9.493  1.00  0.00     0.251 C 
ATOM      7  O   UNL     1     -11.757  -0.168   9.508  1.00  0.00    -0.272 OA
ATOM      8  H   UNL     1     -12.587   2.879   9.273  1.00  0.00     0.164 HD
BRANCH   6   9
ATOM      9  C   UNL     1     -13.952   0.869   9.766  1.00  0.00     0.219 C 
BRANCH   9  10
ATOM     10  O   UNL     1     -14.303   0.179  10.972  1.00  0.00    -0.382 OA
ATOM     11  H   UNL     1     -13.494   0.255  11.525  1.00  0.00     0.211 HD
ENDBRANCH   9  10
BRANCH   9  12
ATOM     12  C   UNL     1     -14.557   2.297   9.753  1.00  0.00     0.089 C 
BRANCH  12  13
ATOM     13  N   UNL     1     -14.571   2.785   8.354  1.00  0.00    -0.325 NA
ATOM     14  H   UNL     1     -14.317   2.018   7.729  1.00  0.00     0.119 HD
ATOM     15  H   UNL     1     -13.831   3.480   8.239  1.00  0.00     0.119 HD
ENDBRANCH  12  13
BRANCH  12  16
ATOM     16  C   UNL     1     -15.963   2.444  10.381  1.00  0.00     0.022 C 
BRANCH  16  17
ATOM     17  C   UNL     1     -17.057   3.184   9.600  1.00  0.00     0.002 C 
BRANCH  17  18
ATOM     18  C   UNL     1     -18.144   2.289   9.008  1.00  0.00     0.000 C 
BRANCH  18  19
ATOM     19  C   UNL     1     -18.242   2.353   7.478  1.00  0.00    -0.000 C 
BRANCH  19  20
ATOM     20  C   UNL     1     -17.448   1.277   6.731  1.00  0.00    -0.000 C 
BRANCH  20  21
ATOM     21  C   UNL     1     -16.959   1.739   5.356  1.00  0.00    -0.003 C 
ATOM     22  C   UNL     1     -17.573   3.076   4.970  1.00  0.00     0.004 C 
ENDBRANCH  20  21
ENDBRANCH  19  20
ENDBRANCH  18  19
ENDBRANCH  17  18
ENDBRANCH  16  17
ENDBRANCH  12  16
ENDBRANCH   9  12
ENDBRANCH   6   9
ENDBRANCH   3   5
ENDBRANCH   2   3
BRANCH   2  23
ATOM     23  N   UNL     1      -8.636   2.560   7.399  1.00  0.00    -0.332 N 
ATOM     24  C   UNL     1      -7.558   1.707   7.878  1.00  0.00     0.147 C 
BRANCH  23  25
ATOM     25  C   UNL     1      -8.218   3.617   6.438  1.00  0.00     0.174 C 
BRANCH  25  26
ATOM     26  C   UNL     1      -6.687   3.662   6.220  1.00  0.00     0.038 C 
BRANCH  26  27
ATOM     27  C   UNL     1      -6.179   3.455   4.776  1.00  0.00    -0.015 C 
ATOM     28  C   UNL     1      -4.717   3.866   4.605  1.00  0.00     0.007 C 
ATOM     29  C   UNL     1      -6.404   2.039   4.251  1.00  0.00     0.007 C 
ENDBRANCH  26  27
ENDBRANCH  25  26
BRANCH  25  30
ATOM     30  C   UNL     1      -8.828   4.978   6.845  1.00  0.00     0.243 C 
ATOM     31  O   UNL     1      -8.263   5.733   7.636  1.00  0.00    -0.273 OA
ATOM     32  N   UNL     1     -10.036   5.282   6.274  1.00  0.00    -0.342 N 
ATOM     33  H   UNL     1     -10.371   4.673   5.522  1.00  0.00     0.164 HD
BRANCH  32  34
ATOM     34  C   UNL     1     -10.774   6.514   6.564  1.00  0.00     0.175 C 
BRANCH  34  35
ATOM     35  C   UNL     1     -11.206   7.225   5.272  1.00  0.00     0.070 C 
BRANCH  35  36
ATOM     36  C   UNL     1     -10.443   8.507   5.026  1.00  0.00    -0.045 A 
ATOM     37  C   UNL     1     -11.020   9.742   5.359  1.00  0.00     0.007 A 
ATOM     38  C   UNL     1      -9.168   8.484   4.445  1.00  0.00     0.007 A 
ATOM     39  C   UNL     1     -10.329  10.931   5.123  1.00  0.00     0.046 A 
ATOM     40  C   UNL     1      -8.477   9.675   4.207  1.00  0.00     0.046 A 
ATOM     41  C   UNL     1      -9.064  10.888   4.550  1.00  0.00     0.115 A 
BRANCH  41  42
ATOM     42  O   UNL     1      -8.424  12.072   4.333  1.00  0.00    -0.508 OA
ATOM     43  H   UNL     1      -9.080  12.722   4.029  1.00  0.00     0.293 HD
ENDBRANCH  41  42
ENDBRANCH  35  36
ENDBRANCH  34  35
BRANCH  34  44
ATOM     44  C   UNL     1     -11.983   6.151   7.455  1.00  0.00     0.243 C 
ATOM     45  O   UNL     1     -12.350   5.003   7.692  1.00  0.00    -0.273 OA
ATOM     46  N   UNL     1     -12.710   7.247   7.867  1.00  0.00    -0.341 N 
ATOM     47  H   UNL     1     -12.433   8.172   7.548  1.00  0.00     0.164 HD
BRANCH  46  48
ATOM     48  C   UNL     1     -13.936   7.148   8.663  1.00  0.00     0.196 C 
BRANCH  48  49
ATOM     49  C   UNL     1     -13.705   7.621  10.108  1.00  0.00     0.072 C 
BRANCH  49  50
ATOM     50  C   UNL     1     -13.993   6.542  11.126  1.00  0.00    -0.045 A 
ATOM     51  C   UNL     1     -15.299   6.360  11.602  1.00  0.00     0.007 A 
ATOM     52  C   UNL     1     -12.967   5.727  11.623  1.00  0.00     0.007 A 
ATOM     53  C   UNL     1     -15.574   5.376  12.552  1.00  0.00     0.046 A 
ATOM     54  C   UNL     1     -13.242   4.743  12.574  1.00  0.00     0.046 A 
ATOM     55  C   UNL     1     -14.544   4.575  13.030  1.00  0.00     0.115 A 
BRANCH  55  56
ATOM     56  O   UNL     1     -14.855   3.626  13.959  1.00  0.00    -0.508 OA
ATOM     57  H   UNL     1     -14.148   2.961  13.965  1.00  0.00     0.293 HD
ENDBRANCH  55  56
ENDBRANCH  49  50
ENDBRANCH  48  49
BRANCH  48  58
ATOM     58  C   UNL     1     -15.027   8.006   8.008  1.00  0.00     0.326 C 
ATOM     59  O   UNL     1     -16.200   8.085   8.334  1.00  0.00    -0.250 OA
BRANCH  58  60
ATOM     60  O   UNL     1     -14.578   8.749   6.965  1.00  0.00    -0.480 OA
ATOM     61  H   UNL     1     -13.612   8.808   7.129  1.00  0.00     0.296 HD
ENDBRANCH  58  60
ENDBRANCH  48  58
ENDBRANCH  46  48
ENDBRANCH  34  44
ENDBRANCH  32  34
ENDBRANCH  25  30
ENDBRANCH  23  25
ENDBRANCH   2  23
TORSDOF 28
ENDMDL
