MODEL 1
REMARK VINA RESULT:    -6.505      0.000      0.000
REMARK INTER + INTRA:         -17.928
REMARK INTER:                 -13.161
REMARK INTRA:                  -4.768
REMARK UNBOUND:                -4.768
REMARK SMILES CC[C@@H](C)[C@@H](NC(=O)[C@@H](O)Cc1ccc(O)c(Cl)c1)C(=O)N1[C@H](C(=O)NCCCCN=C(N)N)C[C@H]2CC[C@H](OS(=O)(=O)O)C[C@@H]21
REMARK SMILES IDX 22 1 36 2 46 3 35 4 23 5 45 6 37 7 39 8 38 9 20 10 21 11
REMARK SMILES IDX 5 12 6 13 7 14 8 15 9 17 11 18 12 19 17 20 19 21 15 22 14 23
REMARK SMILES IDX 13 24 18 25 16 26 10 28 3 30 4 31 2 32 1 33 24 34 25 35
REMARK SMILES IDX 26 36 27 38 28 39 29 40 30 41 31 42 32 43 33 44 34 45 40 50
REMARK SMILES IDX 41 51 42 52 43 53 44 54
REMARK H PARENT 6 16 16 27 10 29 26 37 33 46 33 47 34 48 34 49 44 55
ROOT
ATOM      1  N   UNL     1       6.437  11.958   4.233  1.00  0.00    -0.326 N 
ATOM      2  C   UNL     1       8.621  12.537   3.570  1.00  0.00     0.014 C 
ATOM      3  C   UNL     1       7.796  12.065   4.772  1.00  0.00     0.091 C 
ATOM      4  C   UNL     1       7.647  13.439   2.829  1.00  0.00     0.041 C 
ATOM      5  C   UNL     1       6.376  12.571   2.883  1.00  0.00     0.175 C 
ATOM      6  C   UNL     1       8.450  10.809   5.343  1.00  0.00     0.059 C 
ATOM      7  C   UNL     1       9.958  13.094   4.016  1.00  0.00     0.008 C 
ATOM      8  C   UNL     1       9.985  10.779   5.182  1.00  0.00     0.143 C 
ATOM      9  C   UNL     1      10.587  12.196   5.102  1.00  0.00     0.034 C 
ENDROOT
BRANCH   1  10
ATOM     10  C   UNL     1       5.259  11.594   4.863  1.00  0.00     0.246 C 
ATOM     11  O   UNL     1       4.205  12.150   4.535  1.00  0.00    -0.272 OA
BRANCH  10  12
ATOM     12  C   UNL     1       5.280  10.466   5.935  1.00  0.00     0.174 C 
BRANCH  12  13
ATOM     13  N   UNL     1       4.495   9.323   5.471  1.00  0.00    -0.342 N 
ATOM     14  C   UNL     1       5.010   8.219   4.830  1.00  0.00     0.249 C 
ATOM     15  O   UNL     1       6.203   8.059   4.599  1.00  0.00    -0.272 OA
ATOM     16  H   UNL     1       3.480   9.383   5.452  1.00  0.00     0.164 HD
BRANCH  14  17
ATOM     17  C   UNL     1       3.925   7.190   4.450  1.00  0.00     0.207 C 
BRANCH  17  18
ATOM     18  C   UNL     1       3.947   6.004   5.419  1.00  0.00     0.077 C 
BRANCH  18  19
ATOM     19  C   UNL     1       3.188   6.304   6.692  1.00  0.00    -0.043 A 
ATOM     20  C   UNL     1       2.875   5.993   9.077  1.00  0.00     0.083 A 
ATOM     21  C   UNL     1       3.607   5.754   7.914  1.00  0.00     0.028 A 
ATOM     22  C   UNL     1       1.724   6.779   9.029  1.00  0.00     0.134 A 
ATOM     23  C   UNL     1       1.297   7.330   7.826  1.00  0.00     0.048 A 
ATOM     24  C   UNL     1       2.026   7.091   6.659  1.00  0.00     0.008 A 
ATOM     25  Cl  UNL     1       3.406   5.309  10.569  1.00  0.00    -0.080 Cl
BRANCH  22  26
ATOM     26  O   UNL     1       0.968   7.033  10.142  1.00  0.00    -0.506 OA
ATOM     27  H   UNL     1       1.230   7.915  10.463  1.00  0.00     0.293 HD
ENDBRANCH  22  26
ENDBRANCH  18  19
ENDBRANCH  17  18
BRANCH  17  28
ATOM     28  O   UNL     1       4.112   6.712   3.108  1.00  0.00    -0.383 OA
ATOM     29  H   UNL     1       3.789   5.782   3.103  1.00  0.00     0.211 HD
ENDBRANCH  17  28
ENDBRANCH  14  17
ENDBRANCH  12  13
BRANCH  12  30
ATOM     30  C   UNL     1       4.832  10.963   7.336  1.00  0.00     0.018 C 
ATOM     31  C   UNL     1       6.046  11.178   8.253  1.00  0.00     0.010 C 
BRANCH  30  32
ATOM     32  C   UNL     1       3.803  10.033   8.025  1.00  0.00     0.002 C 
ATOM     33  C   UNL     1       4.107   9.688   9.477  1.00  0.00     0.004 C 
ENDBRANCH  30  32
ENDBRANCH  12  30
ENDBRANCH  10  12
ENDBRANCH   1  10
BRANCH   5  34
ATOM     34  C   UNL     1       6.382  11.478   1.782  1.00  0.00     0.242 C 
ATOM     35  O   UNL     1       6.250  10.282   2.041  1.00  0.00    -0.273 OA
ATOM     36  N   UNL     1       6.601  11.937   0.502  1.00  0.00    -0.354 N 
ATOM     37  H   UNL     1       6.823  12.924   0.365  1.00  0.00     0.163 HD
BRANCH  36  38
ATOM     38  C   UNL     1       6.426  11.093  -0.662  1.00  0.00     0.116 C 
BRANCH  38  39
ATOM     39  C   UNL     1       6.919  11.823  -1.909  1.00  0.00     0.023 C 
BRANCH  39  40
ATOM     40  C   UNL     1       8.441  11.886  -1.983  1.00  0.00     0.026 C 
BRANCH  40  41
ATOM     41  C   UNL     1       9.058  10.529  -1.643  1.00  0.00     0.146 C 
BRANCH  41  42
ATOM     42  N   UNL     1      10.208  10.717  -0.769  1.00  0.00    -0.254 NA
ATOM     43  C   UNL     1      10.173  10.268   0.429  1.00  0.00     0.185 C 
ATOM     44  N   UNL     1       9.197   9.606   1.077  1.00  0.00    -0.370 N 
ATOM     45  N   UNL     1      11.242  10.455   1.220  1.00  0.00    -0.370 N 
ATOM     46  H   UNL     1       9.207   9.531   2.080  1.00  0.00     0.159 HD
ATOM     47  H   UNL     1       8.321   9.368   0.622  1.00  0.00     0.159 HD
ATOM     48  H   UNL     1      12.027  10.939   0.806  1.00  0.00     0.159 HD
ATOM     49  H   UNL     1      11.387   9.940   2.070  1.00  0.00     0.159 HD
ENDBRANCH  41  42
ENDBRANCH  40  41
ENDBRANCH  39  40
ENDBRANCH  38  39
ENDBRANCH  36  38
ENDBRANCH   5  34
BRANCH   8  50
ATOM     50  O   UNL     1      10.340  10.068   3.995  1.00  0.00    -0.245 OA
BRANCH  50  51
ATOM     51  S   UNL     1      10.936   8.560   4.110  1.00  0.00     0.397 S 
ATOM     52  O   UNL     1      10.417   7.789   3.002  1.00  0.00    -0.169 OA
ATOM     53  O   UNL     1      10.824   8.095   5.477  1.00  0.00    -0.169 OA
BRANCH  51  54
ATOM     54  O   UNL     1      12.495   8.790   3.791  1.00  0.00    -0.264 OA
ATOM     55  H   UNL     1      12.871   9.331   4.514  1.00  0.00     0.236 HD
ENDBRANCH  51  54
ENDBRANCH  50  51
ENDBRANCH   8  50
TORSDOF 19
ENDMDL
MODEL 2
REMARK VINA RESULT:    -6.240      1.797      3.136
REMARK INTER + INTRA:         -17.390
REMARK INTER:                 -13.372
REMARK INTRA:                  -4.019
REMARK UNBOUND:                -4.768
REMARK SMILES CC[C@@H](C)[C@@H](NC(=O)[C@@H](O)Cc1ccc(O)c(Cl)c1)C(=O)N1[C@H](C(=O)NCCCCN=C(N)N)C[C@H]2CC[C@H](OS(=O)(=O)O)C[C@@H]21
REMARK SMILES IDX 22 1 36 2 46 3 35 4 23 5 45 6 37 7 39 8 38 9 20 10 21 11
REMARK SMILES IDX 5 12 6 13 7 14 8 15 9 17 11 18 12 19 17 20 19 21 15 22 14 23
REMARK SMILES IDX 13 24 18 25 16 26 10 28 3 30 4 31 2 32 1 33 24 34 25 35
REMARK SMILES IDX 26 36 27 38 28 39 29 40 30 41 31 42 32 43 33 44 34 45 40 50
REMARK SMILES IDX 41 51 42 52 43 53 44 54
REMARK H PARENT 6 16 16 27 10 29 26 37 33 46 33 47 34 48 34 49 44 55
ROOT
ATOM      1  N   UNL     1       7.314  10.627   4.278  1.00  0.00    -0.326 N 
ATOM      2  C   UNL     1       8.606  12.572   3.975  1.00  0.00     0.014 C 
ATOM      3  C   UNL     1       8.479  11.316   4.841  1.00  0.00     0.091 C 
ATOM      4  C   UNL     1       7.156  12.914   3.666  1.00  0.00     0.041 C 
ATOM      5  C   UNL     1       6.615  11.515   3.317  1.00  0.00     0.175 C 
ATOM      6  C   UNL     1       9.823  10.589   4.838  1.00  0.00     0.059 C 
ATOM      7  C   UNL     1       9.487  13.608   4.646  1.00  0.00     0.008 C 
ATOM      8  C   UNL     1      11.039  11.532   4.714  1.00  0.00     0.143 C 
ATOM      9  C   UNL     1      10.736  12.942   5.260  1.00  0.00     0.034 C 
ENDROOT
BRANCH   1  10
ATOM     10  C   UNL     1       6.711   9.443   4.665  1.00  0.00     0.246 C 
ATOM     11  O   UNL     1       7.416   8.512   5.068  1.00  0.00    -0.272 OA
BRANCH  10  12
ATOM     12  C   UNL     1       5.159   9.325   4.626  1.00  0.00     0.174 C 
BRANCH  12  13
ATOM     13  N   UNL     1       4.626   9.299   5.987  1.00  0.00    -0.342 N 
ATOM     14  C   UNL     1       4.363  10.413   6.754  1.00  0.00     0.249 C 
ATOM     15  O   UNL     1       4.523  11.563   6.363  1.00  0.00    -0.272 OA
ATOM     16  H   UNL     1       4.592   8.421   6.498  1.00  0.00     0.164 HD
BRANCH  14  17
ATOM     17  C   UNL     1       3.824  10.057   8.155  1.00  0.00     0.207 C 
BRANCH  17  18
ATOM     18  C   UNL     1       2.475   9.338   8.043  1.00  0.00     0.077 C 
BRANCH  18  19
ATOM     19  C   UNL     1       2.472   8.028   8.799  1.00  0.00    -0.043 A 
ATOM     20  C   UNL     1       3.176   5.716   9.001  1.00  0.00     0.083 A 
ATOM     21  C   UNL     1       3.221   6.938   8.329  1.00  0.00     0.028 A 
ATOM     22  C   UNL     1       2.386   5.575  10.142  1.00  0.00     0.134 A 
ATOM     23  C   UNL     1       1.640   6.646  10.618  1.00  0.00     0.048 A 
ATOM     24  C   UNL     1       1.681   7.870   9.947  1.00  0.00     0.008 A 
ATOM     25  Cl  UNL     1       4.103   4.388   8.407  1.00  0.00    -0.080 Cl
BRANCH  22  26
ATOM     26  O   UNL     1       2.302   4.393  10.828  1.00  0.00    -0.506 OA
ATOM     27  H   UNL     1       1.360   4.258  11.039  1.00  0.00     0.293 HD
ENDBRANCH  22  26
ENDBRANCH  18  19
ENDBRANCH  17  18
BRANCH  17  28
ATOM     28  O   UNL     1       3.671  11.234   8.965  1.00  0.00    -0.383 OA
ATOM     29  H   UNL     1       4.514  11.332   9.464  1.00  0.00     0.211 HD
ENDBRANCH  17  28
ENDBRANCH  14  17
ENDBRANCH  12  13
BRANCH  12  30
ATOM     30  C   UNL     1       4.671   8.121   3.776  1.00  0.00     0.018 C 
ATOM     31  C   UNL     1       3.925   8.603   2.522  1.00  0.00     0.010 C 
BRANCH  30  32
ATOM     32  C   UNL     1       3.792   7.119   4.565  1.00  0.00     0.002 C 
ATOM     33  C   UNL     1       4.463   5.796   4.909  1.00  0.00     0.004 C 
ENDBRANCH  30  32
ENDBRANCH  12  30
ENDBRANCH  10  12
ENDBRANCH   1  10
BRANCH   5  34
ATOM     34  C   UNL     1       6.955  11.120   1.855  1.00  0.00     0.242 C 
ATOM     35  O   UNL     1       7.750  10.220   1.585  1.00  0.00    -0.273 OA
ATOM     36  N   UNL     1       6.344  11.883   0.885  1.00  0.00    -0.354 N 
ATOM     37  H   UNL     1       5.790  12.691   1.171  1.00  0.00     0.163 HD
BRANCH  36  38
ATOM     38  C   UNL     1       6.376  11.521  -0.517  1.00  0.00     0.116 C 
BRANCH  38  39
ATOM     39  C   UNL     1       7.422  12.362  -1.246  1.00  0.00     0.023 C 
BRANCH  39  40
ATOM     40  C   UNL     1       8.126  11.586  -2.354  1.00  0.00     0.026 C 
BRANCH  40  41
ATOM     41  C   UNL     1       8.746  10.301  -1.805  1.00  0.00     0.146 C 
BRANCH  41  42
ATOM     42  N   UNL     1      10.197  10.365  -1.922  1.00  0.00    -0.254 NA
ATOM     43  C   UNL     1      10.917  10.381  -0.864  1.00  0.00     0.185 C 
ATOM     44  N   UNL     1      10.553  10.345   0.431  1.00  0.00    -0.370 N 
ATOM     45  N   UNL     1      12.253  10.445  -0.993  1.00  0.00    -0.370 N 
ATOM     46  H   UNL     1      11.202  10.609   1.153  1.00  0.00     0.159 HD
ATOM     47  H   UNL     1       9.579  10.282   0.709  1.00  0.00     0.159 HD
ATOM     48  H   UNL     1      12.611  10.467  -1.938  1.00  0.00     0.159 HD
ATOM     49  H   UNL     1      12.883  10.225  -0.243  1.00  0.00     0.159 HD
ENDBRANCH  41  42
ENDBRANCH  40  41
ENDBRANCH  39  40
ENDBRANCH  38  39
ENDBRANCH  36  38
ENDBRANCH   5  34
BRANCH   8  50
ATOM     50  O   UNL     1      11.431  11.650   3.347  1.00  0.00    -0.245 OA
BRANCH  50  51
ATOM     51  S   UNL     1      13.000  11.868   2.977  1.00  0.00     0.397 S 
ATOM     52  O   UNL     1      13.307  13.271   3.144  1.00  0.00    -0.169 OA
ATOM     53  O   UNL     1      13.313  11.162   1.752  1.00  0.00    -0.169 OA
BRANCH  51  54
ATOM     54  O   UNL     1      13.738  11.111   4.188  1.00  0.00    -0.264 OA
ATOM     55  H   UNL     1      13.588  11.633   5.002  1.00  0.00     0.236 HD
ENDBRANCH  51  54
ENDBRANCH  50  51
ENDBRANCH   8  50
TORSDOF 19
ENDMDL
MODEL 3
REMARK VINA RESULT:    -6.007      3.591      4.866
REMARK INTER + INTRA:         -16.919
REMARK INTER:                 -13.774
REMARK INTRA:                  -3.145
REMARK UNBOUND:                -4.768
REMARK SMILES CC[C@@H](C)[C@@H](NC(=O)[C@@H](O)Cc1ccc(O)c(Cl)c1)C(=O)N1[C@H](C(=O)NCCCCN=C(N)N)C[C@H]2CC[C@H](OS(=O)(=O)O)C[C@@H]21
REMARK SMILES IDX 22 1 36 2 46 3 35 4 23 5 45 6 37 7 39 8 38 9 20 10 21 11
REMARK SMILES IDX 5 12 6 13 7 14 8 15 9 17 11 18 12 19 17 20 19 21 15 22 14 23
REMARK SMILES IDX 13 24 18 25 16 26 10 28 3 30 4 31 2 32 1 33 24 34 25 35
REMARK SMILES IDX 26 36 27 38 28 39 29 40 30 41 31 42 32 43 33 44 34 45 40 50
REMARK SMILES IDX 41 51 42 52 43 53 44 54
REMARK H PARENT 6 16 16 27 10 29 26 37 33 46 33 47 34 48 34 49 44 55
ROOT
ATOM      1  N   UNL     1       9.067  10.800   1.163  1.00  0.00    -0.326 N 
ATOM      2  C   UNL     1      10.701  12.491   1.054  1.00  0.00     0.014 C 
ATOM      3  C   UNL     1      10.521  10.977   1.203  1.00  0.00     0.091 C 
ATOM      4  C   UNL     1       9.495  13.046   1.795  1.00  0.00     0.041 C 
ATOM      5  C   UNL     1       8.392  12.118   1.254  1.00  0.00     0.175 C 
ATOM      6  C   UNL     1      11.365  10.283   0.135  1.00  0.00     0.059 C 
ATOM      7  C   UNL     1      12.094  12.916   1.477  1.00  0.00     0.008 C 
ATOM      8  C   UNL     1      12.655  11.049  -0.233  1.00  0.00     0.143 C 
ATOM      9  C   UNL     1      13.152  11.936   0.926  1.00  0.00     0.034 C 
ENDROOT
BRANCH   1  10
ATOM     10  C   UNL     1       8.310   9.645   1.271  1.00  0.00     0.246 C 
ATOM     11  O   UNL     1       7.754   9.195   0.264  1.00  0.00    -0.272 OA
BRANCH  10  12
ATOM     12  C   UNL     1       8.212   8.918   2.643  1.00  0.00     0.174 C 
BRANCH  12  13
ATOM     13  N   UNL     1       6.831   8.944   3.124  1.00  0.00    -0.342 N 
ATOM     14  C   UNL     1       5.873   8.001   2.828  1.00  0.00     0.249 C 
ATOM     15  O   UNL     1       6.083   7.008   2.142  1.00  0.00    -0.272 OA
ATOM     16  H   UNL     1       6.469   9.783   3.570  1.00  0.00     0.164 HD
BRANCH  14  17
ATOM     17  C   UNL     1       4.506   8.317   3.471  1.00  0.00     0.207 C 
BRANCH  17  18
ATOM     18  C   UNL     1       3.987   7.104   4.249  1.00  0.00     0.077 C 
BRANCH  18  19
ATOM     19  C   UNL     1       3.753   7.431   5.707  1.00  0.00    -0.043 A 
ATOM     20  C   UNL     1       3.333   6.705   7.983  1.00  0.00     0.083 A 
ATOM     21  C   UNL     1       3.598   6.400   6.648  1.00  0.00     0.028 A 
ATOM     22  C   UNL     1       3.221   8.035   8.387  1.00  0.00     0.134 A 
ATOM     23  C   UNL     1       3.373   9.066   7.467  1.00  0.00     0.048 A 
ATOM     24  C   UNL     1       3.636   8.764   6.129  1.00  0.00     0.008 A 
ATOM     25  Cl  UNL     1       3.145   5.425   9.124  1.00  0.00    -0.080 Cl
BRANCH  22  26
ATOM     26  O   UNL     1       2.952   8.382   9.684  1.00  0.00    -0.506 OA
ATOM     27  H   UNL     1       3.545   9.124   9.904  1.00  0.00     0.293 HD
ENDBRANCH  22  26
ENDBRANCH  18  19
ENDBRANCH  17  18
BRANCH  17  28
ATOM     28  O   UNL     1       3.541   8.694   2.475  1.00  0.00    -0.383 OA
ATOM     29  H   UNL     1       3.993   8.594   1.607  1.00  0.00     0.211 HD
ENDBRANCH  17  28
ENDBRANCH  14  17
ENDBRANCH  12  13
BRANCH  12  30
ATOM     30  C   UNL     1       9.214   9.475   3.690  1.00  0.00     0.018 C 
ATOM     31  C   UNL     1      10.307   8.441   4.003  1.00  0.00     0.010 C 
BRANCH  30  32
ATOM     32  C   UNL     1       8.543   9.953   5.001  1.00  0.00     0.002 C 
ATOM     33  C   UNL     1       8.688  11.438   5.303  1.00  0.00     0.004 C 
ENDBRANCH  30  32
ENDBRANCH  12  30
ENDBRANCH  10  12
ENDBRANCH   1  10
BRANCH   5  34
ATOM     34  C   UNL     1       7.892  12.577  -0.142  1.00  0.00     0.242 C 
ATOM     35  O   UNL     1       7.162  13.557  -0.290  1.00  0.00    -0.273 OA
ATOM     36  N   UNL     1       8.279  11.778  -1.195  1.00  0.00    -0.354 N 
ATOM     37  H   UNL     1       8.783  10.913  -0.996  1.00  0.00     0.163 HD
BRANCH  36  38
ATOM     38  C   UNL     1       8.087  12.172  -2.575  1.00  0.00     0.116 C 
BRANCH  38  39
ATOM     39  C   UNL     1       9.349  12.853  -3.101  1.00  0.00     0.023 C 
BRANCH  39  40
ATOM     40  C   UNL     1       9.039  14.098  -3.925  1.00  0.00     0.026 C 
BRANCH  40  41
ATOM     41  C   UNL     1       9.678  14.003  -5.311  1.00  0.00     0.146 C 
BRANCH  41  42
ATOM     42  N   UNL     1      10.667  12.933  -5.325  1.00  0.00    -0.254 NA
ATOM     43  C   UNL     1      11.278  12.650  -6.414  1.00  0.00     0.185 C 
ATOM     44  N   UNL     1      11.167  13.201  -7.637  1.00  0.00    -0.370 N 
ATOM     45  N   UNL     1      12.183  11.658  -6.407  1.00  0.00    -0.370 N 
ATOM     46  H   UNL     1      11.522  12.724  -8.448  1.00  0.00     0.159 HD
ATOM     47  H   UNL     1      10.535  13.975  -7.817  1.00  0.00     0.159 HD
ATOM     48  H   UNL     1      12.334  11.195  -5.521  1.00  0.00     0.159 HD
ATOM     49  H   UNL     1      12.861  11.535  -7.138  1.00  0.00     0.159 HD
ENDBRANCH  41  42
ENDBRANCH  40  41
ENDBRANCH  39  40
ENDBRANCH  38  39
ENDBRANCH  36  38
ENDBRANCH   5  34
BRANCH   8  50
ATOM     50  O   UNL     1      12.424  11.878  -1.372  1.00  0.00    -0.245 OA
BRANCH  50  51
ATOM     51  S   UNL     1      12.957  11.401  -2.833  1.00  0.00     0.397 S 
ATOM     52  O   UNL     1      13.431  12.570  -3.539  1.00  0.00    -0.169 OA
ATOM     53  O   UNL     1      11.998  10.493  -3.427  1.00  0.00    -0.169 OA
BRANCH  51  54
ATOM     54  O   UNL     1      14.271  10.556  -2.452  1.00  0.00    -0.264 OA
ATOM     55  H   UNL     1      14.669  10.966  -1.657  1.00  0.00     0.236 HD
ENDBRANCH  51  54
ENDBRANCH  50  51
ENDBRANCH   8  50
TORSDOF 19
ENDMDL
MODEL 4
REMARK VINA RESULT:    -5.938      3.094      4.560
REMARK INTER + INTRA:         -16.780
REMARK INTER:                 -12.524
REMARK INTRA:                  -4.256
REMARK UNBOUND:                -4.768
REMARK SMILES CC[C@@H](C)[C@@H](NC(=O)[C@@H](O)Cc1ccc(O)c(Cl)c1)C(=O)N1[C@H](C(=O)NCCCCN=C(N)N)C[C@H]2CC[C@H](OS(=O)(=O)O)C[C@@H]21
REMARK SMILES IDX 22 1 36 2 46 3 35 4 23 5 45 6 37 7 39 8 38 9 20 10 21 11
REMARK SMILES IDX 5 12 6 13 7 14 8 15 9 17 11 18 12 19 17 20 19 21 15 22 14 23
REMARK SMILES IDX 13 24 18 25 16 26 10 28 3 30 4 31 2 32 1 33 24 34 25 35
REMARK SMILES IDX 26 36 27 38 28 39 29 40 30 41 31 42 32 43 33 44 34 45 40 50
REMARK SMILES IDX 41 51 42 52 43 53 44 54
REMARK H PARENT 6 16 16 27 10 29 26 37 33 46 33 47 34 48 34 49 44 55
ROOT
ATOM      1  N   UNL     1       8.800  10.298   1.804  1.00  0.00    -0.326 N 
ATOM      2  C   UNL     1       9.880  12.210   0.954  1.00  0.00     0.014 C 
ATOM      3  C   UNL     1      10.144  10.823   1.549  1.00  0.00     0.091 C 
ATOM      4  C   UNL     1       8.634  12.662   1.700  1.00  0.00     0.041 C 
ATOM      5  C   UNL     1       7.793  11.375   1.632  1.00  0.00     0.175 C 
ATOM      6  C   UNL     1      11.054  10.053   0.594  1.00  0.00     0.059 C 
ATOM      7  C   UNL     1      11.129  13.067   1.003  1.00  0.00     0.008 C 
ATOM      8  C   UNL     1      12.041  10.951  -0.183  1.00  0.00     0.143 C 
ATOM      9  C   UNL     1      12.368  12.250   0.581  1.00  0.00     0.034 C 
ENDROOT
BRANCH   1  10
ATOM     10  C   UNL     1       8.408   9.090   2.355  1.00  0.00     0.246 C 
ATOM     11  O   UNL     1       8.041   8.178   1.606  1.00  0.00    -0.272 OA
BRANCH  10  12
ATOM     12  C   UNL     1       8.479   8.892   3.897  1.00  0.00     0.174 C 
BRANCH  12  13
ATOM     13  N   UNL     1       7.336   9.542   4.537  1.00  0.00    -0.342 N 
ATOM     14  C   UNL     1       6.096   8.969   4.710  1.00  0.00     0.249 C 
ATOM     15  O   UNL     1       5.819   7.826   4.368  1.00  0.00    -0.272 OA
ATOM     16  H   UNL     1       7.367  10.540   4.729  1.00  0.00     0.164 HD
BRANCH  14  17
ATOM     17  C   UNL     1       5.094   9.916   5.404  1.00  0.00     0.207 C 
BRANCH  17  18
ATOM     18  C   UNL     1       3.730   9.236   5.553  1.00  0.00     0.077 C 
BRANCH  18  19
ATOM     19  C   UNL     1       3.531   8.675   6.944  1.00  0.00    -0.043 A 
ATOM     20  C   UNL     1       3.511   8.978   9.350  1.00  0.00     0.083 A 
ATOM     21  C   UNL     1       3.646   9.509   8.067  1.00  0.00     0.028 A 
ATOM     22  C   UNL     1       3.263   7.615   9.520  1.00  0.00     0.134 A 
ATOM     23  C   UNL     1       3.146   6.778   8.416  1.00  0.00     0.048 A 
ATOM     24  C   UNL     1       3.282   7.306   7.130  1.00  0.00     0.008 A 
ATOM     25  Cl  UNL     1       3.657  10.018  10.718  1.00  0.00    -0.080 Cl
BRANCH  22  26
ATOM     26  O   UNL     1       3.133   7.047  10.758  1.00  0.00    -0.506 OA
ATOM     27  H   UNL     1       3.698   7.563  11.363  1.00  0.00     0.293 HD
ENDBRANCH  22  26
ENDBRANCH  18  19
ENDBRANCH  17  18
BRANCH  17  28
ATOM     28  O   UNL     1       4.939  11.138   4.663  1.00  0.00    -0.383 OA
ATOM     29  H   UNL     1       4.241  10.962   3.992  1.00  0.00     0.211 HD
ENDBRANCH  17  28
ENDBRANCH  14  17
ENDBRANCH  12  13
BRANCH  12  30
ATOM     30  C   UNL     1       9.835   9.350   4.499  1.00  0.00     0.018 C 
ATOM     31  C   UNL     1      10.572   8.169   5.148  1.00  0.00     0.010 C 
BRANCH  30  32
ATOM     32  C   UNL     1       9.704  10.515   5.510  1.00  0.00     0.002 C 
ATOM     33  C   UNL     1      10.216  11.864   5.020  1.00  0.00     0.004 C 
ENDBRANCH  30  32
ENDBRANCH  12  30
ENDBRANCH  10  12
ENDBRANCH   1  10
BRANCH   5  34
ATOM     34  C   UNL     1       7.067  11.237   0.267  1.00  0.00     0.242 C 
ATOM     35  O   UNL     1       7.486  10.506  -0.630  1.00  0.00    -0.273 OA
ATOM     36  N   UNL     1       5.953  12.032   0.114  1.00  0.00    -0.354 N 
ATOM     37  H   UNL     1       5.725  12.706   0.846  1.00  0.00     0.163 HD
BRANCH  36  38
ATOM     38  C   UNL     1       5.039  11.876  -0.999  1.00  0.00     0.116 C 
BRANCH  38  39
ATOM     39  C   UNL     1       4.814  13.225  -1.678  1.00  0.00     0.023 C 
BRANCH  39  40
ATOM     40  C   UNL     1       5.995  14.173  -1.497  1.00  0.00     0.026 C 
BRANCH  40  41
ATOM     41  C   UNL     1       6.779  14.317  -2.801  1.00  0.00     0.146 C 
BRANCH  41  42
ATOM     42  N   UNL     1       7.367  13.034  -3.167  1.00  0.00    -0.254 NA
ATOM     43  C   UNL     1       8.594  12.799  -2.891  1.00  0.00     0.185 C 
ATOM     44  N   UNL     1       9.508  13.574  -2.280  1.00  0.00    -0.370 N 
ATOM     45  N   UNL     1       9.118  11.612  -3.241  1.00  0.00    -0.370 N 
ATOM     46  H   UNL     1      10.489  13.362  -2.348  1.00  0.00     0.159 HD
ATOM     47  H   UNL     1       9.277  14.501  -1.937  1.00  0.00     0.159 HD
ATOM     48  H   UNL     1       8.492  10.964  -3.700  1.00  0.00     0.159 HD
ATOM     49  H   UNL     1       9.979  11.264  -2.858  1.00  0.00     0.159 HD
ENDBRANCH  41  42
ENDBRANCH  40  41
ENDBRANCH  39  40
ENDBRANCH  38  39
ENDBRANCH  36  38
ENDBRANCH   5  34
BRANCH   8  50
ATOM     50  O   UNL     1      11.491  11.299  -1.454  1.00  0.00    -0.245 OA
BRANCH  50  51
ATOM     51  S   UNL     1      12.428  11.223  -2.782  1.00  0.00     0.397 S 
ATOM     52  O   UNL     1      11.811  10.304  -3.712  1.00  0.00    -0.169 OA
ATOM     53  O   UNL     1      13.816  11.091  -2.391  1.00  0.00    -0.169 OA
BRANCH  51  54
ATOM     54  O   UNL     1      12.229  12.687  -3.416  1.00  0.00    -0.264 OA
ATOM     55  H   UNL     1      11.447  12.654  -4.004  1.00  0.00     0.236 HD
ENDBRANCH  51  54
ENDBRANCH  50  51
ENDBRANCH   8  50
TORSDOF 19
ENDMDL
MODEL 5
REMARK VINA RESULT:    -5.935      3.956      8.585
REMARK INTER + INTRA:         -16.774
REMARK INTER:                 -13.603
REMARK INTRA:                  -3.170
REMARK UNBOUND:                -4.768
REMARK SMILES CC[C@@H](C)[C@@H](NC(=O)[C@@H](O)Cc1ccc(O)c(Cl)c1)C(=O)N1[C@H](C(=O)NCCCCN=C(N)N)C[C@H]2CC[C@H](OS(=O)(=O)O)C[C@@H]21
REMARK SMILES IDX 22 1 36 2 46 3 35 4 23 5 45 6 37 7 39 8 38 9 20 10 21 11
REMARK SMILES IDX 5 12 6 13 7 14 8 15 9 17 11 18 12 19 17 20 19 21 15 22 14 23
REMARK SMILES IDX 13 24 18 25 16 26 10 28 3 30 4 31 2 32 1 33 24 34 25 35
REMARK SMILES IDX 26 36 27 38 28 39 29 40 30 41 31 42 32 43 33 44 34 45 40 50
REMARK SMILES IDX 41 51 42 52 43 53 44 54
REMARK H PARENT 6 16 16 27 10 29 26 37 33 46 33 47 34 48 34 49 44 55
ROOT
ATOM      1  N   UNL     1       5.984  11.081   4.709  1.00  0.00    -0.326 N 
ATOM      2  C   UNL     1       5.859  10.576   7.005  1.00  0.00     0.014 C 
ATOM      3  C   UNL     1       5.015  11.021   5.808  1.00  0.00     0.091 C 
ATOM      4  C   UNL     1       7.197  11.250   6.741  1.00  0.00     0.041 C 
ATOM      5  C   UNL     1       7.363  10.948   5.241  1.00  0.00     0.175 C 
ATOM      6  C   UNL     1       3.827  10.069   5.674  1.00  0.00     0.059 C 
ATOM      7  C   UNL     1       5.135  10.846   8.309  1.00  0.00     0.008 C 
ATOM      8  C   UNL     1       3.330   9.503   7.022  1.00  0.00     0.143 C 
ATOM      9  C   UNL     1       3.648  10.447   8.199  1.00  0.00     0.034 C 
ENDROOT
BRANCH   1  10
ATOM     10  C   UNL     1       5.803  11.443   3.385  1.00  0.00     0.246 C 
ATOM     11  O   UNL     1       5.893  12.634   3.069  1.00  0.00    -0.272 OA
BRANCH  10  12
ATOM     12  C   UNL     1       5.534  10.341   2.319  1.00  0.00     0.174 C 
BRANCH  12  13
ATOM     13  N   UNL     1       6.310  10.616   1.111  1.00  0.00    -0.342 N 
ATOM     14  C   UNL     1       7.413   9.901   0.701  1.00  0.00     0.249 C 
ATOM     15  O   UNL     1       7.854   8.927   1.297  1.00  0.00    -0.272 OA
ATOM     16  H   UNL     1       6.159  11.483   0.602  1.00  0.00     0.164 HD
BRANCH  14  17
ATOM     17  C   UNL     1       8.024  10.448  -0.607  1.00  0.00     0.207 C 
BRANCH  17  18
ATOM     18  C   UNL     1       9.327  11.199  -0.316  1.00  0.00     0.077 C 
BRANCH  18  19
ATOM     19  C   UNL     1      10.323  11.055  -1.445  1.00  0.00    -0.043 A 
ATOM     20  C   UNL     1      12.615  10.855  -2.214  1.00  0.00     0.083 A 
ATOM     21  C   UNL     1      11.694  10.938  -1.169  1.00  0.00     0.028 A 
ATOM     22  C   UNL     1      12.174  10.889  -3.538  1.00  0.00     0.134 A 
ATOM     23  C   UNL     1      10.819  11.004  -3.825  1.00  0.00     0.048 A 
ATOM     24  C   UNL     1       9.895  11.089  -2.781  1.00  0.00     0.008 A 
ATOM     25  Cl  UNL     1      14.296  10.713  -1.855  1.00  0.00    -0.080 Cl
BRANCH  22  26
ATOM     26  O   UNL     1      13.039  10.821  -4.595  1.00  0.00    -0.506 OA
ATOM     27  H   UNL     1      13.876  11.225  -4.299  1.00  0.00     0.293 HD
ENDBRANCH  22  26
ENDBRANCH  18  19
ENDBRANCH  17  18
BRANCH  17  28
ATOM     28  O   UNL     1       7.107  11.327  -1.279  1.00  0.00    -0.383 OA
ATOM     29  H   UNL     1       6.872  10.880  -2.123  1.00  0.00     0.211 HD
ENDBRANCH  17  28
ENDBRANCH  14  17
ENDBRANCH  12  13
BRANCH  12  30
ATOM     30  C   UNL     1       4.022  10.151   2.022  1.00  0.00     0.018 C 
ATOM     31  C   UNL     1       3.584   8.708   2.316  1.00  0.00     0.010 C 
BRANCH  30  32
ATOM     32  C   UNL     1       3.617  10.547   0.581  1.00  0.00     0.002 C 
ATOM     33  C   UNL     1       2.945  11.907   0.444  1.00  0.00     0.004 C 
ENDBRANCH  30  32
ENDBRANCH  12  30
ENDBRANCH  10  12
ENDBRANCH   1  10
BRANCH   5  34
ATOM     34  C   UNL     1       7.907   9.514   5.003  1.00  0.00     0.242 C 
ATOM     35  O   UNL     1       7.166   8.558   4.776  1.00  0.00    -0.273 OA
ATOM     36  N   UNL     1       9.273   9.379   5.120  1.00  0.00    -0.354 N 
ATOM     37  H   UNL     1       9.821  10.183   5.428  1.00  0.00     0.163 HD
BRANCH  36  38
ATOM     38  C   UNL     1       9.967   8.172   4.723  1.00  0.00     0.116 C 
BRANCH  38  39
ATOM     39  C   UNL     1      11.262   8.533   3.998  1.00  0.00     0.023 C 
BRANCH  39  40
ATOM     40  C   UNL     1      11.009   9.148   2.626  1.00  0.00     0.026 C 
BRANCH  40  41
ATOM     41  C   UNL     1      11.736  10.486   2.489  1.00  0.00     0.146 C 
BRANCH  41  42
ATOM     42  N   UNL     1      11.273  11.406   3.520  1.00  0.00    -0.254 NA
ATOM     43  C   UNL     1      12.111  11.897   4.353  1.00  0.00     0.185 C 
ATOM     44  N   UNL     1      13.439  11.706   4.460  1.00  0.00    -0.370 N 
ATOM     45  N   UNL     1      11.663  12.740   5.299  1.00  0.00    -0.370 N 
ATOM     46  H   UNL     1      13.927  11.958   5.302  1.00  0.00     0.159 HD
ATOM     47  H   UNL     1      13.945  11.107   3.814  1.00  0.00     0.159 HD
ATOM     48  H   UNL     1      10.673  12.944   5.284  1.00  0.00     0.159 HD
ATOM     49  H   UNL     1      12.273  13.340   5.826  1.00  0.00     0.159 HD
ENDBRANCH  41  42
ENDBRANCH  40  41
ENDBRANCH  39  40
ENDBRANCH  38  39
ENDBRANCH  36  38
ENDBRANCH   5  34
BRANCH   8  50
ATOM     50  O   UNL     1       3.939   8.238   7.277  1.00  0.00    -0.245 OA
BRANCH  50  51
ATOM     51  S   UNL     1       3.032   6.888   7.243  1.00  0.00     0.397 S 
ATOM     52  O   UNL     1       1.644   7.281   7.337  1.00  0.00    -0.169 OA
ATOM     53  O   UNL     1       3.603   5.896   8.130  1.00  0.00    -0.169 OA
BRANCH  51  54
ATOM     54  O   UNL     1       3.242   6.381   5.731  1.00  0.00    -0.264 OA
ATOM     55  H   UNL     1       2.365   6.367   5.297  1.00  0.00     0.236 HD
ENDBRANCH  51  54
ENDBRANCH  50  51
ENDBRANCH   8  50
TORSDOF 19
ENDMDL
MODEL 6
REMARK VINA RESULT:    -5.853      4.705     10.483
REMARK INTER + INTRA:         -16.607
REMARK INTER:                 -14.606
REMARK INTRA:                  -2.002
REMARK UNBOUND:                -4.768
REMARK SMILES CC[C@@H](C)[C@@H](NC(=O)[C@@H](O)Cc1ccc(O)c(Cl)c1)C(=O)N1[C@H](C(=O)NCCCCN=C(N)N)C[C@H]2CC[C@H](OS(=O)(=O)O)C[C@@H]21
REMARK SMILES IDX 22 1 36 2 46 3 35 4 23 5 45 6 37 7 39 8 38 9 20 10 21 11
REMARK SMILES IDX 5 12 6 13 7 14 8 15 9 17 11 18 12 19 17 20 19 21 15 22 14 23
REMARK SMILES IDX 13 24 18 25 16 26 10 28 3 30 4 31 2 32 1 33 24 34 25 35
REMARK SMILES IDX 26 36 27 38 28 39 29 40 30 41 31 42 32 43 33 44 34 45 40 50
REMARK SMILES IDX 41 51 42 52 43 53 44 54
REMARK H PARENT 6 16 16 27 10 29 26 37 33 46 33 47 34 48 34 49 44 55
ROOT
ATOM      1  N   UNL     1       7.760   9.707   3.400  1.00  0.00    -0.326 N 
ATOM      2  C   UNL     1       6.244  11.267   4.299  1.00  0.00     0.014 C 
ATOM      3  C   UNL     1       7.403  11.126   3.308  1.00  0.00     0.091 C 
ATOM      4  C   UNL     1       6.622  10.287   5.399  1.00  0.00     0.041 C 
ATOM      5  C   UNL     1       7.061   9.080   4.548  1.00  0.00     0.175 C 
ATOM      6  C   UNL     1       6.951  11.673   1.956  1.00  0.00     0.059 C 
ATOM      7  C   UNL     1       6.006  12.723   4.651  1.00  0.00     0.008 C 
ATOM      8  C   UNL     1       5.936  12.832   2.062  1.00  0.00     0.143 C 
ATOM      9  C   UNL     1       6.078  13.607   3.388  1.00  0.00     0.034 C 
ENDROOT
BRANCH   1  10
ATOM     10  C   UNL     1       8.754   8.998   2.746  1.00  0.00     0.246 C 
ATOM     11  O   UNL     1       8.490   7.885   2.280  1.00  0.00    -0.272 OA
BRANCH  10  12
ATOM     12  C   UNL     1      10.164   9.634   2.574  1.00  0.00     0.174 C 
BRANCH  12  13
ATOM     13  N   UNL     1      10.509   9.706   1.154  1.00  0.00    -0.342 N 
ATOM     14  C   UNL     1      10.770  10.867   0.462  1.00  0.00     0.249 C 
ATOM     15  O   UNL     1      10.769  11.980   0.973  1.00  0.00    -0.272 OA
ATOM     16  H   UNL     1      10.395   8.884   0.566  1.00  0.00     0.164 HD
BRANCH  14  17
ATOM     17  C   UNL     1      11.086  10.615  -1.027  1.00  0.00     0.207 C 
BRANCH  17  18
ATOM     18  C   UNL     1      11.417  11.932  -1.735  1.00  0.00     0.077 C 
BRANCH  18  19
ATOM     19  C   UNL     1      11.735  11.719  -3.198  1.00  0.00    -0.043 A 
ATOM     20  C   UNL     1      13.312  11.119  -4.941  1.00  0.00     0.083 A 
ATOM     21  C   UNL     1      13.006  11.267  -3.588  1.00  0.00     0.028 A 
ATOM     22  C   UNL     1      12.356  11.422  -5.911  1.00  0.00     0.134 A 
ATOM     23  C   UNL     1      11.094  11.871  -5.539  1.00  0.00     0.048 A 
ATOM     24  C   UNL     1      10.784  12.022  -4.185  1.00  0.00     0.008 A 
ATOM     25  Cl  UNL     1      14.878  10.562  -5.400  1.00  0.00    -0.080 Cl
BRANCH  22  26
ATOM     26  O   UNL     1      12.613  11.303  -7.250  1.00  0.00    -0.506 OA
ATOM     27  H   UNL     1      13.425  10.768  -7.332  1.00  0.00     0.293 HD
ENDBRANCH  22  26
ENDBRANCH  18  19
ENDBRANCH  17  18
BRANCH  17  28
ATOM     28  O   UNL     1       9.980   9.981  -1.691  1.00  0.00    -0.383 OA
ATOM     29  H   UNL     1       9.657  10.628  -2.358  1.00  0.00     0.211 HD
ENDBRANCH  17  28
ENDBRANCH  14  17
ENDBRANCH  12  13
BRANCH  12  30
ATOM     30  C   UNL     1      11.253   8.914   3.413  1.00  0.00     0.018 C 
ATOM     31  C   UNL     1      10.680   8.433   4.755  1.00  0.00     0.010 C 
BRANCH  30  32
ATOM     32  C   UNL     1      12.521   9.769   3.651  1.00  0.00     0.002 C 
ATOM     33  C   UNL     1      12.267  11.186   4.148  1.00  0.00     0.004 C 
ENDBRANCH  30  32
ENDBRANCH  12  30
ENDBRANCH  10  12
ENDBRANCH   1  10
BRANCH   5  34
ATOM     34  C   UNL     1       5.844   8.248   4.064  1.00  0.00     0.242 C 
ATOM     35  O   UNL     1       5.618   8.046   2.871  1.00  0.00    -0.273 OA
ATOM     36  N   UNL     1       5.007   7.800   5.061  1.00  0.00    -0.354 N 
ATOM     37  H   UNL     1       5.181   8.101   6.021  1.00  0.00     0.163 HD
BRANCH  36  38
ATOM     38  C   UNL     1       3.954   6.837   4.812  1.00  0.00     0.116 C 
BRANCH  38  39
ATOM     39  C   UNL     1       3.160   6.595   6.094  1.00  0.00     0.023 C 
BRANCH  39  40
ATOM     40  C   UNL     1       2.783   7.893   6.800  1.00  0.00     0.026 C 
BRANCH  40  41
ATOM     41  C   UNL     1       3.157   7.831   8.282  1.00  0.00     0.146 C 
BRANCH  41  42
ATOM     42  N   UNL     1       3.229   6.442   8.714  1.00  0.00    -0.254 NA
ATOM     43  C   UNL     1       2.629   6.081   9.785  1.00  0.00     0.185 C 
ATOM     44  N   UNL     1       1.888   6.801  10.648  1.00  0.00    -0.370 N 
ATOM     45  N   UNL     1       2.711   4.796  10.169  1.00  0.00    -0.370 N 
ATOM     46  H   UNL     1       1.684   6.448  11.567  1.00  0.00     0.159 HD
ATOM     47  H   UNL     1       1.712   7.790  10.502  1.00  0.00     0.159 HD
ATOM     48  H   UNL     1       3.245   4.182   9.569  1.00  0.00     0.159 HD
ATOM     49  H   UNL     1       2.090   4.390  10.846  1.00  0.00     0.159 HD
ENDBRANCH  41  42
ENDBRANCH  40  41
ENDBRANCH  39  40
ENDBRANCH  38  39
ENDBRANCH  36  38
ENDBRANCH   5  34
BRANCH   8  50
ATOM     50  O   UNL     1       4.604  12.326   1.972  1.00  0.00    -0.245 OA
BRANCH  50  51
ATOM     51  S   UNL     1       4.021  11.850   0.530  1.00  0.00     0.397 S 
ATOM     52  O   UNL     1       3.965  10.405   0.527  1.00  0.00    -0.169 OA
ATOM     53  O   UNL     1       4.681  12.586  -0.528  1.00  0.00    -0.169 OA
BRANCH  51  54
ATOM     54  O   UNL     1       2.494  12.348   0.604  1.00  0.00    -0.264 OA
ATOM     55  H   UNL     1       2.311  12.611   1.529  1.00  0.00     0.236 HD
ENDBRANCH  51  54
ENDBRANCH  50  51
ENDBRANCH   8  50
TORSDOF 19
ENDMDL
MODEL 7
REMARK VINA RESULT:    -5.852      4.348      6.019
REMARK INTER + INTRA:         -16.606
REMARK INTER:                 -13.815
REMARK INTRA:                  -2.791
REMARK UNBOUND:                -4.768
REMARK SMILES CC[C@@H](C)[C@@H](NC(=O)[C@@H](O)Cc1ccc(O)c(Cl)c1)C(=O)N1[C@H](C(=O)NCCCCN=C(N)N)C[C@H]2CC[C@H](OS(=O)(=O)O)C[C@@H]21
REMARK SMILES IDX 22 1 36 2 46 3 35 4 23 5 45 6 37 7 39 8 38 9 20 10 21 11
REMARK SMILES IDX 5 12 6 13 7 14 8 15 9 17 11 18 12 19 17 20 19 21 15 22 14 23
REMARK SMILES IDX 13 24 18 25 16 26 10 28 3 30 4 31 2 32 1 33 24 34 25 35
REMARK SMILES IDX 26 36 27 38 28 39 29 40 30 41 31 42 32 43 33 44 34 45 40 50
REMARK SMILES IDX 41 51 42 52 43 53 44 54
REMARK H PARENT 6 16 16 27 10 29 26 37 33 46 33 47 34 48 34 49 44 55
ROOT
ATOM      1  N   UNL     1       9.687  11.065   0.291  1.00  0.00    -0.326 N 
ATOM      2  C   UNL     1      11.543  12.459  -0.103  1.00  0.00     0.014 C 
ATOM      3  C   UNL     1      11.125  10.991   0.016  1.00  0.00     0.091 C 
ATOM      4  C   UNL     1      10.641  13.147   0.910  1.00  0.00     0.041 C 
ATOM      5  C   UNL     1       9.299  12.466   0.585  1.00  0.00     0.175 C 
ATOM      6  C   UNL     1      11.586  10.254  -1.240  1.00  0.00     0.059 C 
ATOM      7  C   UNL     1      13.047  12.606   0.021  1.00  0.00     0.008 C 
ATOM      8  C   UNL     1      12.887  10.818  -1.850  1.00  0.00     0.143 C 
ATOM      9  C   UNL     1      13.770  11.511  -0.791  1.00  0.00     0.034 C 
ENDROOT
BRANCH   1  10
ATOM     10  C   UNL     1       8.772  10.050   0.513  1.00  0.00     0.246 C 
ATOM     11  O   UNL     1       7.987   9.741  -0.390  1.00  0.00    -0.272 OA
BRANCH  10  12
ATOM     12  C   UNL     1       8.780   9.294   1.873  1.00  0.00     0.174 C 
BRANCH  12  13
ATOM     13  N   UNL     1       7.495   9.470   2.549  1.00  0.00    -0.342 N 
ATOM     14  C   UNL     1       6.487   8.534   2.586  1.00  0.00     0.249 C 
ATOM     15  O   UNL     1       6.567   7.425   2.073  1.00  0.00    -0.272 OA
ATOM     16  H   UNL     1       7.224  10.392   2.882  1.00  0.00     0.164 HD
BRANCH  14  17
ATOM     17  C   UNL     1       5.247   9.025   3.364  1.00  0.00     0.207 C 
BRANCH  17  18
ATOM     18  C   UNL     1       4.121   7.989   3.284  1.00  0.00     0.077 C 
BRANCH  18  19
ATOM     19  C   UNL     1       3.901   7.295   4.610  1.00  0.00    -0.043 A 
ATOM     20  C   UNL     1       3.429   7.402   6.987  1.00  0.00     0.083 A 
ATOM     21  C   UNL     1       3.582   8.041   5.756  1.00  0.00     0.028 A 
ATOM     22  C   UNL     1       3.595   6.020   7.082  1.00  0.00     0.134 A 
ATOM     23  C   UNL     1       3.910   5.270   5.956  1.00  0.00     0.048 A 
ATOM     24  C   UNL     1       4.066   5.906   4.722  1.00  0.00     0.008 A 
ATOM     25  Cl  UNL     1       3.038   8.336   8.383  1.00  0.00    -0.080 Cl
BRANCH  22  26
ATOM     26  O   UNL     1       3.465   5.352   8.270  1.00  0.00    -0.506 OA
ATOM     27  H   UNL     1       4.158   4.666   8.282  1.00  0.00     0.293 HD
ENDBRANCH  22  26
ENDBRANCH  18  19
ENDBRANCH  17  18
BRANCH  17  28
ATOM     28  O   UNL     1       4.777  10.280   2.848  1.00  0.00    -0.383 OA
ATOM     29  H   UNL     1       5.421  10.958   3.154  1.00  0.00     0.211 HD
ENDBRANCH  17  28
ENDBRANCH  14  17
ENDBRANCH  12  13
BRANCH  12  30
ATOM     30  C   UNL     1       9.982   9.690   2.772  1.00  0.00     0.018 C 
ATOM     31  C   UNL     1      10.846   8.462   3.100  1.00  0.00     0.010 C 
BRANCH  30  32
ATOM     32  C   UNL     1       9.570  10.414   4.077  1.00  0.00     0.002 C 
ATOM     33  C   UNL     1       9.823   9.636   5.361  1.00  0.00     0.004 C 
ENDBRANCH  30  32
ENDBRANCH  12  30
ENDBRANCH  10  12
ENDBRANCH   1  10
BRANCH   5  34
ATOM     34  C   UNL     1       8.610  13.116  -0.645  1.00  0.00     0.242 C 
ATOM     35  O   UNL     1       8.077  14.224  -0.591  1.00  0.00    -0.273 OA
ATOM     36  N   UNL     1       8.591  12.342  -1.783  1.00  0.00    -0.354 N 
ATOM     37  H   UNL     1       8.943  11.385  -1.732  1.00  0.00     0.163 HD
BRANCH  36  38
ATOM     38  C   UNL     1       8.187  12.868  -3.070  1.00  0.00     0.116 C 
BRANCH  38  39
ATOM     39  C   UNL     1       9.402  13.434  -3.803  1.00  0.00     0.023 C 
BRANCH  39  40
ATOM     40  C   UNL     1       9.146  14.829  -4.363  1.00  0.00     0.026 C 
BRANCH  40  41
ATOM     41  C   UNL     1      10.326  15.294  -5.217  1.00  0.00     0.146 C 
BRANCH  41  42
ATOM     42  N   UNL     1       9.878  15.545  -6.581  1.00  0.00    -0.254 NA
ATOM     43  C   UNL     1      10.361  14.853  -7.543  1.00  0.00     0.185 C 
ATOM     44  N   UNL     1      11.273  13.864  -7.525  1.00  0.00    -0.370 N 
ATOM     45  N   UNL     1       9.939  15.103  -8.794  1.00  0.00    -0.370 N 
ATOM     46  H   UNL     1      11.738  13.580  -8.371  1.00  0.00     0.159 HD
ATOM     47  H   UNL     1      11.688  13.538  -6.658  1.00  0.00     0.159 HD
ATOM     48  H   UNL     1       9.243  15.830  -8.895  1.00  0.00     0.159 HD
ATOM     49  H   UNL     1      10.083  14.464  -9.555  1.00  0.00     0.159 HD
ENDBRANCH  41  42
ENDBRANCH  40  41
ENDBRANCH  39  40
ENDBRANCH  38  39
ENDBRANCH  36  38
ENDBRANCH   5  34
BRANCH   8  50
ATOM     50  O   UNL     1      12.579  11.765  -2.873  1.00  0.00    -0.245 OA
BRANCH  50  51
ATOM     51  S   UNL     1      12.995  11.447  -4.413  1.00  0.00     0.397 S 
ATOM     52  O   UNL     1      14.407  11.137  -4.439  1.00  0.00    -0.169 OA
ATOM     53  O   UNL     1      12.421  12.448  -5.288  1.00  0.00    -0.169 OA
BRANCH  51  54
ATOM     54  O   UNL     1      12.236  10.056  -4.686  1.00  0.00    -0.264 OA
ATOM     55  H   UNL     1      12.537   9.415  -4.010  1.00  0.00     0.236 HD
ENDBRANCH  51  54
ENDBRANCH  50  51
ENDBRANCH   8  50
TORSDOF 19
ENDMDL
MODEL 8
REMARK VINA RESULT:    -5.849      3.293      4.345
REMARK INTER + INTRA:         -16.600
REMARK INTER:                 -13.008
REMARK INTRA:                  -3.591
REMARK UNBOUND:                -4.768
REMARK SMILES CC[C@@H](C)[C@@H](NC(=O)[C@@H](O)Cc1ccc(O)c(Cl)c1)C(=O)N1[C@H](C(=O)NCCCCN=C(N)N)C[C@H]2CC[C@H](OS(=O)(=O)O)C[C@@H]21
REMARK SMILES IDX 22 1 36 2 46 3 35 4 23 5 45 6 37 7 39 8 38 9 20 10 21 11
REMARK SMILES IDX 5 12 6 13 7 14 8 15 9 17 11 18 12 19 17 20 19 21 15 22 14 23
REMARK SMILES IDX 13 24 18 25 16 26 10 28 3 30 4 31 2 32 1 33 24 34 25 35
REMARK SMILES IDX 26 36 27 38 28 39 29 40 30 41 31 42 32 43 33 44 34 45 40 50
REMARK SMILES IDX 41 51 42 52 43 53 44 54
REMARK H PARENT 6 16 16 27 10 29 26 37 33 46 33 47 34 48 34 49 44 55
ROOT
ATOM      1  N   UNL     1       8.794  11.044   1.808  1.00  0.00    -0.326 N 
ATOM      2  C   UNL     1       9.994  13.053   2.065  1.00  0.00     0.014 C 
ATOM      3  C   UNL     1      10.142  11.529   2.117  1.00  0.00     0.091 C 
ATOM      4  C   UNL     1       8.587  13.271   2.598  1.00  0.00     0.041 C 
ATOM      5  C   UNL     1       7.831  12.172   1.829  1.00  0.00     0.175 C 
ATOM      6  C   UNL     1      11.288  11.124   1.192  1.00  0.00     0.059 C 
ATOM      7  C   UNL     1      11.163  13.735   2.749  1.00  0.00     0.008 C 
ATOM      8  C   UNL     1      12.411  12.178   1.094  1.00  0.00     0.143 C 
ATOM      9  C   UNL     1      12.493  13.056   2.359  1.00  0.00     0.034 C 
ENDROOT
BRANCH   1  10
ATOM     10  C   UNL     1       8.314   9.748   1.730  1.00  0.00     0.246 C 
ATOM     11  O   UNL     1       8.082   9.258   0.620  1.00  0.00    -0.272 OA
BRANCH  10  12
ATOM     12  C   UNL     1       8.117   8.923   3.035  1.00  0.00     0.174 C 
BRANCH  12  13
ATOM     13  N   UNL     1       6.699   8.876   3.387  1.00  0.00    -0.342 N 
ATOM     14  C   UNL     1       5.796   7.951   2.911  1.00  0.00     0.249 C 
ATOM     15  O   UNL     1       6.093   7.037   2.152  1.00  0.00    -0.272 OA
ATOM     16  H   UNL     1       6.276   9.659   3.881  1.00  0.00     0.164 HD
BRANCH  14  17
ATOM     17  C   UNL     1       4.369   8.177   3.455  1.00  0.00     0.207 C 
BRANCH  17  18
ATOM     18  C   UNL     1       3.964   7.031   4.387  1.00  0.00     0.077 C 
BRANCH  18  19
ATOM     19  C   UNL     1       3.809   7.497   5.817  1.00  0.00    -0.043 A 
ATOM     20  C   UNL     1       3.223   7.040   8.126  1.00  0.00     0.083 A 
ATOM     21  C   UNL     1       3.412   6.596   6.817  1.00  0.00     0.028 A 
ATOM     22  C   UNL     1       3.425   8.383   8.444  1.00  0.00     0.134 A 
ATOM     23  C   UNL     1       3.818   9.287   7.463  1.00  0.00     0.048 A 
ATOM     24  C   UNL     1       4.007   8.846   6.151  1.00  0.00     0.008 A 
ATOM     25  Cl  UNL     1       2.735   5.917   9.341  1.00  0.00    -0.080 Cl
BRANCH  22  26
ATOM     26  O   UNL     1       3.241   8.868   9.710  1.00  0.00    -0.506 OA
ATOM     27  H   UNL     1       3.284   9.840   9.648  1.00  0.00     0.293 HD
ENDBRANCH  22  26
ENDBRANCH  18  19
ENDBRANCH  17  18
BRANCH  17  28
ATOM     28  O   UNL     1       3.418   8.280   2.383  1.00  0.00    -0.383 OA
ATOM     29  H   UNL     1       3.821   7.814   1.616  1.00  0.00     0.211 HD
ENDBRANCH  17  28
ENDBRANCH  14  17
ENDBRANCH  12  13
BRANCH  12  30
ATOM     30  C   UNL     1       9.001   9.432   4.206  1.00  0.00     0.018 C 
ATOM     31  C   UNL     1      10.041   8.373   4.606  1.00  0.00     0.010 C 
BRANCH  30  32
ATOM     32  C   UNL     1       8.192   9.879   5.447  1.00  0.00     0.002 C 
ATOM     33  C   UNL     1       8.164  11.381   5.700  1.00  0.00     0.004 C 
ENDBRANCH  30  32
ENDBRANCH  12  30
ENDBRANCH  10  12
ENDBRANCH   1  10
BRANCH   5  34
ATOM     34  C   UNL     1       7.479  12.622   0.386  1.00  0.00     0.242 C 
ATOM     35  O   UNL     1       6.719  13.563   0.158  1.00  0.00    -0.273 OA
ATOM     36  N   UNL     1       8.034  11.860  -0.617  1.00  0.00    -0.354 N 
ATOM     37  H   UNL     1       8.558  11.021  -0.364  1.00  0.00     0.163 HD
BRANCH  36  38
ATOM     38  C   UNL     1       7.990  12.261  -2.008  1.00  0.00     0.116 C 
BRANCH  38  39
ATOM     39  C   UNL     1       9.408  12.469  -2.533  1.00  0.00     0.023 C 
BRANCH  39  40
ATOM     40  C   UNL     1      10.113  11.153  -2.843  1.00  0.00     0.026 C 
BRANCH  40  41
ATOM     41  C   UNL     1      10.719  11.180  -4.246  1.00  0.00     0.146 C 
BRANCH  41  42
ATOM     42  N   UNL     1      11.940  11.976  -4.240  1.00  0.00    -0.254 NA
ATOM     43  C   UNL     1      13.005  11.504  -4.771  1.00  0.00     0.185 C 
ATOM     44  N   UNL     1      13.220  10.323  -5.379  1.00  0.00    -0.370 N 
ATOM     45  N   UNL     1      14.121  12.251  -4.752  1.00  0.00    -0.370 N 
ATOM     46  H   UNL     1      14.155   9.986  -5.529  1.00  0.00     0.159 HD
ATOM     47  H   UNL     1      12.477   9.640  -5.494  1.00  0.00     0.159 HD
ATOM     48  H   UNL     1      14.044  13.162  -4.319  1.00  0.00     0.159 HD
ATOM     49  H   UNL     1      14.912  12.063  -5.341  1.00  0.00     0.159 HD
ENDBRANCH  41  42
ENDBRANCH  40  41
ENDBRANCH  39  40
ENDBRANCH  38  39
ENDBRANCH  36  38
ENDBRANCH   5  34
BRANCH   8  50
ATOM     50  O   UNL     1      12.191  13.026  -0.033  1.00  0.00    -0.245 OA
BRANCH  50  51
ATOM     51  S   UNL     1      13.404  13.301  -1.081  1.00  0.00     0.397 S 
ATOM     52  O   UNL     1      13.902  12.021  -1.533  1.00  0.00    -0.169 OA
ATOM     53  O   UNL     1      14.290  14.314  -0.545  1.00  0.00    -0.169 OA
BRANCH  51  54
ATOM     54  O   UNL     1      12.626  13.937  -2.336  1.00  0.00    -0.264 OA
ATOM     55  H   UNL     1      12.168  13.209  -2.803  1.00  0.00     0.236 HD
ENDBRANCH  51  54
ENDBRANCH  50  51
ENDBRANCH   8  50
TORSDOF 19
ENDMDL
MODEL 9
REMARK VINA RESULT:    -5.807      3.530      6.874
REMARK INTER + INTRA:         -16.515
REMARK INTER:                 -13.206
REMARK INTRA:                  -3.309
REMARK UNBOUND:                -4.768
REMARK SMILES CC[C@@H](C)[C@@H](NC(=O)[C@@H](O)Cc1ccc(O)c(Cl)c1)C(=O)N1[C@H](C(=O)NCCCCN=C(N)N)C[C@H]2CC[C@H](OS(=O)(=O)O)C[C@@H]21
REMARK SMILES IDX 22 1 36 2 46 3 35 4 23 5 45 6 37 7 39 8 38 9 20 10 21 11
REMARK SMILES IDX 5 12 6 13 7 14 8 15 9 17 11 18 12 19 17 20 19 21 15 22 14 23
REMARK SMILES IDX 13 24 18 25 16 26 10 28 3 30 4 31 2 32 1 33 24 34 25 35
REMARK SMILES IDX 26 36 27 38 28 39 29 40 30 41 31 42 32 43 33 44 34 45 40 50
REMARK SMILES IDX 41 51 42 52 43 53 44 54
REMARK H PARENT 6 16 16 27 10 29 26 37 33 46 33 47 34 48 34 49 44 55
ROOT
ATOM      1  N   UNL     1       4.831  10.223   4.098  1.00  0.00    -0.326 N 
ATOM      2  C   UNL     1       6.274   9.404   2.427  1.00  0.00     0.014 C 
ATOM      3  C   UNL     1       5.998  10.627   3.307  1.00  0.00     0.091 C 
ATOM      4  C   UNL     1       4.877   8.868   2.151  1.00  0.00     0.041 C 
ATOM      5  C   UNL     1       4.266   8.960   3.561  1.00  0.00     0.175 C 
ATOM      6  C   UNL     1       7.284  10.989   4.048  1.00  0.00     0.059 C 
ATOM      7  C   UNL     1       7.175   9.766   1.264  1.00  0.00     0.008 C 
ATOM      8  C   UNL     1       8.569  10.668   3.255  1.00  0.00     0.143 C 
ATOM      9  C   UNL     1       8.328  10.679   1.732  1.00  0.00     0.034 C 
ENDROOT
BRANCH   1  10
ATOM     10  C   UNL     1       4.119  10.928   5.053  1.00  0.00     0.246 C 
ATOM     11  O   UNL     1       3.252  11.730   4.688  1.00  0.00    -0.272 OA
BRANCH  10  12
ATOM     12  C   UNL     1       4.395  10.667   6.563  1.00  0.00     0.174 C 
BRANCH  12  13
ATOM     13  N   UNL     1       3.140  10.377   7.255  1.00  0.00    -0.342 N 
ATOM     14  C   UNL     1       3.000   9.486   8.296  1.00  0.00     0.249 C 
ATOM     15  O   UNL     1       3.929   8.852   8.781  1.00  0.00    -0.272 OA
ATOM     16  H   UNL     1       2.261  10.707   6.865  1.00  0.00     0.164 HD
BRANCH  14  17
ATOM     17  C   UNL     1       1.545   9.388   8.804  1.00  0.00     0.207 C 
BRANCH  17  18
ATOM     18  C   UNL     1       1.486   9.651  10.312  1.00  0.00     0.077 C 
BRANCH  18  19
ATOM     19  C   UNL     1       0.579  10.815  10.643  1.00  0.00    -0.043 A 
ATOM     20  C   UNL     1      -1.092  12.438   9.966  1.00  0.00     0.083 A 
ATOM     21  C   UNL     1      -0.293  11.333   9.673  1.00  0.00     0.028 A 
ATOM     22  C   UNL     1      -1.025  13.033  11.227  1.00  0.00     0.134 A 
ATOM     23  C   UNL     1      -0.166  12.531  12.197  1.00  0.00     0.048 A 
ATOM     24  C   UNL     1       0.637  11.426  11.906  1.00  0.00     0.008 A 
ATOM     25  Cl  UNL     1      -2.156  13.060   8.760  1.00  0.00    -0.080 Cl
BRANCH  22  26
ATOM     26  O   UNL     1      -1.781  14.125  11.557  1.00  0.00    -0.506 OA
ATOM     27  H   UNL     1      -1.515  14.843  10.953  1.00  0.00     0.293 HD
ENDBRANCH  22  26
ENDBRANCH  18  19
ENDBRANCH  17  18
BRANCH  17  28
ATOM     28  O   UNL     1       0.986   8.094   8.524  1.00  0.00    -0.383 OA
ATOM     29  H   UNL     1       1.739   7.461   8.549  1.00  0.00     0.211 HD
ENDBRANCH  17  28
ENDBRANCH  14  17
ENDBRANCH  12  13
BRANCH  12  30
ATOM     30  C   UNL     1       5.190  11.818   7.235  1.00  0.00     0.018 C 
ATOM     31  C   UNL     1       6.523  11.304   7.800  1.00  0.00     0.010 C 
BRANCH  30  32
ATOM     32  C   UNL     1       4.396  12.561   8.338  1.00  0.00     0.002 C 
ATOM     33  C   UNL     1       4.891  12.335   9.760  1.00  0.00     0.004 C 
ENDBRANCH  30  32
ENDBRANCH  12  30
ENDBRANCH  10  12
ENDBRANCH   1  10
BRANCH   5  34
ATOM     34  C   UNL     1       4.681   7.753   4.444  1.00  0.00     0.242 C 
ATOM     35  O   UNL     1       5.716   7.750   5.110  1.00  0.00    -0.273 OA
ATOM     36  N   UNL     1       3.835   6.668   4.387  1.00  0.00    -0.354 N 
ATOM     37  H   UNL     1       3.058   6.685   3.725  1.00  0.00     0.163 HD
BRANCH  36  38
ATOM     38  C   UNL     1       3.949   5.550   5.300  1.00  0.00     0.116 C 
BRANCH  38  39
ATOM     39  C   UNL     1       3.486   5.970   6.693  1.00  0.00     0.023 C 
BRANCH  39  40
ATOM     40  C   UNL     1       3.668   4.863   7.726  1.00  0.00     0.026 C 
BRANCH  40  41
ATOM     41  C   UNL     1       3.793   5.449   9.133  1.00  0.00     0.146 C 
BRANCH  41  42
ATOM     42  N   UNL     1       2.495   5.936   9.580  1.00  0.00    -0.254 NA
ATOM     43  C   UNL     1       2.179   5.851  10.818  1.00  0.00     0.185 C 
ATOM     44  N   UNL     1       2.877   5.359  11.857  1.00  0.00    -0.370 N 
ATOM     45  N   UNL     1       0.976   6.303  11.210  1.00  0.00    -0.370 N 
ATOM     46  H   UNL     1       2.418   5.132  12.722  1.00  0.00     0.159 HD
ATOM     47  H   UNL     1       3.815   4.988  11.741  1.00  0.00     0.159 HD
ATOM     48  H   UNL     1       0.389   6.698  10.488  1.00  0.00     0.159 HD
ATOM     49  H   UNL     1       0.752   6.489  12.171  1.00  0.00     0.159 HD
ENDBRANCH  41  42
ENDBRANCH  40  41
ENDBRANCH  39  40
ENDBRANCH  38  39
ENDBRANCH  36  38
ENDBRANCH   5  34
BRANCH   8  50
ATOM     50  O   UNL     1       9.065   9.381   3.625  1.00  0.00    -0.245 OA
BRANCH  50  51
ATOM     51  S   UNL     1      10.599   9.231   4.145  1.00  0.00     0.397 S 
ATOM     52  O   UNL     1      11.463   9.211   2.986  1.00  0.00    -0.169 OA
ATOM     53  O   UNL     1      10.669   8.204   5.163  1.00  0.00    -0.169 OA
BRANCH  51  54
ATOM     54  O   UNL     1      10.853  10.651   4.855  1.00  0.00    -0.264 OA
ATOM     55  H   UNL     1      10.381  11.334   4.336  1.00  0.00     0.236 HD
ENDBRANCH  51  54
ENDBRANCH  50  51
ENDBRANCH   8  50
TORSDOF 19
ENDMDL
MODEL 10
REMARK VINA RESULT:    -5.806      2.971      5.101
REMARK INTER + INTRA:         -16.513
REMARK INTER:                 -12.100
REMARK INTRA:                  -4.413
REMARK UNBOUND:                -4.768
REMARK SMILES CC[C@@H](C)[C@@H](NC(=O)[C@@H](O)Cc1ccc(O)c(Cl)c1)C(=O)N1[C@H](C(=O)NCCCCN=C(N)N)C[C@H]2CC[C@H](OS(=O)(=O)O)C[C@@H]21
REMARK SMILES IDX 22 1 36 2 46 3 35 4 23 5 45 6 37 7 39 8 38 9 20 10 21 11
REMARK SMILES IDX 5 12 6 13 7 14 8 15 9 17 11 18 12 19 17 20 19 21 15 22 14 23
REMARK SMILES IDX 13 24 18 25 16 26 10 28 3 30 4 31 2 32 1 33 24 34 25 35
REMARK SMILES IDX 26 36 27 38 28 39 29 40 30 41 31 42 32 43 33 44 34 45 40 50
REMARK SMILES IDX 41 51 42 52 43 53 44 54
REMARK H PARENT 6 16 16 27 10 29 26 37 33 46 33 47 34 48 34 49 44 55
ROOT
ATOM      1  N   UNL     1       8.216  11.204   4.767  1.00  0.00    -0.326 N 
ATOM      2  C   UNL     1       7.731   9.647   3.069  1.00  0.00     0.014 C 
ATOM      3  C   UNL     1       7.506  11.103   3.489  1.00  0.00     0.091 C 
ATOM      4  C   UNL     1       7.731   8.911   4.400  1.00  0.00     0.041 C 
ATOM      5  C   UNL     1       8.619   9.854   5.233  1.00  0.00     0.175 C 
ATOM      6  C   UNL     1       7.947  12.010   2.341  1.00  0.00     0.059 C 
ATOM      7  C   UNL     1       6.747   9.236   1.992  1.00  0.00     0.008 C 
ATOM      8  C   UNL     1       7.741  11.388   0.943  1.00  0.00     0.143 C 
ATOM      9  C   UNL     1       6.601  10.349   0.934  1.00  0.00     0.034 C 
ENDROOT
BRANCH   1  10
ATOM     10  C   UNL     1       8.347  12.281   5.627  1.00  0.00     0.246 C 
ATOM     11  O   UNL     1       9.426  12.881   5.680  1.00  0.00    -0.272 OA
BRANCH  10  12
ATOM     12  C   UNL     1       7.124  12.739   6.474  1.00  0.00     0.174 C 
BRANCH  12  13
ATOM     13  N   UNL     1       6.341  11.576   6.889  1.00  0.00    -0.342 N 
ATOM     14  C   UNL     1       5.756  11.418   8.125  1.00  0.00     0.249 C 
ATOM     15  O   UNL     1       5.805  12.257   9.015  1.00  0.00    -0.272 OA
ATOM     16  H   UNL     1       6.346  10.736   6.316  1.00  0.00     0.164 HD
BRANCH  14  17
ATOM     17  C   UNL     1       5.012  10.073   8.264  1.00  0.00     0.207 C 
BRANCH  17  18
ATOM     18  C   UNL     1       3.702  10.102   7.470  1.00  0.00     0.077 C 
BRANCH  18  19
ATOM     19  C   UNL     1       3.772   9.229   6.237  1.00  0.00    -0.043 A 
ATOM     20  C   UNL     1       3.934   7.031   5.223  1.00  0.00     0.083 A 
ATOM     21  C   UNL     1       3.820   7.832   6.360  1.00  0.00     0.028 A 
ATOM     22  C   UNL     1       4.004   7.619   3.960  1.00  0.00     0.134 A 
ATOM     23  C   UNL     1       3.958   9.002   3.823  1.00  0.00     0.048 A 
ATOM     24  C   UNL     1       3.844   9.806   4.960  1.00  0.00     0.008 A 
ATOM     25  Cl  UNL     1       3.992   5.316   5.395  1.00  0.00    -0.080 Cl
BRANCH  22  26
ATOM     26  O   UNL     1       4.127   6.876   2.817  1.00  0.00    -0.506 OA
ATOM     27  H   UNL     1       3.972   5.947   3.069  1.00  0.00     0.293 HD
ENDBRANCH  22  26
ENDBRANCH  18  19
ENDBRANCH  17  18
BRANCH  17  28
ATOM     28  O   UNL     1       4.728   9.778   9.641  1.00  0.00    -0.383 OA
ATOM     29  H   UNL     1       5.146  10.498  10.165  1.00  0.00     0.211 HD
ENDBRANCH  17  28
ENDBRANCH  14  17
ENDBRANCH  12  13
BRANCH  12  30
ATOM     30  C   UNL     1       6.260  13.808   5.751  1.00  0.00     0.018 C 
ATOM     31  C   UNL     1       6.049  15.038   6.647  1.00  0.00     0.010 C 
BRANCH  30  32
ATOM     32  C   UNL     1       4.896  13.271   5.254  1.00  0.00     0.002 C 
ATOM     33  C   UNL     1       4.683  13.329   3.747  1.00  0.00     0.004 C 
ENDBRANCH  30  32
ENDBRANCH  12  30
ENDBRANCH  10  12
ENDBRANCH   1  10
BRANCH   5  34
ATOM     34  C   UNL     1      10.127   9.606   4.963  1.00  0.00     0.242 C 
ATOM     35  O   UNL     1      10.721   8.622   5.405  1.00  0.00    -0.273 OA
ATOM     36  N   UNL     1      10.763  10.591   4.242  1.00  0.00    -0.354 N 
ATOM     37  H   UNL     1      10.246  11.439   4.007  1.00  0.00     0.163 HD
BRANCH  36  38
ATOM     38  C   UNL     1      12.103  10.423   3.718  1.00  0.00     0.116 C 
BRANCH  38  39
ATOM     39  C   UNL     1      12.213  11.095   2.351  1.00  0.00     0.023 C 
BRANCH  39  40
ATOM     40  C   UNL     1      13.610  11.645   2.083  1.00  0.00     0.026 C 
BRANCH  40  41
ATOM     41  C   UNL     1      13.672  12.320   0.713  1.00  0.00     0.146 C 
BRANCH  41  42
ATOM     42  N   UNL     1      13.433  11.335  -0.333  1.00  0.00    -0.254 NA
ATOM     43  C   UNL     1      13.574  11.669  -1.561  1.00  0.00     0.185 C 
ATOM     44  N   UNL     1      13.932  12.848  -2.102  1.00  0.00    -0.370 N 
ATOM     45  N   UNL     1      13.344  10.747  -2.511  1.00  0.00    -0.370 N 
ATOM     46  H   UNL     1      13.766  13.036  -3.076  1.00  0.00     0.159 HD
ATOM     47  H   UNL     1      14.156  13.653  -1.525  1.00  0.00     0.159 HD
ATOM     48  H   UNL     1      13.078   9.827  -2.187  1.00  0.00     0.159 HD
ATOM     49  H   UNL     1      13.657  10.854  -3.459  1.00  0.00     0.159 HD
ENDBRANCH  41  42
ENDBRANCH  40  41
ENDBRANCH  39  40
ENDBRANCH  38  39
ENDBRANCH  36  38
ENDBRANCH   5  34
BRANCH   8  50
ATOM     50  O   UNL     1       8.941  10.747   0.510  1.00  0.00    -0.245 OA
BRANCH  50  51
ATOM     51  S   UNL     1       9.568  11.116  -0.946  1.00  0.00     0.397 S 
ATOM     52  O   UNL     1       8.488  11.564  -1.796  1.00  0.00    -0.169 OA
ATOM     53  O   UNL     1      10.479  10.070  -1.362  1.00  0.00    -0.169 OA
BRANCH  51  54
ATOM     54  O   UNL     1      10.437  12.428  -0.614  1.00  0.00    -0.264 OA
ATOM     55  H   UNL     1       9.876  13.031  -0.085  1.00  0.00     0.236 HD
ENDBRANCH  51  54
ENDBRANCH  50  51
ENDBRANCH   8  50
TORSDOF 19
ENDMDL
MODEL 11
REMARK VINA RESULT:    -5.799      2.050      2.484
REMARK INTER + INTRA:         -16.500
REMARK INTER:                 -11.833
REMARK INTRA:                  -4.667
REMARK UNBOUND:                -4.768
REMARK SMILES CC[C@@H](C)[C@@H](NC(=O)[C@@H](O)Cc1ccc(O)c(Cl)c1)C(=O)N1[C@H](C(=O)NCCCCN=C(N)N)C[C@H]2CC[C@H](OS(=O)(=O)O)C[C@@H]21
REMARK SMILES IDX 22 1 36 2 46 3 35 4 23 5 45 6 37 7 39 8 38 9 20 10 21 11
REMARK SMILES IDX 5 12 6 13 7 14 8 15 9 17 11 18 12 19 17 20 19 21 15 22 14 23
REMARK SMILES IDX 13 24 18 25 16 26 10 28 3 30 4 31 2 32 1 33 24 34 25 35
REMARK SMILES IDX 26 36 27 38 28 39 29 40 30 41 31 42 32 43 33 44 34 45 40 50
REMARK SMILES IDX 41 51 42 52 43 53 44 54
REMARK H PARENT 6 16 16 27 10 29 26 37 33 46 33 47 34 48 34 49 44 55
ROOT
ATOM      1  N   UNL     1       6.207  12.565   5.496  1.00  0.00    -0.326 N 
ATOM      2  C   UNL     1       8.382  13.274   4.938  1.00  0.00     0.014 C 
ATOM      3  C   UNL     1       7.608  12.163   5.654  1.00  0.00     0.091 C 
ATOM      4  C   UNL     1       7.542  14.508   5.229  1.00  0.00     0.041 C 
ATOM      5  C   UNL     1       6.133  13.947   4.963  1.00  0.00     0.175 C 
ATOM      6  C   UNL     1       8.046  10.819   5.074  1.00  0.00     0.059 C 
ATOM      7  C   UNL     1       9.845  13.260   5.337  1.00  0.00     0.008 C 
ATOM      8  C   UNL     1       9.517  10.794   4.605  1.00  0.00     0.143 C 
ATOM      9  C   UNL     1      10.386  11.815   5.368  1.00  0.00     0.034 C 
ENDROOT
BRANCH   1  10
ATOM     10  C   UNL     1       5.052  11.955   5.954  1.00  0.00     0.246 C 
ATOM     11  O   UNL     1       3.956  12.422   5.629  1.00  0.00    -0.272 OA
BRANCH  10  12
ATOM     12  C   UNL     1       5.157  10.673   6.831  1.00  0.00     0.174 C 
BRANCH  12  13
ATOM     13  N   UNL     1       4.316   9.616   6.271  1.00  0.00    -0.342 N 
ATOM     14  C   UNL     1       4.768   8.576   5.489  1.00  0.00     0.249 C 
ATOM     15  O   UNL     1       5.944   8.406   5.196  1.00  0.00    -0.272 OA
ATOM     16  H   UNL     1       3.304   9.711   6.298  1.00  0.00     0.164 HD
BRANCH  14  17
ATOM     17  C   UNL     1       3.632   7.633   5.038  1.00  0.00     0.207 C 
BRANCH  17  18
ATOM     18  C   UNL     1       3.594   6.381   5.919  1.00  0.00     0.077 C 
BRANCH  18  19
ATOM     19  C   UNL     1       2.934   6.653   7.253  1.00  0.00    -0.043 A 
ATOM     20  C   UNL     1       2.721   6.194   9.625  1.00  0.00     0.083 A 
ATOM     21  C   UNL     1       3.364   5.978   8.406  1.00  0.00     0.028 A 
ATOM     22  C   UNL     1       1.647   7.082   9.701  1.00  0.00     0.134 A 
ATOM     23  C   UNL     1       1.212   7.758   8.567  1.00  0.00     0.048 A 
ATOM     24  C   UNL     1       1.852   7.542   7.344  1.00  0.00     0.008 A 
ATOM     25  Cl  UNL     1       3.263   5.355  11.031  1.00  0.00    -0.080 Cl
BRANCH  22  26
ATOM     26  O   UNL     1       0.979   7.319  10.871  1.00  0.00    -0.506 OA
ATOM     27  H   UNL     1       0.391   6.555  11.018  1.00  0.00     0.293 HD
ENDBRANCH  22  26
ENDBRANCH  18  19
ENDBRANCH  17  18
BRANCH  17  28
ATOM     28  O   UNL     1       3.798   7.245   3.665  1.00  0.00    -0.383 OA
ATOM     29  H   UNL     1       3.916   8.080   3.158  1.00  0.00     0.211 HD
ENDBRANCH  17  28
ENDBRANCH  14  17
ENDBRANCH  12  13
BRANCH  12  30
ATOM     30  C   UNL     1       4.851  10.944   8.328  1.00  0.00     0.018 C 
ATOM     31  C   UNL     1       6.060  11.586   9.026  1.00  0.00     0.010 C 
BRANCH  30  32
ATOM     32  C   UNL     1       4.395   9.686   9.107  1.00  0.00     0.002 C 
ATOM     33  C   UNL     1       3.659   9.959  10.412  1.00  0.00     0.004 C 
ENDBRANCH  30  32
ENDBRANCH  12  30
ENDBRANCH  10  12
ENDBRANCH   1  10
BRANCH   5  34
ATOM     34  C   UNL     1       5.799  13.935   3.447  1.00  0.00     0.242 C 
ATOM     35  O   UNL     1       6.299  14.736   2.657  1.00  0.00    -0.273 OA
ATOM     36  N   UNL     1       4.866  13.000   3.060  1.00  0.00    -0.354 N 
ATOM     37  H   UNL     1       4.399  12.445   3.778  1.00  0.00     0.163 HD
BRANCH  36  38
ATOM     38  C   UNL     1       4.598  12.705   1.667  1.00  0.00     0.116 C 
BRANCH  38  39
ATOM     39  C   UNL     1       3.764  11.431   1.559  1.00  0.00     0.023 C 
BRANCH  39  40
ATOM     40  C   UNL     1       4.526  10.194   2.020  1.00  0.00     0.026 C 
BRANCH  40  41
ATOM     41  C   UNL     1       5.647   9.851   1.039  1.00  0.00     0.146 C 
BRANCH  41  42
ATOM     42  N   UNL     1       6.872   9.559   1.773  1.00  0.00    -0.254 NA
ATOM     43  C   UNL     1       7.061   8.385   2.247  1.00  0.00     0.185 C 
ATOM     44  N   UNL     1       6.280   7.291   2.187  1.00  0.00    -0.370 N 
ATOM     45  N   UNL     1       8.195   8.138   2.924  1.00  0.00    -0.370 N 
ATOM     46  H   UNL     1       6.437   6.514   2.807  1.00  0.00     0.159 HD
ATOM     47  H   UNL     1       5.390   7.298   1.699  1.00  0.00     0.159 HD
ATOM     48  H   UNL     1       8.844   8.908   3.009  1.00  0.00     0.159 HD
ATOM     49  H   UNL     1       8.522   7.208   3.116  1.00  0.00     0.159 HD
ENDBRANCH  41  42
ENDBRANCH  40  41
ENDBRANCH  39  40
ENDBRANCH  38  39
ENDBRANCH  36  38
ENDBRANCH   5  34
BRANCH   8  50
ATOM     50  O   UNL     1       9.592  11.089   3.210  1.00  0.00    -0.245 OA
BRANCH  50  51
ATOM     51  S   UNL     1      10.742  10.383   2.301  1.00  0.00     0.397 S 
ATOM     52  O   UNL     1      11.129   9.150   2.948  1.00  0.00    -0.169 OA
ATOM     53  O   UNL     1      11.723  11.373   1.904  1.00  0.00    -0.169 OA
BRANCH  51  54
ATOM     54  O   UNL     1       9.916   9.951   0.991  1.00  0.00    -0.264 OA
ATOM     55  H   UNL     1       9.586  10.767   0.564  1.00  0.00     0.236 HD
ENDBRANCH  51  54
ENDBRANCH  50  51
ENDBRANCH   8  50
TORSDOF 19
ENDMDL
MODEL 12
REMARK VINA RESULT:    -5.786      4.047      8.937
REMARK INTER + INTRA:         -16.473
REMARK INTER:                 -12.128
REMARK INTRA:                  -4.345
REMARK UNBOUND:                -4.768
REMARK SMILES CC[C@@H](C)[C@@H](NC(=O)[C@@H](O)Cc1ccc(O)c(Cl)c1)C(=O)N1[C@H](C(=O)NCCCCN=C(N)N)C[C@H]2CC[C@H](OS(=O)(=O)O)C[C@@H]21
REMARK SMILES IDX 22 1 36 2 46 3 35 4 23 5 45 6 37 7 39 8 38 9 20 10 21 11
REMARK SMILES IDX 5 12 6 13 7 14 8 15 9 17 11 18 12 19 17 20 19 21 15 22 14 23
REMARK SMILES IDX 13 24 18 25 16 26 10 28 3 30 4 31 2 32 1 33 24 34 25 35
REMARK SMILES IDX 26 36 27 38 28 39 29 40 30 41 31 42 32 43 33 44 34 45 40 50
REMARK SMILES IDX 41 51 42 52 43 53 44 54
REMARK H PARENT 6 16 16 27 10 29 26 37 33 46 33 47 34 48 34 49 44 55
ROOT
ATOM      1  N   UNL     1       4.131  11.098   7.180  1.00  0.00    -0.326 N 
ATOM      2  C   UNL     1       3.502  12.418   9.025  1.00  0.00     0.014 C 
ATOM      3  C   UNL     1       3.522  12.394   7.494  1.00  0.00     0.091 C 
ATOM      4  C   UNL     1       4.778  11.674   9.388  1.00  0.00     0.041 C 
ATOM      5  C   UNL     1       4.688  10.487   8.412  1.00  0.00     0.175 C 
ATOM      6  C   UNL     1       2.108  12.672   6.988  1.00  0.00     0.059 C 
ATOM      7  C   UNL     1       3.291  13.827   9.542  1.00  0.00     0.008 C 
ATOM      8  C   UNL     1       1.292  13.607   7.906  1.00  0.00     0.143 C 
ATOM      9  C   UNL     1       2.197  14.548   8.726  1.00  0.00     0.034 C 
ENDROOT
BRANCH   1  10
ATOM     10  C   UNL     1       4.425  10.529   5.952  1.00  0.00     0.246 C 
ATOM     11  O   UNL     1       3.662   9.676   5.487  1.00  0.00    -0.272 OA
BRANCH  10  12
ATOM     12  C   UNL     1       5.681  11.006   5.167  1.00  0.00     0.174 C 
BRANCH  12  13
ATOM     13  N   UNL     1       6.341   9.862   4.540  1.00  0.00    -0.342 N 
ATOM     14  C   UNL     1       6.267   9.542   3.202  1.00  0.00     0.249 C 
ATOM     15  O   UNL     1       5.655  10.207   2.375  1.00  0.00    -0.272 OA
ATOM     16  H   UNL     1       6.753   9.136   5.122  1.00  0.00     0.164 HD
BRANCH  14  17
ATOM     17  C   UNL     1       7.059   8.265   2.851  1.00  0.00     0.207 C 
BRANCH  17  18
ATOM     18  C   UNL     1       8.183   8.586   1.861  1.00  0.00     0.077 C 
BRANCH  18  19
ATOM     19  C   UNL     1       9.391   9.174   2.554  1.00  0.00    -0.043 A 
ATOM     20  C   UNL     1      11.166  10.825   2.648  1.00  0.00     0.083 A 
ATOM     21  C   UNL     1      10.022  10.315   2.033  1.00  0.00     0.028 A 
ATOM     22  C   UNL     1      11.687  10.201   3.782  1.00  0.00     0.134 A 
ATOM     23  C   UNL     1      11.072   9.071   4.309  1.00  0.00     0.048 A 
ATOM     24  C   UNL     1       9.928   8.557   3.695  1.00  0.00     0.008 A 
ATOM     25  Cl  UNL     1      11.928  12.227   1.993  1.00  0.00    -0.080 Cl
BRANCH  22  26
ATOM     26  O   UNL     1      12.812  10.659   4.413  1.00  0.00    -0.506 OA
ATOM     27  H   UNL     1      12.550  11.453   4.913  1.00  0.00     0.293 HD
ENDBRANCH  22  26
ENDBRANCH  18  19
ENDBRANCH  17  18
BRANCH  17  28
ATOM     28  O   UNL     1       6.198   7.262   2.285  1.00  0.00    -0.383 OA
ATOM     29  H   UNL     1       6.541   7.089   1.379  1.00  0.00     0.211 HD
ENDBRANCH  17  28
ENDBRANCH  14  17
ENDBRANCH  12  13
BRANCH  12  30
ATOM     30  C   UNL     1       6.653  11.844   6.042  1.00  0.00     0.018 C 
ATOM     31  C   UNL     1       6.593  13.330   5.654  1.00  0.00     0.010 C 
BRANCH  30  32
ATOM     32  C   UNL     1       8.116  11.341   6.000  1.00  0.00     0.002 C 
ATOM     33  C   UNL     1       9.125  12.322   5.416  1.00  0.00     0.004 C 
ENDBRANCH  30  32
ENDBRANCH  12  30
ENDBRANCH  10  12
ENDBRANCH   1  10
BRANCH   5  34
ATOM     34  C   UNL     1       3.748   9.374   8.948  1.00  0.00     0.242 C 
ATOM     35  O   UNL     1       3.988   8.752   9.983  1.00  0.00    -0.273 OA
ATOM     36  N   UNL     1       2.657   9.097   8.155  1.00  0.00    -0.354 N 
ATOM     37  H   UNL     1       2.576   9.562   7.250  1.00  0.00     0.163 HD
BRANCH  36  38
ATOM     38  C   UNL     1       1.571   8.250   8.603  1.00  0.00     0.116 C 
BRANCH  38  39
ATOM     39  C   UNL     1       1.608   6.920   7.854  1.00  0.00     0.023 C 
BRANCH  39  40
ATOM     40  C   UNL     1       2.721   6.004   8.349  1.00  0.00     0.026 C 
BRANCH  40  41
ATOM     41  C   UNL     1       3.674   5.644   7.208  1.00  0.00     0.146 C 
BRANCH  41  42
ATOM     42  N   UNL     1       3.355   6.440   6.031  1.00  0.00    -0.254 NA
ATOM     43  C   UNL     1       4.090   6.347   4.986  1.00  0.00     0.185 C 
ATOM     44  N   UNL     1       5.181   5.593   4.760  1.00  0.00    -0.370 N 
ATOM     45  N   UNL     1       3.782   7.092   3.912  1.00  0.00    -0.370 N 
ATOM     46  H   UNL     1       5.796   5.799   3.991  1.00  0.00     0.159 HD
ATOM     47  H   UNL     1       5.545   4.958   5.463  1.00  0.00     0.159 HD
ATOM     48  H   UNL     1       2.966   7.684   3.996  1.00  0.00     0.159 HD
ATOM     49  H   UNL     1       4.151   6.906   2.997  1.00  0.00     0.159 HD
ENDBRANCH  41  42
ENDBRANCH  40  41
ENDBRANCH  39  40
ENDBRANCH  38  39
ENDBRANCH  36  38
ENDBRANCH   5  34
BRANCH   8  50
ATOM     50  O   UNL     1       0.501  12.836   8.812  1.00  0.00    -0.245 OA
BRANCH  50  51
ATOM     51  S   UNL     1      -1.102  12.706   8.567  1.00  0.00     0.397 S 
ATOM     52  O   UNL     1      -1.397  13.230   7.253  1.00  0.00    -0.169 OA
ATOM     53  O   UNL     1      -1.812  13.162   9.744  1.00  0.00    -0.169 OA
BRANCH  51  54
ATOM     54  O   UNL     1      -1.296  11.114   8.457  1.00  0.00    -0.264 OA
ATOM     55  H   UNL     1      -0.409  10.710   8.370  1.00  0.00     0.236 HD
ENDBRANCH  51  54
ENDBRANCH  50  51
ENDBRANCH   8  50
TORSDOF 19
ENDMDL
MODEL 13
REMARK VINA RESULT:    -5.773      3.385      5.414
REMARK INTER + INTRA:         -16.446
REMARK INTER:                 -12.828
REMARK INTRA:                  -3.619
REMARK UNBOUND:                -4.768
REMARK SMILES CC[C@@H](C)[C@@H](NC(=O)[C@@H](O)Cc1ccc(O)c(Cl)c1)C(=O)N1[C@H](C(=O)NCCCCN=C(N)N)C[C@H]2CC[C@H](OS(=O)(=O)O)C[C@@H]21
REMARK SMILES IDX 22 1 36 2 46 3 35 4 23 5 45 6 37 7 39 8 38 9 20 10 21 11
REMARK SMILES IDX 5 12 6 13 7 14 8 15 9 17 11 18 12 19 17 20 19 21 15 22 14 23
REMARK SMILES IDX 13 24 18 25 16 26 10 28 3 30 4 31 2 32 1 33 24 34 25 35
REMARK SMILES IDX 26 36 27 38 28 39 29 40 30 41 31 42 32 43 33 44 34 45 40 50
REMARK SMILES IDX 41 51 42 52 43 53 44 54
REMARK H PARENT 6 16 16 27 10 29 26 37 33 46 33 47 34 48 34 49 44 55
ROOT
ATOM      1  N   UNL     1       9.568  10.768   1.491  1.00  0.00    -0.326 N 
ATOM      2  C   UNL     1      10.912  12.540   0.718  1.00  0.00     0.014 C 
ATOM      3  C   UNL     1      10.942  11.049   1.067  1.00  0.00     0.091 C 
ATOM      4  C   UNL     1       9.927  13.100   1.733  1.00  0.00     0.041 C 
ATOM      5  C   UNL     1       8.816  12.038   1.651  1.00  0.00     0.175 C 
ATOM      6  C   UNL     1      11.500  10.284  -0.132  1.00  0.00     0.059 C 
ATOM      7  C   UNL     1      12.315  13.109   0.651  1.00  0.00     0.008 C 
ATOM      8  C   UNL     1      12.537  11.083  -0.952  1.00  0.00     0.143 C 
ATOM      9  C   UNL     1      13.259  12.143  -0.095  1.00  0.00     0.034 C 
ENDROOT
BRANCH   1  10
ATOM     10  C   UNL     1       9.001   9.587   1.941  1.00  0.00     0.246 C 
ATOM     11  O   UNL     1       8.526   8.797   1.118  1.00  0.00    -0.272 OA
BRANCH  10  12
ATOM     12  C   UNL     1       9.012   9.262   3.462  1.00  0.00     0.174 C 
BRANCH  12  13
ATOM     13  N   UNL     1       8.051  10.115   4.162  1.00  0.00    -0.342 N 
ATOM     14  C   UNL     1       6.966   9.661   4.877  1.00  0.00     0.249 C 
ATOM     15  O   UNL     1       6.698   8.476   5.031  1.00  0.00    -0.272 OA
ATOM     16  H   UNL     1       8.054  11.118   3.995  1.00  0.00     0.164 HD
BRANCH  14  17
ATOM     17  C   UNL     1       6.131  10.808   5.484  1.00  0.00     0.207 C 
BRANCH  17  18
ATOM     18  C   UNL     1       4.684  10.357   5.708  1.00  0.00     0.077 C 
BRANCH  18  19
ATOM     19  C   UNL     1       4.395  10.097   7.169  1.00  0.00    -0.043 A 
ATOM     20  C   UNL     1       3.060   9.034   8.892  1.00  0.00     0.083 A 
ATOM     21  C   UNL     1       3.355   9.233   7.543  1.00  0.00     0.028 A 
ATOM     22  C   UNL     1       3.798   9.695   9.873  1.00  0.00     0.134 A 
ATOM     23  C   UNL     1       4.832  10.554   9.517  1.00  0.00     0.048 A 
ATOM     24  C   UNL     1       5.128  10.757   8.168  1.00  0.00     0.008 A 
ATOM     25  Cl  UNL     1       1.777   7.968   9.332  1.00  0.00    -0.080 Cl
BRANCH  22  26
ATOM     26  O   UNL     1       3.539   9.540  11.208  1.00  0.00    -0.506 OA
ATOM     27  H   UNL     1       4.241   8.965  11.565  1.00  0.00     0.293 HD
ENDBRANCH  22  26
ENDBRANCH  18  19
ENDBRANCH  17  18
BRANCH  17  28
ATOM     28  O   UNL     1       6.143  11.965   4.632  1.00  0.00    -0.383 OA
ATOM     29  H   UNL     1       6.183  12.744   5.231  1.00  0.00     0.211 HD
ENDBRANCH  17  28
ENDBRANCH  14  17
ENDBRANCH  12  13
BRANCH  12  30
ATOM     30  C   UNL     1      10.433   9.339   4.082  1.00  0.00     0.018 C 
ATOM     31  C   UNL     1      10.698   8.130   4.994  1.00  0.00     0.010 C 
BRANCH  30  32
ATOM     32  C   UNL     1      10.706  10.655   4.851  1.00  0.00     0.002 C 
ATOM     33  C   UNL     1      12.001  11.367   4.483  1.00  0.00     0.004 C 
ENDBRANCH  30  32
ENDBRANCH  12  30
ENDBRANCH  10  12
ENDBRANCH   1  10
BRANCH   5  34
ATOM     34  C   UNL     1       7.881  12.280   0.436  1.00  0.00     0.242 C 
ATOM     35  O   UNL     1       8.302  12.684  -0.648  1.00  0.00    -0.273 OA
ATOM     36  N   UNL     1       6.543  12.062   0.674  1.00  0.00    -0.354 N 
ATOM     37  H   UNL     1       6.242  11.844   1.625  1.00  0.00     0.163 HD
BRANCH  36  38
ATOM     38  C   UNL     1       5.563  12.031  -0.392  1.00  0.00     0.116 C 
BRANCH  38  39
ATOM     39  C   UNL     1       4.410  11.105  -0.009  1.00  0.00     0.023 C 
BRANCH  39  40
ATOM     40  C   UNL     1       3.983  11.277   1.445  1.00  0.00     0.026 C 
BRANCH  40  41
ATOM     41  C   UNL     1       3.819   9.919   2.126  1.00  0.00     0.146 C 
BRANCH  41  42
ATOM     42  N   UNL     1       5.022   9.121   1.931  1.00  0.00    -0.254 NA
ATOM     43  C   UNL     1       5.087   7.941   2.423  1.00  0.00     0.185 C 
ATOM     44  N   UNL     1       4.180   7.252   3.139  1.00  0.00    -0.370 N 
ATOM     45  N   UNL     1       6.206   7.224   2.235  1.00  0.00    -0.370 N 
ATOM     46  H   UNL     1       4.453   6.439   3.666  1.00  0.00     0.159 HD
ATOM     47  H   UNL     1       3.269   7.641   3.362  1.00  0.00     0.159 HD
ATOM     48  H   UNL     1       6.938   7.667   1.697  1.00  0.00     0.159 HD
ATOM     49  H   UNL     1       6.246   6.230   2.377  1.00  0.00     0.159 HD
ENDBRANCH  41  42
ENDBRANCH  40  41
ENDBRANCH  39  40
ENDBRANCH  38  39
ENDBRANCH  36  38
ENDBRANCH   5  34
BRANCH   8  50
ATOM     50  O   UNL     1      11.895  11.743  -2.043  1.00  0.00    -0.245 OA
BRANCH  50  51
ATOM     51  S   UNL     1      12.330  11.381  -3.568  1.00  0.00     0.397 S 
ATOM     52  O   UNL     1      12.505  12.621  -4.289  1.00  0.00    -0.169 OA
ATOM     53  O   UNL     1      11.484  10.320  -4.076  1.00  0.00    -0.169 OA
BRANCH  51  54
ATOM     54  O   UNL     1      13.808  10.781  -3.362  1.00  0.00    -0.264 OA
ATOM     55  H   UNL     1      14.302  10.913  -4.197  1.00  0.00     0.236 HD
ENDBRANCH  51  54
ENDBRANCH  50  51
ENDBRANCH   8  50
TORSDOF 19
ENDMDL
MODEL 14
REMARK VINA RESULT:    -5.724      4.789      8.966
REMARK INTER + INTRA:         -16.348
REMARK INTER:                 -11.085
REMARK INTRA:                  -5.264
REMARK UNBOUND:                -4.768
REMARK SMILES CC[C@@H](C)[C@@H](NC(=O)[C@@H](O)Cc1ccc(O)c(Cl)c1)C(=O)N1[C@H](C(=O)NCCCCN=C(N)N)C[C@H]2CC[C@H](OS(=O)(=O)O)C[C@@H]21
REMARK SMILES IDX 22 1 36 2 46 3 35 4 23 5 45 6 37 7 39 8 38 9 20 10 21 11
REMARK SMILES IDX 5 12 6 13 7 14 8 15 9 17 11 18 12 19 17 20 19 21 15 22 14 23
REMARK SMILES IDX 13 24 18 25 16 26 10 28 3 30 4 31 2 32 1 33 24 34 25 35
REMARK SMILES IDX 26 36 27 38 28 39 29 40 30 41 31 42 32 43 33 44 34 45 40 50
REMARK SMILES IDX 41 51 42 52 43 53 44 54
REMARK H PARENT 6 16 16 27 10 29 26 37 33 46 33 47 34 48 34 49 44 55
ROOT
ATOM      1  N   UNL     1       7.416   9.635   2.927  1.00  0.00    -0.326 N 
ATOM      2  C   UNL     1       8.953   9.949   4.682  1.00  0.00     0.014 C 
ATOM      3  C   UNL     1       8.681   9.099   3.437  1.00  0.00     0.091 C 
ATOM      4  C   UNL     1       7.556  10.204   5.225  1.00  0.00     0.041 C 
ATOM      5  C   UNL     1       6.817  10.559   3.922  1.00  0.00     0.175 C 
ATOM      6  C   UNL     1       9.910   9.159   2.533  1.00  0.00     0.059 C 
ATOM      7  C   UNL     1       9.989   9.291   5.572  1.00  0.00     0.008 C 
ATOM      8  C   UNL     1      11.241   9.307   3.302  1.00  0.00     0.143 C 
ATOM      9  C   UNL     1      11.153   8.729   4.729  1.00  0.00     0.034 C 
ENDROOT
BRANCH   1  10
ATOM     10  C   UNL     1       6.666   9.248   1.829  1.00  0.00     0.246 C 
ATOM     11  O   UNL     1       5.943   8.250   1.917  1.00  0.00    -0.272 OA
BRANCH  10  12
ATOM     12  C   UNL     1       6.717  10.098   0.527  1.00  0.00     0.174 C 
BRANCH  12  13
ATOM     13  N   UNL     1       8.036  10.713   0.384  1.00  0.00    -0.342 N 
ATOM     14  C   UNL     1       8.888  10.518  -0.680  1.00  0.00     0.249 C 
ATOM     15  O   UNL     1       8.619   9.820  -1.650  1.00  0.00    -0.272 OA
ATOM     16  H   UNL     1       8.458  11.190   1.177  1.00  0.00     0.164 HD
BRANCH  14  17
ATOM     17  C   UNL     1      10.215  11.293  -0.530  1.00  0.00     0.207 C 
BRANCH  17  18
ATOM     18  C   UNL     1      11.408  10.353  -0.730  1.00  0.00     0.077 C 
BRANCH  18  19
ATOM     19  C   UNL     1      12.279  10.789  -1.888  1.00  0.00    -0.043 A 
ATOM     20  C   UNL     1      12.521  11.398  -4.223  1.00  0.00     0.083 A 
ATOM     21  C   UNL     1      11.709  11.045  -3.145  1.00  0.00     0.028 A 
ATOM     22  C   UNL     1      13.903  11.497  -4.054  1.00  0.00     0.134 A 
ATOM     23  C   UNL     1      14.480  11.247  -2.814  1.00  0.00     0.048 A 
ATOM     24  C   UNL     1      13.670  10.891  -1.733  1.00  0.00     0.008 A 
ATOM     25  Cl  UNL     1      11.803  11.708  -5.760  1.00  0.00    -0.080 Cl
BRANCH  22  26
ATOM     26  O   UNL     1      14.740  11.830  -5.084  1.00  0.00    -0.506 OA
ATOM     27  H   UNL     1      15.408  11.122  -5.143  1.00  0.00     0.293 HD
ENDBRANCH  22  26
ENDBRANCH  18  19
ENDBRANCH  17  18
BRANCH  17  28
ATOM     28  O   UNL     1      10.308  11.914   0.762  1.00  0.00    -0.383 OA
ATOM     29  H   UNL     1       9.425  11.803   1.181  1.00  0.00     0.211 HD
ENDBRANCH  17  28
ENDBRANCH  14  17
ENDBRANCH  12  13
BRANCH  12  30
ATOM     30  C   UNL     1       5.566  11.137   0.444  1.00  0.00     0.018 C 
ATOM     31  C   UNL     1       4.295  10.600   1.118  1.00  0.00     0.010 C 
BRANCH  30  32
ATOM     32  C   UNL     1       5.249  11.599  -1.000  1.00  0.00     0.002 C 
ATOM     33  C   UNL     1       3.791  11.466  -1.420  1.00  0.00     0.004 C 
ENDBRANCH  30  32
ENDBRANCH  12  30
ENDBRANCH  10  12
ENDBRANCH   1  10
BRANCH   5  34
ATOM     34  C   UNL     1       7.054  12.037   3.513  1.00  0.00     0.242 C 
ATOM     35  O   UNL     1       7.906  12.363   2.687  1.00  0.00    -0.273 OA
ATOM     36  N   UNL     1       6.281  12.960   4.181  1.00  0.00    -0.354 N 
ATOM     37  H   UNL     1       5.678  12.640   4.940  1.00  0.00     0.163 HD
BRANCH  36  38
ATOM     38  C   UNL     1       6.216  14.350   3.778  1.00  0.00     0.116 C 
BRANCH  38  39
ATOM     39  C   UNL     1       6.532  15.251   4.970  1.00  0.00     0.023 C 
BRANCH  39  40
ATOM     40  C   UNL     1       7.653  16.241   4.671  1.00  0.00     0.026 C 
BRANCH  40  41
ATOM     41  C   UNL     1       8.831  15.538   3.997  1.00  0.00     0.146 C 
BRANCH  41  42
ATOM     42  N   UNL     1       9.521  14.695   4.965  1.00  0.00    -0.254 NA
ATOM     43  C   UNL     1      10.347  13.807   4.555  1.00  0.00     0.185 C 
ATOM     44  N   UNL     1      10.724  13.486   3.304  1.00  0.00    -0.370 N 
ATOM     45  N   UNL     1      10.969  13.037   5.463  1.00  0.00    -0.370 N 
ATOM     46  H   UNL     1      11.188  12.614   3.116  1.00  0.00     0.159 HD
ATOM     47  H   UNL     1      10.360  13.980   2.495  1.00  0.00     0.159 HD
ATOM     48  H   UNL     1      10.748  13.219   6.433  1.00  0.00     0.159 HD
ATOM     49  H   UNL     1      11.788  12.496   5.248  1.00  0.00     0.159 HD
ENDBRANCH  41  42
ENDBRANCH  40  41
ENDBRANCH  39  40
ENDBRANCH  38  39
ENDBRANCH  36  38
ENDBRANCH   5  34
BRANCH   8  50
ATOM     50  O   UNL     1      11.604  10.685   3.393  1.00  0.00    -0.245 OA
BRANCH  50  51
ATOM     51  S   UNL     1      13.142  11.131   3.108  1.00  0.00     0.397 S 
ATOM     52  O   UNL     1      13.154  11.961   1.925  1.00  0.00    -0.169 OA
ATOM     53  O   UNL     1      14.013   9.981   3.239  1.00  0.00    -0.169 OA
BRANCH  51  54
ATOM     54  O   UNL     1      13.439  12.120   4.341  1.00  0.00    -0.264 OA
ATOM     55  H   UNL     1      14.054  12.813   4.026  1.00  0.00     0.236 HD
ENDBRANCH  51  54
ENDBRANCH  50  51
ENDBRANCH   8  50
TORSDOF 19
ENDMDL
MODEL 15
REMARK VINA RESULT:    -5.719      3.519      5.310
REMARK INTER + INTRA:         -16.338
REMARK INTER:                 -12.816
REMARK INTRA:                  -3.522
REMARK UNBOUND:                -4.768
REMARK SMILES CC[C@@H](C)[C@@H](NC(=O)[C@@H](O)Cc1ccc(O)c(Cl)c1)C(=O)N1[C@H](C(=O)NCCCCN=C(N)N)C[C@H]2CC[C@H](OS(=O)(=O)O)C[C@@H]21
REMARK SMILES IDX 22 1 36 2 46 3 35 4 23 5 45 6 37 7 39 8 38 9 20 10 21 11
REMARK SMILES IDX 5 12 6 13 7 14 8 15 9 17 11 18 12 19 17 20 19 21 15 22 14 23
REMARK SMILES IDX 13 24 18 25 16 26 10 28 3 30 4 31 2 32 1 33 24 34 25 35
REMARK SMILES IDX 26 36 27 38 28 39 29 40 30 41 31 42 32 43 33 44 34 45 40 50
REMARK SMILES IDX 41 51 42 52 43 53 44 54
REMARK H PARENT 6 16 16 27 10 29 26 37 33 46 33 47 34 48 34 49 44 55
ROOT
ATOM      1  N   UNL     1       9.496  10.804   0.905  1.00  0.00    -0.326 N 
ATOM      2  C   UNL     1      11.301  12.234   0.418  1.00  0.00     0.014 C 
ATOM      3  C   UNL     1      10.877  10.762   0.417  1.00  0.00     0.091 C 
ATOM      4  C   UNL     1      10.567  12.793   1.627  1.00  0.00     0.041 C 
ATOM      5  C   UNL     1       9.180  12.158   1.421  1.00  0.00     0.175 C 
ATOM      6  C   UNL     1      11.138  10.185  -0.973  1.00  0.00     0.059 C 
ATOM      7  C   UNL     1      12.810  12.363   0.338  1.00  0.00     0.008 C 
ATOM      8  C   UNL     1      12.348  10.820  -1.693  1.00  0.00     0.143 C 
ATOM      9  C   UNL     1      13.387  11.376  -0.698  1.00  0.00     0.034 C 
ENDROOT
BRANCH   1  10
ATOM     10  C   UNL     1       8.603   9.770   1.132  1.00  0.00     0.246 C 
ATOM     11  O   UNL     1       7.765   9.498   0.266  1.00  0.00    -0.272 OA
BRANCH  10  12
ATOM     12  C   UNL     1       8.702   8.947   2.449  1.00  0.00     0.174 C 
BRANCH  12  13
ATOM     13  N   UNL     1       7.420   8.979   3.154  1.00  0.00    -0.342 N 
ATOM     14  C   UNL     1       6.374   8.112   2.931  1.00  0.00     0.249 C 
ATOM     15  O   UNL     1       6.413   7.189   2.126  1.00  0.00    -0.272 OA
ATOM     16  H   UNL     1       7.184   9.780   3.735  1.00  0.00     0.164 HD
BRANCH  14  17
ATOM     17  C   UNL     1       5.150   8.414   3.821  1.00  0.00     0.207 C 
BRANCH  17  18
ATOM     18  C   UNL     1       4.162   7.244   3.787  1.00  0.00     0.077 C 
BRANCH  18  19
ATOM     19  C   UNL     1       3.815   6.762   5.178  1.00  0.00    -0.043 A 
ATOM     20  C   UNL     1       3.057   7.224   7.436  1.00  0.00     0.083 A 
ATOM     21  C   UNL     1       3.329   7.662   6.139  1.00  0.00     0.028 A 
ATOM     22  C   UNL     1       3.268   5.888   7.780  1.00  0.00     0.134 A 
ATOM     23  C   UNL     1       3.748   4.986   6.838  1.00  0.00     0.048 A 
ATOM     24  C   UNL     1       4.024   5.422   5.540  1.00  0.00     0.008 A 
ATOM     25  Cl  UNL     1       2.462   8.345   8.603  1.00  0.00    -0.080 Cl
BRANCH  22  26
ATOM     26  O   UNL     1       3.026   5.415   9.041  1.00  0.00    -0.506 OA
ATOM     27  H   UNL     1       2.317   4.750   8.959  1.00  0.00     0.293 HD
ENDBRANCH  22  26
ENDBRANCH  18  19
ENDBRANCH  17  18
BRANCH  17  28
ATOM     28  O   UNL     1       4.483   9.613   3.394  1.00  0.00    -0.383 OA
ATOM     29  H   UNL     1       3.528   9.384   3.326  1.00  0.00     0.211 HD
ENDBRANCH  17  28
ENDBRANCH  14  17
ENDBRANCH  12  13
BRANCH  12  30
ATOM     30  C   UNL     1       9.884   9.396   3.350  1.00  0.00     0.018 C 
ATOM     31  C   UNL     1      10.987   8.327   3.377  1.00  0.00     0.010 C 
BRANCH  30  32
ATOM     32  C   UNL     1       9.461   9.761   4.794  1.00  0.00     0.002 C 
ATOM     33  C   UNL     1       9.612  11.231   5.165  1.00  0.00     0.004 C 
ENDBRANCH  30  32
ENDBRANCH  12  30
ENDBRANCH  10  12
ENDBRANCH   1  10
BRANCH   5  34
ATOM     34  C   UNL     1       8.333  12.955   0.393  1.00  0.00     0.242 C 
ATOM     35  O   UNL     1       8.132  14.165   0.503  1.00  0.00    -0.273 OA
ATOM     36  N   UNL     1       7.780  12.203  -0.619  1.00  0.00    -0.354 N 
ATOM     37  H   UNL     1       7.883  11.188  -0.590  1.00  0.00     0.163 HD
BRANCH  36  38
ATOM     38  C   UNL     1       7.148  12.806  -1.774  1.00  0.00     0.116 C 
BRANCH  38  39
ATOM     39  C   UNL     1       6.318  11.761  -2.515  1.00  0.00     0.023 C 
BRANCH  39  40
ATOM     40  C   UNL     1       4.849  12.157  -2.630  1.00  0.00     0.026 C 
BRANCH  40  41
ATOM     41  C   UNL     1       3.957  11.143  -1.916  1.00  0.00     0.146 C 
BRANCH  41  42
ATOM     42  N   UNL     1       3.423  11.730  -0.694  1.00  0.00    -0.254 NA
ATOM     43  C   UNL     1       3.948  11.431   0.434  1.00  0.00     0.185 C 
ATOM     44  N   UNL     1       4.979  10.615   0.720  1.00  0.00    -0.370 N 
ATOM     45  N   UNL     1       3.438  11.980   1.549  1.00  0.00    -0.370 N 
ATOM     46  H   UNL     1       5.127  10.284   1.658  1.00  0.00     0.159 HD
ATOM     47  H   UNL     1       5.490  10.127  -0.009  1.00  0.00     0.159 HD
ATOM     48  H   UNL     1       2.663  12.616   1.422  1.00  0.00     0.159 HD
ATOM     49  H   UNL     1       3.929  11.987   2.425  1.00  0.00     0.159 HD
ENDBRANCH  41  42
ENDBRANCH  40  41
ENDBRANCH  39  40
ENDBRANCH  38  39
ENDBRANCH  36  38
ENDBRANCH   5  34
BRANCH   8  50
ATOM     50  O   UNL     1      11.913  11.886  -2.537  1.00  0.00    -0.245 OA
BRANCH  50  51
ATOM     51  S   UNL     1      12.113  11.768  -4.147  1.00  0.00     0.397 S 
ATOM     52  O   UNL     1      13.472  12.151  -4.457  1.00  0.00    -0.169 OA
ATOM     53  O   UNL     1      10.982  12.367  -4.823  1.00  0.00    -0.169 OA
BRANCH  51  54
ATOM     54  O   UNL     1      12.044  10.178  -4.378  1.00  0.00    -0.264 OA
ATOM     55  H   UNL     1      12.770   9.769  -3.864  1.00  0.00     0.236 HD
ENDBRANCH  51  54
ENDBRANCH  50  51
ENDBRANCH   8  50
TORSDOF 19
ENDMDL
MODEL 16
REMARK VINA RESULT:    -5.707      5.193      8.384
REMARK INTER + INTRA:         -16.314
REMARK INTER:                 -11.668
REMARK INTRA:                  -4.645
REMARK UNBOUND:                -4.768
REMARK SMILES CC[C@@H](C)[C@@H](NC(=O)[C@@H](O)Cc1ccc(O)c(Cl)c1)C(=O)N1[C@H](C(=O)NCCCCN=C(N)N)C[C@H]2CC[C@H](OS(=O)(=O)O)C[C@@H]21
REMARK SMILES IDX 22 1 36 2 46 3 35 4 23 5 45 6 37 7 39 8 38 9 20 10 21 11
REMARK SMILES IDX 5 12 6 13 7 14 8 15 9 17 11 18 12 19 17 20 19 21 15 22 14 23
REMARK SMILES IDX 13 24 18 25 16 26 10 28 3 30 4 31 2 32 1 33 24 34 25 35
REMARK SMILES IDX 26 36 27 38 28 39 29 40 30 41 31 42 32 43 33 44 34 45 40 50
REMARK SMILES IDX 41 51 42 52 43 53 44 54
REMARK H PARENT 6 16 16 27 10 29 26 37 33 46 33 47 34 48 34 49 44 55
ROOT
ATOM      1  N   UNL     1      11.414  10.935  -1.442  1.00  0.00    -0.326 N 
ATOM      2  C   UNL     1      13.145  11.400  -2.968  1.00  0.00     0.014 C 
ATOM      3  C   UNL     1      11.709  10.877  -2.876  1.00  0.00     0.091 C 
ATOM      4  C   UNL     1      13.773  10.880  -1.684  1.00  0.00     0.041 C 
ATOM      5  C   UNL     1      12.656  11.214  -0.679  1.00  0.00     0.175 C 
ATOM      6  C   UNL     1      10.836  11.693  -3.828  1.00  0.00     0.059 C 
ATOM      7  C   UNL     1      13.770  11.039  -4.301  1.00  0.00     0.008 C 
ATOM      8  C   UNL     1      11.582  12.187  -5.086  1.00  0.00     0.143 C 
ATOM      9  C   UNL     1      12.769  11.273  -5.452  1.00  0.00     0.034 C 
ENDROOT
BRANCH   1  10
ATOM     10  C   UNL     1      10.269  10.568  -0.756  1.00  0.00     0.246 C 
ATOM     11  O   UNL     1       9.496   9.752  -1.268  1.00  0.00    -0.272 OA
BRANCH  10  12
ATOM     12  C   UNL     1      10.001  11.158   0.660  1.00  0.00     0.174 C 
BRANCH  12  13
ATOM     13  N   UNL     1      10.163  10.116   1.673  1.00  0.00    -0.342 N 
ATOM     14  C   UNL     1      11.129  10.112   2.654  1.00  0.00     0.249 C 
ATOM     15  O   UNL     1      11.952  11.006   2.805  1.00  0.00    -0.272 OA
ATOM     16  H   UNL     1       9.657   9.239   1.579  1.00  0.00     0.164 HD
BRANCH  14  17
ATOM     17  C   UNL     1      11.052   8.865   3.561  1.00  0.00     0.207 C 
BRANCH  17  18
ATOM     18  C   UNL     1      10.712   9.269   4.999  1.00  0.00     0.077 C 
BRANCH  18  19
ATOM     19  C   UNL     1       9.258   9.658   5.145  1.00  0.00    -0.043 A 
ATOM     20  C   UNL     1       6.905   9.147   4.851  1.00  0.00     0.083 A 
ATOM     21  C   UNL     1       8.244   8.766   4.761  1.00  0.00     0.028 A 
ATOM     22  C   UNL     1       6.570  10.417   5.321  1.00  0.00     0.134 A 
ATOM     23  C   UNL     1       7.564  11.310   5.704  1.00  0.00     0.048 A 
ATOM     24  C   UNL     1       8.906  10.933   5.614  1.00  0.00     0.008 A 
ATOM     25  Cl  UNL     1       5.674   8.037   4.375  1.00  0.00    -0.080 Cl
BRANCH  22  26
ATOM     26  O   UNL     1       5.272  10.839   5.417  1.00  0.00    -0.506 OA
ATOM     27  H   UNL     1       5.029  11.199   4.543  1.00  0.00     0.293 HD
ENDBRANCH  22  26
ENDBRANCH  18  19
ENDBRANCH  17  18
BRANCH  17  28
ATOM     28  O   UNL     1      12.291   8.139   3.550  1.00  0.00    -0.383 OA
ATOM     29  H   UNL     1      12.296   7.621   2.713  1.00  0.00     0.211 HD
ENDBRANCH  17  28
ENDBRANCH  14  17
ENDBRANCH  12  13
BRANCH  12  30
ATOM     30  C   UNL     1       8.627  11.874   0.761  1.00  0.00     0.018 C 
ATOM     31  C   UNL     1       8.809  13.398   0.829  1.00  0.00     0.010 C 
BRANCH  30  32
ATOM     32  C   UNL     1       7.760  11.388   1.948  1.00  0.00     0.002 C 
ATOM     33  C   UNL     1       6.412  10.789   1.567  1.00  0.00     0.004 C 
ENDBRANCH  30  32
ENDBRANCH  12  30
ENDBRANCH  10  12
ENDBRANCH   1  10
BRANCH   5  34
ATOM     34  C   UNL     1      12.708  12.702  -0.239  1.00  0.00     0.242 C 
ATOM     35  O   UNL     1      12.172  13.599  -0.889  1.00  0.00    -0.273 OA
ATOM     36  N   UNL     1      13.442  12.950   0.899  1.00  0.00    -0.354 N 
ATOM     37  H   UNL     1      13.962  12.183   1.326  1.00  0.00     0.163 HD
BRANCH  36  38
ATOM     38  C   UNL     1      13.419  14.235   1.568  1.00  0.00     0.116 C 
BRANCH  38  39
ATOM     39  C   UNL     1      14.813  14.857   1.543  1.00  0.00     0.023 C 
BRANCH  39  40
ATOM     40  C   UNL     1      14.804  16.285   1.009  1.00  0.00     0.026 C 
BRANCH  40  41
ATOM     41  C   UNL     1      15.613  16.386  -0.284  1.00  0.00     0.146 C 
BRANCH  41  42
ATOM     42  N   UNL     1      15.182  15.351  -1.216  1.00  0.00    -0.254 NA
ATOM     43  C   UNL     1      14.547  15.679  -2.277  1.00  0.00     0.185 C 
ATOM     44  N   UNL     1      14.178  16.894  -2.725  1.00  0.00    -0.370 N 
ATOM     45  N   UNL     1      14.155  14.710  -3.121  1.00  0.00    -0.370 N 
ATOM     46  H   UNL     1      13.478  16.985  -3.441  1.00  0.00     0.159 HD
ATOM     47  H   UNL     1      14.406  17.741  -2.215  1.00  0.00     0.159 HD
ATOM     48  H   UNL     1      14.401  13.764  -2.862  1.00  0.00     0.159 HD
ATOM     49  H   UNL     1      13.872  14.894  -4.067  1.00  0.00     0.159 HD
ENDBRANCH  41  42
ENDBRANCH  40  41
ENDBRANCH  39  40
ENDBRANCH  38  39
ENDBRANCH  36  38
ENDBRANCH   5  34
BRANCH   8  50
ATOM     50  O   UNL     1      12.077  13.510  -4.875  1.00  0.00    -0.245 OA
BRANCH  50  51
ATOM     51  S   UNL     1      11.334  14.769  -5.588  1.00  0.00     0.397 S 
ATOM     52  O   UNL     1       9.965  14.800  -5.124  1.00  0.00    -0.169 OA
ATOM     53  O   UNL     1      11.658  14.789  -6.999  1.00  0.00    -0.169 OA
BRANCH  51  54
ATOM     54  O   UNL     1      12.060  16.024  -4.894  1.00  0.00    -0.264 OA
ATOM     55  H   UNL     1      11.536  16.824  -5.101  1.00  0.00     0.236 HD
ENDBRANCH  51  54
ENDBRANCH  50  51
ENDBRANCH   8  50
TORSDOF 19
ENDMDL
MODEL 17
REMARK VINA RESULT:    -5.698      5.906      9.548
REMARK INTER + INTRA:         -16.296
REMARK INTER:                 -12.743
REMARK INTRA:                  -3.553
REMARK UNBOUND:                -4.768
REMARK SMILES CC[C@@H](C)[C@@H](NC(=O)[C@@H](O)Cc1ccc(O)c(Cl)c1)C(=O)N1[C@H](C(=O)NCCCCN=C(N)N)C[C@H]2CC[C@H](OS(=O)(=O)O)C[C@@H]21
REMARK SMILES IDX 22 1 36 2 46 3 35 4 23 5 45 6 37 7 39 8 38 9 20 10 21 11
REMARK SMILES IDX 5 12 6 13 7 14 8 15 9 17 11 18 12 19 17 20 19 21 15 22 14 23
REMARK SMILES IDX 13 24 18 25 16 26 10 28 3 30 4 31 2 32 1 33 24 34 25 35
REMARK SMILES IDX 26 36 27 38 28 39 29 40 30 41 31 42 32 43 33 44 34 45 40 50
REMARK SMILES IDX 41 51 42 52 43 53 44 54
REMARK H PARENT 6 16 16 27 10 29 26 37 33 46 33 47 34 48 34 49 44 55
ROOT
ATOM      1  N   UNL     1      12.251  11.429  -2.143  1.00  0.00    -0.326 N 
ATOM      2  C   UNL     1      13.630  11.723  -4.028  1.00  0.00     0.014 C 
ATOM      3  C   UNL     1      12.355  11.023  -3.548  1.00  0.00     0.091 C 
ATOM      4  C   UNL     1      14.518  11.686  -2.794  1.00  0.00     0.041 C 
ATOM      5  C   UNL     1      13.501  12.103  -1.715  1.00  0.00     0.175 C 
ATOM      6  C   UNL     1      11.215  11.393  -4.495  1.00  0.00     0.059 C 
ATOM      7  C   UNL     1      14.130  11.110  -5.322  1.00  0.00     0.008 C 
ATOM      8  C   UNL     1      11.670  11.631  -5.951  1.00  0.00     0.143 C 
ATOM      9  C   UNL     1      12.957  10.853  -6.291  1.00  0.00     0.034 C 
ENDROOT
BRANCH   1  10
ATOM     10  C   UNL     1      11.306  11.090  -1.189  1.00  0.00     0.246 C 
ATOM     11  O   UNL     1      10.649  10.054  -1.336  1.00  0.00    -0.272 OA
BRANCH  10  12
ATOM     12  C   UNL     1      11.124  11.994   0.064  1.00  0.00     0.174 C 
BRANCH  12  13
ATOM     13  N   UNL     1      11.621  11.304   1.254  1.00  0.00    -0.342 N 
ATOM     14  C   UNL     1      12.779  11.624   1.926  1.00  0.00     0.249 C 
ATOM     15  O   UNL     1      13.515  12.552   1.615  1.00  0.00    -0.272 OA
ATOM     16  H   UNL     1      11.204  10.420   1.535  1.00  0.00     0.164 HD
BRANCH  14  17
ATOM     17  C   UNL     1      13.042  10.699   3.133  1.00  0.00     0.207 C 
BRANCH  17  18
ATOM     18  C   UNL     1      12.248  11.172   4.355  1.00  0.00     0.077 C 
BRANCH  18  19
ATOM     19  C   UNL     1      10.919  10.461   4.471  1.00  0.00    -0.043 A 
ATOM     20  C   UNL     1       8.644  10.380   5.310  1.00  0.00     0.083 A 
ATOM     21  C   UNL     1       9.853  11.060   5.162  1.00  0.00     0.028 A 
ATOM     22  C   UNL     1       8.492   9.101   4.773  1.00  0.00     0.134 A 
ATOM     23  C   UNL     1       9.538   8.497   4.086  1.00  0.00     0.048 A 
ATOM     24  C   UNL     1      10.751   9.174   3.938  1.00  0.00     0.008 A 
ATOM     25  Cl  UNL     1       7.347  11.132   6.162  1.00  0.00    -0.080 Cl
BRANCH  22  26
ATOM     26  O   UNL     1       7.328   8.391   4.901  1.00  0.00    -0.506 OA
ATOM     27  H   UNL     1       7.582   7.478   5.129  1.00  0.00     0.293 HD
ENDBRANCH  22  26
ENDBRANCH  18  19
ENDBRANCH  17  18
BRANCH  17  28
ATOM     28  O   UNL     1      14.441  10.659   3.460  1.00  0.00    -0.383 OA
ATOM     29  H   UNL     1      14.498  10.282   4.367  1.00  0.00     0.211 HD
ENDBRANCH  17  28
ENDBRANCH  14  17
ENDBRANCH  12  13
BRANCH  12  30
ATOM     30  C   UNL     1       9.663  12.492   0.236  1.00  0.00     0.018 C 
ATOM     31  C   UNL     1       9.590  14.022   0.111  1.00  0.00     0.010 C 
BRANCH  30  32
ATOM     32  C   UNL     1       9.003  12.035   1.560  1.00  0.00     0.002 C 
ATOM     33  C   UNL     1       8.097  10.816   1.448  1.00  0.00     0.004 C 
ENDBRANCH  30  32
ENDBRANCH  12  30
ENDBRANCH  10  12
ENDBRANCH   1  10
BRANCH   5  34
ATOM     34  C   UNL     1      13.310  13.643  -1.674  1.00  0.00     0.242 C 
ATOM     35  O   UNL     1      12.507  14.225  -2.403  1.00  0.00    -0.273 OA
ATOM     36  N   UNL     1      14.140  14.313  -0.804  1.00  0.00    -0.354 N 
ATOM     37  H   UNL     1      14.867  13.789  -0.315  1.00  0.00     0.163 HD
BRANCH  36  38
ATOM     38  C   UNL     1      13.954  15.713  -0.481  1.00  0.00     0.116 C 
BRANCH  38  39
ATOM     39  C   UNL     1      15.191  16.508  -0.889  1.00  0.00     0.023 C 
BRANCH  39  40
ATOM     40  C   UNL     1      15.906  17.129   0.307  1.00  0.00     0.026 C 
BRANCH  40  41
ATOM     41  C   UNL     1      17.021  16.211   0.808  1.00  0.00     0.146 C 
BRANCH  41  42
ATOM     42  N   UNL     1      17.058  16.231   2.265  1.00  0.00    -0.254 NA
ATOM     43  C   UNL     1      16.348  15.398   2.928  1.00  0.00     0.185 C 
ATOM     44  N   UNL     1      15.513  14.436   2.495  1.00  0.00    -0.370 N 
ATOM     45  N   UNL     1      16.393  15.437   4.270  1.00  0.00    -0.370 N 
ATOM     46  H   UNL     1      14.839  14.024   3.118  1.00  0.00     0.159 HD
ATOM     47  H   UNL     1      15.370  14.260   1.506  1.00  0.00     0.159 HD
ATOM     48  H   UNL     1      17.006  16.129   4.678  1.00  0.00     0.159 HD
ATOM     49  H   UNL     1      16.062  14.684   4.847  1.00  0.00     0.159 HD
ENDBRANCH  41  42
ENDBRANCH  40  41
ENDBRANCH  39  40
ENDBRANCH  38  39
ENDBRANCH  36  38
ENDBRANCH   5  34
BRANCH   8  50
ATOM     50  O   UNL     1      11.911  13.022  -6.169  1.00  0.00    -0.245 OA
BRANCH  50  51
ATOM     51  S   UNL     1      10.877  13.883  -7.083  1.00  0.00     0.397 S 
ATOM     52  O   UNL     1      10.079  12.953  -7.850  1.00  0.00    -0.169 OA
ATOM     53  O   UNL     1      11.582  14.979  -7.714  1.00  0.00    -0.169 OA
BRANCH  51  54
ATOM     54  O   UNL     1       9.887  14.501  -5.977  1.00  0.00    -0.264 OA
ATOM     55  H   UNL     1       9.075  13.954  -5.964  1.00  0.00     0.236 HD
ENDBRANCH  51  54
ENDBRANCH  50  51
ENDBRANCH   8  50
TORSDOF 19
ENDMDL
MODEL 18
REMARK VINA RESULT:    -5.684      3.948      6.038
REMARK INTER + INTRA:         -16.267
REMARK INTER:                 -13.238
REMARK INTRA:                  -3.029
REMARK UNBOUND:                -4.768
REMARK SMILES CC[C@@H](C)[C@@H](NC(=O)[C@@H](O)Cc1ccc(O)c(Cl)c1)C(=O)N1[C@H](C(=O)NCCCCN=C(N)N)C[C@H]2CC[C@H](OS(=O)(=O)O)C[C@@H]21
REMARK SMILES IDX 22 1 36 2 46 3 35 4 23 5 45 6 37 7 39 8 38 9 20 10 21 11
REMARK SMILES IDX 5 12 6 13 7 14 8 15 9 17 11 18 12 19 17 20 19 21 15 22 14 23
REMARK SMILES IDX 13 24 18 25 16 26 10 28 3 30 4 31 2 32 1 33 24 34 25 35
REMARK SMILES IDX 26 36 27 38 28 39 29 40 30 41 31 42 32 43 33 44 34 45 40 50
REMARK SMILES IDX 41 51 42 52 43 53 44 54
REMARK H PARENT 6 16 16 27 10 29 26 37 33 46 33 47 34 48 34 49 44 55
ROOT
ATOM      1  N   UNL     1       9.001  11.258   0.591  1.00  0.00    -0.326 N 
ATOM      2  C   UNL     1       7.983  11.483  -1.520  1.00  0.00     0.014 C 
ATOM      3  C   UNL     1       7.953  12.026  -0.088  1.00  0.00     0.091 C 
ATOM      4  C   UNL     1       8.328  10.016  -1.314  1.00  0.00     0.041 C 
ATOM      5  C   UNL     1       9.457  10.144  -0.276  1.00  0.00     0.175 C 
ATOM      6  C   UNL     1       8.090  13.546  -0.146  1.00  0.00     0.059 C 
ATOM      7  C   UNL     1       6.716  11.851  -2.266  1.00  0.00     0.008 C 
ATOM      8  C   UNL     1       7.468  14.179  -1.409  1.00  0.00     0.143 C 
ATOM      9  C   UNL     1       6.326  13.318  -1.986  1.00  0.00     0.034 C 
ENDROOT
BRANCH   1  10
ATOM     10  C   UNL     1       9.419  11.302   1.910  1.00  0.00     0.246 C 
ATOM     11  O   UNL     1      10.023  12.300   2.317  1.00  0.00    -0.272 OA
BRANCH  10  12
ATOM     12  C   UNL     1       9.082  10.116   2.861  1.00  0.00     0.174 C 
BRANCH  12  13
ATOM     13  N   UNL     1       7.633   9.928   2.929  1.00  0.00    -0.342 N 
ATOM     14  C   UNL     1       6.953   8.842   2.426  1.00  0.00     0.249 C 
ATOM     15  O   UNL     1       7.497   7.888   1.884  1.00  0.00    -0.272 OA
ATOM     16  H   UNL     1       7.037  10.703   3.209  1.00  0.00     0.164 HD
BRANCH  14  17
ATOM     17  C   UNL     1       5.428   8.943   2.639  1.00  0.00     0.207 C 
BRANCH  17  18
ATOM     18  C   UNL     1       4.810   7.547   2.765  1.00  0.00     0.077 C 
BRANCH  18  19
ATOM     19  C   UNL     1       4.299   7.283   4.164  1.00  0.00    -0.043 A 
ATOM     20  C   UNL     1       3.630   8.101   6.347  1.00  0.00     0.083 A 
ATOM     21  C   UNL     1       4.054   8.350   5.042  1.00  0.00     0.028 A 
ATOM     22  C   UNL     1       3.450   6.788   6.784  1.00  0.00     0.134 A 
ATOM     23  C   UNL     1       3.689   5.721   5.925  1.00  0.00     0.048 A 
ATOM     24  C   UNL     1       4.116   5.968   4.618  1.00  0.00     0.008 A 
ATOM     25  Cl  UNL     1       3.334   9.425   7.411  1.00  0.00    -0.080 Cl
BRANCH  22  26
ATOM     26  O   UNL     1       3.046   6.493   8.058  1.00  0.00    -0.506 OA
ATOM     27  H   UNL     1       3.841   6.205   8.544  1.00  0.00     0.293 HD
ENDBRANCH  22  26
ENDBRANCH  18  19
ENDBRANCH  17  18
BRANCH  17  28
ATOM     28  O   UNL     1       4.800   9.646   1.554  1.00  0.00    -0.383 OA
ATOM     29  H   UNL     1       4.851   9.046   0.776  1.00  0.00     0.211 HD
ENDBRANCH  17  28
ENDBRANCH  14  17
ENDBRANCH  12  13
BRANCH  12  30
ATOM     30  C   UNL     1       9.726  10.272   4.265  1.00  0.00     0.018 C 
ATOM     31  C   UNL     1      10.504   9.004   4.653  1.00  0.00     0.010 C 
BRANCH  30  32
ATOM     32  C   UNL     1       8.713  10.635   5.377  1.00  0.00     0.002 C 
ATOM     33  C   UNL     1       8.569  12.124   5.666  1.00  0.00     0.004 C 
ENDBRANCH  30  32
ENDBRANCH  12  30
ENDBRANCH  10  12
ENDBRANCH   1  10
BRANCH   5  34
ATOM     34  C   UNL     1      10.814  10.489  -0.946  1.00  0.00     0.242 C 
ATOM     35  O   UNL     1      11.067  10.189  -2.113  1.00  0.00    -0.273 OA
ATOM     36  N   UNL     1      11.732  11.106  -0.126  1.00  0.00    -0.354 N 
ATOM     37  H   UNL     1      11.509  11.221   0.863  1.00  0.00     0.163 HD
BRANCH  36  38
ATOM     38  C   UNL     1      12.956  11.688  -0.637  1.00  0.00     0.116 C 
BRANCH  38  39
ATOM     39  C   UNL     1      12.638  12.955  -1.427  1.00  0.00     0.023 C 
BRANCH  39  40
ATOM     40  C   UNL     1      13.732  13.308  -2.428  1.00  0.00     0.026 C 
BRANCH  40  41
ATOM     41  C   UNL     1      14.115  12.088  -3.266  1.00  0.00     0.146 C 
BRANCH  41  42
ATOM     42  N   UNL     1      13.645  12.264  -4.634  1.00  0.00    -0.254 NA
ATOM     43  C   UNL     1      12.876  11.384  -5.157  1.00  0.00     0.185 C 
ATOM     44  N   UNL     1      12.385  10.245  -4.637  1.00  0.00    -0.370 N 
ATOM     45  N   UNL     1      12.458  11.562  -6.421  1.00  0.00    -0.370 N 
ATOM     46  H   UNL     1      11.999   9.533  -5.234  1.00  0.00     0.159 HD
ATOM     47  H   UNL     1      12.591   9.962  -3.684  1.00  0.00     0.159 HD
ATOM     48  H   UNL     1      12.776  12.403  -6.884  1.00  0.00     0.159 HD
ATOM     49  H   UNL     1      11.683  11.058  -6.814  1.00  0.00     0.159 HD
ENDBRANCH  41  42
ENDBRANCH  40  41
ENDBRANCH  39  40
ENDBRANCH  38  39
ENDBRANCH  36  38
ENDBRANCH   5  34
BRANCH   8  50
ATOM     50  O   UNL     1       8.465  14.344  -2.417  1.00  0.00    -0.245 OA
BRANCH  50  51
ATOM     51  S   UNL     1       9.021  15.834  -2.760  1.00  0.00     0.397 S 
ATOM     52  O   UNL     1       8.263  16.784  -1.978  1.00  0.00    -0.169 OA
ATOM     53  O   UNL     1       9.172  15.979  -4.193  1.00  0.00    -0.169 OA
BRANCH  51  54
ATOM     54  O   UNL     1      10.490  15.803  -2.107  1.00  0.00    -0.264 OA
ATOM     55  H   UNL     1      11.048  15.216  -2.656  1.00  0.00     0.236 HD
ENDBRANCH  51  54
ENDBRANCH  50  51
ENDBRANCH   8  50
TORSDOF 19
ENDMDL
MODEL 19
REMARK VINA RESULT:    -5.643      2.786      4.480
REMARK INTER + INTRA:         -16.184
REMARK INTER:                 -12.570
REMARK INTRA:                  -3.614
REMARK UNBOUND:                -4.768
REMARK SMILES CC[C@@H](C)[C@@H](NC(=O)[C@@H](O)Cc1ccc(O)c(Cl)c1)C(=O)N1[C@H](C(=O)NCCCCN=C(N)N)C[C@H]2CC[C@H](OS(=O)(=O)O)C[C@@H]21
REMARK SMILES IDX 22 1 36 2 46 3 35 4 23 5 45 6 37 7 39 8 38 9 20 10 21 11
REMARK SMILES IDX 5 12 6 13 7 14 8 15 9 17 11 18 12 19 17 20 19 21 15 22 14 23
REMARK SMILES IDX 13 24 18 25 16 26 10 28 3 30 4 31 2 32 1 33 24 34 25 35
REMARK SMILES IDX 26 36 27 38 28 39 29 40 30 41 31 42 32 43 33 44 34 45 40 50
REMARK SMILES IDX 41 51 42 52 43 53 44 54
REMARK H PARENT 6 16 16 27 10 29 26 37 33 46 33 47 34 48 34 49 44 55
ROOT
ATOM      1  N   UNL     1       8.527  10.413   2.448  1.00  0.00    -0.326 N 
ATOM      2  C   UNL     1       8.831  12.532   1.467  1.00  0.00     0.014 C 
ATOM      3  C   UNL     1       9.587  11.285   1.934  1.00  0.00     0.091 C 
ATOM      4  C   UNL     1       7.702  12.637   2.481  1.00  0.00     0.041 C 
ATOM      5  C   UNL     1       7.251  11.166   2.541  1.00  0.00     0.175 C 
ATOM      6  C   UNL     1      10.444  10.778   0.775  1.00  0.00     0.059 C 
ATOM      7  C   UNL     1       9.777  13.703   1.284  1.00  0.00     0.008 C 
ATOM      8  C   UNL     1      10.954  11.898  -0.157  1.00  0.00     0.143 C 
ATOM      9  C   UNL     1      11.070  13.251   0.573  1.00  0.00     0.034 C 
ENDROOT
BRANCH   1  10
ATOM     10  C   UNL     1       8.611   9.155   3.019  1.00  0.00     0.246 C 
ATOM     11  O   UNL     1       8.824   8.178   2.293  1.00  0.00    -0.272 OA
BRANCH  10  12
ATOM     12  C   UNL     1       8.479   9.003   4.562  1.00  0.00     0.174 C 
BRANCH  12  13
ATOM     13  N   UNL     1       7.180   9.510   5.004  1.00  0.00    -0.342 N 
ATOM     14  C   UNL     1       5.982   8.847   4.859  1.00  0.00     0.249 C 
ATOM     15  O   UNL     1       5.875   7.733   4.363  1.00  0.00    -0.272 OA
ATOM     16  H   UNL     1       7.089  10.482   5.290  1.00  0.00     0.164 HD
BRANCH  14  17
ATOM     17  C   UNL     1       4.786   9.652   5.411  1.00  0.00     0.207 C 
BRANCH  17  18
ATOM     18  C   UNL     1       3.569   8.740   5.599  1.00  0.00     0.077 C 
BRANCH  18  19
ATOM     19  C   UNL     1       3.493   8.188   7.005  1.00  0.00    -0.043 A 
ATOM     20  C   UNL     1       3.455   6.295   8.521  1.00  0.00     0.083 A 
ATOM     21  C   UNL     1       3.575   6.805   7.228  1.00  0.00     0.028 A 
ATOM     22  C   UNL     1       3.250   7.160   9.596  1.00  0.00     0.134 A 
ATOM     23  C   UNL     1       3.167   8.532   9.390  1.00  0.00     0.048 A 
ATOM     24  C   UNL     1       3.285   9.045   8.096  1.00  0.00     0.008 A 
ATOM     25  Cl  UNL     1       3.558   4.592   8.774  1.00  0.00    -0.080 Cl
BRANCH  22  26
ATOM     26  O   UNL     1       3.116   6.706  10.880  1.00  0.00    -0.506 OA
ATOM     27  H   UNL     1       3.054   5.734  10.829  1.00  0.00     0.293 HD
ENDBRANCH  22  26
ENDBRANCH  18  19
ENDBRANCH  17  18
BRANCH  17  28
ATOM     28  O   UNL     1       4.440  10.733   4.530  1.00  0.00    -0.383 OA
ATOM     29  H   UNL     1       3.920  11.369   5.073  1.00  0.00     0.211 HD
ENDBRANCH  17  28
ENDBRANCH  14  17
ENDBRANCH  12  13
BRANCH  12  30
ATOM     30  C   UNL     1       9.661   9.652   5.332  1.00  0.00     0.018 C 
ATOM     31  C   UNL     1       9.419  11.155   5.540  1.00  0.00     0.010 C 
BRANCH  30  32
ATOM     32  C   UNL     1      11.038   9.422   4.664  1.00  0.00     0.002 C 
ATOM     33  C   UNL     1      11.829  10.686   4.351  1.00  0.00     0.004 C 
ENDBRANCH  30  32
ENDBRANCH  12  30
ENDBRANCH  10  12
ENDBRANCH   1  10
BRANCH   5  34
ATOM     34  C   UNL     1       6.313  10.807   1.358  1.00  0.00     0.242 C 
ATOM     35  O   UNL     1       6.713  10.210   0.359  1.00  0.00    -0.273 OA
ATOM     36  N   UNL     1       5.016  11.251   1.484  1.00  0.00    -0.354 N 
ATOM     37  H   UNL     1       4.774  11.843   2.279  1.00  0.00     0.163 HD
BRANCH  36  38
ATOM     38  C   UNL     1       3.962  10.824   0.587  1.00  0.00     0.116 C 
BRANCH  38  39
ATOM     39  C   UNL     1       3.791  11.845  -0.535  1.00  0.00     0.023 C 
BRANCH  39  40
ATOM     40  C   UNL     1       3.670  11.189  -1.907  1.00  0.00     0.026 C 
BRANCH  40  41
ATOM     41  C   UNL     1       4.882  11.523  -2.776  1.00  0.00     0.146 C 
BRANCH  41  42
ATOM     42  N   UNL     1       5.865  12.257  -1.990  1.00  0.00    -0.254 NA
ATOM     43  C   UNL     1       6.727  12.994  -2.583  1.00  0.00     0.185 C 
ATOM     44  N   UNL     1       6.904  13.235  -3.895  1.00  0.00    -0.370 N 
ATOM     45  N   UNL     1       7.627  13.659  -1.841  1.00  0.00    -0.370 N 
ATOM     46  H   UNL     1       7.763  13.635  -4.232  1.00  0.00     0.159 HD
ATOM     47  H   UNL     1       6.300  12.822  -4.599  1.00  0.00     0.159 HD
ATOM     48  H   UNL     1       7.558  13.540  -0.839  1.00  0.00     0.159 HD
ATOM     49  H   UNL     1       8.169  14.425  -2.199  1.00  0.00     0.159 HD
ENDBRANCH  41  42
ENDBRANCH  40  41
ENDBRANCH  39  40
ENDBRANCH  38  39
ENDBRANCH  36  38
ENDBRANCH   5  34
BRANCH   8  50
ATOM     50  O   UNL     1      10.068  12.055  -1.266  1.00  0.00    -0.245 OA
BRANCH  50  51
ATOM     51  S   UNL     1      10.019  10.913  -2.423  1.00  0.00     0.397 S 
ATOM     52  O   UNL     1       8.901  10.041  -2.143  1.00  0.00    -0.169 OA
ATOM     53  O   UNL     1      11.352  10.392  -2.648  1.00  0.00    -0.169 OA
BRANCH  51  54
ATOM     54  O   UNL     1       9.596  11.766  -3.718  1.00  0.00    -0.264 OA
ATOM     55  H   UNL     1       8.684  12.093  -3.576  1.00  0.00     0.236 HD
ENDBRANCH  51  54
ENDBRANCH  50  51
ENDBRANCH   8  50
TORSDOF 19
ENDMDL
MODEL 20
REMARK VINA RESULT:    -5.562      3.711      5.420
REMARK INTER + INTRA:         -16.019
REMARK INTER:                 -11.987
REMARK INTRA:                  -4.032
REMARK UNBOUND:                -4.768
REMARK SMILES CC[C@@H](C)[C@@H](NC(=O)[C@@H](O)Cc1ccc(O)c(Cl)c1)C(=O)N1[C@H](C(=O)NCCCCN=C(N)N)C[C@H]2CC[C@H](OS(=O)(=O)O)C[C@@H]21
REMARK SMILES IDX 22 1 36 2 46 3 35 4 23 5 45 6 37 7 39 8 38 9 20 10 21 11
REMARK SMILES IDX 5 12 6 13 7 14 8 15 9 17 11 18 12 19 17 20 19 21 15 22 14 23
REMARK SMILES IDX 13 24 18 25 16 26 10 28 3 30 4 31 2 32 1 33 24 34 25 35
REMARK SMILES IDX 26 36 27 38 28 39 29 40 30 41 31 42 32 43 33 44 34 45 40 50
REMARK SMILES IDX 41 51 42 52 43 53 44 54
REMARK H PARENT 6 16 16 27 10 29 26 37 33 46 33 47 34 48 34 49 44 55
ROOT
ATOM      1  N   UNL     1       5.686  11.900   6.716  1.00  0.00    -0.326 N 
ATOM      2  C   UNL     1       7.829  11.927   5.744  1.00  0.00     0.014 C 
ATOM      3  C   UNL     1       6.805  11.005   6.410  1.00  0.00     0.091 C 
ATOM      4  C   UNL     1       7.629  13.240   6.485  1.00  0.00     0.041 C 
ATOM      5  C   UNL     1       6.091  13.311   6.503  1.00  0.00     0.175 C 
ATOM      6  C   UNL     1       6.550   9.817   5.483  1.00  0.00     0.059 C 
ATOM      7  C   UNL     1       9.203  11.287   5.723  1.00  0.00     0.008 C 
ATOM      8  C   UNL     1       7.779   9.411   4.641  1.00  0.00     0.143 C 
ATOM      9  C   UNL     1       9.105   9.799   5.326  1.00  0.00     0.034 C 
ENDROOT
BRANCH   1  10
ATOM     10  C   UNL     1       4.479  11.632   7.340  1.00  0.00     0.246 C 
ATOM     11  O   UNL     1       3.458  11.522   6.653  1.00  0.00    -0.272 OA
BRANCH  10  12
ATOM     12  C   UNL     1       4.442  11.432   8.883  1.00  0.00     0.174 C 
BRANCH  12  13
ATOM     13  N   UNL     1       3.140  10.902   9.286  1.00  0.00    -0.342 N 
ATOM     14  C   UNL     1       2.946   9.740   9.998  1.00  0.00     0.249 C 
ATOM     15  O   UNL     1       3.856   9.027  10.402  1.00  0.00    -0.272 OA
ATOM     16  H   UNL     1       2.290  11.298   8.891  1.00  0.00     0.164 HD
BRANCH  14  17
ATOM     17  C   UNL     1       1.453   9.439  10.253  1.00  0.00     0.207 C 
BRANCH  17  18
ATOM     18  C   UNL     1       0.910  10.336  11.370  1.00  0.00     0.077 C 
BRANCH  18  19
ATOM     19  C   UNL     1      -0.076  11.355  10.844  1.00  0.00    -0.043 A 
ATOM     20  C   UNL     1      -1.377  12.271   9.013  1.00  0.00     0.083 A 
ATOM     21  C   UNL     1      -0.506  11.300   9.509  1.00  0.00     0.028 A 
ATOM     22  C   UNL     1      -1.822  13.300   9.843  1.00  0.00     0.134 A 
ATOM     23  C   UNL     1      -1.405  13.366  11.167  1.00  0.00     0.048 A 
ATOM     24  C   UNL     1      -0.531  12.397  11.666  1.00  0.00     0.008 A 
ATOM     25  Cl  UNL     1      -1.893  12.187   7.369  1.00  0.00    -0.080 Cl
BRANCH  22  26
ATOM     26  O   UNL     1      -2.668  14.280   9.399  1.00  0.00    -0.506 OA
ATOM     27  H   UNL     1      -2.387  15.108   9.830  1.00  0.00     0.293 HD
ENDBRANCH  22  26
ENDBRANCH  18  19
ENDBRANCH  17  18
BRANCH  17  28
ATOM     28  O   UNL     1       1.256   8.062  10.610  1.00  0.00    -0.383 OA
ATOM     29  H   UNL     1       0.282   7.923  10.631  1.00  0.00     0.211 HD
ENDBRANCH  17  28
ENDBRANCH  14  17
ENDBRANCH  12  13
BRANCH  12  30
ATOM     30  C   UNL     1       4.825  12.718   9.664  1.00  0.00     0.018 C 
ATOM     31  C   UNL     1       5.941  12.428  10.679  1.00  0.00     0.010 C 
BRANCH  30  32
ATOM     32  C   UNL     1       3.626  13.396  10.370  1.00  0.00     0.002 C 
ATOM     33  C   UNL     1       3.772  13.572  11.876  1.00  0.00     0.004 C 
ENDBRANCH  30  32
ENDBRANCH  12  30
ENDBRANCH  10  12
ENDBRANCH   1  10
BRANCH   5  34
ATOM     34  C   UNL     1       5.528  13.849   5.160  1.00  0.00     0.242 C 
ATOM     35  O   UNL     1       5.780  14.980   4.747  1.00  0.00    -0.273 OA
ATOM     36  N   UNL     1       4.683  12.990   4.494  1.00  0.00    -0.354 N 
ATOM     37  H   UNL     1       4.417  12.114   4.945  1.00  0.00     0.163 HD
BRANCH  36  38
ATOM     38  C   UNL     1       4.242  13.237   3.137  1.00  0.00     0.116 C 
BRANCH  38  39
ATOM     39  C   UNL     1       3.666  11.956   2.537  1.00  0.00     0.023 C 
BRANCH  39  40
ATOM     40  C   UNL     1       4.028  10.718   3.350  1.00  0.00     0.026 C 
BRANCH  40  41
ATOM     41  C   UNL     1       3.666   9.444   2.588  1.00  0.00     0.146 C 
BRANCH  41  42
ATOM     42  N   UNL     1       4.877   8.694   2.278  1.00  0.00    -0.254 NA
ATOM     43  C   UNL     1       5.020   7.507   2.734  1.00  0.00     0.185 C 
ATOM     44  N   UNL     1       4.196   6.769   3.501  1.00  0.00    -0.370 N 
ATOM     45  N   UNL     1       6.145   6.834   2.441  1.00  0.00    -0.370 N 
ATOM     46  H   UNL     1       4.537   5.955   3.984  1.00  0.00     0.159 HD
ATOM     47  H   UNL     1       3.293   7.120   3.804  1.00  0.00     0.159 HD
ATOM     48  H   UNL     1       6.816   7.316   1.858  1.00  0.00     0.159 HD
ATOM     49  H   UNL     1       6.229   5.840   2.553  1.00  0.00     0.159 HD
ENDBRANCH  41  42
ENDBRANCH  40  41
ENDBRANCH  39  40
ENDBRANCH  38  39
ENDBRANCH  36  38
ENDBRANCH   5  34
BRANCH   8  50
ATOM     50  O   UNL     1       7.727  10.045   3.362  1.00  0.00    -0.245 OA
BRANCH  50  51
ATOM     51  S   UNL     1       8.617   9.453   2.136  1.00  0.00     0.397 S 
ATOM     52  O   UNL     1       8.984   8.094   2.467  1.00  0.00    -0.169 OA
ATOM     53  O   UNL     1       9.608  10.431   1.738  1.00  0.00    -0.169 OA
BRANCH  51  54
ATOM     54  O   UNL     1       7.531   9.338   0.957  1.00  0.00    -0.264 OA
ATOM     55  H   UNL     1       7.097  10.211   0.865  1.00  0.00     0.236 HD
ENDBRANCH  51  54
ENDBRANCH  50  51
ENDBRANCH   8  50
TORSDOF 19
ENDMDL
MODEL 21
REMARK VINA RESULT:    -5.550      4.926      8.446
REMARK INTER + INTRA:         -15.995
REMARK INTER:                 -12.121
REMARK INTRA:                  -3.874
REMARK UNBOUND:                -4.768
REMARK SMILES CC[C@@H](C)[C@@H](NC(=O)[C@@H](O)Cc1ccc(O)c(Cl)c1)C(=O)N1[C@H](C(=O)NCCCCN=C(N)N)C[C@H]2CC[C@H](OS(=O)(=O)O)C[C@@H]21
REMARK SMILES IDX 22 1 36 2 46 3 35 4 23 5 45 6 37 7 39 8 38 9 20 10 21 11
REMARK SMILES IDX 5 12 6 13 7 14 8 15 9 17 11 18 12 19 17 20 19 21 15 22 14 23
REMARK SMILES IDX 13 24 18 25 16 26 10 28 3 30 4 31 2 32 1 33 24 34 25 35
REMARK SMILES IDX 26 36 27 38 28 39 29 40 30 41 31 42 32 43 33 44 34 45 40 50
REMARK SMILES IDX 41 51 42 52 43 53 44 54
REMARK H PARENT 6 16 16 27 10 29 26 37 33 46 33 47 34 48 34 49 44 55
ROOT
ATOM      1  N   UNL     1      11.580  11.064  -1.699  1.00  0.00    -0.326 N 
ATOM      2  C   UNL     1      13.245  11.482  -3.310  1.00  0.00     0.014 C 
ATOM      3  C   UNL     1      11.847  10.884  -3.129  1.00  0.00     0.091 C 
ATOM      4  C   UNL     1      13.932  11.130  -1.999  1.00  0.00     0.041 C 
ATOM      5  C   UNL     1      12.817  11.492  -1.001  1.00  0.00     0.175 C 
ATOM      6  C   UNL     1      10.905  11.548  -4.131  1.00  0.00     0.059 C 
ATOM      7  C   UNL     1      13.863  11.030  -4.618  1.00  0.00     0.008 C 
ATOM      8  C   UNL     1      11.591  11.961  -5.451  1.00  0.00     0.143 C 
ATOM      9  C   UNL     1      12.826  11.089  -5.759  1.00  0.00     0.034 C 
ENDROOT
BRANCH   1  10
ATOM     10  C   UNL     1      10.475  10.698  -0.950  1.00  0.00     0.246 C 
ATOM     11  O   UNL     1       9.735   9.801  -1.368  1.00  0.00    -0.272 OA
BRANCH  10  12
ATOM     12  C   UNL     1      10.213  11.391   0.419  1.00  0.00     0.174 C 
BRANCH  12  13
ATOM     13  N   UNL     1      10.293  10.407   1.499  1.00  0.00    -0.342 N 
ATOM     14  C   UNL     1      11.358  10.264   2.359  1.00  0.00     0.249 C 
ATOM     15  O   UNL     1      12.357  10.972   2.332  1.00  0.00    -0.272 OA
ATOM     16  H   UNL     1       9.612   9.653   1.545  1.00  0.00     0.164 HD
BRANCH  14  17
ATOM     17  C   UNL     1      11.150   9.125   3.380  1.00  0.00     0.207 C 
BRANCH  17  18
ATOM     18  C   UNL     1      10.807   9.698   4.759  1.00  0.00     0.077 C 
BRANCH  18  19
ATOM     19  C   UNL     1       9.316   9.876   4.938  1.00  0.00    -0.043 A 
ATOM     20  C   UNL     1       7.041   9.218   4.412  1.00  0.00     0.083 A 
ATOM     21  C   UNL     1       8.416   9.020   4.284  1.00  0.00     0.028 A 
ATOM     22  C   UNL     1       6.556  10.270   5.190  1.00  0.00     0.134 A 
ATOM     23  C   UNL     1       7.436  11.125   5.843  1.00  0.00     0.048 A 
ATOM     24  C   UNL     1       8.813  10.931   5.716  1.00  0.00     0.008 A 
ATOM     25  Cl  UNL     1       5.952   8.155   3.600  1.00  0.00    -0.080 Cl
BRANCH  22  26
ATOM     26  O   UNL     1       5.217  10.510   5.337  1.00  0.00    -0.506 OA
ATOM     27  H   UNL     1       4.948  11.065   4.582  1.00  0.00     0.293 HD
ENDBRANCH  22  26
ENDBRANCH  18  19
ENDBRANCH  17  18
BRANCH  17  28
ATOM     28  O   UNL     1      12.323   8.303   3.485  1.00  0.00    -0.383 OA
ATOM     29  H   UNL     1      12.307   7.705   2.703  1.00  0.00     0.211 HD
ENDBRANCH  17  28
ENDBRANCH  14  17
ENDBRANCH  12  13
BRANCH  12  30
ATOM     30  C   UNL     1       8.881  12.189   0.442  1.00  0.00     0.018 C 
ATOM     31  C   UNL     1       9.048  13.550  -0.250  1.00  0.00     0.010 C 
BRANCH  30  32
ATOM     32  C   UNL     1       8.297  12.382   1.863  1.00  0.00     0.002 C 
ATOM     33  C   UNL     1       6.796  12.158   1.986  1.00  0.00     0.004 C 
ENDBRANCH  30  32
ENDBRANCH  12  30
ENDBRANCH  10  12
ENDBRANCH   1  10
BRANCH   5  34
ATOM     34  C   UNL     1      12.785  13.016  -0.709  1.00  0.00     0.242 C 
ATOM     35  O   UNL     1      12.382  13.836  -1.534  1.00  0.00    -0.273 OA
ATOM     36  N   UNL     1      13.288  13.388   0.518  1.00  0.00    -0.354 N 
ATOM     37  H   UNL     1      13.718  12.676   1.109  1.00  0.00     0.163 HD
BRANCH  36  38
ATOM     38  C   UNL     1      13.139  14.731   1.040  1.00  0.00     0.116 C 
BRANCH  38  39
ATOM     39  C   UNL     1      11.879  14.815   1.899  1.00  0.00     0.023 C 
BRANCH  39  40
ATOM     40  C   UNL     1      11.991  15.871   2.994  1.00  0.00     0.026 C 
BRANCH  40  41
ATOM     41  C   UNL     1      11.953  15.222   4.378  1.00  0.00     0.146 C 
BRANCH  41  42
ATOM     42  N   UNL     1      12.286  13.808   4.268  1.00  0.00    -0.254 NA
ATOM     43  C   UNL     1      13.452  13.404   4.609  1.00  0.00     0.185 C 
ATOM     44  N   UNL     1      14.503  14.096   5.085  1.00  0.00    -0.370 N 
ATOM     45  N   UNL     1      13.741  12.097   4.496  1.00  0.00    -0.370 N 
ATOM     46  H   UNL     1      15.426  13.697   5.079  1.00  0.00     0.159 HD
ATOM     47  H   UNL     1      14.453  15.098   5.246  1.00  0.00     0.159 HD
ATOM     48  H   UNL     1      12.999  11.502   4.152  1.00  0.00     0.159 HD
ATOM     49  H   UNL     1      14.527  11.672   4.954  1.00  0.00     0.159 HD
ENDBRANCH  41  42
ENDBRANCH  40  41
ENDBRANCH  39  40
ENDBRANCH  38  39
ENDBRANCH  36  38
ENDBRANCH   5  34
BRANCH   8  50
ATOM     50  O   UNL     1      12.006  13.325  -5.382  1.00  0.00    -0.245 OA
BRANCH  50  51
ATOM     51  S   UNL     1      11.174  14.459  -6.199  1.00  0.00     0.397 S 
ATOM     52  O   UNL     1       9.781  14.345  -5.828  1.00  0.00    -0.169 OA
ATOM     53  O   UNL     1      11.593  14.466  -7.585  1.00  0.00    -0.169 OA
BRANCH  51  54
ATOM     54  O   UNL     1      11.699  15.817  -5.516  1.00  0.00    -0.264 OA
ATOM     55  H   UNL     1      12.675  15.829  -5.588  1.00  0.00     0.236 HD
ENDBRANCH  51  54
ENDBRANCH  50  51
ENDBRANCH   8  50
TORSDOF 19
ENDMDL
MODEL 22
REMARK VINA RESULT:    -5.543      3.602      8.937
REMARK INTER + INTRA:         -15.981
REMARK INTER:                 -12.203
REMARK INTRA:                  -3.778
REMARK UNBOUND:                -4.768
REMARK SMILES CC[C@@H](C)[C@@H](NC(=O)[C@@H](O)Cc1ccc(O)c(Cl)c1)C(=O)N1[C@H](C(=O)NCCCCN=C(N)N)C[C@H]2CC[C@H](OS(=O)(=O)O)C[C@@H]21
REMARK SMILES IDX 22 1 36 2 46 3 35 4 23 5 45 6 37 7 39 8 38 9 20 10 21 11
REMARK SMILES IDX 5 12 6 13 7 14 8 15 9 17 11 18 12 19 17 20 19 21 15 22 14 23
REMARK SMILES IDX 13 24 18 25 16 26 10 28 3 30 4 31 2 32 1 33 24 34 25 35
REMARK SMILES IDX 26 36 27 38 28 39 29 40 30 41 31 42 32 43 33 44 34 45 40 50
REMARK SMILES IDX 41 51 42 52 43 53 44 54
REMARK H PARENT 6 16 16 27 10 29 26 37 33 46 33 47 34 48 34 49 44 55
ROOT
ATOM      1  N   UNL     1       7.012  10.481   2.135  1.00  0.00    -0.326 N 
ATOM      2  C   UNL     1       8.202   9.408   3.860  1.00  0.00     0.014 C 
ATOM      3  C   UNL     1       7.998  10.766   3.181  1.00  0.00     0.091 C 
ATOM      4  C   UNL     1       8.061   8.431   2.703  1.00  0.00     0.041 C 
ATOM      5  C   UNL     1       6.821   9.016   2.001  1.00  0.00     0.175 C 
ATOM      6  C   UNL     1       7.641  11.794   4.253  1.00  0.00     0.059 C 
ATOM      7  C   UNL     1       9.471   9.402   4.689  1.00  0.00     0.008 C 
ATOM      8  C   UNL     1       8.292  11.513   5.624  1.00  0.00     0.143 C 
ATOM      9  C   UNL     1       9.604  10.714   5.490  1.00  0.00     0.034 C 
ENDROOT
BRANCH   1  10
ATOM     10  C   UNL     1       6.455  11.323   1.187  1.00  0.00     0.246 C 
ATOM     11  O   UNL     1       5.603  12.145   1.540  1.00  0.00    -0.272 OA
BRANCH  10  12
ATOM     12  C   UNL     1       6.942  11.245  -0.289  1.00  0.00     0.174 C 
BRANCH  12  13
ATOM     13  N   UNL     1       8.403  11.198  -0.330  1.00  0.00    -0.342 N 
ATOM     14  C   UNL     1       9.145  10.390  -1.161  1.00  0.00     0.249 C 
ATOM     15  O   UNL     1       8.656   9.631  -1.988  1.00  0.00    -0.272 OA
ATOM     16  H   UNL     1       8.942  11.654   0.402  1.00  0.00     0.164 HD
BRANCH  14  17
ATOM     17  C   UNL     1      10.666  10.558  -0.954  1.00  0.00     0.207 C 
BRANCH  17  18
ATOM     18  C   UNL     1      10.979  11.947  -0.390  1.00  0.00     0.077 C 
BRANCH  18  19
ATOM     19  C   UNL     1      11.683  11.865   0.946  1.00  0.00    -0.043 A 
ATOM     20  C   UNL     1      13.146  12.844   2.615  1.00  0.00     0.083 A 
ATOM     21  C   UNL     1      12.458  12.942   1.405  1.00  0.00     0.028 A 
ATOM     22  C   UNL     1      13.065  11.674   3.372  1.00  0.00     0.134 A 
ATOM     23  C   UNL     1      12.301  10.601   2.929  1.00  0.00     0.048 A 
ATOM     24  C   UNL     1      11.613  10.695   1.717  1.00  0.00     0.008 A 
ATOM     25  Cl  UNL     1      14.094  14.177   3.162  1.00  0.00    -0.080 Cl
BRANCH  22  26
ATOM     26  O   UNL     1      13.730  11.528   4.559  1.00  0.00    -0.506 OA
ATOM     27  H   UNL     1      14.470  10.914   4.392  1.00  0.00     0.293 HD
ENDBRANCH  22  26
ENDBRANCH  18  19
ENDBRANCH  17  18
BRANCH  17  28
ATOM     28  O   UNL     1      11.379  10.372  -2.187  1.00  0.00    -0.383 OA
ATOM     29  H   UNL     1      12.316  10.202  -1.936  1.00  0.00     0.211 HD
ENDBRANCH  17  28
ENDBRANCH  14  17
ENDBRANCH  12  13
BRANCH  12  30
ATOM     30  C   UNL     1       6.361  12.381  -1.173  1.00  0.00     0.018 C 
ATOM     31  C   UNL     1       5.686  11.805  -2.428  1.00  0.00     0.010 C 
BRANCH  30  32
ATOM     32  C   UNL     1       7.404  13.452  -1.575  1.00  0.00     0.002 C 
ATOM     33  C   UNL     1       7.846  13.417  -3.032  1.00  0.00     0.004 C 
ENDBRANCH  30  32
ENDBRANCH  12  30
ENDBRANCH  10  12
ENDBRANCH   1  10
BRANCH   5  34
ATOM     34  C   UNL     1       5.507   8.566   2.693  1.00  0.00     0.242 C 
ATOM     35  O   UNL     1       4.504   9.278   2.726  1.00  0.00    -0.273 OA
ATOM     36  N   UNL     1       5.562   7.338   3.314  1.00  0.00    -0.354 N 
ATOM     37  H   UNL     1       6.457   6.849   3.356  1.00  0.00     0.163 HD
BRANCH  36  38
ATOM     38  C   UNL     1       4.379   6.673   3.818  1.00  0.00     0.116 C 
BRANCH  38  39
ATOM     39  C   UNL     1       4.777   5.611   4.840  1.00  0.00     0.023 C 
BRANCH  39  40
ATOM     40  C   UNL     1       3.726   5.427   5.929  1.00  0.00     0.026 C 
BRANCH  40  41
ATOM     41  C   UNL     1       3.129   6.773   6.340  1.00  0.00     0.146 C 
BRANCH  41  42
ATOM     42  N   UNL     1       2.837   6.767   7.767  1.00  0.00    -0.254 NA
ATOM     43  C   UNL     1       3.152   7.782   8.482  1.00  0.00     0.185 C 
ATOM     44  N   UNL     1       3.745   8.937   8.130  1.00  0.00    -0.370 N 
ATOM     45  N   UNL     1       2.878   7.755   9.796  1.00  0.00    -0.370 N 
ATOM     46  H   UNL     1       4.151   9.538   8.828  1.00  0.00     0.159 HD
ATOM     47  H   UNL     1       4.009   9.130   7.169  1.00  0.00     0.159 HD
ATOM     48  H   UNL     1       2.422   6.922  10.143  1.00  0.00     0.159 HD
ATOM     49  H   UNL     1       2.873   8.581  10.368  1.00  0.00     0.159 HD
ENDBRANCH  41  42
ENDBRANCH  40  41
ENDBRANCH  39  40
ENDBRANCH  38  39
ENDBRANCH  36  38
ENDBRANCH   5  34
BRANCH   8  50
ATOM     50  O   UNL     1       7.393  10.772   6.451  1.00  0.00    -0.245 OA
BRANCH  50  51
ATOM     51  S   UNL     1       6.194  11.548   7.229  1.00  0.00     0.397 S 
ATOM     52  O   UNL     1       4.952  11.234   6.561  1.00  0.00    -0.169 OA
ATOM     53  O   UNL     1       6.591  12.916   7.492  1.00  0.00    -0.169 OA
BRANCH  51  54
ATOM     54  O   UNL     1       6.146  10.767   8.634  1.00  0.00    -0.264 OA
ATOM     55  H   UNL     1       6.915  10.163   8.666  1.00  0.00     0.236 HD
ENDBRANCH  51  54
ENDBRANCH  50  51
ENDBRANCH   8  50
TORSDOF 19
ENDMDL
MODEL 23
REMARK VINA RESULT:    -5.534      3.988      7.550
REMARK INTER + INTRA:         -15.963
REMARK INTER:                 -13.090
REMARK INTRA:                  -2.873
REMARK UNBOUND:                -4.768
REMARK SMILES CC[C@@H](C)[C@@H](NC(=O)[C@@H](O)Cc1ccc(O)c(Cl)c1)C(=O)N1[C@H](C(=O)NCCCCN=C(N)N)C[C@H]2CC[C@H](OS(=O)(=O)O)C[C@@H]21
REMARK SMILES IDX 22 1 36 2 46 3 35 4 23 5 45 6 37 7 39 8 38 9 20 10 21 11
REMARK SMILES IDX 5 12 6 13 7 14 8 15 9 17 11 18 12 19 17 20 19 21 15 22 14 23
REMARK SMILES IDX 13 24 18 25 16 26 10 28 3 30 4 31 2 32 1 33 24 34 25 35
REMARK SMILES IDX 26 36 27 38 28 39 29 40 30 41 31 42 32 43 33 44 34 45 40 50
REMARK SMILES IDX 41 51 42 52 43 53 44 54
REMARK H PARENT 6 16 16 27 10 29 26 37 33 46 33 47 34 48 34 49 44 55
ROOT
ATOM      1  N   UNL     1       5.168  10.470   6.350  1.00  0.00    -0.326 N 
ATOM      2  C   UNL     1       6.263  10.599   4.270  1.00  0.00     0.014 C 
ATOM      3  C   UNL     1       6.389  11.004   5.741  1.00  0.00     0.091 C 
ATOM      4  C   UNL     1       4.766  10.697   4.023  1.00  0.00     0.041 C 
ATOM      5  C   UNL     1       4.234  10.008   5.293  1.00  0.00     0.175 C 
ATOM      6  C   UNL     1       7.736  10.508   6.265  1.00  0.00     0.059 C 
ATOM      7  C   UNL     1       7.214  11.401   3.403  1.00  0.00     0.008 C 
ATOM      8  C   UNL     1       8.848  10.483   5.194  1.00  0.00     0.143 C 
ATOM      9  C   UNL     1       8.598  11.515   4.076  1.00  0.00     0.034 C 
ENDROOT
BRANCH   1  10
ATOM     10  C   UNL     1       4.722  10.544   7.658  1.00  0.00     0.246 C 
ATOM     11  O   UNL     1       4.390   9.506   8.241  1.00  0.00    -0.272 OA
BRANCH  10  12
ATOM     12  C   UNL     1       4.688  11.923   8.380  1.00  0.00     0.174 C 
BRANCH  12  13
ATOM     13  N   UNL     1       4.235  11.752   9.760  1.00  0.00    -0.342 N 
ATOM     14  C   UNL     1       5.031  11.889  10.875  1.00  0.00     0.249 C 
ATOM     15  O   UNL     1       6.215  12.199  10.835  1.00  0.00    -0.272 OA
ATOM     16  H   UNL     1       3.323  11.343   9.944  1.00  0.00     0.164 HD
BRANCH  14  17
ATOM     17  C   UNL     1       4.264  11.629  12.189  1.00  0.00     0.207 C 
BRANCH  17  18
ATOM     18  C   UNL     1       3.298  12.781  12.483  1.00  0.00     0.077 C 
BRANCH  18  19
ATOM     19  C   UNL     1       1.893  12.468  12.020  1.00  0.00    -0.043 A 
ATOM     20  C   UNL     1      -0.348  13.205  11.454  1.00  0.00     0.083 A 
ATOM     21  C   UNL     1       0.962  13.502  11.833  1.00  0.00     0.028 A 
ATOM     22  C   UNL     1      -0.736  11.879  11.262  1.00  0.00     0.134 A 
ATOM     23  C   UNL     1       0.176  10.845  11.444  1.00  0.00     0.048 A 
ATOM     24  C   UNL     1       1.487  11.139  11.825  1.00  0.00     0.008 A 
ATOM     25  Cl  UNL     1      -1.477  14.489  11.229  1.00  0.00    -0.080 Cl
BRANCH  22  26
ATOM     26  O   UNL     1      -2.011  11.538  10.901  1.00  0.00    -0.506 OA
ATOM     27  H   UNL     1      -2.012  10.575  10.748  1.00  0.00     0.293 HD
ENDBRANCH  22  26
ENDBRANCH  18  19
ENDBRANCH  17  18
BRANCH  17  28
ATOM     28  O   UNL     1       5.169  11.472  13.294  1.00  0.00    -0.383 OA
ATOM     29  H   UNL     1       5.817  12.209  13.221  1.00  0.00     0.211 HD
ENDBRANCH  17  28
ENDBRANCH  14  17
ENDBRANCH  12  13
BRANCH  12  30
ATOM     30  C   UNL     1       3.856  12.983   7.610  1.00  0.00     0.018 C 
ATOM     31  C   UNL     1       3.791  14.302   8.395  1.00  0.00     0.010 C 
BRANCH  30  32
ATOM     32  C   UNL     1       2.427  12.508   7.248  1.00  0.00     0.002 C 
ATOM     33  C   UNL     1       1.320  13.020   8.161  1.00  0.00     0.004 C 
ENDBRANCH  30  32
ENDBRANCH  12  30
ENDBRANCH  10  12
ENDBRANCH   1  10
BRANCH   5  34
ATOM     34  C   UNL     1       4.272   8.462   5.163  1.00  0.00     0.242 C 
ATOM     35  O   UNL     1       4.879   7.892   4.256  1.00  0.00    -0.273 OA
ATOM     36  N   UNL     1       3.534   7.777   6.102  1.00  0.00    -0.354 N 
ATOM     37  H   UNL     1       2.955   8.307   6.755  1.00  0.00     0.163 HD
BRANCH  36  38
ATOM     38  C   UNL     1       3.628   6.340   6.262  1.00  0.00     0.116 C 
BRANCH  38  39
ATOM     39  C   UNL     1       2.795   5.897   7.462  1.00  0.00     0.023 C 
BRANCH  39  40
ATOM     40  C   UNL     1       3.656   5.543   8.670  1.00  0.00     0.026 C 
BRANCH  40  41
ATOM     41  C   UNL     1       3.278   6.403   9.876  1.00  0.00     0.146 C 
BRANCH  41  42
ATOM     42  N   UNL     1       3.252   5.580  11.078  1.00  0.00    -0.254 NA
ATOM     43  C   UNL     1       2.131   5.159  11.533  1.00  0.00     0.185 C 
ATOM     44  N   UNL     1       0.883   5.350  11.070  1.00  0.00    -0.370 N 
ATOM     45  N   UNL     1       2.128   4.406  12.645  1.00  0.00    -0.370 N 
ATOM     46  H   UNL     1       0.085   5.170  11.656  1.00  0.00     0.159 HD
ATOM     47  H   UNL     1       0.703   5.886  10.226  1.00  0.00     0.159 HD
ATOM     48  H   UNL     1       3.031   4.207  13.054  1.00  0.00     0.159 HD
ATOM     49  H   UNL     1       1.339   3.851  12.924  1.00  0.00     0.159 HD
ENDBRANCH  41  42
ENDBRANCH  40  41
ENDBRANCH  39  40
ENDBRANCH  38  39
ENDBRANCH  36  38
ENDBRANCH   5  34
BRANCH   8  50
ATOM     50  O   UNL     1       8.931   9.186   4.604  1.00  0.00    -0.245 OA
BRANCH  50  51
ATOM     51  S   UNL     1      10.381   8.595   4.164  1.00  0.00     0.397 S 
ATOM     52  O   UNL     1      10.728   7.533   5.081  1.00  0.00    -0.169 OA
ATOM     53  O   UNL     1      11.289   9.690   3.890  1.00  0.00    -0.169 OA
BRANCH  51  54
ATOM     54  O   UNL     1      10.040   7.874   2.768  1.00  0.00    -0.264 OA
ATOM     55  H   UNL     1       9.210   7.369   2.888  1.00  0.00     0.236 HD
ENDBRANCH  51  54
ENDBRANCH  50  51
ENDBRANCH   8  50
TORSDOF 19
ENDMDL
MODEL 24
REMARK VINA RESULT:    -5.527      4.107      6.989
REMARK INTER + INTRA:         -15.949
REMARK INTER:                 -11.856
REMARK INTRA:                  -4.094
REMARK UNBOUND:                -4.768
REMARK SMILES CC[C@@H](C)[C@@H](NC(=O)[C@@H](O)Cc1ccc(O)c(Cl)c1)C(=O)N1[C@H](C(=O)NCCCCN=C(N)N)C[C@H]2CC[C@H](OS(=O)(=O)O)C[C@@H]21
REMARK SMILES IDX 22 1 36 2 46 3 35 4 23 5 45 6 37 7 39 8 38 9 20 10 21 11
REMARK SMILES IDX 5 12 6 13 7 14 8 15 9 17 11 18 12 19 17 20 19 21 15 22 14 23
REMARK SMILES IDX 13 24 18 25 16 26 10 28 3 30 4 31 2 32 1 33 24 34 25 35
REMARK SMILES IDX 26 36 27 38 28 39 29 40 30 41 31 42 32 43 33 44 34 45 40 50
REMARK SMILES IDX 41 51 42 52 43 53 44 54
REMARK H PARENT 6 16 16 27 10 29 26 37 33 46 33 47 34 48 34 49 44 55
ROOT
ATOM      1  N   UNL     1      11.382  11.955  -0.286  1.00  0.00    -0.326 N 
ATOM      2  C   UNL     1      11.712  13.725  -1.803  1.00  0.00     0.014 C 
ATOM      3  C   UNL     1      12.457  12.669  -0.981  1.00  0.00     0.091 C 
ATOM      4  C   UNL     1      10.542  14.087  -0.901  1.00  0.00     0.041 C 
ATOM      5  C   UNL     1      10.099  12.682  -0.453  1.00  0.00     0.175 C 
ATOM      6  C   UNL     1      13.363  11.876  -1.922  1.00  0.00     0.059 C 
ATOM      7  C   UNL     1      12.657  14.816  -2.268  1.00  0.00     0.008 C 
ATOM      8  C   UNL     1      13.904  12.704  -3.108  1.00  0.00     0.143 C 
ATOM      9  C   UNL     1      13.981  14.208  -2.777  1.00  0.00     0.034 C 
ENDROOT
BRANCH   1  10
ATOM     10  C   UNL     1      11.451  10.906   0.615  1.00  0.00     0.246 C 
ATOM     11  O   UNL     1      11.115   9.775   0.247  1.00  0.00    -0.272 OA
BRANCH  10  12
ATOM     12  C   UNL     1      11.989  11.163   2.052  1.00  0.00     0.174 C 
BRANCH  12  13
ATOM     13  N   UNL     1      11.129  10.500   3.032  1.00  0.00    -0.342 N 
ATOM     14  C   UNL     1      11.392   9.283   3.619  1.00  0.00     0.249 C 
ATOM     15  O   UNL     1      12.403   8.626   3.403  1.00  0.00    -0.272 OA
ATOM     16  H   UNL     1      10.186  10.848   3.192  1.00  0.00     0.164 HD
BRANCH  14  17
ATOM     17  C   UNL     1      10.284   8.842   4.599  1.00  0.00     0.207 C 
BRANCH  17  18
ATOM     18  C   UNL     1       9.749  10.047   5.380  1.00  0.00     0.077 C 
BRANCH  18  19
ATOM     19  C   UNL     1       8.242  10.014   5.502  1.00  0.00    -0.043 A 
ATOM     20  C   UNL     1       6.112   8.980   4.974  1.00  0.00     0.083 A 
ATOM     21  C   UNL     1       7.506   8.981   4.902  1.00  0.00     0.028 A 
ATOM     22  C   UNL     1       5.447  10.010   5.642  1.00  0.00     0.134 A 
ATOM     23  C   UNL     1       6.164  11.039   6.240  1.00  0.00     0.048 A 
ATOM     24  C   UNL     1       7.559  11.043   6.168  1.00  0.00     0.008 A 
ATOM     25  Cl  UNL     1       5.225   7.702   4.231  1.00  0.00    -0.080 Cl
BRANCH  22  26
ATOM     26  O   UNL     1       4.082  10.058   5.730  1.00  0.00    -0.506 OA
ATOM     27  H   UNL     1       3.772   9.134   5.778  1.00  0.00     0.293 HD
ENDBRANCH  22  26
ENDBRANCH  18  19
ENDBRANCH  17  18
BRANCH  17  28
ATOM     28  O   UNL     1      10.771   7.854   5.521  1.00  0.00    -0.383 OA
ATOM     29  H   UNL     1      10.457   6.986   5.181  1.00  0.00     0.211 HD
ENDBRANCH  17  28
ENDBRANCH  14  17
ENDBRANCH  12  13
BRANCH  12  30
ATOM     30  C   UNL     1      12.182  12.673   2.359  1.00  0.00     0.018 C 
ATOM     31  C   UNL     1      13.675  13.022   2.462  1.00  0.00     0.010 C 
BRANCH  30  32
ATOM     32  C   UNL     1      11.435  13.149   3.629  1.00  0.00     0.002 C 
ATOM     33  C   UNL     1      10.201  14.005   3.376  1.00  0.00     0.004 C 
ENDBRANCH  30  32
ENDBRANCH  12  30
ENDBRANCH  10  12
ENDBRANCH   1  10
BRANCH   5  34
ATOM     34  C   UNL     1       9.212  11.993  -1.524  1.00  0.00     0.242 C 
ATOM     35  O   UNL     1       9.657  11.153  -2.306  1.00  0.00    -0.273 OA
ATOM     36  N   UNL     1       7.906  12.428  -1.571  1.00  0.00    -0.354 N 
ATOM     37  H   UNL     1       7.628  13.210  -0.978  1.00  0.00     0.163 HD
BRANCH  36  38
ATOM     38  C   UNL     1       6.893  11.750  -2.353  1.00  0.00     0.116 C 
BRANCH  38  39
ATOM     39  C   UNL     1       5.609  11.620  -1.537  1.00  0.00     0.023 C 
BRANCH  39  40
ATOM     40  C   UNL     1       5.660  12.420  -0.239  1.00  0.00     0.026 C 
BRANCH  40  41
ATOM     41  C   UNL     1       5.555  11.495   0.973  1.00  0.00     0.146 C 
BRANCH  41  42
ATOM     42  N   UNL     1       6.408  10.330   0.778  1.00  0.00    -0.254 NA
ATOM     43  C   UNL     1       7.556  10.285   1.343  1.00  0.00     0.185 C 
ATOM     44  N   UNL     1       8.163  11.182   2.142  1.00  0.00    -0.370 N 
ATOM     45  N   UNL     1       8.330   9.205   1.148  1.00  0.00    -0.370 N 
ATOM     46  H   UNL     1       9.153  11.129   2.314  1.00  0.00     0.159 HD
ATOM     47  H   UNL     1       7.712  12.053   2.405  1.00  0.00     0.159 HD
ATOM     48  H   UNL     1       7.943   8.476   0.564  1.00  0.00     0.159 HD
ATOM     49  H   UNL     1       9.119   8.989   1.730  1.00  0.00     0.159 HD
ENDBRANCH  41  42
ENDBRANCH  40  41
ENDBRANCH  39  40
ENDBRANCH  38  39
ENDBRANCH  36  38
ENDBRANCH   5  34
BRANCH   8  50
ATOM     50  O   UNL     1      13.063  12.533  -4.249  1.00  0.00    -0.245 OA
BRANCH  50  51
ATOM     51  S   UNL     1      13.052  11.107  -5.032  1.00  0.00     0.397 S 
ATOM     52  O   UNL     1      12.040  10.272  -4.424  1.00  0.00    -0.169 OA
ATOM     53  O   UNL     1      14.411  10.642  -5.215  1.00  0.00    -0.169 OA
BRANCH  51  54
ATOM     54  O   UNL     1      12.471  11.520  -6.473  1.00  0.00    -0.264 OA
ATOM     55  H   UNL     1      13.200  11.442  -7.122  1.00  0.00     0.236 HD
ENDBRANCH  51  54
ENDBRANCH  50  51
ENDBRANCH   8  50
TORSDOF 19
ENDMDL
MODEL 25
REMARK VINA RESULT:    -5.516      4.473      9.705
REMARK INTER + INTRA:         -15.927
REMARK INTER:                 -11.255
REMARK INTRA:                  -4.672
REMARK UNBOUND:                -4.768
REMARK SMILES CC[C@@H](C)[C@@H](NC(=O)[C@@H](O)Cc1ccc(O)c(Cl)c1)C(=O)N1[C@H](C(=O)NCCCCN=C(N)N)C[C@H]2CC[C@H](OS(=O)(=O)O)C[C@@H]21
REMARK SMILES IDX 22 1 36 2 46 3 35 4 23 5 45 6 37 7 39 8 38 9 20 10 21 11
REMARK SMILES IDX 5 12 6 13 7 14 8 15 9 17 11 18 12 19 17 20 19 21 15 22 14 23
REMARK SMILES IDX 13 24 18 25 16 26 10 28 3 30 4 31 2 32 1 33 24 34 25 35
REMARK SMILES IDX 26 36 27 38 28 39 29 40 30 41 31 42 32 43 33 44 34 45 40 50
REMARK SMILES IDX 41 51 42 52 43 53 44 54
REMARK H PARENT 6 16 16 27 10 29 26 37 33 46 33 47 34 48 34 49 44 55
ROOT
ATOM      1  N   UNL     1       9.972  10.382   3.658  1.00  0.00    -0.326 N 
ATOM      2  C   UNL     1       8.225  11.110   5.058  1.00  0.00     0.014 C 
ATOM      3  C   UNL     1       9.554  11.551   4.437  1.00  0.00     0.091 C 
ATOM      4  C   UNL     1       8.451   9.628   5.315  1.00  0.00     0.041 C 
ATOM      5  C   UNL     1       9.111   9.219   3.986  1.00  0.00     0.175 C 
ATOM      6  C   UNL     1       9.329  12.870   3.700  1.00  0.00     0.059 C 
ATOM      7  C   UNL     1       7.839  12.015   6.212  1.00  0.00     0.008 C 
ATOM      8  C   UNL     1       8.244  13.762   4.340  1.00  0.00     0.143 C 
ATOM      9  C   UNL     1       8.091  13.494   5.851  1.00  0.00     0.034 C 
ENDROOT
BRANCH   1  10
ATOM     10  C   UNL     1      11.110  10.185   2.894  1.00  0.00     0.246 C 
ATOM     11  O   UNL     1      11.836   9.214   3.136  1.00  0.00    -0.272 OA
BRANCH  10  12
ATOM     12  C   UNL     1      11.428  11.162   1.725  1.00  0.00     0.174 C 
BRANCH  12  13
ATOM     13  N   UNL     1      10.943  10.603   0.463  1.00  0.00    -0.342 N 
ATOM     14  C   UNL     1       9.993  11.185  -0.345  1.00  0.00     0.249 C 
ATOM     15  O   UNL     1       9.461  12.262  -0.106  1.00  0.00    -0.272 OA
ATOM     16  H   UNL     1      11.176   9.645   0.215  1.00  0.00     0.164 HD
BRANCH  14  17
ATOM     17  C   UNL     1       9.682  10.342  -1.600  1.00  0.00     0.207 C 
BRANCH  17  18
ATOM     18  C   UNL     1       9.467  11.250  -2.815  1.00  0.00     0.077 C 
BRANCH  18  19
ATOM     19  C   UNL     1      10.774  11.784  -3.356  1.00  0.00    -0.043 A 
ATOM     20  C   UNL     1      12.851  11.435  -4.560  1.00  0.00     0.083 A 
ATOM     21  C   UNL     1      11.623  10.954  -4.105  1.00  0.00     0.028 A 
ATOM     22  C   UNL     1      13.239  12.744  -4.270  1.00  0.00     0.134 A 
ATOM     23  C   UNL     1      12.408  13.577  -3.529  1.00  0.00     0.048 A 
ATOM     24  C   UNL     1      11.179  13.097  -3.071  1.00  0.00     0.008 A 
ATOM     25  Cl  UNL     1      13.880  10.400  -5.479  1.00  0.00    -0.080 Cl
BRANCH  22  26
ATOM     26  O   UNL     1      14.438  13.257  -4.686  1.00  0.00    -0.506 OA
ATOM     27  H   UNL     1      15.126  12.842  -4.134  1.00  0.00     0.293 HD
ENDBRANCH  22  26
ENDBRANCH  18  19
ENDBRANCH  17  18
BRANCH  17  28
ATOM     28  O   UNL     1       8.514   9.528  -1.401  1.00  0.00    -0.383 OA
ATOM     29  H   UNL     1       8.358   9.063  -2.254  1.00  0.00     0.211 HD
ENDBRANCH  17  28
ENDBRANCH  14  17
ENDBRANCH  12  13
BRANCH  12  30
ATOM     30  C   UNL     1      12.928  11.555   1.662  1.00  0.00     0.018 C 
ATOM     31  C   UNL     1      13.344  12.327   2.924  1.00  0.00     0.010 C 
BRANCH  30  32
ATOM     32  C   UNL     1      13.307  12.361   0.396  1.00  0.00     0.002 C 
ATOM     33  C   UNL     1      13.805  11.531  -0.780  1.00  0.00     0.004 C 
ENDBRANCH  30  32
ENDBRANCH  12  30
ENDBRANCH  10  12
ENDBRANCH   1  10
BRANCH   5  34
ATOM     34  C   UNL     1       8.057   8.984   2.871  1.00  0.00     0.242 C 
ATOM     35  O   UNL     1       8.006   9.679   1.857  1.00  0.00    -0.273 OA
ATOM     36  N   UNL     1       7.151   7.979   3.125  1.00  0.00    -0.354 N 
ATOM     37  H   UNL     1       7.169   7.518   4.036  1.00  0.00     0.163 HD
BRANCH  36  38
ATOM     38  C   UNL     1       6.242   7.483   2.112  1.00  0.00     0.116 C 
BRANCH  38  39
ATOM     39  C   UNL     1       4.827   7.400   2.681  1.00  0.00     0.023 C 
BRANCH  39  40
ATOM     40  C   UNL     1       4.744   7.915   4.114  1.00  0.00     0.026 C 
BRANCH  40  41
ATOM     41  C   UNL     1       3.813   9.124   4.202  1.00  0.00     0.146 C 
BRANCH  41  42
ATOM     42  N   UNL     1       3.689   9.747   2.891  1.00  0.00    -0.254 NA
ATOM     43  C   UNL     1       4.470  10.710   2.572  1.00  0.00     0.185 C 
ATOM     44  N   UNL     1       5.456  11.295   3.277  1.00  0.00    -0.370 N 
ATOM     45  N   UNL     1       4.337  11.275   1.361  1.00  0.00    -0.370 N 
ATOM     46  H   UNL     1       5.820  12.191   3.003  1.00  0.00     0.159 HD
ATOM     47  H   UNL     1       5.701  10.982   4.211  1.00  0.00     0.159 HD
ATOM     48  H   UNL     1       3.620  10.887   0.762  1.00  0.00     0.159 HD
ATOM     49  H   UNL     1       5.045  11.857   0.951  1.00  0.00     0.159 HD
ENDBRANCH  41  42
ENDBRANCH  40  41
ENDBRANCH  39  40
ENDBRANCH  38  39
ENDBRANCH  36  38
ENDBRANCH   5  34
BRANCH   8  50
ATOM     50  O   UNL     1       6.984  13.533   3.709  1.00  0.00    -0.245 OA
BRANCH  50  51
ATOM     51  S   UNL     1       6.701  14.154   2.232  1.00  0.00     0.397 S 
ATOM     52  O   UNL     1       7.662  15.208   2.000  1.00  0.00    -0.169 OA
ATOM     53  O   UNL     1       5.279  14.371   2.061  1.00  0.00    -0.169 OA
BRANCH  51  54
ATOM     54  O   UNL     1       7.137  12.943   1.269  1.00  0.00    -0.264 OA
ATOM     55  H   UNL     1       7.553  12.254   1.826  1.00  0.00     0.236 HD
ENDBRANCH  51  54
ENDBRANCH  50  51
ENDBRANCH   8  50
TORSDOF 19
ENDMDL
MODEL 26
REMARK VINA RESULT:    -5.452      4.910     10.744
REMARK INTER + INTRA:         -15.798
REMARK INTER:                 -14.150
REMARK INTRA:                  -1.648
REMARK UNBOUND:                -4.768
REMARK SMILES CC[C@@H](C)[C@@H](NC(=O)[C@@H](O)Cc1ccc(O)c(Cl)c1)C(=O)N1[C@H](C(=O)NCCCCN=C(N)N)C[C@H]2CC[C@H](OS(=O)(=O)O)C[C@@H]21
REMARK SMILES IDX 22 1 36 2 46 3 35 4 23 5 45 6 37 7 39 8 38 9 20 10 21 11
REMARK SMILES IDX 5 12 6 13 7 14 8 15 9 17 11 18 12 19 17 20 19 21 15 22 14 23
REMARK SMILES IDX 13 24 18 25 16 26 10 28 3 30 4 31 2 32 1 33 24 34 25 35
REMARK SMILES IDX 26 36 27 38 28 39 29 40 30 41 31 42 32 43 33 44 34 45 40 50
REMARK SMILES IDX 41 51 42 52 43 53 44 54
REMARK H PARENT 6 16 16 27 10 29 26 37 33 46 33 47 34 48 34 49 44 55
ROOT
ATOM      1  N   UNL     1       6.949   9.775   2.926  1.00  0.00    -0.326 N 
ATOM      2  C   UNL     1       4.903  10.873   3.311  1.00  0.00     0.014 C 
ATOM      3  C   UNL     1       6.193  10.952   2.490  1.00  0.00     0.091 C 
ATOM      4  C   UNL     1       5.381  10.288   4.631  1.00  0.00     0.041 C 
ATOM      5  C   UNL     1       6.301   9.166   4.114  1.00  0.00     0.175 C 
ATOM      6  C   UNL     1       5.819  11.066   1.013  1.00  0.00     0.059 C 
ATOM      7  C   UNL     1       4.176  12.203   3.308  1.00  0.00     0.008 C 
ATOM      8  C   UNL     1       4.494  11.819   0.764  1.00  0.00     0.143 C 
ATOM      9  C   UNL     1       4.175  12.820   1.893  1.00  0.00     0.034 C 
ENDROOT
BRANCH   1  10
ATOM     10  C   UNL     1       8.204   9.333   2.541  1.00  0.00     0.246 C 
ATOM     11  O   UNL     1       8.327   8.188   2.093  1.00  0.00    -0.272 OA
BRANCH  10  12
ATOM     12  C   UNL     1       9.420  10.299   2.641  1.00  0.00     0.174 C 
BRANCH  12  13
ATOM     13  N   UNL     1      10.193  10.258   1.400  1.00  0.00    -0.342 N 
ATOM     14  C   UNL     1      10.434  11.339   0.583  1.00  0.00     0.249 C 
ATOM     15  O   UNL     1      10.046  12.476   0.824  1.00  0.00    -0.272 OA
ATOM     16  H   UNL     1      10.444   9.360   0.992  1.00  0.00     0.164 HD
BRANCH  14  17
ATOM     17  C   UNL     1      11.267  10.970  -0.663  1.00  0.00     0.207 C 
BRANCH  17  18
ATOM     18  C   UNL     1      11.571  12.222  -1.493  1.00  0.00     0.077 C 
BRANCH  18  19
ATOM     19  C   UNL     1      12.487  11.915  -2.657  1.00  0.00    -0.043 A 
ATOM     20  C   UNL     1      12.825  11.585  -5.036  1.00  0.00     0.083 A 
ATOM     21  C   UNL     1      11.989  11.917  -3.969  1.00  0.00     0.028 A 
ATOM     22  C   UNL     1      14.158  11.248  -4.801  1.00  0.00     0.134 A 
ATOM     23  C   UNL     1      14.664  11.242  -3.506  1.00  0.00     0.048 A 
ATOM     24  C   UNL     1      13.830  11.572  -2.436  1.00  0.00     0.008 A 
ATOM     25  Cl  UNL     1      12.194  11.593  -6.642  1.00  0.00    -0.080 Cl
BRANCH  22  26
ATOM     26  O   UNL     1      15.012  10.905  -5.813  1.00  0.00    -0.506 OA
ATOM     27  H   UNL     1      15.904  11.185  -5.535  1.00  0.00     0.293 HD
ENDBRANCH  22  26
ENDBRANCH  18  19
ENDBRANCH  17  18
BRANCH  17  28
ATOM     28  O   UNL     1      10.577  10.012  -1.481  1.00  0.00    -0.383 OA
ATOM     29  H   UNL     1      10.552  10.396  -2.387  1.00  0.00     0.211 HD
ENDBRANCH  17  28
ENDBRANCH  14  17
ENDBRANCH  12  13
BRANCH  12  30
ATOM     30  C   UNL     1      10.297  10.031   3.894  1.00  0.00     0.018 C 
ATOM     31  C   UNL     1      11.745   9.713   3.489  1.00  0.00     0.010 C 
BRANCH  30  32
ATOM     32  C   UNL     1       9.744   8.915   4.813  1.00  0.00     0.002 C 
ATOM     33  C   UNL     1      10.672   7.725   5.023  1.00  0.00     0.004 C 
ENDBRANCH  30  32
ENDBRANCH  12  30
ENDBRANCH  10  12
ENDBRANCH   1  10
BRANCH   5  34
ATOM     34  C   UNL     1       5.493   7.903   3.713  1.00  0.00     0.242 C 
ATOM     35  O   UNL     1       5.184   7.662   2.546  1.00  0.00    -0.273 OA
ATOM     36  N   UNL     1       5.101   7.101   4.762  1.00  0.00    -0.354 N 
ATOM     37  H   UNL     1       5.284   7.416   5.715  1.00  0.00     0.163 HD
BRANCH  36  38
ATOM     38  C   UNL     1       4.533   5.785   4.558  1.00  0.00     0.116 C 
BRANCH  38  39
ATOM     39  C   UNL     1       3.948   5.264   5.869  1.00  0.00     0.023 C 
BRANCH  39  40
ATOM     40  C   UNL     1       3.264   6.361   6.678  1.00  0.00     0.026 C 
BRANCH  40  41
ATOM     41  C   UNL     1       3.212   5.989   8.160  1.00  0.00     0.146 C 
BRANCH  41  42
ATOM     42  N   UNL     1       2.700   7.113   8.932  1.00  0.00    -0.254 NA
ATOM     43  C   UNL     1       1.917   6.897   9.922  1.00  0.00     0.185 C 
ATOM     44  N   UNL     1       1.448   5.738  10.417  1.00  0.00    -0.370 N 
ATOM     45  N   UNL     1       1.452   7.948  10.618  1.00  0.00    -0.370 N 
ATOM     46  H   UNL     1       0.656   5.728  11.037  1.00  0.00     0.159 HD
ATOM     47  H   UNL     1       1.711   4.842  10.017  1.00  0.00     0.159 HD
ATOM     48  H   UNL     1       1.765   8.860  10.316  1.00  0.00     0.159 HD
ATOM     49  H   UNL     1       1.040   7.856  11.529  1.00  0.00     0.159 HD
ENDBRANCH  41  42
ENDBRANCH  40  41
ENDBRANCH  39  40
ENDBRANCH  38  39
ENDBRANCH  36  38
ENDBRANCH   5  34
BRANCH   8  50
ATOM     50  O   UNL     1       3.414  10.890   0.663  1.00  0.00    -0.245 OA
BRANCH  50  51
ATOM     51  S   UNL     1       2.418  10.952  -0.621  1.00  0.00     0.397 S 
ATOM     52  O   UNL     1       1.908  12.301  -0.726  1.00  0.00    -0.169 OA
ATOM     53  O   UNL     1       1.534   9.805  -0.607  1.00  0.00    -0.169 OA
BRANCH  51  54
ATOM     54  O   UNL     1       3.442  10.774  -1.848  1.00  0.00    -0.264 OA
ATOM     55  H   UNL     1       4.230  11.324  -1.661  1.00  0.00     0.236 HD
ENDBRANCH  51  54
ENDBRANCH  50  51
ENDBRANCH   8  50
TORSDOF 19
ENDMDL
MODEL 27
REMARK VINA RESULT:    -5.445      3.475      5.111
REMARK INTER + INTRA:         -15.783
REMARK INTER:                 -10.926
REMARK INTRA:                  -4.857
REMARK UNBOUND:                -4.768
REMARK SMILES CC[C@@H](C)[C@@H](NC(=O)[C@@H](O)Cc1ccc(O)c(Cl)c1)C(=O)N1[C@H](C(=O)NCCCCN=C(N)N)C[C@H]2CC[C@H](OS(=O)(=O)O)C[C@@H]21
REMARK SMILES IDX 22 1 36 2 46 3 35 4 23 5 45 6 37 7 39 8 38 9 20 10 21 11
REMARK SMILES IDX 5 12 6 13 7 14 8 15 9 17 11 18 12 19 17 20 19 21 15 22 14 23
REMARK SMILES IDX 13 24 18 25 16 26 10 28 3 30 4 31 2 32 1 33 24 34 25 35
REMARK SMILES IDX 26 36 27 38 28 39 29 40 30 41 31 42 32 43 33 44 34 45 40 50
REMARK SMILES IDX 41 51 42 52 43 53 44 54
REMARK H PARENT 6 16 16 27 10 29 26 37 33 46 33 47 34 48 34 49 44 55
ROOT
ATOM      1  N   UNL     1      10.205  12.588   2.905  1.00  0.00    -0.326 N 
ATOM      2  C   UNL     1      11.907  13.752   1.769  1.00  0.00     0.014 C 
ATOM      3  C   UNL     1      11.603  12.436   2.492  1.00  0.00     0.091 C 
ATOM      4  C   UNL     1      11.085  14.763   2.554  1.00  0.00     0.041 C 
ATOM      5  C   UNL     1       9.762  13.988   2.693  1.00  0.00     0.175 C 
ATOM      6  C   UNL     1      11.962  11.279   1.561  1.00  0.00     0.059 C 
ATOM      7  C   UNL     1      13.402  13.959   1.627  1.00  0.00     0.008 C 
ATOM      8  C   UNL     1      13.144  11.586   0.616  1.00  0.00     0.143 C 
ATOM      9  C   UNL     1      14.096  12.647   1.205  1.00  0.00     0.034 C 
ENDROOT
BRANCH   1  10
ATOM     10  C   UNL     1       9.390  11.723   3.616  1.00  0.00     0.246 C 
ATOM     11  O   UNL     1       9.200  11.927   4.819  1.00  0.00    -0.272 OA
BRANCH  10  12
ATOM     12  C   UNL     1       8.699  10.540   2.877  1.00  0.00     0.174 C 
BRANCH  12  13
ATOM     13  N   UNL     1       7.276  10.827   2.699  1.00  0.00    -0.342 N 
ATOM     14  C   UNL     1       6.542  10.521   1.575  1.00  0.00     0.249 C 
ATOM     15  O   UNL     1       7.001   9.942   0.598  1.00  0.00    -0.272 OA
ATOM     16  H   UNL     1       6.799  11.439   3.356  1.00  0.00     0.164 HD
BRANCH  14  17
ATOM     17  C   UNL     1       5.069  10.967   1.685  1.00  0.00     0.207 C 
BRANCH  17  18
ATOM     18  C   UNL     1       4.144   9.748   1.756  1.00  0.00     0.077 C 
BRANCH  18  19
ATOM     19  C   UNL     1       4.075   9.176   3.154  1.00  0.00    -0.043 A 
ATOM     20  C   UNL     1       3.967   7.261   4.640  1.00  0.00     0.083 A 
ATOM     21  C   UNL     1       4.080   7.786   3.352  1.00  0.00     0.028 A 
ATOM     22  C   UNL     1       3.845   8.117   5.735  1.00  0.00     0.134 A 
ATOM     23  C   UNL     1       3.838   9.495   5.553  1.00  0.00     0.048 A 
ATOM     24  C   UNL     1       3.950  10.024   4.266  1.00  0.00     0.008 A 
ATOM     25  Cl  UNL     1       3.975   5.551   4.862  1.00  0.00    -0.080 Cl
BRANCH  22  26
ATOM     26  O   UNL     1       3.720   7.648   7.015  1.00  0.00    -0.506 OA
ATOM     27  H   UNL     1       4.623   7.582   7.378  1.00  0.00     0.293 HD
ENDBRANCH  22  26
ENDBRANCH  18  19
ENDBRANCH  17  18
BRANCH  17  28
ATOM     28  O   UNL     1       4.691  11.787   0.568  1.00  0.00    -0.383 OA
ATOM     29  H   UNL     1       3.889  11.368   0.181  1.00  0.00     0.211 HD
ENDBRANCH  17  28
ENDBRANCH  14  17
ENDBRANCH  12  13
BRANCH  12  30
ATOM     30  C   UNL     1       8.946   9.173   3.570  1.00  0.00     0.018 C 
ATOM     31  C   UNL     1       7.933   8.944   4.702  1.00  0.00     0.010 C 
BRANCH  30  32
ATOM     32  C   UNL     1      10.389   8.999   4.104  1.00  0.00     0.002 C 
ATOM     33  C   UNL     1      10.590   7.838   5.069  1.00  0.00     0.004 C 
ENDBRANCH  30  32
ENDBRANCH  12  30
ENDBRANCH  10  12
ENDBRANCH   1  10
BRANCH   5  34
ATOM     34  C   UNL     1       8.894  14.103   1.412  1.00  0.00     0.242 C 
ATOM     35  O   UNL     1       8.538  13.116   0.768  1.00  0.00    -0.273 OA
ATOM     36  N   UNL     1       8.598  15.389   1.018  1.00  0.00    -0.354 N 
ATOM     37  H   UNL     1       9.022  16.167   1.524  1.00  0.00     0.163 HD
BRANCH  36  38
ATOM     38  C   UNL     1       7.630  15.676  -0.020  1.00  0.00     0.116 C 
BRANCH  38  39
ATOM     39  C   UNL     1       8.309  16.407  -1.175  1.00  0.00     0.023 C 
BRANCH  39  40
ATOM     40  C   UNL     1       7.996  15.777  -2.528  1.00  0.00     0.026 C 
BRANCH  40  41
ATOM     41  C   UNL     1       7.549  14.325  -2.360  1.00  0.00     0.146 C 
BRANCH  41  42
ATOM     42  N   UNL     1       8.223  13.486  -3.341  1.00  0.00    -0.254 NA
ATOM     43  C   UNL     1       9.310  12.889  -3.023  1.00  0.00     0.185 C 
ATOM     44  N   UNL     1       9.993  12.894  -1.864  1.00  0.00    -0.370 N 
ATOM     45  N   UNL     1       9.919  12.123  -3.943  1.00  0.00    -0.370 N 
ATOM     46  H   UNL     1      10.949  12.583  -1.830  1.00  0.00     0.159 HD
ATOM     47  H   UNL     1       9.665  13.412  -1.054  1.00  0.00     0.159 HD
ATOM     48  H   UNL     1       9.465  12.057  -4.844  1.00  0.00     0.159 HD
ATOM     49  H   UNL     1      10.625  11.447  -3.708  1.00  0.00     0.159 HD
ENDBRANCH  41  42
ENDBRANCH  40  41
ENDBRANCH  39  40
ENDBRANCH  38  39
ENDBRANCH  36  38
ENDBRANCH   5  34
BRANCH   8  50
ATOM     50  O   UNL     1      12.657  12.060  -0.640  1.00  0.00    -0.245 OA
BRANCH  50  51
ATOM     51  S   UNL     1      12.970  11.214  -1.993  1.00  0.00     0.397 S 
ATOM     52  O   UNL     1      11.846  10.340  -2.243  1.00  0.00    -0.169 OA
ATOM     53  O   UNL     1      14.328  10.711  -1.949  1.00  0.00    -0.169 OA
BRANCH  51  54
ATOM     54  O   UNL     1      12.899  12.353  -3.125  1.00  0.00    -0.264 OA
ATOM     55  H   UNL     1      12.971  13.222  -2.679  1.00  0.00     0.236 HD
ENDBRANCH  51  54
ENDBRANCH  50  51
ENDBRANCH   8  50
TORSDOF 19
ENDMDL
MODEL 28
REMARK VINA RESULT:    -5.430      2.715      4.729
REMARK INTER + INTRA:         -15.752
REMARK INTER:                 -12.105
REMARK INTRA:                  -3.648
REMARK UNBOUND:                -4.768
REMARK SMILES CC[C@@H](C)[C@@H](NC(=O)[C@@H](O)Cc1ccc(O)c(Cl)c1)C(=O)N1[C@H](C(=O)NCCCCN=C(N)N)C[C@H]2CC[C@H](OS(=O)(=O)O)C[C@@H]21
REMARK SMILES IDX 22 1 36 2 46 3 35 4 23 5 45 6 37 7 39 8 38 9 20 10 21 11
REMARK SMILES IDX 5 12 6 13 7 14 8 15 9 17 11 18 12 19 17 20 19 21 15 22 14 23
REMARK SMILES IDX 13 24 18 25 16 26 10 28 3 30 4 31 2 32 1 33 24 34 25 35
REMARK SMILES IDX 26 36 27 38 28 39 29 40 30 41 31 42 32 43 33 44 34 45 40 50
REMARK SMILES IDX 41 51 42 52 43 53 44 54
REMARK H PARENT 6 16 16 27 10 29 26 37 33 46 33 47 34 48 34 49 44 55
ROOT
ATOM      1  N   UNL     1       7.117   9.765   3.242  1.00  0.00    -0.326 N 
ATOM      2  C   UNL     1       7.630  10.254   0.997  1.00  0.00     0.014 C 
ATOM      3  C   UNL     1       6.754  10.699   2.172  1.00  0.00     0.091 C 
ATOM      4  C   UNL     1       7.693   8.745   1.179  1.00  0.00     0.041 C 
ATOM      5  C   UNL     1       7.948   8.664   2.695  1.00  0.00     0.175 C 
ATOM      6  C   UNL     1       6.981  12.191   2.405  1.00  0.00     0.059 C 
ATOM      7  C   UNL     1       7.114  10.824  -0.310  1.00  0.00     0.008 C 
ATOM      8  C   UNL     1       7.305  12.979   1.117  1.00  0.00     0.143 C 
ATOM      9  C   UNL     1       6.716  12.305  -0.138  1.00  0.00     0.034 C 
ENDROOT
BRANCH   1  10
ATOM     10  C   UNL     1       6.635   9.668   4.536  1.00  0.00     0.246 C 
ATOM     11  O   UNL     1       7.404   9.878   5.481  1.00  0.00    -0.272 OA
BRANCH  10  12
ATOM     12  C   UNL     1       5.133   9.340   4.773  1.00  0.00     0.174 C 
BRANCH  12  13
ATOM     13  N   UNL     1       4.825   9.412   6.201  1.00  0.00    -0.342 N 
ATOM     14  C   UNL     1       4.104  10.417   6.805  1.00  0.00     0.249 C 
ATOM     15  O   UNL     1       3.610  11.360   6.200  1.00  0.00    -0.272 OA
ATOM     16  H   UNL     1       5.298   8.787   6.850  1.00  0.00     0.164 HD
BRANCH  14  17
ATOM     17  C   UNL     1       3.965  10.217   8.329  1.00  0.00     0.207 C 
BRANCH  17  18
ATOM     18  C   UNL     1       2.522   9.852   8.693  1.00  0.00     0.077 C 
BRANCH  18  19
ATOM     19  C   UNL     1       2.423   8.456   9.265  1.00  0.00    -0.043 A 
ATOM     20  C   UNL     1       3.087   6.123   9.245  1.00  0.00     0.083 A 
ATOM     21  C   UNL     1       3.217   7.421   8.748  1.00  0.00     0.028 A 
ATOM     22  C   UNL     1       2.165   5.852  10.257  1.00  0.00     0.134 A 
ATOM     23  C   UNL     1       1.373   6.868  10.778  1.00  0.00     0.048 A 
ATOM     24  C   UNL     1       1.499   8.168  10.282  1.00  0.00     0.008 A 
ATOM     25  Cl  UNL     1       4.071   4.864   8.597  1.00  0.00    -0.080 Cl
BRANCH  22  26
ATOM     26  O   UNL     1       1.995   4.594  10.769  1.00  0.00    -0.506 OA
ATOM     27  H   UNL     1       2.448   4.579  11.632  1.00  0.00     0.293 HD
ENDBRANCH  22  26
ENDBRANCH  18  19
ENDBRANCH  17  18
BRANCH  17  28
ATOM     28  O   UNL     1       4.351  11.403   9.044  1.00  0.00    -0.383 OA
ATOM     29  H   UNL     1       5.275  11.599   8.766  1.00  0.00     0.211 HD
ENDBRANCH  17  28
ENDBRANCH  14  17
ENDBRANCH  12  13
BRANCH  12  30
ATOM     30  C   UNL     1       4.707   7.987   4.143  1.00  0.00     0.018 C 
ATOM     31  C   UNL     1       3.945   8.212   2.827  1.00  0.00     0.010 C 
BRANCH  30  32
ATOM     32  C   UNL     1       3.874   7.093   5.093  1.00  0.00     0.002 C 
ATOM     33  C   UNL     1       4.079   5.593   4.923  1.00  0.00     0.004 C 
ENDBRANCH  30  32
ENDBRANCH  12  30
ENDBRANCH  10  12
ENDBRANCH   1  10
BRANCH   5  34
ATOM     34  C   UNL     1       9.446   8.885   3.036  1.00  0.00     0.242 C 
ATOM     35  O   UNL     1      10.302   8.025   2.827  1.00  0.00    -0.273 OA
ATOM     36  N   UNL     1       9.739  10.089   3.636  1.00  0.00    -0.354 N 
ATOM     37  H   UNL     1       8.971  10.711   3.892  1.00  0.00     0.163 HD
BRANCH  36  38
ATOM     38  C   UNL     1      11.100  10.549   3.823  1.00  0.00     0.116 C 
BRANCH  38  39
ATOM     39  C   UNL     1      11.443  11.597   2.767  1.00  0.00     0.023 C 
BRANCH  39  40
ATOM     40  C   UNL     1      12.170  11.000   1.568  1.00  0.00     0.026 C 
BRANCH  40  41
ATOM     41  C   UNL     1      11.211  10.808   0.393  1.00  0.00     0.146 C 
BRANCH  41  42
ATOM     42  N   UNL     1      11.951  10.351  -0.777  1.00  0.00    -0.254 NA
ATOM     43  C   UNL     1      12.133  11.148  -1.762  1.00  0.00     0.185 C 
ATOM     44  N   UNL     1      11.738  12.424  -1.927  1.00  0.00    -0.370 N 
ATOM     45  N   UNL     1      12.813  10.706  -2.832  1.00  0.00    -0.370 N 
ATOM     46  H   UNL     1      11.736  12.846  -2.840  1.00  0.00     0.159 HD
ATOM     47  H   UNL     1      11.223  12.920  -1.207  1.00  0.00     0.159 HD
ATOM     48  H   UNL     1      13.154   9.755  -2.786  1.00  0.00     0.159 HD
ATOM     49  H   UNL     1      13.197  11.323  -3.525  1.00  0.00     0.159 HD
ENDBRANCH  41  42
ENDBRANCH  40  41
ENDBRANCH  39  40
ENDBRANCH  38  39
ENDBRANCH  36  38
ENDBRANCH   5  34
BRANCH   8  50
ATOM     50  O   UNL     1       8.719  13.089   0.952  1.00  0.00    -0.245 OA
BRANCH  50  51
ATOM     51  S   UNL     1       9.334  14.337   0.109  1.00  0.00     0.397 S 
ATOM     52  O   UNL     1       8.800  15.559   0.667  1.00  0.00    -0.169 OA
ATOM     53  O   UNL     1       9.256  14.051  -1.309  1.00  0.00    -0.169 OA
BRANCH  51  54
ATOM     54  O   UNL     1      10.883  14.299   0.538  1.00  0.00    -0.264 OA
ATOM     55  H   UNL     1      11.132  15.198   0.836  1.00  0.00     0.236 HD
ENDBRANCH  51  54
ENDBRANCH  50  51
ENDBRANCH   8  50
TORSDOF 19
ENDMDL
MODEL 29
REMARK VINA RESULT:    -5.385      3.773      9.454
REMARK INTER + INTRA:         -15.662
REMARK INTER:                 -12.447
REMARK INTRA:                  -3.215
REMARK UNBOUND:                -4.768
REMARK SMILES CC[C@@H](C)[C@@H](NC(=O)[C@@H](O)Cc1ccc(O)c(Cl)c1)C(=O)N1[C@H](C(=O)NCCCCN=C(N)N)C[C@H]2CC[C@H](OS(=O)(=O)O)C[C@@H]21
REMARK SMILES IDX 22 1 36 2 46 3 35 4 23 5 45 6 37 7 39 8 38 9 20 10 21 11
REMARK SMILES IDX 5 12 6 13 7 14 8 15 9 17 11 18 12 19 17 20 19 21 15 22 14 23
REMARK SMILES IDX 13 24 18 25 16 26 10 28 3 30 4 31 2 32 1 33 24 34 25 35
REMARK SMILES IDX 26 36 27 38 28 39 29 40 30 41 31 42 32 43 33 44 34 45 40 50
REMARK SMILES IDX 41 51 42 52 43 53 44 54
REMARK H PARENT 6 16 16 27 10 29 26 37 33 46 33 47 34 48 34 49 44 55
ROOT
ATOM      1  N   UNL     1       6.694  10.891   4.593  1.00  0.00    -0.326 N 
ATOM      2  C   UNL     1       4.769  10.067   3.516  1.00  0.00     0.014 C 
ATOM      3  C   UNL     1       6.201   9.691   3.910  1.00  0.00     0.091 C 
ATOM      4  C   UNL     1       4.886  11.551   3.206  1.00  0.00     0.041 C 
ATOM      5  C   UNL     1       5.742  12.013   4.400  1.00  0.00     0.175 C 
ATOM      6  C   UNL     1       6.158   8.379   4.692  1.00  0.00     0.059 C 
ATOM      7  C   UNL     1       4.234   9.126   2.455  1.00  0.00     0.008 C 
ATOM      8  C   UNL     1       5.020   7.432   4.254  1.00  0.00     0.143 C 
ATOM      9  C   UNL     1       4.605   7.665   2.787  1.00  0.00     0.034 C 
ENDROOT
BRANCH   1  10
ATOM     10  C   UNL     1       7.934  11.147   5.152  1.00  0.00     0.246 C 
ATOM     11  O   UNL     1       8.043  11.187   6.382  1.00  0.00    -0.272 OA
BRANCH  10  12
ATOM     12  C   UNL     1       9.169  11.337   4.224  1.00  0.00     0.174 C 
BRANCH  12  13
ATOM     13  N   UNL     1       8.765  11.211   2.824  1.00  0.00    -0.342 N 
ATOM     14  C   UNL     1       8.773  12.236   1.905  1.00  0.00     0.249 C 
ATOM     15  O   UNL     1       9.149  13.374   2.155  1.00  0.00    -0.272 OA
ATOM     16  H   UNL     1       8.284  10.372   2.512  1.00  0.00     0.164 HD
BRANCH  14  17
ATOM     17  C   UNL     1       8.273  11.792   0.514  1.00  0.00     0.207 C 
BRANCH  17  18
ATOM     18  C   UNL     1       8.926  10.467   0.108  1.00  0.00     0.077 C 
BRANCH  18  19
ATOM     19  C   UNL     1      10.325  10.670  -0.428  1.00  0.00    -0.043 A 
ATOM     20  C   UNL     1      12.642  11.294  -0.073  1.00  0.00     0.083 A 
ATOM     21  C   UNL     1      11.364  11.059   0.433  1.00  0.00     0.028 A 
ATOM     22  C   UNL     1      12.891  11.144  -1.438  1.00  0.00     0.134 A 
ATOM     23  C   UNL     1      11.872  10.760  -2.302  1.00  0.00     0.048 A 
ATOM     24  C   UNL     1      10.591  10.526  -1.798  1.00  0.00     0.008 A 
ATOM     25  Cl  UNL     1      13.905  11.771   1.000  1.00  0.00    -0.080 Cl
BRANCH  22  26
ATOM     26  O   UNL     1      14.126  11.373  -1.982  1.00  0.00    -0.506 OA
ATOM     27  H   UNL     1      14.295  12.330  -1.900  1.00  0.00     0.293 HD
ENDBRANCH  22  26
ENDBRANCH  18  19
ENDBRANCH  17  18
BRANCH  17  28
ATOM     28  O   UNL     1       8.559  12.788  -0.481  1.00  0.00    -0.383 OA
ATOM     29  H   UNL     1       7.979  13.555  -0.273  1.00  0.00     0.211 HD
ENDBRANCH  17  28
ENDBRANCH  14  17
ENDBRANCH  12  13
BRANCH  12  30
ATOM     30  C   UNL     1      10.344  10.389   4.589  1.00  0.00     0.018 C 
ATOM     31  C   UNL     1      11.696  11.059   4.298  1.00  0.00     0.010 C 
BRANCH  30  32
ATOM     32  C   UNL     1      10.272   9.011   3.887  1.00  0.00     0.002 C 
ATOM     33  C   UNL     1      11.560   8.199   3.913  1.00  0.00     0.004 C 
ENDBRANCH  30  32
ENDBRANCH  12  30
ENDBRANCH  10  12
ENDBRANCH   1  10
BRANCH   5  34
ATOM     34  C   UNL     1       4.880  12.227   5.673  1.00  0.00     0.242 C 
ATOM     35  O   UNL     1       4.123  13.190   5.801  1.00  0.00    -0.273 OA
ATOM     36  N   UNL     1       5.063  11.294   6.669  1.00  0.00    -0.354 N 
ATOM     37  H   UNL     1       5.792  10.588   6.553  1.00  0.00     0.163 HD
BRANCH  36  38
ATOM     38  C   UNL     1       4.195  11.216   7.825  1.00  0.00     0.116 C 
BRANCH  38  39
ATOM     39  C   UNL     1       3.916   9.754   8.166  1.00  0.00     0.023 C 
BRANCH  39  40
ATOM     40  C   UNL     1       3.784   9.521   9.667  1.00  0.00     0.026 C 
BRANCH  40  41
ATOM     41  C   UNL     1       2.632   8.562   9.967  1.00  0.00     0.146 C 
BRANCH  41  42
ATOM     42  N   UNL     1       3.149   7.211  10.143  1.00  0.00    -0.254 NA
ATOM     43  C   UNL     1       2.463   6.212   9.730  1.00  0.00     0.185 C 
ATOM     44  N   UNL     1       1.265   6.178   9.119  1.00  0.00    -0.370 N 
ATOM     45  N   UNL     1       2.955   4.974   9.905  1.00  0.00    -0.370 N 
ATOM     46  H   UNL     1       0.736   5.324   9.073  1.00  0.00     0.159 HD
ATOM     47  H   UNL     1       0.756   7.028   8.897  1.00  0.00     0.159 HD
ATOM     48  H   UNL     1       3.860   4.911  10.351  1.00  0.00     0.159 HD
ATOM     49  H   UNL     1       2.604   4.174   9.410  1.00  0.00     0.159 HD
ENDBRANCH  41  42
ENDBRANCH  40  41
ENDBRANCH  39  40
ENDBRANCH  38  39
ENDBRANCH  36  38
ENDBRANCH   5  34
BRANCH   8  50
ATOM     50  O   UNL     1       3.875   7.624   5.085  1.00  0.00    -0.245 OA
BRANCH  50  51
ATOM     51  S   UNL     1       3.224   6.352   5.861  1.00  0.00     0.397 S 
ATOM     52  O   UNL     1       3.666   5.148   5.194  1.00  0.00    -0.169 OA
ATOM     53  O   UNL     1       1.822   6.606   6.120  1.00  0.00    -0.169 OA
BRANCH  51  54
ATOM     54  O   UNL     1       4.001   6.383   7.269  1.00  0.00    -0.264 OA
ATOM     55  H   UNL     1       4.906   6.043   7.118  1.00  0.00     0.236 HD
ENDBRANCH  51  54
ENDBRANCH  50  51
ENDBRANCH   8  50
TORSDOF 19
ENDMDL
MODEL 30
REMARK VINA RESULT:    -5.385      3.172      5.261
REMARK INTER + INTRA:         -15.661
REMARK INTER:                 -12.194
REMARK INTRA:                  -3.467
REMARK UNBOUND:                -4.768
REMARK SMILES CC[C@@H](C)[C@@H](NC(=O)[C@@H](O)Cc1ccc(O)c(Cl)c1)C(=O)N1[C@H](C(=O)NCCCCN=C(N)N)C[C@H]2CC[C@H](OS(=O)(=O)O)C[C@@H]21
REMARK SMILES IDX 22 1 36 2 46 3 35 4 23 5 45 6 37 7 39 8 38 9 20 10 21 11
REMARK SMILES IDX 5 12 6 13 7 14 8 15 9 17 11 18 12 19 17 20 19 21 15 22 14 23
REMARK SMILES IDX 13 24 18 25 16 26 10 28 3 30 4 31 2 32 1 33 24 34 25 35
REMARK SMILES IDX 26 36 27 38 28 39 29 40 30 41 31 42 32 43 33 44 34 45 40 50
REMARK SMILES IDX 41 51 42 52 43 53 44 54
REMARK H PARENT 6 16 16 27 10 29 26 37 33 46 33 47 34 48 34 49 44 55
ROOT
ATOM      1  N   UNL     1       7.396  10.259   3.946  1.00  0.00    -0.326 N 
ATOM      2  C   UNL     1       9.591   9.859   4.697  1.00  0.00     0.014 C 
ATOM      3  C   UNL     1       8.574   9.447   3.629  1.00  0.00     0.091 C 
ATOM      4  C   UNL     1       8.714  10.115   5.913  1.00  0.00     0.041 C 
ATOM      5  C   UNL     1       7.575  10.920   5.263  1.00  0.00     0.175 C 
ATOM      6  C   UNL     1       9.220   9.615   2.255  1.00  0.00     0.059 C 
ATOM      7  C   UNL     1      10.717   8.848   4.791  1.00  0.00     0.008 C 
ATOM      8  C   UNL     1      10.745   9.368   2.252  1.00  0.00     0.143 C 
ATOM      9  C   UNL     1      11.180   8.416   3.384  1.00  0.00     0.034 C 
ENDROOT
BRANCH   1  10
ATOM     10  C   UNL     1       6.155  10.302   3.333  1.00  0.00     0.246 C 
ATOM     11  O   UNL     1       6.024  10.947   2.287  1.00  0.00    -0.272 OA
BRANCH  10  12
ATOM     12  C   UNL     1       4.968   9.506   3.947  1.00  0.00     0.174 C 
BRANCH  12  13
ATOM     13  N   UNL     1       4.533  10.140   5.192  1.00  0.00    -0.342 N 
ATOM     14  C   UNL     1       3.768  11.282   5.272  1.00  0.00     0.249 C 
ATOM     15  O   UNL     1       3.339  11.885   4.296  1.00  0.00    -0.272 OA
ATOM     16  H   UNL     1       4.940   9.845   6.076  1.00  0.00     0.164 HD
BRANCH  14  17
ATOM     17  C   UNL     1       3.491  11.712   6.728  1.00  0.00     0.207 C 
BRANCH  17  18
ATOM     18  C   UNL     1       3.186  10.488   7.599  1.00  0.00     0.077 C 
BRANCH  18  19
ATOM     19  C   UNL     1       3.584  10.712   9.041  1.00  0.00    -0.043 A 
ATOM     20  C   UNL     1       2.971  11.150  11.347  1.00  0.00     0.083 A 
ATOM     21  C   UNL     1       2.601  10.895  10.026  1.00  0.00     0.028 A 
ATOM     22  C   UNL     1       4.321  11.226  11.691  1.00  0.00     0.134 A 
ATOM     23  C   UNL     1       5.305  11.047  10.725  1.00  0.00     0.048 A 
ATOM     24  C   UNL     1       4.937  10.793   9.402  1.00  0.00     0.008 A 
ATOM     25  Cl  UNL     1       1.749  11.372  12.543  1.00  0.00    -0.080 Cl
BRANCH  22  26
ATOM     26  O   UNL     1       4.733  11.485  12.970  1.00  0.00    -0.506 OA
ATOM     27  H   UNL     1       5.672  11.225  13.020  1.00  0.00     0.293 HD
ENDBRANCH  22  26
ENDBRANCH  18  19
ENDBRANCH  17  18
BRANCH  17  28
ATOM     28  O   UNL     1       2.388  12.630   6.795  1.00  0.00    -0.383 OA
ATOM     29  H   UNL     1       2.249  12.955   5.876  1.00  0.00     0.211 HD
ENDBRANCH  17  28
ENDBRANCH  14  17
ENDBRANCH  12  13
BRANCH  12  30
ATOM     30  C   UNL     1       5.287   7.998   4.131  1.00  0.00     0.018 C 
ATOM     31  C   UNL     1       5.330   7.280   2.773  1.00  0.00     0.010 C 
BRANCH  30  32
ATOM     32  C   UNL     1       4.314   7.268   5.088  1.00  0.00     0.002 C 
ATOM     33  C   UNL     1       4.009   5.820   4.728  1.00  0.00     0.004 C 
ENDBRANCH  30  32
ENDBRANCH  12  30
ENDBRANCH  10  12
ENDBRANCH   1  10
BRANCH   5  34
ATOM     34  C   UNL     1       7.960  12.412   5.081  1.00  0.00     0.242 C 
ATOM     35  O   UNL     1       8.048  12.939   3.972  1.00  0.00    -0.273 OA
ATOM     36  N   UNL     1       8.249  13.089   6.246  1.00  0.00    -0.354 N 
ATOM     37  H   UNL     1       8.275  12.567   7.123  1.00  0.00     0.163 HD
BRANCH  36  38
ATOM     38  C   UNL     1       8.414  14.527   6.284  1.00  0.00     0.116 C 
BRANCH  38  39
ATOM     39  C   UNL     1       9.772  14.876   6.889  1.00  0.00     0.023 C 
BRANCH  39  40
ATOM     40  C   UNL     1      10.810  15.227   5.828  1.00  0.00     0.026 C 
BRANCH  40  41
ATOM     41  C   UNL     1      11.372  13.961   5.180  1.00  0.00     0.146 C 
BRANCH  41  42
ATOM     42  N   UNL     1      12.509  14.304   4.335  1.00  0.00    -0.254 NA
ATOM     43  C   UNL     1      13.380  13.410   4.054  1.00  0.00     0.185 C 
ATOM     44  N   UNL     1      13.444  12.117   4.422  1.00  0.00    -0.370 N 
ATOM     45  N   UNL     1      14.423  13.747   3.277  1.00  0.00    -0.370 N 
ATOM     46  H   UNL     1      14.303  11.600   4.333  1.00  0.00     0.159 HD
ATOM     47  H   UNL     1      12.727  11.692   5.001  1.00  0.00     0.159 HD
ATOM     48  H   UNL     1      14.447  14.703   2.948  1.00  0.00     0.159 HD
ATOM     49  H   UNL     1      15.006  13.066   2.824  1.00  0.00     0.159 HD
ENDBRANCH  41  42
ENDBRANCH  40  41
ENDBRANCH  39  40
ENDBRANCH  38  39
ENDBRANCH  36  38
ENDBRANCH   5  34
BRANCH   8  50
ATOM     50  O   UNL     1      11.441  10.605   2.406  1.00  0.00    -0.245 OA
BRANCH  50  51
ATOM     51  S   UNL     1      11.947  11.413   1.088  1.00  0.00     0.397 S 
ATOM     52  O   UNL     1      11.472  12.774   1.189  1.00  0.00    -0.169 OA
ATOM     53  O   UNL     1      11.708  10.610  -0.094  1.00  0.00    -0.169 OA
BRANCH  51  54
ATOM     54  O   UNL     1      13.535  11.484   1.326  1.00  0.00    -0.264 OA
ATOM     55  H   UNL     1      13.861  10.569   1.446  1.00  0.00     0.236 HD
ENDBRANCH  51  54
ENDBRANCH  50  51
ENDBRANCH   8  50
TORSDOF 19
ENDMDL
MODEL 31
REMARK VINA RESULT:    -5.380      3.632      5.332
REMARK INTER + INTRA:         -15.651
REMARK INTER:                 -12.058
REMARK INTRA:                  -3.593
REMARK UNBOUND:                -4.768
REMARK SMILES CC[C@@H](C)[C@@H](NC(=O)[C@@H](O)Cc1ccc(O)c(Cl)c1)C(=O)N1[C@H](C(=O)NCCCCN=C(N)N)C[C@H]2CC[C@H](OS(=O)(=O)O)C[C@@H]21
REMARK SMILES IDX 22 1 36 2 46 3 35 4 23 5 45 6 37 7 39 8 38 9 20 10 21 11
REMARK SMILES IDX 5 12 6 13 7 14 8 15 9 17 11 18 12 19 17 20 19 21 15 22 14 23
REMARK SMILES IDX 13 24 18 25 16 26 10 28 3 30 4 31 2 32 1 33 24 34 25 35
REMARK SMILES IDX 26 36 27 38 28 39 29 40 30 41 31 42 32 43 33 44 34 45 40 50
REMARK SMILES IDX 41 51 42 52 43 53 44 54
REMARK H PARENT 6 16 16 27 10 29 26 37 33 46 33 47 34 48 34 49 44 55
ROOT
ATOM      1  N   UNL     1       9.861  10.862   0.882  1.00  0.00    -0.326 N 
ATOM      2  C   UNL     1      11.765  12.192   0.495  1.00  0.00     0.014 C 
ATOM      3  C   UNL     1      11.210  10.776   0.314  1.00  0.00     0.091 C 
ATOM      4  C   UNL     1      11.141  12.631   1.811  1.00  0.00     0.041 C 
ATOM      5  C   UNL     1       9.694  12.150   1.599  1.00  0.00     0.175 C 
ATOM      6  C   UNL     1      11.353  10.386  -1.156  1.00  0.00     0.059 C 
ATOM      7  C   UNL     1      13.274  12.206   0.347  1.00  0.00     0.008 C 
ATOM      8  C   UNL     1      12.582  11.014  -1.849  1.00  0.00     0.143 C 
ATOM      9  C   UNL     1      13.711  11.332  -0.848  1.00  0.00     0.034 C 
ENDROOT
BRANCH   1  10
ATOM     10  C   UNL     1       8.890   9.884   1.015  1.00  0.00     0.246 C 
ATOM     11  O   UNL     1       8.110   9.681   0.078  1.00  0.00    -0.272 OA
BRANCH  10  12
ATOM     12  C   UNL     1       8.829   9.036   2.318  1.00  0.00     0.174 C 
BRANCH  12  13
ATOM     13  N   UNL     1       7.527   9.206   2.962  1.00  0.00    -0.342 N 
ATOM     14  C   UNL     1       6.450   8.363   2.802  1.00  0.00     0.249 C 
ATOM     15  O   UNL     1       6.474   7.349   2.115  1.00  0.00    -0.272 OA
ATOM     16  H   UNL     1       7.308  10.080   3.434  1.00  0.00     0.164 HD
BRANCH  14  17
ATOM     17  C   UNL     1       5.211   8.821   3.601  1.00  0.00     0.207 C 
BRANCH  17  18
ATOM     18  C   UNL     1       4.262   7.642   3.839  1.00  0.00     0.077 C 
BRANCH  18  19
ATOM     19  C   UNL     1       3.853   7.535   5.291  1.00  0.00    -0.043 A 
ATOM     20  C   UNL     1       3.493   8.568   7.456  1.00  0.00     0.083 A 
ATOM     21  C   UNL     1       3.823   8.678   6.105  1.00  0.00     0.028 A 
ATOM     22  C   UNL     1       3.194   7.319   8.002  1.00  0.00     0.134 A 
ATOM     23  C   UNL     1       3.220   6.179   7.208  1.00  0.00     0.048 A 
ATOM     24  C   UNL     1       3.551   6.285   5.855  1.00  0.00     0.008 A 
ATOM     25  Cl  UNL     1       3.462   9.984   8.440  1.00  0.00    -0.080 Cl
BRANCH  22  26
ATOM     26  O   UNL     1       2.876   7.160   9.324  1.00  0.00    -0.506 OA
ATOM     27  H   UNL     1       2.337   6.349   9.387  1.00  0.00     0.293 HD
ENDBRANCH  22  26
ENDBRANCH  18  19
ENDBRANCH  17  18
BRANCH  17  28
ATOM     28  O   UNL     1       4.508   9.867   2.910  1.00  0.00    -0.383 OA
ATOM     29  H   UNL     1       3.919   9.417   2.263  1.00  0.00     0.211 HD
ENDBRANCH  17  28
ENDBRANCH  14  17
ENDBRANCH  12  13
BRANCH  12  30
ATOM     30  C   UNL     1      10.009   9.331   3.282  1.00  0.00     0.018 C 
ATOM     31  C   UNL     1      11.042   8.193   3.245  1.00  0.00     0.010 C 
BRANCH  30  32
ATOM     32  C   UNL     1       9.568   9.602   4.741  1.00  0.00     0.002 C 
ATOM     33  C   UNL     1       9.777  11.029   5.230  1.00  0.00     0.004 C 
ENDBRANCH  30  32
ENDBRANCH  12  30
ENDBRANCH  10  12
ENDBRANCH   1  10
BRANCH   5  34
ATOM     34  C   UNL     1       8.877  13.154   0.743  1.00  0.00     0.242 C 
ATOM     35  O   UNL     1       9.266  13.551  -0.356  1.00  0.00    -0.273 OA
ATOM     36  N   UNL     1       7.715  13.610   1.324  1.00  0.00    -0.354 N 
ATOM     37  H   UNL     1       7.507  13.338   2.286  1.00  0.00     0.163 HD
BRANCH  36  38
ATOM     38  C   UNL     1       6.730  14.376   0.588  1.00  0.00     0.116 C 
BRANCH  38  39
ATOM     39  C   UNL     1       5.543  13.485   0.229  1.00  0.00     0.023 C 
BRANCH  39  40
ATOM     40  C   UNL     1       4.964  13.810  -1.144  1.00  0.00     0.026 C 
BRANCH  40  41
ATOM     41  C   UNL     1       4.957  12.570  -2.037  1.00  0.00     0.146 C 
BRANCH  41  42
ATOM     42  N   UNL     1       6.204  11.835  -1.869  1.00  0.00    -0.254 NA
ATOM     43  C   UNL     1       7.207  12.112  -2.614  1.00  0.00     0.185 C 
ATOM     44  N   UNL     1       7.331  13.024  -3.596  1.00  0.00    -0.370 N 
ATOM     45  N   UNL     1       8.346  11.419  -2.447  1.00  0.00    -0.370 N 
ATOM     46  H   UNL     1       8.087  12.967  -4.257  1.00  0.00     0.159 HD
ATOM     47  H   UNL     1       6.568  13.644  -3.846  1.00  0.00     0.159 HD
ATOM     48  H   UNL     1       8.341  10.717  -1.720  1.00  0.00     0.159 HD
ATOM     49  H   UNL     1       9.229  11.727  -2.814  1.00  0.00     0.159 HD
ENDBRANCH  41  42
ENDBRANCH  40  41
ENDBRANCH  39  40
ENDBRANCH  38  39
ENDBRANCH  36  38
ENDBRANCH   5  34
BRANCH   8  50
ATOM     50  O   UNL     1      12.207  12.222  -2.510  1.00  0.00    -0.245 OA
BRANCH  50  51
ATOM     51  S   UNL     1      11.605  12.158  -4.019  1.00  0.00     0.397 S 
ATOM     52  O   UNL     1      11.028  10.847  -4.215  1.00  0.00    -0.169 OA
ATOM     53  O   UNL     1      12.566  12.712  -4.951  1.00  0.00    -0.169 OA
BRANCH  51  54
ATOM     54  O   UNL     1      10.361  13.174  -3.928  1.00  0.00    -0.264 OA
ATOM     55  H   UNL     1      10.495  13.871  -4.602  1.00  0.00     0.236 HD
ENDBRANCH  51  54
ENDBRANCH  50  51
ENDBRANCH   8  50
TORSDOF 19
ENDMDL
MODEL 32
REMARK VINA RESULT:    -5.341      4.144     10.031
REMARK INTER + INTRA:         -15.572
REMARK INTER:                 -11.751
REMARK INTRA:                  -3.821
REMARK UNBOUND:                -4.768
REMARK SMILES CC[C@@H](C)[C@@H](NC(=O)[C@@H](O)Cc1ccc(O)c(Cl)c1)C(=O)N1[C@H](C(=O)NCCCCN=C(N)N)C[C@H]2CC[C@H](OS(=O)(=O)O)C[C@@H]21
REMARK SMILES IDX 22 1 36 2 46 3 35 4 23 5 45 6 37 7 39 8 38 9 20 10 21 11
REMARK SMILES IDX 5 12 6 13 7 14 8 15 9 17 11 18 12 19 17 20 19 21 15 22 14 23
REMARK SMILES IDX 13 24 18 25 16 26 10 28 3 30 4 31 2 32 1 33 24 34 25 35
REMARK SMILES IDX 26 36 27 38 28 39 29 40 30 41 31 42 32 43 33 44 34 45 40 50
REMARK SMILES IDX 41 51 42 52 43 53 44 54
REMARK H PARENT 6 16 16 27 10 29 26 37 33 46 33 47 34 48 34 49 44 55
ROOT
ATOM      1  N   UNL     1       7.086  10.703   4.242  1.00  0.00    -0.326 N 
ATOM      2  C   UNL     1       4.791  10.272   3.939  1.00  0.00     0.014 C 
ATOM      3  C   UNL     1       6.166   9.597   3.963  1.00  0.00     0.091 C 
ATOM      4  C   UNL     1       5.098  11.637   3.343  1.00  0.00     0.041 C 
ATOM      5  C   UNL     1       6.370  11.999   4.132  1.00  0.00     0.175 C 
ATOM      6  C   UNL     1       6.115   8.431   4.948  1.00  0.00     0.059 C 
ATOM      7  C   UNL     1       3.762   9.383   3.269  1.00  0.00     0.008 C 
ATOM      8  C   UNL     1       4.729   7.755   5.040  1.00  0.00     0.143 C 
ATOM      9  C   UNL     1       3.917   7.921   3.740  1.00  0.00     0.034 C 
ENDROOT
BRANCH   1  10
ATOM     10  C   UNL     1       8.465  10.702   4.361  1.00  0.00     0.246 C 
ATOM     11  O   UNL     1       8.973  10.904   5.469  1.00  0.00    -0.272 OA
BRANCH  10  12
ATOM     12  C   UNL     1       9.342  10.406   3.110  1.00  0.00     0.174 C 
BRANCH  12  13
ATOM     13  N   UNL     1      10.597  11.152   3.192  1.00  0.00    -0.342 N 
ATOM     14  C   UNL     1      11.848  10.586   3.296  1.00  0.00     0.249 C 
ATOM     15  O   UNL     1      12.052   9.379   3.302  1.00  0.00    -0.272 OA
ATOM     16  H   UNL     1      10.576  12.156   3.356  1.00  0.00     0.164 HD
BRANCH  14  17
ATOM     17  C   UNL     1      12.973  11.640   3.382  1.00  0.00     0.207 C 
BRANCH  17  18
ATOM     18  C   UNL     1      13.922  11.509   2.187  1.00  0.00     0.077 C 
BRANCH  18  19
ATOM     19  C   UNL     1      13.352  12.153   0.943  1.00  0.00    -0.043 A 
ATOM     20  C   UNL     1      13.086  12.198  -1.468  1.00  0.00     0.083 A 
ATOM     21  C   UNL     1      13.571  11.575  -0.318  1.00  0.00     0.028 A 
ATOM     22  C   UNL     1      12.383  13.400  -1.367  1.00  0.00     0.134 A 
ATOM     23  C   UNL     1      12.160  13.983  -0.125  1.00  0.00     0.048 A 
ATOM     24  C   UNL     1      12.645  13.362   1.028  1.00  0.00     0.008 A 
ATOM     25  Cl  UNL     1      13.364  11.473  -3.007  1.00  0.00    -0.080 Cl
BRANCH  22  26
ATOM     26  O   UNL     1      11.897  14.053  -2.467  1.00  0.00    -0.506 OA
ATOM     27  H   UNL     1      11.534  14.901  -2.152  1.00  0.00     0.293 HD
ENDBRANCH  22  26
ENDBRANCH  18  19
ENDBRANCH  17  18
BRANCH  17  28
ATOM     28  O   UNL     1      13.720  11.500   4.601  1.00  0.00    -0.383 OA
ATOM     29  H   UNL     1      14.478  12.124   4.529  1.00  0.00     0.211 HD
ENDBRANCH  17  28
ENDBRANCH  14  17
ENDBRANCH  12  13
BRANCH  12  30
ATOM     30  C   UNL     1       8.590  10.658   1.776  1.00  0.00     0.018 C 
ATOM     31  C   UNL     1       8.127   9.333   1.150  1.00  0.00     0.010 C 
BRANCH  30  32
ATOM     32  C   UNL     1       9.407  11.475   0.746  1.00  0.00     0.002 C 
ATOM     33  C   UNL     1       9.933  10.683  -0.444  1.00  0.00     0.004 C 
ENDBRANCH  30  32
ENDBRANCH  12  30
ENDBRANCH  10  12
ENDBRANCH   1  10
BRANCH   5  34
ATOM     34  C   UNL     1       6.030  12.560   5.539  1.00  0.00     0.242 C 
ATOM     35  O   UNL     1       5.471  13.645   5.697  1.00  0.00    -0.273 OA
ATOM     36  N   UNL     1       6.448  11.783   6.596  1.00  0.00    -0.354 N 
ATOM     37  H   UNL     1       7.012  10.954   6.404  1.00  0.00     0.163 HD
BRANCH  36  38
ATOM     38  C   UNL     1       6.030  12.042   7.958  1.00  0.00     0.116 C 
BRANCH  38  39
ATOM     39  C   UNL     1       4.986  11.012   8.385  1.00  0.00     0.023 C 
BRANCH  39  40
ATOM     40  C   UNL     1       5.245  10.465   9.785  1.00  0.00     0.026 C 
BRANCH  40  41
ATOM     41  C   UNL     1       3.969  10.501  10.626  1.00  0.00     0.146 C 
BRANCH  41  42
ATOM     42  N   UNL     1       2.807  10.606   9.753  1.00  0.00    -0.254 NA
ATOM     43  C   UNL     1       1.907   9.697   9.784  1.00  0.00     0.185 C 
ATOM     44  N   UNL     1       1.831   8.580  10.531  1.00  0.00    -0.370 N 
ATOM     45  N   UNL     1       0.846   9.810   8.968  1.00  0.00    -0.370 N 
ATOM     46  H   UNL     1       1.200   7.838  10.280  1.00  0.00     0.159 HD
ATOM     47  H   UNL     1       2.546   8.345  11.213  1.00  0.00     0.159 HD
ATOM     48  H   UNL     1       0.821  10.630   8.377  1.00  0.00     0.159 HD
ATOM     49  H   UNL     1       0.002   9.282   9.098  1.00  0.00     0.159 HD
ENDBRANCH  41  42
ENDBRANCH  40  41
ENDBRANCH  39  40
ENDBRANCH  38  39
ENDBRANCH  36  38
ENDBRANCH   5  34
BRANCH   8  50
ATOM     50  O   UNL     1       3.980   8.316   6.118  1.00  0.00    -0.245 OA
BRANCH  50  51
ATOM     51  S   UNL     1       3.224   7.332   7.169  1.00  0.00     0.397 S 
ATOM     52  O   UNL     1       1.800   7.485   6.978  1.00  0.00    -0.169 OA
ATOM     53  O   UNL     1       3.833   7.457   8.477  1.00  0.00    -0.169 OA
BRANCH  51  54
ATOM     54  O   UNL     1       3.590   5.877   6.589  1.00  0.00    -0.264 OA
ATOM     55  H   UNL     1       4.425   5.959   6.084  1.00  0.00     0.236 HD
ENDBRANCH  51  54
ENDBRANCH  50  51
ENDBRANCH   8  50
TORSDOF 19
ENDMDL
MODEL 33
REMARK VINA RESULT:    -5.336      2.927      5.296
REMARK INTER + INTRA:         -15.563
REMARK INTER:                 -10.958
REMARK INTRA:                  -4.605
REMARK UNBOUND:                -4.768
REMARK SMILES CC[C@@H](C)[C@@H](NC(=O)[C@@H](O)Cc1ccc(O)c(Cl)c1)C(=O)N1[C@H](C(=O)NCCCCN=C(N)N)C[C@H]2CC[C@H](OS(=O)(=O)O)C[C@@H]21
REMARK SMILES IDX 22 1 36 2 46 3 35 4 23 5 45 6 37 7 39 8 38 9 20 10 21 11
REMARK SMILES IDX 5 12 6 13 7 14 8 15 9 17 11 18 12 19 17 20 19 21 15 22 14 23
REMARK SMILES IDX 13 24 18 25 16 26 10 28 3 30 4 31 2 32 1 33 24 34 25 35
REMARK SMILES IDX 26 36 27 38 28 39 29 40 30 41 31 42 32 43 33 44 34 45 40 50
REMARK SMILES IDX 41 51 42 52 43 53 44 54
REMARK H PARENT 6 16 16 27 10 29 26 37 33 46 33 47 34 48 34 49 44 55
ROOT
ATOM      1  N   UNL     1       4.713   9.484   5.269  1.00  0.00    -0.326 N 
ATOM      2  C   UNL     1       6.417  11.103   5.124  1.00  0.00     0.014 C 
ATOM      3  C   UNL     1       6.113   9.696   5.649  1.00  0.00     0.091 C 
ATOM      4  C   UNL     1       5.093  11.825   5.317  1.00  0.00     0.041 C 
ATOM      5  C   UNL     1       4.119  10.756   4.788  1.00  0.00     0.175 C 
ATOM      6  C   UNL     1       7.167   8.737   5.098  1.00  0.00     0.059 C 
ATOM      7  C   UNL     1       7.670  11.662   5.768  1.00  0.00     0.008 C 
ATOM      8  C   UNL     1       8.551   9.388   4.889  1.00  0.00     0.143 C 
ATOM      9  C   UNL     1       8.775  10.587   5.833  1.00  0.00     0.034 C 
ENDROOT
BRANCH   1  10
ATOM     10  C   UNL     1       3.887   8.397   5.495  1.00  0.00     0.246 C 
ATOM     11  O   UNL     1       3.965   7.416   4.747  1.00  0.00    -0.272 OA
BRANCH  10  12
ATOM     12  C   UNL     1       2.912   8.414   6.708  1.00  0.00     0.174 C 
BRANCH  12  13
ATOM     13  N   UNL     1       3.554   9.053   7.856  1.00  0.00    -0.342 N 
ATOM     14  C   UNL     1       2.967  10.001   8.663  1.00  0.00     0.249 C 
ATOM     15  O   UNL     1       1.817  10.398   8.524  1.00  0.00    -0.272 OA
ATOM     16  H   UNL     1       4.554   8.941   8.000  1.00  0.00     0.164 HD
BRANCH  14  17
ATOM     17  C   UNL     1       3.909  10.496   9.781  1.00  0.00     0.207 C 
BRANCH  17  18
ATOM     18  C   UNL     1       5.304  10.784   9.218  1.00  0.00     0.077 C 
BRANCH  18  19
ATOM     19  C   UNL     1       5.810  12.146   9.639  1.00  0.00    -0.043 A 
ATOM     20  C   UNL     1       6.535  14.389   9.068  1.00  0.00     0.083 A 
ATOM     21  C   UNL     1       6.021  13.150   8.682  1.00  0.00     0.028 A 
ATOM     22  C   UNL     1       6.842  14.631  10.408  1.00  0.00     0.134 A 
ATOM     23  C   UNL     1       6.637  13.645  11.366  1.00  0.00     0.048 A 
ATOM     24  C   UNL     1       6.125  12.403  10.983  1.00  0.00     0.008 A 
ATOM     25  Cl  UNL     1       6.788  15.610   7.878  1.00  0.00    -0.080 Cl
BRANCH  22  26
ATOM     26  O   UNL     1       7.358  15.825  10.832  1.00  0.00    -0.506 OA
ATOM     27  H   UNL     1       7.731  16.265  10.046  1.00  0.00     0.293 HD
ENDBRANCH  22  26
ENDBRANCH  18  19
ENDBRANCH  17  18
BRANCH  17  28
ATOM     28  O   UNL     1       4.012   9.528  10.838  1.00  0.00    -0.383 OA
ATOM     29  H   UNL     1       3.600   8.704  10.493  1.00  0.00     0.211 HD
ENDBRANCH  17  28
ENDBRANCH  14  17
ENDBRANCH  12  13
BRANCH  12  30
ATOM     30  C   UNL     1       2.353   7.006   7.049  1.00  0.00     0.018 C 
ATOM     31  C   UNL     1       1.002   7.114   7.773  1.00  0.00     0.010 C 
BRANCH  30  32
ATOM     32  C   UNL     1       3.331   6.133   7.873  1.00  0.00     0.002 C 
ATOM     33  C   UNL     1       2.927   5.896   9.323  1.00  0.00     0.004 C 
ENDBRANCH  30  32
ENDBRANCH  12  30
ENDBRANCH  10  12
ENDBRANCH   1  10
BRANCH   5  34
ATOM     34  C   UNL     1       4.036  10.774   3.239  1.00  0.00     0.242 C 
ATOM     35  O   UNL     1       4.356   9.804   2.551  1.00  0.00    -0.273 OA
ATOM     36  N   UNL     1       3.632  11.969   2.687  1.00  0.00    -0.354 N 
ATOM     37  H   UNL     1       3.496  12.773   3.302  1.00  0.00     0.163 HD
BRANCH  36  38
ATOM     38  C   UNL     1       3.294  12.099   1.285  1.00  0.00     0.116 C 
BRANCH  38  39
ATOM     39  C   UNL     1       3.965  13.341   0.703  1.00  0.00     0.023 C 
BRANCH  39  40
ATOM     40  C   UNL     1       4.745  13.038  -0.571  1.00  0.00     0.026 C 
BRANCH  40  41
ATOM     41  C   UNL     1       4.783  11.534  -0.840  1.00  0.00     0.146 C 
BRANCH  41  42
ATOM     42  N   UNL     1       6.124  11.140  -1.252  1.00  0.00    -0.254 NA
ATOM     43  C   UNL     1       6.979  10.786  -0.368  1.00  0.00     0.185 C 
ATOM     44  N   UNL     1       6.858  10.702   0.970  1.00  0.00    -0.370 N 
ATOM     45  N   UNL     1       8.211  10.431  -0.768  1.00  0.00    -0.370 N 
ATOM     46  H   UNL     1       7.673  10.647   1.556  1.00  0.00     0.159 HD
ATOM     47  H   UNL     1       5.985  10.922   1.440  1.00  0.00     0.159 HD
ATOM     48  H   UNL     1       8.385  10.457  -1.764  1.00  0.00     0.159 HD
ATOM     49  H   UNL     1       8.849   9.924  -0.180  1.00  0.00     0.159 HD
ENDBRANCH  41  42
ENDBRANCH  40  41
ENDBRANCH  39  40
ENDBRANCH  38  39
ENDBRANCH  36  38
ENDBRANCH   5  34
BRANCH   8  50
ATOM     50  O   UNL     1       8.682   9.841   3.542  1.00  0.00    -0.245 OA
BRANCH  50  51
ATOM     51  S   UNL     1       9.266   8.831   2.408  1.00  0.00     0.397 S 
ATOM     52  O   UNL     1       8.143   8.242   1.714  1.00  0.00    -0.169 OA
ATOM     53  O   UNL     1      10.318   8.016   2.979  1.00  0.00    -0.169 OA
BRANCH  51  54
ATOM     54  O   UNL     1       9.940   9.851   1.365  1.00  0.00    -0.264 OA
ATOM     55  H   UNL     1      10.181  10.664   1.855  1.00  0.00     0.236 HD
ENDBRANCH  51  54
ENDBRANCH  50  51
ENDBRANCH   8  50
TORSDOF 19
ENDMDL
MODEL 34
REMARK VINA RESULT:    -5.329      5.332     10.465
REMARK INTER + INTRA:         -15.549
REMARK INTER:                 -12.168
REMARK INTRA:                  -3.381
REMARK UNBOUND:                -4.768
REMARK SMILES CC[C@@H](C)[C@@H](NC(=O)[C@@H](O)Cc1ccc(O)c(Cl)c1)C(=O)N1[C@H](C(=O)NCCCCN=C(N)N)C[C@H]2CC[C@H](OS(=O)(=O)O)C[C@@H]21
REMARK SMILES IDX 22 1 36 2 46 3 35 4 23 5 45 6 37 7 39 8 38 9 20 10 21 11
REMARK SMILES IDX 5 12 6 13 7 14 8 15 9 17 11 18 12 19 17 20 19 21 15 22 14 23
REMARK SMILES IDX 13 24 18 25 16 26 10 28 3 30 4 31 2 32 1 33 24 34 25 35
REMARK SMILES IDX 26 36 27 38 28 39 29 40 30 41 31 42 32 43 33 44 34 45 40 50
REMARK SMILES IDX 41 51 42 52 43 53 44 54
REMARK H PARENT 6 16 16 27 10 29 26 37 33 46 33 47 34 48 34 49 44 55
ROOT
ATOM      1  N   UNL     1       1.233  11.999  11.483  1.00  0.00    -0.326 N 
ATOM      2  C   UNL     1      -0.737  12.051  10.194  1.00  0.00     0.014 C 
ATOM      3  C   UNL     1       0.272  12.950  10.916  1.00  0.00     0.091 C 
ATOM      4  C   UNL     1      -0.788  10.821  11.086  1.00  0.00     0.041 C 
ATOM      5  C   UNL     1       0.715  10.615  11.352  1.00  0.00     0.175 C 
ATOM      6  C   UNL     1       0.784  13.994   9.925  1.00  0.00     0.059 C 
ATOM      7  C   UNL     1      -2.017  12.806   9.894  1.00  0.00     0.008 C 
ATOM      8  C   UNL     1      -0.258  14.408   8.864  1.00  0.00     0.143 C 
ATOM      9  C   UNL     1      -1.704  14.223   9.369  1.00  0.00     0.034 C 
ENDROOT
BRANCH   1  10
ATOM     10  C   UNL     1       2.357  12.229  12.258  1.00  0.00     0.246 C 
ATOM     11  O   UNL     1       2.353  11.873  13.441  1.00  0.00    -0.272 OA
BRANCH  10  12
ATOM     12  C   UNL     1       3.611  12.888  11.614  1.00  0.00     0.174 C 
BRANCH  12  13
ATOM     13  N   UNL     1       4.253  11.947  10.697  1.00  0.00    -0.342 N 
ATOM     14  C   UNL     1       4.783  12.277   9.470  1.00  0.00     0.249 C 
ATOM     15  O   UNL     1       4.800  13.415   9.018  1.00  0.00    -0.272 OA
ATOM     16  H   UNL     1       4.174  10.947  10.864  1.00  0.00     0.164 HD
BRANCH  14  17
ATOM     17  C   UNL     1       5.376  11.059   8.730  1.00  0.00     0.207 C 
BRANCH  17  18
ATOM     18  C   UNL     1       4.871  11.013   7.284  1.00  0.00     0.077 C 
BRANCH  18  19
ATOM     19  C   UNL     1       5.855  10.321   6.367  1.00  0.00    -0.043 A 
ATOM     20  C   UNL     1       8.079  10.149   5.416  1.00  0.00     0.083 A 
ATOM     21  C   UNL     1       7.187  10.758   6.299  1.00  0.00     0.028 A 
ATOM     22  C   UNL     1       7.649   9.105   4.596  1.00  0.00     0.134 A 
ATOM     23  C   UNL     1       6.332   8.663   4.654  1.00  0.00     0.048 A 
ATOM     24  C   UNL     1       5.436   9.271   5.536  1.00  0.00     0.008 A 
ATOM     25  Cl  UNL     1       9.712  10.700   5.346  1.00  0.00    -0.080 Cl
BRANCH  22  26
ATOM     26  O   UNL     1       8.484   8.485   3.707  1.00  0.00    -0.506 OA
ATOM     27  H   UNL     1       8.805   9.174   3.097  1.00  0.00     0.293 HD
ENDBRANCH  22  26
ENDBRANCH  18  19
ENDBRANCH  17  18
BRANCH  17  28
ATOM     28  O   UNL     1       5.031   9.832   9.394  1.00  0.00    -0.383 OA
ATOM     29  H   UNL     1       4.724   9.218   8.689  1.00  0.00     0.211 HD
ENDBRANCH  17  28
ENDBRANCH  14  17
ENDBRANCH  12  13
BRANCH  12  30
ATOM     30  C   UNL     1       4.599  13.454  12.669  1.00  0.00     0.018 C 
ATOM     31  C   UNL     1       5.018  14.889  12.310  1.00  0.00     0.010 C 
BRANCH  30  32
ATOM     32  C   UNL     1       5.853  12.572  12.883  1.00  0.00     0.002 C 
ATOM     33  C   UNL     1       7.188  13.278  12.684  1.00  0.00     0.004 C 
ENDBRANCH  30  32
ENDBRANCH  12  30
ENDBRANCH  10  12
ENDBRANCH   1  10
BRANCH   5  34
ATOM     34  C   UNL     1       1.408   9.877  10.176  1.00  0.00     0.242 C 
ATOM     35  O   UNL     1       1.961  10.479   9.256  1.00  0.00    -0.273 OA
ATOM     36  N   UNL     1       1.312   8.503  10.208  1.00  0.00    -0.354 N 
ATOM     37  H   UNL     1       0.738   8.068  10.931  1.00  0.00     0.163 HD
BRANCH  36  38
ATOM     38  C   UNL     1       2.075   7.654   9.318  1.00  0.00     0.116 C 
BRANCH  38  39
ATOM     39  C   UNL     1       3.156   6.917  10.105  1.00  0.00     0.023 C 
BRANCH  39  40
ATOM     40  C   UNL     1       2.795   5.459  10.367  1.00  0.00     0.026 C 
BRANCH  40  41
ATOM     41  C   UNL     1       2.004   5.321  11.668  1.00  0.00     0.146 C 
BRANCH  41  42
ATOM     42  N   UNL     1       0.577   5.399  11.386  1.00  0.00    -0.254 NA
ATOM     43  C   UNL     1      -0.263   4.966  12.250  1.00  0.00     0.185 C 
ATOM     44  N   UNL     1      -0.055   4.412  13.458  1.00  0.00    -0.370 N 
ATOM     45  N   UNL     1      -1.575   5.043  11.970  1.00  0.00    -0.370 N 
ATOM     46  H   UNL     1      -0.785   3.898  13.920  1.00  0.00     0.159 HD
ATOM     47  H   UNL     1       0.881   4.290  13.834  1.00  0.00     0.159 HD
ATOM     48  H   UNL     1      -1.820   5.457  11.080  1.00  0.00     0.159 HD
ATOM     49  H   UNL     1      -2.287   4.950  12.671  1.00  0.00     0.159 HD
ENDBRANCH  41  42
ENDBRANCH  40  41
ENDBRANCH  39  40
ENDBRANCH  38  39
ENDBRANCH  36  38
ENDBRANCH   5  34
BRANCH   8  50
ATOM     50  O   UNL     1      -0.088  13.628   7.680  1.00  0.00    -0.245 OA
BRANCH  50  51
ATOM     51  S   UNL     1       1.069  14.033   6.611  1.00  0.00     0.397 S 
ATOM     52  O   UNL     1       2.116  13.040   6.690  1.00  0.00    -0.169 OA
ATOM     53  O   UNL     1       1.356  15.449   6.718  1.00  0.00    -0.169 OA
BRANCH  51  54
ATOM     54  O   UNL     1       0.331  13.782   5.205  1.00  0.00    -0.264 OA
ATOM     55  H   UNL     1       0.965  14.000   4.492  1.00  0.00     0.236 HD
ENDBRANCH  51  54
ENDBRANCH  50  51
ENDBRANCH   8  50
TORSDOF 19
ENDMDL
MODEL 35
REMARK VINA RESULT:    -5.316      3.537      5.156
REMARK INTER + INTRA:         -15.523
REMARK INTER:                 -11.641
REMARK INTRA:                  -3.882
REMARK UNBOUND:                -4.768
REMARK SMILES CC[C@@H](C)[C@@H](NC(=O)[C@@H](O)Cc1ccc(O)c(Cl)c1)C(=O)N1[C@H](C(=O)NCCCCN=C(N)N)C[C@H]2CC[C@H](OS(=O)(=O)O)C[C@@H]21
REMARK SMILES IDX 22 1 36 2 46 3 35 4 23 5 45 6 37 7 39 8 38 9 20 10 21 11
REMARK SMILES IDX 5 12 6 13 7 14 8 15 9 17 11 18 12 19 17 20 19 21 15 22 14 23
REMARK SMILES IDX 13 24 18 25 16 26 10 28 3 30 4 31 2 32 1 33 24 34 25 35
REMARK SMILES IDX 26 36 27 38 28 39 29 40 30 41 31 42 32 43 33 44 34 45 40 50
REMARK SMILES IDX 41 51 42 52 43 53 44 54
REMARK H PARENT 6 16 16 27 10 29 26 37 33 46 33 47 34 48 34 49 44 55
ROOT
ATOM      1  N   UNL     1       9.271  10.808   1.055  1.00  0.00    -0.326 N 
ATOM      2  C   UNL     1      11.126  12.253   0.932  1.00  0.00     0.014 C 
ATOM      3  C   UNL     1      10.689  10.807   0.683  1.00  0.00     0.091 C 
ATOM      4  C   UNL     1      10.297  12.649   2.145  1.00  0.00     0.041 C 
ATOM      5  C   UNL     1       8.926  12.081   1.734  1.00  0.00     0.175 C 
ATOM      6  C   UNL     1      11.061  10.430  -0.750  1.00  0.00     0.059 C 
ATOM      7  C   UNL     1      12.637  12.359   0.998  1.00  0.00     0.008 C 
ATOM      8  C   UNL     1      12.334  11.134  -1.267  1.00  0.00     0.143 C 
ATOM      9  C   UNL     1      13.290  11.518  -0.119  1.00  0.00     0.034 C 
ENDROOT
BRANCH   1  10
ATOM     10  C   UNL     1       8.352   9.773   1.055  1.00  0.00     0.246 C 
ATOM     11  O   UNL     1       7.640   9.601   0.060  1.00  0.00    -0.272 OA
BRANCH  10  12
ATOM     12  C   UNL     1       8.266   8.824   2.285  1.00  0.00     0.174 C 
BRANCH  12  13
ATOM     13  N   UNL     1       6.911   8.841   2.835  1.00  0.00    -0.342 N 
ATOM     14  C   UNL     1       5.971   7.851   2.653  1.00  0.00     0.249 C 
ATOM     15  O   UNL     1       6.180   6.820   2.027  1.00  0.00    -0.272 OA
ATOM     16  H   UNL     1       6.544   9.698   3.242  1.00  0.00     0.164 HD
BRANCH  14  17
ATOM     17  C   UNL     1       4.629   8.170   3.345  1.00  0.00     0.207 C 
BRANCH  17  18
ATOM     18  C   UNL     1       4.299   7.103   4.393  1.00  0.00     0.077 C 
BRANCH  18  19
ATOM     19  C   UNL     1       3.726   7.711   5.653  1.00  0.00    -0.043 A 
ATOM     20  C   UNL     1       2.277   7.556   7.593  1.00  0.00     0.083 A 
ATOM     21  C   UNL     1       2.843   6.974   6.457  1.00  0.00     0.028 A 
ATOM     22  C   UNL     1       2.587   8.873   7.930  1.00  0.00     0.134 A 
ATOM     23  C   UNL     1       3.461   9.615   7.143  1.00  0.00     0.048 A 
ATOM     24  C   UNL     1       4.027   9.036   6.005  1.00  0.00     0.008 A 
ATOM     25  Cl  UNL     1       1.194   6.634   8.568  1.00  0.00    -0.080 Cl
BRANCH  22  26
ATOM     26  O   UNL     1       2.050   9.490   9.028  1.00  0.00    -0.506 OA
ATOM     27  H   UNL     1       1.246   8.990   9.264  1.00  0.00     0.293 HD
ENDBRANCH  22  26
ENDBRANCH  18  19
ENDBRANCH  17  18
BRANCH  17  28
ATOM     28  O   UNL     1       3.559   8.245   2.388  1.00  0.00    -0.383 OA
ATOM     29  H   UNL     1       3.904   8.777   1.636  1.00  0.00     0.211 HD
ENDBRANCH  17  28
ENDBRANCH  14  17
ENDBRANCH  12  13
BRANCH  12  30
ATOM     30  C   UNL     1       9.344   9.133   3.358  1.00  0.00     0.018 C 
ATOM     31  C   UNL     1      10.532   8.166   3.235  1.00  0.00     0.010 C 
BRANCH  30  32
ATOM     32  C   UNL     1       8.800   9.124   4.808  1.00  0.00     0.002 C 
ATOM     33  C   UNL     1       8.844  10.466   5.528  1.00  0.00     0.004 C 
ENDBRANCH  30  32
ENDBRANCH  12  30
ENDBRANCH  10  12
ENDBRANCH   1  10
BRANCH   5  34
ATOM     34  C   UNL     1       8.178  13.037   0.766  1.00  0.00     0.242 C 
ATOM     35  O   UNL     1       8.005  12.766  -0.422  1.00  0.00    -0.273 OA
ATOM     36  N   UNL     1       7.771  14.230   1.320  1.00  0.00    -0.354 N 
ATOM     37  H   UNL     1       8.049  14.448   2.277  1.00  0.00     0.163 HD
BRANCH  36  38
ATOM     38  C   UNL     1       6.880  15.138   0.628  1.00  0.00     0.116 C 
BRANCH  38  39
ATOM     39  C   UNL     1       5.434  14.845   1.021  1.00  0.00     0.023 C 
BRANCH  39  40
ATOM     40  C   UNL     1       4.455  15.114  -0.117  1.00  0.00     0.026 C 
BRANCH  40  41
ATOM     41  C   UNL     1       4.098  13.818  -0.844  1.00  0.00     0.146 C 
BRANCH  41  42
ATOM     42  N   UNL     1       4.109  12.706   0.098  1.00  0.00    -0.254 NA
ATOM     43  C   UNL     1       4.762  11.642  -0.186  1.00  0.00     0.185 C 
ATOM     44  N   UNL     1       5.495  11.341  -1.274  1.00  0.00    -0.370 N 
ATOM     45  N   UNL     1       4.755  10.627   0.693  1.00  0.00    -0.370 N 
ATOM     46  H   UNL     1       5.747  10.388  -1.474  1.00  0.00     0.159 HD
ATOM     47  H   UNL     1       5.617  12.003  -2.034  1.00  0.00     0.159 HD
ATOM     48  H   UNL     1       4.233  10.776   1.546  1.00  0.00     0.159 HD
ATOM     49  H   UNL     1       5.419   9.873   0.659  1.00  0.00     0.159 HD
ENDBRANCH  41  42
ENDBRANCH  40  41
ENDBRANCH  39  40
ENDBRANCH  38  39
ENDBRANCH  36  38
ENDBRANCH   5  34
BRANCH   8  50
ATOM     50  O   UNL     1      11.984  12.320  -1.981  1.00  0.00    -0.245 OA
BRANCH  50  51
ATOM     51  S   UNL     1      12.276  12.412  -3.578  1.00  0.00     0.397 S 
ATOM     52  O   UNL     1      11.094  12.946  -4.218  1.00  0.00    -0.169 OA
ATOM     53  O   UNL     1      12.894  11.183  -4.031  1.00  0.00    -0.169 OA
BRANCH  51  54
ATOM     54  O   UNL     1      13.379  13.578  -3.652  1.00  0.00    -0.264 OA
ATOM     55  H   UNL     1      13.504  13.928  -2.746  1.00  0.00     0.236 HD
ENDBRANCH  51  54
ENDBRANCH  50  51
ENDBRANCH   8  50
TORSDOF 19
ENDMDL
MODEL 36
REMARK VINA RESULT:    -5.316      4.241      9.363
REMARK INTER + INTRA:         -15.521
REMARK INTER:                 -13.030
REMARK INTRA:                  -2.491
REMARK UNBOUND:                -4.768
REMARK SMILES CC[C@@H](C)[C@@H](NC(=O)[C@@H](O)Cc1ccc(O)c(Cl)c1)C(=O)N1[C@H](C(=O)NCCCCN=C(N)N)C[C@H]2CC[C@H](OS(=O)(=O)O)C[C@@H]21
REMARK SMILES IDX 22 1 36 2 46 3 35 4 23 5 45 6 37 7 39 8 38 9 20 10 21 11
REMARK SMILES IDX 5 12 6 13 7 14 8 15 9 17 11 18 12 19 17 20 19 21 15 22 14 23
REMARK SMILES IDX 13 24 18 25 16 26 10 28 3 30 4 31 2 32 1 33 24 34 25 35
REMARK SMILES IDX 26 36 27 38 28 39 29 40 30 41 31 42 32 43 33 44 34 45 40 50
REMARK SMILES IDX 41 51 42 52 43 53 44 54
REMARK H PARENT 6 16 16 27 10 29 26 37 33 46 33 47 34 48 34 49 44 55
ROOT
ATOM      1  N   UNL     1       2.655  10.866  10.015  1.00  0.00    -0.326 N 
ATOM      2  C   UNL     1       0.473  11.406  10.713  1.00  0.00     0.014 C 
ATOM      3  C   UNL     1       1.799  12.029  10.268  1.00  0.00     0.091 C 
ATOM      4  C   UNL     1       0.923  10.172  11.479  1.00  0.00     0.041 C 
ATOM      5  C   UNL     1       2.001   9.634  10.520  1.00  0.00     0.175 C 
ATOM      6  C   UNL     1       1.518  12.987   9.112  1.00  0.00     0.059 C 
ATOM      7  C   UNL     1      -0.402  12.432  11.406  1.00  0.00     0.008 C 
ATOM      8  C   UNL     1       0.135  13.668   9.191  1.00  0.00     0.143 C 
ATOM      9  C   UNL     1      -0.377  13.773  10.642  1.00  0.00     0.034 C 
ENDROOT
BRANCH   1  10
ATOM     10  C   UNL     1       3.977  10.810   9.606  1.00  0.00     0.246 C 
ATOM     11  O   UNL     1       4.625   9.777   9.808  1.00  0.00    -0.272 OA
BRANCH  10  12
ATOM     12  C   UNL     1       4.603  12.026   8.864  1.00  0.00     0.174 C 
BRANCH  12  13
ATOM     13  N   UNL     1       5.588  11.562   7.888  1.00  0.00    -0.342 N 
ATOM     14  C   UNL     1       5.287  11.003   6.666  1.00  0.00     0.249 C 
ATOM     15  O   UNL     1       4.146  10.857   6.245  1.00  0.00    -0.272 OA
ATOM     16  H   UNL     1       6.564  11.475   8.160  1.00  0.00     0.164 HD
BRANCH  14  17
ATOM     17  C   UNL     1       6.546  10.598   5.870  1.00  0.00     0.207 C 
BRANCH  17  18
ATOM     18  C   UNL     1       7.713  11.533   6.202  1.00  0.00     0.077 C 
BRANCH  18  19
ATOM     19  C   UNL     1       8.993  11.096   5.525  1.00  0.00    -0.043 A 
ATOM     20  C   UNL     1      10.530   9.338   4.869  1.00  0.00     0.083 A 
ATOM     21  C   UNL     1       9.325   9.734   5.450  1.00  0.00     0.028 A 
ATOM     22  C   UNL     1      11.410  10.295   4.362  1.00  0.00     0.134 A 
ATOM     23  C   UNL     1      11.093  11.647   4.430  1.00  0.00     0.048 A 
ATOM     24  C   UNL     1       9.888  12.047   5.013  1.00  0.00     0.008 A 
ATOM     25  Cl  UNL     1      10.921   7.660   4.786  1.00  0.00    -0.080 Cl
BRANCH  22  26
ATOM     26  O   UNL     1      12.607   9.956   3.793  1.00  0.00    -0.506 OA
ATOM     27  H   UNL     1      12.413   9.285   3.112  1.00  0.00     0.293 HD
ENDBRANCH  22  26
ENDBRANCH  18  19
ENDBRANCH  17  18
BRANCH  17  28
ATOM     28  O   UNL     1       6.296  10.631   4.455  1.00  0.00    -0.383 OA
ATOM     29  H   UNL     1       6.973  11.235   4.074  1.00  0.00     0.211 HD
ENDBRANCH  17  28
ENDBRANCH  14  17
ENDBRANCH  12  13
BRANCH  12  30
ATOM     30  C   UNL     1       5.187  13.086   9.836  1.00  0.00     0.018 C 
ATOM     31  C   UNL     1       6.222  13.971   9.123  1.00  0.00     0.010 C 
BRANCH  30  32
ATOM     32  C   UNL     1       5.801  12.479  11.121  1.00  0.00     0.002 C 
ATOM     33  C   UNL     1       5.871  13.420  12.317  1.00  0.00     0.004 C 
ENDBRANCH  30  32
ENDBRANCH  12  30
ENDBRANCH  10  12
ENDBRANCH   1  10
BRANCH   5  34
ATOM     34  C   UNL     1       1.376   8.825   9.353  1.00  0.00     0.242 C 
ATOM     35  O   UNL     1       0.622   9.338   8.526  1.00  0.00    -0.273 OA
ATOM     36  N   UNL     1       1.682   7.482   9.341  1.00  0.00    -0.354 N 
ATOM     37  H   UNL     1       2.214   7.093  10.120  1.00  0.00     0.163 HD
BRANCH  36  38
ATOM     38  C   UNL     1       1.366   6.627   8.216  1.00  0.00     0.116 C 
BRANCH  38  39
ATOM     39  C   UNL     1       2.292   6.948   7.045  1.00  0.00     0.023 C 
BRANCH  39  40
ATOM     40  C   UNL     1       3.532   6.062   7.022  1.00  0.00     0.026 C 
BRANCH  40  41
ATOM     41  C   UNL     1       3.958   5.762   5.584  1.00  0.00     0.146 C 
BRANCH  41  42
ATOM     42  N   UNL     1       3.601   6.881   4.722  1.00  0.00    -0.254 NA
ATOM     43  C   UNL     1       4.524   7.600   4.203  1.00  0.00     0.185 C 
ATOM     44  N   UNL     1       5.861   7.506   4.316  1.00  0.00    -0.370 N 
ATOM     45  N   UNL     1       4.173   8.629   3.414  1.00  0.00    -0.370 N 
ATOM     46  H   UNL     1       6.453   8.276   4.058  1.00  0.00     0.159 HD
ATOM     47  H   UNL     1       6.299   6.773   4.866  1.00  0.00     0.159 HD
ATOM     48  H   UNL     1       3.182   8.766   3.269  1.00  0.00     0.159 HD
ATOM     49  H   UNL     1       4.819   9.083   2.793  1.00  0.00     0.159 HD
ENDBRANCH  41  42
ENDBRANCH  40  41
ENDBRANCH  39  40
ENDBRANCH  38  39
ENDBRANCH  36  38
ENDBRANCH   5  34
BRANCH   8  50
ATOM     50  O   UNL     1      -0.819  12.931   8.426  1.00  0.00    -0.245 OA
BRANCH  50  51
ATOM     51  S   UNL     1      -1.554  13.641   7.160  1.00  0.00     0.397 S 
ATOM     52  O   UNL     1      -2.392  12.653   6.519  1.00  0.00    -0.169 OA
ATOM     53  O   UNL     1      -0.589  14.420   6.412  1.00  0.00    -0.169 OA
BRANCH  51  54
ATOM     54  O   UNL     1      -2.560  14.664   7.887  1.00  0.00    -0.264 OA
ATOM     55  H   UNL     1      -2.775  15.374   7.248  1.00  0.00     0.236 HD
ENDBRANCH  51  54
ENDBRANCH  50  51
ENDBRANCH   8  50
TORSDOF 19
ENDMDL
MODEL 37
REMARK VINA RESULT:    -5.265      3.801      5.932
REMARK INTER + INTRA:         -15.419
REMARK INTER:                 -11.481
REMARK INTRA:                  -3.938
REMARK UNBOUND:                -4.768
REMARK SMILES CC[C@@H](C)[C@@H](NC(=O)[C@@H](O)Cc1ccc(O)c(Cl)c1)C(=O)N1[C@H](C(=O)NCCCCN=C(N)N)C[C@H]2CC[C@H](OS(=O)(=O)O)C[C@@H]21
REMARK SMILES IDX 22 1 36 2 46 3 35 4 23 5 45 6 37 7 39 8 38 9 20 10 21 11
REMARK SMILES IDX 5 12 6 13 7 14 8 15 9 17 11 18 12 19 17 20 19 21 15 22 14 23
REMARK SMILES IDX 13 24 18 25 16 26 10 28 3 30 4 31 2 32 1 33 24 34 25 35
REMARK SMILES IDX 26 36 27 38 28 39 29 40 30 41 31 42 32 43 33 44 34 45 40 50
REMARK SMILES IDX 41 51 42 52 43 53 44 54
REMARK H PARENT 6 16 16 27 10 29 26 37 33 46 33 47 34 48 34 49 44 55
ROOT
ATOM      1  N   UNL     1      10.861  11.656   1.127  1.00  0.00    -0.326 N 
ATOM      2  C   UNL     1      11.371  13.311  -0.468  1.00  0.00     0.014 C 
ATOM      3  C   UNL     1      12.012  12.329   0.518  1.00  0.00     0.091 C 
ATOM      4  C   UNL     1      10.098  13.725   0.252  1.00  0.00     0.041 C 
ATOM      5  C   UNL     1       9.606  12.353   0.749  1.00  0.00     0.175 C 
ATOM      6  C   UNL     1      13.029  11.478  -0.241  1.00  0.00     0.059 C 
ATOM      7  C   UNL     1      12.364  14.374  -0.895  1.00  0.00     0.008 C 
ATOM      8  C   UNL     1      13.711  12.220  -1.411  1.00  0.00     0.143 C 
ATOM      9  C   UNL     1      13.742  13.746  -1.189  1.00  0.00     0.034 C 
ENDROOT
BRANCH   1  10
ATOM     10  C   UNL     1      10.820  10.679   2.107  1.00  0.00     0.246 C 
ATOM     11  O   UNL     1      10.817   9.490   1.770  1.00  0.00    -0.272 OA
BRANCH  10  12
ATOM     12  C   UNL     1      10.823  11.095   3.607  1.00  0.00     0.174 C 
BRANCH  12  13
ATOM     13  N   UNL     1       9.454  11.340   4.059  1.00  0.00    -0.342 N 
ATOM     14  C   UNL     1       8.674  10.434   4.741  1.00  0.00     0.249 C 
ATOM     15  O   UNL     1       9.056   9.318   5.073  1.00  0.00    -0.272 OA
ATOM     16  H   UNL     1       8.951  12.157   3.723  1.00  0.00     0.164 HD
BRANCH  14  17
ATOM     17  C   UNL     1       7.268  10.983   5.064  1.00  0.00     0.207 C 
BRANCH  17  18
ATOM     18  C   UNL     1       6.269   9.833   5.232  1.00  0.00     0.077 C 
BRANCH  18  19
ATOM     19  C   UNL     1       5.429   9.996   6.478  1.00  0.00    -0.043 A 
ATOM     20  C   UNL     1       5.134  10.892   8.713  1.00  0.00     0.083 A 
ATOM     21  C   UNL     1       5.889  10.785   7.544  1.00  0.00     0.028 A 
ATOM     22  C   UNL     1       3.920  10.214   8.825  1.00  0.00     0.134 A 
ATOM     23  C   UNL     1       3.453   9.429   7.777  1.00  0.00     0.048 A 
ATOM     24  C   UNL     1       4.207   9.318   6.607  1.00  0.00     0.008 A 
ATOM     25  Cl  UNL     1       5.716  11.867  10.012  1.00  0.00    -0.080 Cl
BRANCH  22  26
ATOM     26  O   UNL     1       3.150  10.281   9.955  1.00  0.00    -0.506 OA
ATOM     27  H   UNL     1       3.048   9.367  10.279  1.00  0.00     0.293 HD
ENDBRANCH  22  26
ENDBRANCH  18  19
ENDBRANCH  17  18
BRANCH  17  28
ATOM     28  O   UNL     1       6.808  11.867   4.030  1.00  0.00    -0.383 OA
ATOM     29  H   UNL     1       6.531  12.695   4.483  1.00  0.00     0.211 HD
ENDBRANCH  17  28
ENDBRANCH  14  17
ENDBRANCH  12  13
BRANCH  12  30
ATOM     30  C   UNL     1      11.766  12.295   3.894  1.00  0.00     0.018 C 
ATOM     31  C   UNL     1      13.214  11.818   4.086  1.00  0.00     0.010 C 
BRANCH  30  32
ATOM     32  C   UNL     1      11.324  13.156   5.103  1.00  0.00     0.002 C 
ATOM     33  C   UNL     1      11.000  14.609   4.783  1.00  0.00     0.004 C 
ENDBRANCH  30  32
ENDBRANCH  12  30
ENDBRANCH  10  12
ENDBRANCH   1  10
BRANCH   5  34
ATOM     34  C   UNL     1       8.860  11.574  -0.368  1.00  0.00     0.242 C 
ATOM     35  O   UNL     1       9.377  10.635  -0.973  1.00  0.00    -0.273 OA
ATOM     36  N   UNL     1       7.602  12.044  -0.669  1.00  0.00    -0.354 N 
ATOM     37  H   UNL     1       7.275  12.900  -0.217  1.00  0.00     0.163 HD
BRANCH  36  38
ATOM     38  C   UNL     1       6.688  11.315  -1.523  1.00  0.00     0.116 C 
BRANCH  38  39
ATOM     39  C   UNL     1       5.346  11.138  -0.815  1.00  0.00     0.023 C 
BRANCH  39  40
ATOM     40  C   UNL     1       5.437  11.410   0.682  1.00  0.00     0.026 C 
BRANCH  40  41
ATOM     41  C   UNL     1       5.472  10.100   1.470  1.00  0.00     0.146 C 
BRANCH  41  42
ATOM     42  N   UNL     1       6.853   9.676   1.660  1.00  0.00    -0.254 NA
ATOM     43  C   UNL     1       7.104   8.467   1.998  1.00  0.00     0.185 C 
ATOM     44  N   UNL     1       6.264   7.440   2.225  1.00  0.00    -0.370 N 
ATOM     45  N   UNL     1       8.383   8.097   2.172  1.00  0.00    -0.370 N 
ATOM     46  H   UNL     1       6.577   6.621   2.717  1.00  0.00     0.159 HD
ATOM     47  H   UNL     1       5.259   7.542   2.125  1.00  0.00     0.159 HD
ATOM     48  H   UNL     1       9.082   8.810   2.011  1.00  0.00     0.159 HD
ATOM     49  H   UNL     1       8.672   7.136   2.201  1.00  0.00     0.159 HD
ENDBRANCH  41  42
ENDBRANCH  40  41
ENDBRANCH  39  40
ENDBRANCH  38  39
ENDBRANCH  36  38
ENDBRANCH   5  34
BRANCH   8  50
ATOM     50  O   UNL     1      13.018  11.953  -2.630  1.00  0.00    -0.245 OA
BRANCH  50  51
ATOM     51  S   UNL     1      13.863  11.597  -3.973  1.00  0.00     0.397 S 
ATOM     52  O   UNL     1      14.507  12.808  -4.429  1.00  0.00    -0.169 OA
ATOM     53  O   UNL     1      13.052  10.789  -4.859  1.00  0.00    -0.169 OA
BRANCH  51  54
ATOM     54  O   UNL     1      15.040  10.668  -3.392  1.00  0.00    -0.264 OA
ATOM     55  H   UNL     1      15.086   9.863  -3.947  1.00  0.00     0.236 HD
ENDBRANCH  51  54
ENDBRANCH  50  51
ENDBRANCH   8  50
TORSDOF 19
ENDMDL
MODEL 38
REMARK VINA RESULT:    -5.247      2.877      5.000
REMARK INTER + INTRA:         -15.382
REMARK INTER:                 -11.724
REMARK INTRA:                  -3.658
REMARK UNBOUND:                -4.768
REMARK SMILES CC[C@@H](C)[C@@H](NC(=O)[C@@H](O)Cc1ccc(O)c(Cl)c1)C(=O)N1[C@H](C(=O)NCCCCN=C(N)N)C[C@H]2CC[C@H](OS(=O)(=O)O)C[C@@H]21
REMARK SMILES IDX 22 1 36 2 46 3 35 4 23 5 45 6 37 7 39 8 38 9 20 10 21 11
REMARK SMILES IDX 5 12 6 13 7 14 8 15 9 17 11 18 12 19 17 20 19 21 15 22 14 23
REMARK SMILES IDX 13 24 18 25 16 26 10 28 3 30 4 31 2 32 1 33 24 34 25 35
REMARK SMILES IDX 26 36 27 38 28 39 29 40 30 41 31 42 32 43 33 44 34 45 40 50
REMARK SMILES IDX 41 51 42 52 43 53 44 54
REMARK H PARENT 6 16 16 27 10 29 26 37 33 46 33 47 34 48 34 49 44 55
ROOT
ATOM      1  N   UNL     1       5.580  10.526   5.334  1.00  0.00    -0.326 N 
ATOM      2  C   UNL     1       7.905  10.787   5.598  1.00  0.00     0.014 C 
ATOM      3  C   UNL     1       6.839   9.819   5.077  1.00  0.00     0.091 C 
ATOM      4  C   UNL     1       7.218  11.433   6.791  1.00  0.00     0.041 C 
ATOM      5  C   UNL     1       5.830  11.714   6.187  1.00  0.00     0.175 C 
ATOM      6  C   UNL     1       7.182   9.452   3.635  1.00  0.00     0.059 C 
ATOM      7  C   UNL     1       9.230  10.078   5.797  1.00  0.00     0.008 C 
ATOM      8  C   UNL     1       8.698   9.432   3.343  1.00  0.00     0.143 C 
ATOM      9  C   UNL     1       9.528   9.138   4.609  1.00  0.00     0.034 C 
ENDROOT
BRANCH   1  10
ATOM     10  C   UNL     1       4.276  10.133   5.090  1.00  0.00     0.246 C 
ATOM     11  O   UNL     1       3.611  10.744   4.247  1.00  0.00    -0.272 OA
BRANCH  10  12
ATOM     12  C   UNL     1       3.690   8.906   5.849  1.00  0.00     0.174 C 
BRANCH  12  13
ATOM     13  N   UNL     1       3.894   9.067   7.288  1.00  0.00    -0.342 N 
ATOM     14  C   UNL     1       2.887   9.152   8.224  1.00  0.00     0.249 C 
ATOM     15  O   UNL     1       1.695   9.074   7.952  1.00  0.00    -0.272 OA
ATOM     16  H   UNL     1       4.817   9.302   7.643  1.00  0.00     0.164 HD
BRANCH  14  17
ATOM     17  C   UNL     1       3.423   9.335   9.660  1.00  0.00     0.207 C 
BRANCH  17  18
ATOM     18  C   UNL     1       4.820   9.964   9.633  1.00  0.00     0.077 C 
BRANCH  18  19
ATOM     19  C   UNL     1       4.891  11.211  10.485  1.00  0.00    -0.043 A 
ATOM     20  C   UNL     1       5.670  13.483  10.826  1.00  0.00     0.083 A 
ATOM     21  C   UNL     1       5.563  12.351  10.018  1.00  0.00     0.028 A 
ATOM     22  C   UNL     1       5.108  13.484  12.104  1.00  0.00     0.134 A 
ATOM     23  C   UNL     1       4.440  12.362  12.580  1.00  0.00     0.048 A 
ATOM     24  C   UNL     1       4.333  11.226  11.773  1.00  0.00     0.008 A 
ATOM     25  Cl  UNL     1       6.500  14.874  10.234  1.00  0.00    -0.080 Cl
BRANCH  22  26
ATOM     26  O   UNL     1       5.196  14.566  12.937  1.00  0.00    -0.506 OA
ATOM     27  H   UNL     1       4.306  14.963  12.975  1.00  0.00     0.293 HD
ENDBRANCH  22  26
ENDBRANCH  18  19
ENDBRANCH  17  18
BRANCH  17  28
ATOM     28  O   UNL     1       3.478   8.080  10.356  1.00  0.00    -0.383 OA
ATOM     29  H   UNL     1       4.405   7.985  10.673  1.00  0.00     0.211 HD
ENDBRANCH  17  28
ENDBRANCH  14  17
ENDBRANCH  12  13
BRANCH  12  30
ATOM     30  C   UNL     1       4.241   7.555   5.319  1.00  0.00     0.018 C 
ATOM     31  C   UNL     1       4.110   7.473   3.790  1.00  0.00     0.010 C 
BRANCH  30  32
ATOM     32  C   UNL     1       3.584   6.316   5.976  1.00  0.00     0.002 C 
ATOM     33  C   UNL     1       4.029   4.970   5.419  1.00  0.00     0.004 C 
ENDBRANCH  30  32
ENDBRANCH  12  30
ENDBRANCH  10  12
ENDBRANCH   1  10
BRANCH   5  34
ATOM     34  C   UNL     1       5.829  13.012   5.336  1.00  0.00     0.242 C 
ATOM     35  O   UNL     1       6.036  14.122   5.829  1.00  0.00    -0.273 OA
ATOM     36  N   UNL     1       5.527  12.840   4.004  1.00  0.00    -0.354 N 
ATOM     37  H   UNL     1       5.248  11.913   3.680  1.00  0.00     0.163 HD
BRANCH  36  38
ATOM     38  C   UNL     1       5.691  13.899   3.030  1.00  0.00     0.116 C 
BRANCH  38  39
ATOM     39  C   UNL     1       5.252  13.409   1.653  1.00  0.00     0.023 C 
BRANCH  39  40
ATOM     40  C   UNL     1       5.517  11.921   1.452  1.00  0.00     0.026 C 
BRANCH  40  41
ATOM     41  C   UNL     1       5.840  11.620  -0.012  1.00  0.00     0.146 C 
BRANCH  41  42
ATOM     42  N   UNL     1       6.961  10.692  -0.088  1.00  0.00    -0.254 NA
ATOM     43  C   UNL     1       7.689  10.664  -1.140  1.00  0.00     0.185 C 
ATOM     44  N   UNL     1       7.604  11.388  -2.271  1.00  0.00    -0.370 N 
ATOM     45  N   UNL     1       8.715   9.798  -1.192  1.00  0.00    -0.370 N 
ATOM     46  H   UNL     1       8.084  11.095  -3.105  1.00  0.00     0.159 HD
ATOM     47  H   UNL     1       6.892  12.102  -2.395  1.00  0.00     0.159 HD
ATOM     48  H   UNL     1       8.855   9.219  -0.375  1.00  0.00     0.159 HD
ATOM     49  H   UNL     1       9.460   9.877  -1.862  1.00  0.00     0.159 HD
ENDBRANCH  41  42
ENDBRANCH  40  41
ENDBRANCH  39  40
ENDBRANCH  38  39
ENDBRANCH  36  38
ENDBRANCH   5  34
BRANCH   8  50
ATOM     50  O   UNL     1       9.112  10.691   2.812  1.00  0.00    -0.245 OA
BRANCH  50  51
ATOM     51  S   UNL     1      10.449  10.772   1.889  1.00  0.00     0.397 S 
ATOM     52  O   UNL     1      11.595  10.840   2.768  1.00  0.00    -0.169 OA
ATOM     53  O   UNL     1      10.248  11.736   0.826  1.00  0.00    -0.169 OA
BRANCH  51  54
ATOM     54  O   UNL     1      10.490   9.307   1.228  1.00  0.00    -0.264 OA
ATOM     55  H   UNL     1      10.956   9.380   0.370  1.00  0.00     0.236 HD
ENDBRANCH  51  54
ENDBRANCH  50  51
ENDBRANCH   8  50
TORSDOF 19
ENDMDL
MODEL 39
REMARK VINA RESULT:    -5.240      4.495      6.725
REMARK INTER + INTRA:         -15.369
REMARK INTER:                 -12.831
REMARK INTRA:                  -2.538
REMARK UNBOUND:                -4.768
REMARK SMILES CC[C@@H](C)[C@@H](NC(=O)[C@@H](O)Cc1ccc(O)c(Cl)c1)C(=O)N1[C@H](C(=O)NCCCCN=C(N)N)C[C@H]2CC[C@H](OS(=O)(=O)O)C[C@@H]21
REMARK SMILES IDX 22 1 36 2 46 3 35 4 23 5 45 6 37 7 39 8 38 9 20 10 21 11
REMARK SMILES IDX 5 12 6 13 7 14 8 15 9 17 11 18 12 19 17 20 19 21 15 22 14 23
REMARK SMILES IDX 13 24 18 25 16 26 10 28 3 30 4 31 2 32 1 33 24 34 25 35
REMARK SMILES IDX 26 36 27 38 28 39 29 40 30 41 31 42 32 43 33 44 34 45 40 50
REMARK SMILES IDX 41 51 42 52 43 53 44 54
REMARK H PARENT 6 16 16 27 10 29 26 37 33 46 33 47 34 48 34 49 44 55
ROOT
ATOM      1  N   UNL     1      10.668  11.710   0.349  1.00  0.00    -0.326 N 
ATOM      2  C   UNL     1      12.437  11.763  -1.203  1.00  0.00     0.014 C 
ATOM      3  C   UNL     1      11.052  11.160  -0.955  1.00  0.00     0.091 C 
ATOM      4  C   UNL     1      13.033  11.822   0.195  1.00  0.00     0.041 C 
ATOM      5  C   UNL     1      11.831  12.382   0.979  1.00  0.00     0.175 C 
ATOM      6  C   UNL     1      10.167  11.470  -2.160  1.00  0.00     0.059 C 
ATOM      7  C   UNL     1      13.171  11.004  -2.292  1.00  0.00     0.008 C 
ATOM      8  C   UNL     1      10.939  11.542  -3.496  1.00  0.00     0.143 C 
ATOM      9  C   UNL     1      12.224  10.690  -3.469  1.00  0.00     0.034 C 
ENDROOT
BRANCH   1  10
ATOM     10  C   UNL     1       9.522  11.503   1.097  1.00  0.00     0.246 C 
ATOM     11  O   UNL     1       8.661  12.388   1.136  1.00  0.00    -0.272 OA
BRANCH  10  12
ATOM     12  C   UNL     1       9.323  10.148   1.836  1.00  0.00     0.174 C 
BRANCH  12  13
ATOM     13  N   UNL     1       7.935  10.020   2.279  1.00  0.00    -0.342 N 
ATOM     14  C   UNL     1       7.200   8.857   2.250  1.00  0.00     0.249 C 
ATOM     15  O   UNL     1       7.642   7.780   1.870  1.00  0.00    -0.272 OA
ATOM     16  H   UNL     1       7.389  10.856   2.472  1.00  0.00     0.164 HD
BRANCH  14  17
ATOM     17  C   UNL     1       5.759   9.049   2.769  1.00  0.00     0.207 C 
BRANCH  17  18
ATOM     18  C   UNL     1       5.014   7.711   2.790  1.00  0.00     0.077 C 
BRANCH  18  19
ATOM     19  C   UNL     1       4.423   7.418   4.151  1.00  0.00    -0.043 A 
ATOM     20  C   UNL     1       3.662   8.186   6.323  1.00  0.00     0.083 A 
ATOM     21  C   UNL     1       4.161   8.464   5.050  1.00  0.00     0.028 A 
ATOM     22  C   UNL     1       3.424   6.865   6.706  1.00  0.00     0.134 A 
ATOM     23  C   UNL     1       3.679   5.820   5.826  1.00  0.00     0.048 A 
ATOM     24  C   UNL     1       4.180   6.095   4.552  1.00  0.00     0.008 A 
ATOM     25  Cl  UNL     1       3.347   9.484   7.413  1.00  0.00    -0.080 Cl
BRANCH  22  26
ATOM     26  O   UNL     1       2.946   6.543   7.947  1.00  0.00    -0.506 OA
ATOM     27  H   UNL     1       2.174   5.964   7.808  1.00  0.00     0.293 HD
ENDBRANCH  22  26
ENDBRANCH  18  19
ENDBRANCH  17  18
BRANCH  17  28
ATOM     28  O   UNL     1       5.036   9.985   1.953  1.00  0.00    -0.383 OA
ATOM     29  H   UNL     1       5.639  10.223   1.213  1.00  0.00     0.211 HD
ENDBRANCH  17  28
ENDBRANCH  14  17
ENDBRANCH  12  13
BRANCH  12  30
ATOM     30  C   UNL     1      10.336   9.941   2.994  1.00  0.00     0.018 C 
ATOM     31  C   UNL     1      10.894   8.509   2.983  1.00  0.00     0.010 C 
BRANCH  30  32
ATOM     32  C   UNL     1       9.760  10.278   4.391  1.00  0.00     0.002 C 
ATOM     33  C   UNL     1       9.979   9.214   5.459  1.00  0.00     0.004 C 
ENDBRANCH  30  32
ENDBRANCH  12  30
ENDBRANCH  10  12
ENDBRANCH   1  10
BRANCH   5  34
ATOM     34  C   UNL     1      11.722  13.923   0.834  1.00  0.00     0.242 C 
ATOM     35  O   UNL     1      10.640  14.510   0.844  1.00  0.00    -0.273 OA
ATOM     36  N   UNL     1      12.916  14.580   0.639  1.00  0.00    -0.354 N 
ATOM     37  H   UNL     1      13.767  14.028   0.519  1.00  0.00     0.163 HD
BRANCH  36  38
ATOM     38  C   UNL     1      13.025  16.023   0.699  1.00  0.00     0.116 C 
BRANCH  38  39
ATOM     39  C   UNL     1      13.963  16.425   1.834  1.00  0.00     0.023 C 
BRANCH  39  40
ATOM     40  C   UNL     1      14.940  15.314   2.204  1.00  0.00     0.026 C 
BRANCH  40  41
ATOM     41  C   UNL     1      14.847  14.982   3.693  1.00  0.00     0.146 C 
BRANCH  41  42
ATOM     42  N   UNL     1      13.462  14.703   4.049  1.00  0.00    -0.254 NA
ATOM     43  C   UNL     1      13.117  13.510   4.361  1.00  0.00     0.185 C 
ATOM     44  N   UNL     1      13.852  12.385   4.426  1.00  0.00    -0.370 N 
ATOM     45  N   UNL     1      11.834  13.272   4.681  1.00  0.00    -0.370 N 
ATOM     46  H   UNL     1      13.409  11.483   4.445  1.00  0.00     0.159 HD
ATOM     47  H   UNL     1      14.848  12.388   4.227  1.00  0.00     0.159 HD
ATOM     48  H   UNL     1      11.213  14.070   4.666  1.00  0.00     0.159 HD
ATOM     49  H   UNL     1      11.538  12.439   5.158  1.00  0.00     0.159 HD
ENDBRANCH  41  42
ENDBRANCH  40  41
ENDBRANCH  39  40
ENDBRANCH  38  39
ENDBRANCH  36  38
ENDBRANCH   5  34
BRANCH   8  50
ATOM     50  O   UNL     1      11.298  12.894  -3.782  1.00  0.00    -0.245 OA
BRANCH  50  51
ATOM     51  S   UNL     1      11.572  13.344  -5.321  1.00  0.00     0.397 S 
ATOM     52  O   UNL     1      11.167  14.724  -5.461  1.00  0.00    -0.169 OA
ATOM     53  O   UNL     1      11.091  12.316  -6.220  1.00  0.00    -0.169 OA
BRANCH  51  54
ATOM     54  O   UNL     1      13.178  13.349  -5.388  1.00  0.00    -0.264 OA
ATOM     55  H   UNL     1      13.515  13.411  -4.471  1.00  0.00     0.236 HD
ENDBRANCH  51  54
ENDBRANCH  50  51
ENDBRANCH   8  50
TORSDOF 19
ENDMDL
MODEL 40
REMARK VINA RESULT:    -5.215      3.764      5.309
REMARK INTER + INTRA:         -15.317
REMARK INTER:                 -13.234
REMARK INTRA:                  -2.083
REMARK UNBOUND:                -4.768
REMARK SMILES CC[C@@H](C)[C@@H](NC(=O)[C@@H](O)Cc1ccc(O)c(Cl)c1)C(=O)N1[C@H](C(=O)NCCCCN=C(N)N)C[C@H]2CC[C@H](OS(=O)(=O)O)C[C@@H]21
REMARK SMILES IDX 22 1 36 2 46 3 35 4 23 5 45 6 37 7 39 8 38 9 20 10 21 11
REMARK SMILES IDX 5 12 6 13 7 14 8 15 9 17 11 18 12 19 17 20 19 21 15 22 14 23
REMARK SMILES IDX 13 24 18 25 16 26 10 28 3 30 4 31 2 32 1 33 24 34 25 35
REMARK SMILES IDX 26 36 27 38 28 39 29 40 30 41 31 42 32 43 33 44 34 45 40 50
REMARK SMILES IDX 41 51 42 52 43 53 44 54
REMARK H PARENT 6 16 16 27 10 29 26 37 33 46 33 47 34 48 34 49 44 55
ROOT
ATOM      1  N   UNL     1       8.406  10.340   1.896  1.00  0.00    -0.326 N 
ATOM      2  C   UNL     1       9.453  12.317   1.162  1.00  0.00     0.014 C 
ATOM      3  C   UNL     1       9.740  10.925   1.731  1.00  0.00     0.091 C 
ATOM      4  C   UNL     1       8.152  12.698   1.851  1.00  0.00     0.041 C 
ATOM      5  C   UNL     1       7.368  11.381   1.701  1.00  0.00     0.175 C 
ATOM      6  C   UNL     1      10.731  10.220   0.806  1.00  0.00     0.059 C 
ATOM      7  C   UNL     1      10.662  13.221   1.304  1.00  0.00     0.008 C 
ATOM      8  C   UNL     1      11.721  11.178   0.110  1.00  0.00     0.143 C 
ATOM      9  C   UNL     1      11.953  12.465   0.928  1.00  0.00     0.034 C 
ENDROOT
BRANCH   1  10
ATOM     10  C   UNL     1       8.035   9.101   2.391  1.00  0.00     0.246 C 
ATOM     11  O   UNL     1       7.722   8.207   1.598  1.00  0.00    -0.272 OA
BRANCH  10  12
ATOM     12  C   UNL     1       8.060   8.849   3.926  1.00  0.00     0.174 C 
BRANCH  12  13
ATOM     13  N   UNL     1       6.756   9.169   4.506  1.00  0.00    -0.342 N 
ATOM     14  C   UNL     1       5.638   8.370   4.425  1.00  0.00     0.249 C 
ATOM     15  O   UNL     1       5.620   7.276   3.875  1.00  0.00    -0.272 OA
ATOM     16  H   UNL     1       6.576  10.107   4.855  1.00  0.00     0.164 HD
BRANCH  14  17
ATOM     17  C   UNL     1       4.410   8.992   5.122  1.00  0.00     0.207 C 
BRANCH  17  18
ATOM     18  C   UNL     1       3.571   7.904   5.800  1.00  0.00     0.077 C 
BRANCH  18  19
ATOM     19  C   UNL     1       3.149   8.307   7.195  1.00  0.00    -0.043 A 
ATOM     20  C   UNL     1       2.059   7.780   9.297  1.00  0.00     0.083 A 
ATOM     21  C   UNL     1       2.490   7.390   8.029  1.00  0.00     0.028 A 
ATOM     22  C   UNL     1       2.281   9.084   9.739  1.00  0.00     0.134 A 
ATOM     23  C   UNL     1       2.933  10.003   8.925  1.00  0.00     0.048 A 
ATOM     24  C   UNL     1       3.364   9.616   7.654  1.00  0.00     0.008 A 
ATOM     25  Cl  UNL     1       1.250   6.639  10.306  1.00  0.00    -0.080 Cl
BRANCH  22  26
ATOM     26  O   UNL     1       1.867   9.516  10.971  1.00  0.00    -0.506 OA
ATOM     27  H   UNL     1       1.995  10.483  10.986  1.00  0.00     0.293 HD
ENDBRANCH  22  26
ENDBRANCH  18  19
ENDBRANCH  17  18
BRANCH  17  28
ATOM     28  O   UNL     1       3.591   9.710   4.185  1.00  0.00    -0.383 OA
ATOM     29  H   UNL     1       2.684   9.338   4.275  1.00  0.00     0.211 HD
ENDBRANCH  17  28
ENDBRANCH  14  17
ENDBRANCH  12  13
BRANCH  12  30
ATOM     30  C   UNL     1       9.223   9.593   4.637  1.00  0.00     0.018 C 
ATOM     31  C   UNL     1      10.236   8.595   5.219  1.00  0.00     0.010 C 
BRANCH  30  32
ATOM     32  C   UNL     1       8.752  10.576   5.737  1.00  0.00     0.002 C 
ATOM     33  C   UNL     1       8.860  12.053   5.381  1.00  0.00     0.004 C 
ENDBRANCH  30  32
ENDBRANCH  12  30
ENDBRANCH  10  12
ENDBRANCH   1  10
BRANCH   5  34
ATOM     34  C   UNL     1       6.722  11.258   0.295  1.00  0.00     0.242 C 
ATOM     35  O   UNL     1       7.383  11.005  -0.713  1.00  0.00    -0.273 OA
ATOM     36  N   UNL     1       5.369  11.504   0.248  1.00  0.00    -0.354 N 
ATOM     37  H   UNL     1       4.898  11.826   1.094  1.00  0.00     0.163 HD
BRANCH  36  38
ATOM     38  C   UNL     1       4.572  11.225  -0.929  1.00  0.00     0.116 C 
BRANCH  38  39
ATOM     39  C   UNL     1       3.139  11.704  -0.711  1.00  0.00     0.023 C 
BRANCH  39  40
ATOM     40  C   UNL     1       2.177  10.555  -0.430  1.00  0.00     0.026 C 
BRANCH  40  41
ATOM     41  C   UNL     1       0.951  10.640  -1.340  1.00  0.00     0.146 C 
BRANCH  41  42
ATOM     42  N   UNL     1       0.596   9.309  -1.814  1.00  0.00    -0.254 NA
ATOM     43  C   UNL     1      -0.372   8.678  -1.265  1.00  0.00     0.185 C 
ATOM     44  N   UNL     1      -1.184   9.046  -0.256  1.00  0.00    -0.370 N 
ATOM     45  N   UNL     1      -0.680   7.450  -1.714  1.00  0.00    -0.370 N 
ATOM     46  H   UNL     1      -1.736   8.363   0.233  1.00  0.00     0.159 HD
ATOM     47  H   UNL     1      -1.098   9.953   0.192  1.00  0.00     0.159 HD
ATOM     48  H   UNL     1      -0.122   7.100  -2.480  1.00  0.00     0.159 HD
ATOM     49  H   UNL     1      -1.553   6.998  -1.506  1.00  0.00     0.159 HD
ENDBRANCH  41  42
ENDBRANCH  40  41
ENDBRANCH  39  40
ENDBRANCH  38  39
ENDBRANCH  36  38
ENDBRANCH   5  34
BRANCH   8  50
ATOM     50  O   UNL     1      11.227  11.543  -1.179  1.00  0.00    -0.245 OA
BRANCH  50  51
ATOM     51  S   UNL     1      12.138  11.264  -2.497  1.00  0.00     0.397 S 
ATOM     52  O   UNL     1      12.690  12.526  -2.934  1.00  0.00    -0.169 OA
ATOM     53  O   UNL     1      11.424  10.392  -3.406  1.00  0.00    -0.169 OA
BRANCH  51  54
ATOM     54  O   UNL     1      13.372  10.435  -1.882  1.00  0.00    -0.264 OA
ATOM     55  H   UNL     1      14.144  11.036  -1.843  1.00  0.00     0.236 HD
ENDBRANCH  51  54
ENDBRANCH  50  51
ENDBRANCH   8  50
TORSDOF 19
ENDMDL
MODEL 41
REMARK VINA RESULT:    -5.198      4.146      5.920
REMARK INTER + INTRA:         -15.283
REMARK INTER:                 -12.025
REMARK INTRA:                  -3.257
REMARK UNBOUND:                -4.768
REMARK SMILES CC[C@@H](C)[C@@H](NC(=O)[C@@H](O)Cc1ccc(O)c(Cl)c1)C(=O)N1[C@H](C(=O)NCCCCN=C(N)N)C[C@H]2CC[C@H](OS(=O)(=O)O)C[C@@H]21
REMARK SMILES IDX 22 1 36 2 46 3 35 4 23 5 45 6 37 7 39 8 38 9 20 10 21 11
REMARK SMILES IDX 5 12 6 13 7 14 8 15 9 17 11 18 12 19 17 20 19 21 15 22 14 23
REMARK SMILES IDX 13 24 18 25 16 26 10 28 3 30 4 31 2 32 1 33 24 34 25 35
REMARK SMILES IDX 26 36 27 38 28 39 29 40 30 41 31 42 32 43 33 44 34 45 40 50
REMARK SMILES IDX 41 51 42 52 43 53 44 54
REMARK H PARENT 6 16 16 27 10 29 26 37 33 46 33 47 34 48 34 49 44 55
ROOT
ATOM      1  N   UNL     1      10.487  11.955   1.354  1.00  0.00    -0.326 N 
ATOM      2  C   UNL     1      10.853  14.270   1.137  1.00  0.00     0.014 C 
ATOM      3  C   UNL     1      11.576  12.936   1.340  1.00  0.00     0.091 C 
ATOM      4  C   UNL     1       9.553  14.066   1.900  1.00  0.00     0.041 C 
ATOM      5  C   UNL     1       9.178  12.650   1.425  1.00  0.00     0.175 C 
ATOM      6  C   UNL     1      12.656  12.803   0.268  1.00  0.00     0.059 C 
ATOM      7  C   UNL     1      11.753  15.435   1.499  1.00  0.00     0.008 C 
ATOM      8  C   UNL     1      13.268  14.152  -0.167  1.00  0.00     0.143 C 
ATOM      9  C   UNL     1      13.176  15.216   0.945  1.00  0.00     0.034 C 
ENDROOT
BRANCH   1  10
ATOM     10  C   UNL     1      10.532  10.581   1.524  1.00  0.00     0.246 C 
ATOM     11  O   UNL     1      10.953   9.875   0.602  1.00  0.00    -0.272 OA
BRANCH  10  12
ATOM     12  C   UNL     1      10.093   9.962   2.883  1.00  0.00     0.174 C 
BRANCH  12  13
ATOM     13  N   UNL     1       8.709  10.334   3.177  1.00  0.00    -0.342 N 
ATOM     14  C   UNL     1       7.600   9.600   2.820  1.00  0.00     0.249 C 
ATOM     15  O   UNL     1       7.653   8.527   2.233  1.00  0.00    -0.272 OA
ATOM     16  H   UNL     1       8.501  11.269   3.518  1.00  0.00     0.164 HD
BRANCH  14  17
ATOM     17  C   UNL     1       6.279  10.267   3.258  1.00  0.00     0.207 C 
BRANCH  17  18
ATOM     18  C   UNL     1       5.084   9.381   2.890  1.00  0.00     0.077 C 
BRANCH  18  19
ATOM     19  C   UNL     1       4.530   8.656   4.095  1.00  0.00    -0.043 A 
ATOM     20  C   UNL     1       3.970   6.586   5.230  1.00  0.00     0.083 A 
ATOM     21  C   UNL     1       4.528   7.253   4.139  1.00  0.00     0.028 A 
ATOM     22  C   UNL     1       3.411   7.314   6.282  1.00  0.00     0.134 A 
ATOM     23  C   UNL     1       3.407   8.704   6.252  1.00  0.00     0.048 A 
ATOM     24  C   UNL     1       3.963   9.374   5.159  1.00  0.00     0.008 A 
ATOM     25  Cl  UNL     1       3.977   4.862   5.266  1.00  0.00    -0.080 Cl
BRANCH  22  26
ATOM     26  O   UNL     1       2.844   6.705   7.368  1.00  0.00    -0.506 OA
ATOM     27  H   UNL     1       1.933   6.468   7.112  1.00  0.00     0.293 HD
ENDBRANCH  22  26
ENDBRANCH  18  19
ENDBRANCH  17  18
BRANCH  17  28
ATOM     28  O   UNL     1       6.122  11.557   2.646  1.00  0.00    -0.383 OA
ATOM     29  H   UNL     1       6.470  11.467   1.730  1.00  0.00     0.211 HD
ENDBRANCH  17  28
ENDBRANCH  14  17
ENDBRANCH  12  13
BRANCH  12  30
ATOM     30  C   UNL     1      11.061  10.315   4.044  1.00  0.00     0.018 C 
ATOM     31  C   UNL     1      10.630  11.617   4.738  1.00  0.00     0.010 C 
BRANCH  30  32
ATOM     32  C   UNL     1      12.544  10.410   3.610  1.00  0.00     0.002 C 
ATOM     33  C   UNL     1      13.289  11.644   4.102  1.00  0.00     0.004 C 
ENDBRANCH  30  32
ENDBRANCH  12  30
ENDBRANCH  10  12
ENDBRANCH   1  10
BRANCH   5  34
ATOM     34  C   UNL     1       8.493  12.676   0.033  1.00  0.00     0.242 C 
ATOM     35  O   UNL     1       7.551  13.426  -0.223  1.00  0.00    -0.273 OA
ATOM     36  N   UNL     1       8.978  11.763  -0.876  1.00  0.00    -0.354 N 
ATOM     37  H   UNL     1       9.678  11.087  -0.567  1.00  0.00     0.163 HD
BRANCH  36  38
ATOM     38  C   UNL     1       8.608  11.793  -2.276  1.00  0.00     0.116 C 
BRANCH  38  39
ATOM     39  C   UNL     1       9.809  11.411  -3.138  1.00  0.00     0.023 C 
BRANCH  39  40
ATOM     40  C   UNL     1      11.137  11.679  -2.438  1.00  0.00     0.026 C 
BRANCH  40  41
ATOM     41  C   UNL     1      12.236  10.775  -2.998  1.00  0.00     0.146 C 
BRANCH  41  42
ATOM     42  N   UNL     1      12.064  10.624  -4.437  1.00  0.00    -0.254 NA
ATOM     43  C   UNL     1      12.821  11.275  -5.237  1.00  0.00     0.185 C 
ATOM     44  N   UNL     1      13.821  12.136  -4.974  1.00  0.00    -0.370 N 
ATOM     45  N   UNL     1      12.644  11.125  -6.560  1.00  0.00    -0.370 N 
ATOM     46  H   UNL     1      14.165  12.757  -5.688  1.00  0.00     0.159 HD
ATOM     47  H   UNL     1      14.099  12.356  -4.023  1.00  0.00     0.159 HD
ATOM     48  H   UNL     1      11.914  10.485  -6.845  1.00  0.00     0.159 HD
ATOM     49  H   UNL     1      13.331  11.405  -7.237  1.00  0.00     0.159 HD
ENDBRANCH  41  42
ENDBRANCH  40  41
ENDBRANCH  39  40
ENDBRANCH  38  39
ENDBRANCH  36  38
ENDBRANCH   5  34
BRANCH   8  50
ATOM     50  O   UNL     1      12.593  14.647  -1.324  1.00  0.00    -0.245 OA
BRANCH  50  51
ATOM     51  S   UNL     1      13.446  14.990  -2.666  1.00  0.00     0.397 S 
ATOM     52  O   UNL     1      14.106  16.260  -2.463  1.00  0.00    -0.169 OA
ATOM     53  O   UNL     1      12.633  14.735  -3.837  1.00  0.00    -0.169 OA
BRANCH  51  54
ATOM     54  O   UNL     1      14.609  13.880  -2.618  1.00  0.00    -0.264 OA
ATOM     55  H   UNL     1      15.156  13.987  -3.422  1.00  0.00     0.236 HD
ENDBRANCH  51  54
ENDBRANCH  50  51
ENDBRANCH   8  50
TORSDOF 19
ENDMDL
MODEL 42
REMARK VINA RESULT:    -5.156      4.601      9.255
REMARK INTER + INTRA:         -15.198
REMARK INTER:                 -11.519
REMARK INTRA:                  -3.679
REMARK UNBOUND:                -4.768
REMARK SMILES CC[C@@H](C)[C@@H](NC(=O)[C@@H](O)Cc1ccc(O)c(Cl)c1)C(=O)N1[C@H](C(=O)NCCCCN=C(N)N)C[C@H]2CC[C@H](OS(=O)(=O)O)C[C@@H]21
REMARK SMILES IDX 22 1 36 2 46 3 35 4 23 5 45 6 37 7 39 8 38 9 20 10 21 11
REMARK SMILES IDX 5 12 6 13 7 14 8 15 9 17 11 18 12 19 17 20 19 21 15 22 14 23
REMARK SMILES IDX 13 24 18 25 16 26 10 28 3 30 4 31 2 32 1 33 24 34 25 35
REMARK SMILES IDX 26 36 27 38 28 39 29 40 30 41 31 42 32 43 33 44 34 45 40 50
REMARK SMILES IDX 41 51 42 52 43 53 44 54
REMARK H PARENT 6 16 16 27 10 29 26 37 33 46 33 47 34 48 34 49 44 55
ROOT
ATOM      1  N   UNL     1       1.217  11.980  11.434  1.00  0.00    -0.326 N 
ATOM      2  C   UNL     1      -0.742  11.983  10.128  1.00  0.00     0.014 C 
ATOM      3  C   UNL     1       0.248  12.907  10.843  1.00  0.00     0.091 C 
ATOM      4  C   UNL     1      -0.784  10.767  11.041  1.00  0.00     0.041 C 
ATOM      5  C   UNL     1       0.719  10.586  11.323  1.00  0.00     0.175 C 
ATOM      6  C   UNL     1       0.754  13.941   9.839  1.00  0.00     0.059 C 
ATOM      7  C   UNL     1      -2.030  12.714   9.804  1.00  0.00     0.008 C 
ATOM      8  C   UNL     1      -0.284  14.322   8.762  1.00  0.00     0.143 C 
ATOM      9  C   UNL     1      -1.731  14.126   9.257  1.00  0.00     0.034 C 
ENDROOT
BRANCH   1  10
ATOM     10  C   UNL     1       2.330  12.239  12.215  1.00  0.00     0.246 C 
ATOM     11  O   UNL     1       2.313  11.925  13.410  1.00  0.00    -0.272 OA
BRANCH  10  12
ATOM     12  C   UNL     1       3.592  12.877  11.565  1.00  0.00     0.174 C 
BRANCH  12  13
ATOM     13  N   UNL     1       4.252  11.904  10.696  1.00  0.00    -0.342 N 
ATOM     14  C   UNL     1       4.506  12.085   9.355  1.00  0.00     0.249 C 
ATOM     15  O   UNL     1       4.228  13.108   8.741  1.00  0.00    -0.272 OA
ATOM     16  H   UNL     1       4.398  10.953  11.025  1.00  0.00     0.164 HD
BRANCH  14  17
ATOM     17  C   UNL     1       5.201  10.867   8.710  1.00  0.00     0.207 C 
BRANCH  17  18
ATOM     18  C   UNL     1       4.461  10.439   7.439  1.00  0.00     0.077 C 
BRANCH  18  19
ATOM     19  C   UNL     1       5.353  10.508   6.220  1.00  0.00    -0.043 A 
ATOM     20  C   UNL     1       7.564  10.687   5.240  1.00  0.00     0.083 A 
ATOM     21  C   UNL     1       6.747  10.574   6.365  1.00  0.00     0.028 A 
ATOM     22  C   UNL     1       6.996  10.735   3.966  1.00  0.00     0.134 A 
ATOM     23  C   UNL     1       5.617  10.671   3.808  1.00  0.00     0.048 A 
ATOM     24  C   UNL     1       4.796  10.560   4.933  1.00  0.00     0.008 A 
ATOM     25  Cl  UNL     1       9.276  10.767   5.438  1.00  0.00    -0.080 Cl
BRANCH  22  26
ATOM     26  O   UNL     1       7.756  10.856   2.834  1.00  0.00    -0.506 OA
ATOM     27  H   UNL     1       8.582  10.365   2.997  1.00  0.00     0.293 HD
ENDBRANCH  22  26
ENDBRANCH  18  19
ENDBRANCH  17  18
BRANCH  17  28
ATOM     28  O   UNL     1       5.258   9.760   9.624  1.00  0.00    -0.383 OA
ATOM     29  H   UNL     1       4.798  10.058  10.441  1.00  0.00     0.211 HD
ENDBRANCH  17  28
ENDBRANCH  14  17
ENDBRANCH  12  13
BRANCH  12  30
ATOM     30  C   UNL     1       4.560  13.491  12.611  1.00  0.00     0.018 C 
ATOM     31  C   UNL     1       4.469  15.025  12.607  1.00  0.00     0.010 C 
BRANCH  30  32
ATOM     32  C   UNL     1       6.032  13.046  12.431  1.00  0.00     0.002 C 
ATOM     33  C   UNL     1       6.529  12.018  13.439  1.00  0.00     0.004 C 
ENDBRANCH  30  32
ENDBRANCH  12  30
ENDBRANCH  10  12
ENDBRANCH   1  10
BRANCH   5  34
ATOM     34  C   UNL     1       1.433   9.838  10.166  1.00  0.00     0.242 C 
ATOM     35  O   UNL     1       1.689  10.380   9.091  1.00  0.00    -0.273 OA
ATOM     36  N   UNL     1       1.709   8.511  10.409  1.00  0.00    -0.354 N 
ATOM     37  H   UNL     1       1.365   8.088  11.272  1.00  0.00     0.163 HD
BRANCH  36  38
ATOM     38  C   UNL     1       2.555   7.725   9.536  1.00  0.00     0.116 C 
BRANCH  38  39
ATOM     39  C   UNL     1       1.708   7.060   8.453  1.00  0.00     0.023 C 
BRANCH  39  40
ATOM     40  C   UNL     1       2.153   7.444   7.046  1.00  0.00     0.026 C 
BRANCH  40  41
ATOM     41  C   UNL     1       3.273   6.524   6.562  1.00  0.00     0.146 C 
BRANCH  41  42
ATOM     42  N   UNL     1       3.253   6.448   5.107  1.00  0.00    -0.254 NA
ATOM     43  C   UNL     1       4.305   6.749   4.443  1.00  0.00     0.185 C 
ATOM     44  N   UNL     1       5.515   7.152   4.873  1.00  0.00    -0.370 N 
ATOM     45  N   UNL     1       4.265   6.676   3.102  1.00  0.00    -0.370 N 
ATOM     46  H   UNL     1       6.166   7.586   4.241  1.00  0.00     0.159 HD
ATOM     47  H   UNL     1       5.724   7.248   5.862  1.00  0.00     0.159 HD
ATOM     48  H   UNL     1       3.391   6.371   2.696  1.00  0.00     0.159 HD
ATOM     49  H   UNL     1       5.093   6.663   2.533  1.00  0.00     0.159 HD
ENDBRANCH  41  42
ENDBRANCH  40  41
ENDBRANCH  39  40
ENDBRANCH  38  39
ENDBRANCH  36  38
ENDBRANCH   5  34
BRANCH   8  50
ATOM     50  O   UNL     1      -0.093  13.525   7.593  1.00  0.00    -0.245 OA
BRANCH  50  51
ATOM     51  S   UNL     1       0.913  14.042   6.424  1.00  0.00     0.397 S 
ATOM     52  O   UNL     1       1.386  15.358   6.792  1.00  0.00    -0.169 OA
ATOM     53  O   UNL     1       0.326  13.781   5.126  1.00  0.00    -0.169 OA
BRANCH  51  54
ATOM     54  O   UNL     1       2.172  13.058   6.606  1.00  0.00    -0.264 OA
ATOM     55  H   UNL     1       1.878  12.153   6.379  1.00  0.00     0.236 HD
ENDBRANCH  51  54
ENDBRANCH  50  51
ENDBRANCH   8  50
TORSDOF 19
ENDMDL
MODEL 43
REMARK VINA RESULT:    -5.089      3.214      5.281
REMARK INTER + INTRA:         -15.063
REMARK INTER:                 -12.101
REMARK INTRA:                  -2.962
REMARK UNBOUND:                -4.768
REMARK SMILES CC[C@@H](C)[C@@H](NC(=O)[C@@H](O)Cc1ccc(O)c(Cl)c1)C(=O)N1[C@H](C(=O)NCCCCN=C(N)N)C[C@H]2CC[C@H](OS(=O)(=O)O)C[C@@H]21
REMARK SMILES IDX 22 1 36 2 46 3 35 4 23 5 45 6 37 7 39 8 38 9 20 10 21 11
REMARK SMILES IDX 5 12 6 13 7 14 8 15 9 17 11 18 12 19 17 20 19 21 15 22 14 23
REMARK SMILES IDX 13 24 18 25 16 26 10 28 3 30 4 31 2 32 1 33 24 34 25 35
REMARK SMILES IDX 26 36 27 38 28 39 29 40 30 41 31 42 32 43 33 44 34 45 40 50
REMARK SMILES IDX 41 51 42 52 43 53 44 54
REMARK H PARENT 6 16 16 27 10 29 26 37 33 46 33 47 34 48 34 49 44 55
ROOT
ATOM      1  N   UNL     1       5.664  10.501   5.300  1.00  0.00    -0.326 N 
ATOM      2  C   UNL     1       8.002  10.660   5.515  1.00  0.00     0.014 C 
ATOM      3  C   UNL     1       6.884   9.740   5.017  1.00  0.00     0.091 C 
ATOM      4  C   UNL     1       7.369  11.334   6.723  1.00  0.00     0.041 C 
ATOM      5  C   UNL     1       5.982  11.676   6.148  1.00  0.00     0.175 C 
ATOM      6  C   UNL     1       7.181   9.360   3.568  1.00  0.00     0.059 C 
ATOM      7  C   UNL     1       9.299   9.894   5.687  1.00  0.00     0.008 C 
ATOM      8  C   UNL     1       8.689   9.274   3.245  1.00  0.00     0.143 C 
ATOM      9  C   UNL     1       9.531   8.943   4.494  1.00  0.00     0.034 C 
ENDROOT
BRANCH   1  10
ATOM     10  C   UNL     1       4.338  10.165   5.083  1.00  0.00     0.246 C 
ATOM     11  O   UNL     1       3.676  10.823   4.274  1.00  0.00    -0.272 OA
BRANCH  10  12
ATOM     12  C   UNL     1       3.725   8.944   5.828  1.00  0.00     0.174 C 
BRANCH  12  13
ATOM     13  N   UNL     1       3.918   9.091   7.270  1.00  0.00    -0.342 N 
ATOM     14  C   UNL     1       2.907   9.126   8.203  1.00  0.00     0.249 C 
ATOM     15  O   UNL     1       1.719   9.007   7.927  1.00  0.00    -0.272 OA
ATOM     16  H   UNL     1       4.831   9.356   7.631  1.00  0.00     0.164 HD
BRANCH  14  17
ATOM     17  C   UNL     1       3.431   9.309   9.644  1.00  0.00     0.207 C 
BRANCH  17  18
ATOM     18  C   UNL     1       4.798  10.001   9.632  1.00  0.00     0.077 C 
BRANCH  18  19
ATOM     19  C   UNL     1       4.801  11.252  10.482  1.00  0.00    -0.043 A 
ATOM     20  C   UNL     1       5.800  13.376  11.092  1.00  0.00     0.083 A 
ATOM     21  C   UNL     1       5.769  12.246  10.274  1.00  0.00     0.028 A 
ATOM     22  C   UNL     1       4.869  13.519  12.121  1.00  0.00     0.134 A 
ATOM     23  C   UNL     1       3.905  12.541  12.338  1.00  0.00     0.048 A 
ATOM     24  C   UNL     1       3.872  11.408  11.522  1.00  0.00     0.008 A 
ATOM     25  Cl  UNL     1       6.997  14.588  10.821  1.00  0.00    -0.080 Cl
BRANCH  22  26
ATOM     26  O   UNL     1       4.866  14.603  12.956  1.00  0.00    -0.506 OA
ATOM     27  H   UNL     1       4.134  14.470  13.586  1.00  0.00     0.293 HD
ENDBRANCH  22  26
ENDBRANCH  18  19
ENDBRANCH  17  18
BRANCH  17  28
ATOM     28  O   UNL     1       3.543   8.045  10.318  1.00  0.00    -0.383 OA
ATOM     29  H   UNL     1       4.472   7.987  10.636  1.00  0.00     0.211 HD
ENDBRANCH  17  28
ENDBRANCH  14  17
ENDBRANCH  12  13
BRANCH  12  30
ATOM     30  C   UNL     1       4.257   7.587   5.294  1.00  0.00     0.018 C 
ATOM     31  C   UNL     1       4.086   7.494   3.770  1.00  0.00     0.010 C 
BRANCH  30  32
ATOM     32  C   UNL     1       3.613   6.356   5.977  1.00  0.00     0.002 C 
ATOM     33  C   UNL     1       4.059   5.004   5.436  1.00  0.00     0.004 C 
ENDBRANCH  30  32
ENDBRANCH  12  30
ENDBRANCH  10  12
ENDBRANCH   1  10
BRANCH   5  34
ATOM     34  C   UNL     1       6.021  12.974   5.298  1.00  0.00     0.242 C 
ATOM     35  O   UNL     1       5.190  13.873   5.431  1.00  0.00    -0.273 OA
ATOM     36  N   UNL     1       7.017  13.024   4.348  1.00  0.00    -0.354 N 
ATOM     37  H   UNL     1       7.600  12.198   4.204  1.00  0.00     0.163 HD
BRANCH  36  38
ATOM     38  C   UNL     1       7.332  14.236   3.621  1.00  0.00     0.116 C 
BRANCH  38  39
ATOM     39  C   UNL     1       8.745  14.698   3.971  1.00  0.00     0.023 C 
BRANCH  39  40
ATOM     40  C   UNL     1       9.624  13.556   4.470  1.00  0.00     0.026 C 
BRANCH  40  41
ATOM     41  C   UNL     1      10.940  13.507   3.693  1.00  0.00     0.146 C 
BRANCH  41  42
ATOM     42  N   UNL     1      11.913  12.704   4.423  1.00  0.00    -0.254 NA
ATOM     43  C   UNL     1      12.809  12.055   3.779  1.00  0.00     0.185 C 
ATOM     44  N   UNL     1      13.035  11.974   2.455  1.00  0.00    -0.370 N 
ATOM     45  N   UNL     1      13.694  11.317   4.470  1.00  0.00    -0.370 N 
ATOM     46  H   UNL     1      13.612  11.242   2.077  1.00  0.00     0.159 HD
ATOM     47  H   UNL     1      12.466  12.482   1.785  1.00  0.00     0.159 HD
ATOM     48  H   UNL     1      13.599  11.330   5.476  1.00  0.00     0.159 HD
ATOM     49  H   UNL     1      14.551  10.981   4.069  1.00  0.00     0.159 HD
ENDBRANCH  41  42
ENDBRANCH  40  41
ENDBRANCH  39  40
ENDBRANCH  38  39
ENDBRANCH  36  38
ENDBRANCH   5  34
BRANCH   8  50
ATOM     50  O   UNL     1       9.146  10.514   2.705  1.00  0.00    -0.245 OA
BRANCH  50  51
ATOM     51  S   UNL     1       9.689  10.571   1.173  1.00  0.00     0.397 S 
ATOM     52  O   UNL     1       8.698   9.948   0.325  1.00  0.00    -0.169 OA
ATOM     53  O   UNL     1      11.081  10.173   1.135  1.00  0.00    -0.169 OA
BRANCH  51  54
ATOM     54  O   UNL     1       9.615  12.145   0.850  1.00  0.00    -0.264 OA
ATOM     55  H   UNL     1      10.291  12.342   0.170  1.00  0.00     0.236 HD
ENDBRANCH  51  54
ENDBRANCH  50  51
ENDBRANCH   8  50
TORSDOF 19
ENDMDL
MODEL 44
REMARK VINA RESULT:    -5.087      4.237      6.087
REMARK INTER + INTRA:         -15.059
REMARK INTER:                 -10.817
REMARK INTRA:                  -4.242
REMARK UNBOUND:                -4.768
REMARK SMILES CC[C@@H](C)[C@@H](NC(=O)[C@@H](O)Cc1ccc(O)c(Cl)c1)C(=O)N1[C@H](C(=O)NCCCCN=C(N)N)C[C@H]2CC[C@H](OS(=O)(=O)O)C[C@@H]21
REMARK SMILES IDX 22 1 36 2 46 3 35 4 23 5 45 6 37 7 39 8 38 9 20 10 21 11
REMARK SMILES IDX 5 12 6 13 7 14 8 15 9 17 11 18 12 19 17 20 19 21 15 22 14 23
REMARK SMILES IDX 13 24 18 25 16 26 10 28 3 30 4 31 2 32 1 33 24 34 25 35
REMARK SMILES IDX 26 36 27 38 28 39 29 40 30 41 31 42 32 43 33 44 34 45 40 50
REMARK SMILES IDX 41 51 42 52 43 53 44 54
REMARK H PARENT 6 16 16 27 10 29 26 37 33 46 33 47 34 48 34 49 44 55
ROOT
ATOM      1  N   UNL     1      10.065  11.155   0.551  1.00  0.00    -0.326 N 
ATOM      2  C   UNL     1      12.171  12.022  -0.047  1.00  0.00     0.014 C 
ATOM      3  C   UNL     1      11.281  10.782  -0.176  1.00  0.00     0.091 C 
ATOM      4  C   UNL     1      11.822  12.541   1.340  1.00  0.00     0.041 C 
ATOM      5  C   UNL     1      10.287  12.418   1.298  1.00  0.00     0.175 C 
ATOM      6  C   UNL     1      11.160  10.427  -1.657  1.00  0.00     0.059 C 
ATOM      7  C   UNL     1      13.613  11.691  -0.375  1.00  0.00     0.008 C 
ATOM      8  C   UNL     1      12.414  10.780  -2.485  1.00  0.00     0.143 C 
ATOM      9  C   UNL     1      13.694  10.788  -1.624  1.00  0.00     0.034 C 
ENDROOT
BRANCH   1  10
ATOM     10  C   UNL     1       8.913  10.425   0.788  1.00  0.00     0.246 C 
ATOM     11  O   UNL     1       7.949  10.558   0.027  1.00  0.00    -0.272 OA
BRANCH  10  12
ATOM     12  C   UNL     1       8.871   9.423   1.979  1.00  0.00     0.174 C 
BRANCH  12  13
ATOM     13  N   UNL     1       7.570   9.493   2.644  1.00  0.00    -0.342 N 
ATOM     14  C   UNL     1       6.594   8.524   2.574  1.00  0.00     0.249 C 
ATOM     15  O   UNL     1       6.722   7.471   1.962  1.00  0.00    -0.272 OA
ATOM     16  H   UNL     1       7.262  10.370   3.056  1.00  0.00     0.164 HD
BRANCH  14  17
ATOM     17  C   UNL     1       5.326   8.898   3.370  1.00  0.00     0.207 C 
BRANCH  17  18
ATOM     18  C   UNL     1       5.399   8.332   4.792  1.00  0.00     0.077 C 
BRANCH  18  19
ATOM     19  C   UNL     1       5.286   9.420   5.836  1.00  0.00    -0.043 A 
ATOM     20  C   UNL     1       3.972  10.633   7.475  1.00  0.00     0.083 A 
ATOM     21  C   UNL     1       4.090   9.597   6.548  1.00  0.00     0.028 A 
ATOM     22  C   UNL     1       5.046  11.497   7.696  1.00  0.00     0.134 A 
ATOM     23  C   UNL     1       6.237  11.333   6.999  1.00  0.00     0.048 A 
ATOM     24  C   UNL     1       6.356  10.298   6.069  1.00  0.00     0.008 A 
ATOM     25  Cl  UNL     1       2.494  10.835   8.339  1.00  0.00    -0.080 Cl
BRANCH  22  26
ATOM     26  O   UNL     1       4.974  12.533   8.588  1.00  0.00    -0.506 OA
ATOM     27  H   UNL     1       4.836  12.136   9.468  1.00  0.00     0.293 HD
ENDBRANCH  22  26
ENDBRANCH  18  19
ENDBRANCH  17  18
BRANCH  17  28
ATOM     28  O   UNL     1       4.143   8.404   2.721  1.00  0.00    -0.383 OA
ATOM     29  H   UNL     1       3.745   9.175   2.258  1.00  0.00     0.211 HD
ENDBRANCH  17  28
ENDBRANCH  14  17
ENDBRANCH  12  13
BRANCH  12  30
ATOM     30  C   UNL     1      10.052   9.617   2.967  1.00  0.00     0.018 C 
ATOM     31  C   UNL     1      11.064   8.467   2.842  1.00  0.00     0.010 C 
BRANCH  30  32
ATOM     32  C   UNL     1       9.609   9.777   4.442  1.00  0.00     0.002 C 
ATOM     33  C   UNL     1       9.945  11.119   5.081  1.00  0.00     0.004 C 
ENDBRANCH  30  32
ENDBRANCH  12  30
ENDBRANCH  10  12
ENDBRANCH   1  10
BRANCH   5  34
ATOM     34  C   UNL     1       9.637  13.617   0.558  1.00  0.00     0.242 C 
ATOM     35  O   UNL     1       9.737  14.774   0.966  1.00  0.00    -0.273 OA
ATOM     36  N   UNL     1       8.896  13.287  -0.554  1.00  0.00    -0.354 N 
ATOM     37  H   UNL     1       8.751  12.300  -0.773  1.00  0.00     0.163 HD
BRANCH  36  38
ATOM     38  C   UNL     1       8.404  14.286  -1.480  1.00  0.00     0.116 C 
BRANCH  38  39
ATOM     39  C   UNL     1       9.066  14.101  -2.843  1.00  0.00     0.023 C 
BRANCH  39  40
ATOM     40  C   UNL     1       9.364  15.429  -3.532  1.00  0.00     0.026 C 
BRANCH  40  41
ATOM     41  C   UNL     1      10.438  16.205  -2.770  1.00  0.00     0.146 C 
BRANCH  41  42
ATOM     42  N   UNL     1      11.730  15.553  -2.939  1.00  0.00    -0.254 NA
ATOM     43  C   UNL     1      12.473  15.347  -1.917  1.00  0.00     0.185 C 
ATOM     44  N   UNL     1      12.264  15.643  -0.621  1.00  0.00    -0.370 N 
ATOM     45  N   UNL     1      13.662  14.748  -2.095  1.00  0.00    -0.370 N 
ATOM     46  H   UNL     1      13.028  15.647   0.033  1.00  0.00     0.159 HD
ATOM     47  H   UNL     1      11.407  16.087  -0.308  1.00  0.00     0.159 HD
ATOM     48  H   UNL     1      13.894  14.484  -3.043  1.00  0.00     0.159 HD
ATOM     49  H   UNL     1      14.186  14.343  -1.339  1.00  0.00     0.159 HD
ENDBRANCH  41  42
ENDBRANCH  40  41
ENDBRANCH  39  40
ENDBRANCH  38  39
ENDBRANCH  36  38
ENDBRANCH   5  34
BRANCH   8  50
ATOM     50  O   UNL     1      12.261  12.067  -3.083  1.00  0.00    -0.245 OA
BRANCH  50  51
ATOM     51  S   UNL     1      12.571  12.259  -4.668  1.00  0.00     0.397 S 
ATOM     52  O   UNL     1      11.514  13.067  -5.234  1.00  0.00    -0.169 OA
ATOM     53  O   UNL     1      12.947  10.987  -5.247  1.00  0.00    -0.169 OA
BRANCH  51  54
ATOM     54  O   UNL     1      13.876  13.199  -4.644  1.00  0.00    -0.264 OA
ATOM     55  H   UNL     1      14.061  13.428  -3.710  1.00  0.00     0.236 HD
ENDBRANCH  51  54
ENDBRANCH  50  51
ENDBRANCH   8  50
TORSDOF 19
ENDMDL
MODEL 45
REMARK VINA RESULT:    -5.078     12.381     17.044
REMARK INTER + INTRA:         -15.040
REMARK INTER:                 -11.123
REMARK INTRA:                  -3.917
REMARK UNBOUND:                -4.768
REMARK SMILES CC[C@@H](C)[C@@H](NC(=O)[C@@H](O)Cc1ccc(O)c(Cl)c1)C(=O)N1[C@H](C(=O)NCCCCN=C(N)N)C[C@H]2CC[C@H](OS(=O)(=O)O)C[C@@H]21
REMARK SMILES IDX 22 1 36 2 46 3 35 4 23 5 45 6 37 7 39 8 38 9 20 10 21 11
REMARK SMILES IDX 5 12 6 13 7 14 8 15 9 17 11 18 12 19 17 20 19 21 15 22 14 23
REMARK SMILES IDX 13 24 18 25 16 26 10 28 3 30 4 31 2 32 1 33 24 34 25 35
REMARK SMILES IDX 26 36 27 38 28 39 29 40 30 41 31 42 32 43 33 44 34 45 40 50
REMARK SMILES IDX 41 51 42 52 43 53 44 54
REMARK H PARENT 6 16 16 27 10 29 26 37 33 46 33 47 34 48 34 49 44 55
ROOT
ATOM      1  N   UNL     1       0.373   5.928  -8.937  1.00  0.00    -0.326 N 
ATOM      2  C   UNL     1      -0.815   7.623  -7.816  1.00  0.00     0.014 C 
ATOM      3  C   UNL     1      -0.912   6.631  -8.979  1.00  0.00     0.091 C 
ATOM      4  C   UNL     1       0.658   8.002  -7.820  1.00  0.00     0.041 C 
ATOM      5  C   UNL     1       1.296   6.612  -7.997  1.00  0.00     0.175 C 
ATOM      6  C   UNL     1      -2.191   5.813  -8.812  1.00  0.00     0.059 C 
ATOM      7  C   UNL     1      -1.863   8.711  -7.943  1.00  0.00     0.008 C 
ATOM      8  C   UNL     1      -3.342   6.590  -8.135  1.00  0.00     0.143 C 
ATOM      9  C   UNL     1      -3.223   8.111  -8.359  1.00  0.00     0.034 C 
ENDROOT
BRANCH   1  10
ATOM     10  C   UNL     1       0.866   4.930  -9.761  1.00  0.00     0.246 C 
ATOM     11  O   UNL     1       1.087   3.812  -9.284  1.00  0.00    -0.272 OA
BRANCH  10  12
ATOM     12  C   UNL     1       1.091   5.224 -11.272  1.00  0.00     0.174 C 
BRANCH  12  13
ATOM     13  N   UNL     1       2.520   5.376 -11.544  1.00  0.00    -0.342 N 
ATOM     14  C   UNL     1       3.279   4.503 -12.291  1.00  0.00     0.249 C 
ATOM     15  O   UNL     1       2.829   3.506 -12.840  1.00  0.00    -0.272 OA
ATOM     16  H   UNL     1       3.061   6.066 -11.028  1.00  0.00     0.164 HD
BRANCH  14  17
ATOM     17  C   UNL     1       4.761   4.928 -12.380  1.00  0.00     0.207 C 
BRANCH  17  18
ATOM     18  C   UNL     1       4.877   6.345 -12.951  1.00  0.00     0.077 C 
BRANCH  18  19
ATOM     19  C   UNL     1       5.116   7.371 -11.865  1.00  0.00    -0.043 A 
ATOM     20  C   UNL     1       5.692   7.908  -9.571  1.00  0.00     0.083 A 
ATOM     21  C   UNL     1       5.521   6.964 -10.584  1.00  0.00     0.028 A 
ATOM     22  C   UNL     1       5.459   9.260  -9.829  1.00  0.00     0.134 A 
ATOM     23  C   UNL     1       5.057   9.676 -11.093  1.00  0.00     0.048 A 
ATOM     24  C   UNL     1       4.883   8.733 -12.108  1.00  0.00     0.008 A 
ATOM     25  Cl  UNL     1       6.191   7.390  -8.004  1.00  0.00    -0.080 Cl
BRANCH  22  26
ATOM     26  O   UNL     1       5.603  10.220  -8.865  1.00  0.00    -0.506 OA
ATOM     27  H   UNL     1       6.546  10.228  -8.616  1.00  0.00     0.293 HD
ENDBRANCH  22  26
ENDBRANCH  18  19
ENDBRANCH  17  18
BRANCH  17  28
ATOM     28  O   UNL     1       5.511   4.020 -13.202  1.00  0.00    -0.383 OA
ATOM     29  H   UNL     1       4.861   3.607 -13.815  1.00  0.00     0.211 HD
ENDBRANCH  17  28
ENDBRANCH  14  17
ENDBRANCH  12  13
BRANCH  12  30
ATOM     30  C   UNL     1       0.261   6.435 -11.778  1.00  0.00     0.018 C 
ATOM     31  C   UNL     1      -0.665   6.019 -12.932  1.00  0.00     0.010 C 
BRANCH  30  32
ATOM     32  C   UNL     1       1.125   7.648 -12.201  1.00  0.00     0.002 C 
ATOM     33  C   UNL     1       0.955   8.898 -11.346  1.00  0.00     0.004 C 
ENDBRANCH  30  32
ENDBRANCH  12  30
ENDBRANCH  10  12
ENDBRANCH   1  10
BRANCH   5  34
ATOM     34  C   UNL     1       1.377   5.844  -6.651  1.00  0.00     0.242 C 
ATOM     35  O   UNL     1       2.200   6.128  -5.781  1.00  0.00    -0.273 OA
ATOM     36  N   UNL     1       0.500   4.790  -6.524  1.00  0.00    -0.354 N 
ATOM     37  H   UNL     1      -0.074   4.529  -7.326  1.00  0.00     0.163 HD
BRANCH  36  38
ATOM     38  C   UNL     1       0.291   4.106  -5.264  1.00  0.00     0.116 C 
BRANCH  38  39
ATOM     39  C   UNL     1      -1.043   4.535  -4.657  1.00  0.00     0.023 C 
BRANCH  39  40
ATOM     40  C   UNL     1      -0.866   5.442  -3.444  1.00  0.00     0.026 C 
BRANCH  40  41
ATOM     41  C   UNL     1      -0.902   6.913  -3.857  1.00  0.00     0.146 C 
BRANCH  41  42
ATOM     42  N   UNL     1      -2.243   7.448  -3.657  1.00  0.00    -0.254 NA
ATOM     43  C   UNL     1      -2.560   7.957  -2.526  1.00  0.00     0.185 C 
ATOM     44  N   UNL     1      -1.828   8.101  -1.406  1.00  0.00    -0.370 N 
ATOM     45  N   UNL     1      -3.802   8.441  -2.361  1.00  0.00    -0.370 N 
ATOM     46  H   UNL     1      -2.272   8.291  -0.524  1.00  0.00     0.159 HD
ATOM     47  H   UNL     1      -0.859   7.800  -1.361  1.00  0.00     0.159 HD
ATOM     48  H   UNL     1      -4.417   8.379  -3.161  1.00  0.00     0.159 HD
ATOM     49  H   UNL     1      -4.050   9.056  -1.607  1.00  0.00     0.159 HD
ENDBRANCH  41  42
ENDBRANCH  40  41
ENDBRANCH  39  40
ENDBRANCH  38  39
ENDBRANCH  36  38
ENDBRANCH   5  34
BRANCH   8  50
ATOM     50  O   UNL     1      -3.344   6.337  -6.730  1.00  0.00    -0.245 OA
BRANCH  50  51
ATOM     51  S   UNL     1      -4.662   5.684  -6.034  1.00  0.00     0.397 S 
ATOM     52  O   UNL     1      -4.393   4.284  -5.796  1.00  0.00    -0.169 OA
ATOM     53  O   UNL     1      -5.850   6.121  -6.738  1.00  0.00    -0.169 OA
BRANCH  51  54
ATOM     54  O   UNL     1      -4.658   6.383  -4.586  1.00  0.00    -0.264 OA
ATOM     55  H   UNL     1      -5.399   6.005  -4.070  1.00  0.00     0.236 HD
ENDBRANCH  51  54
ENDBRANCH  50  51
ENDBRANCH   8  50
TORSDOF 19
ENDMDL
MODEL 46
REMARK VINA RESULT:    -5.059      5.076      9.670
REMARK INTER + INTRA:         -15.003
REMARK INTER:                 -12.464
REMARK INTRA:                  -2.539
REMARK UNBOUND:                -4.768
REMARK SMILES CC[C@@H](C)[C@@H](NC(=O)[C@@H](O)Cc1ccc(O)c(Cl)c1)C(=O)N1[C@H](C(=O)NCCCCN=C(N)N)C[C@H]2CC[C@H](OS(=O)(=O)O)C[C@@H]21
REMARK SMILES IDX 22 1 36 2 46 3 35 4 23 5 45 6 37 7 39 8 38 9 20 10 21 11
REMARK SMILES IDX 5 12 6 13 7 14 8 15 9 17 11 18 12 19 17 20 19 21 15 22 14 23
REMARK SMILES IDX 13 24 18 25 16 26 10 28 3 30 4 31 2 32 1 33 24 34 25 35
REMARK SMILES IDX 26 36 27 38 28 39 29 40 30 41 31 42 32 43 33 44 34 45 40 50
REMARK SMILES IDX 41 51 42 52 43 53 44 54
REMARK H PARENT 6 16 16 27 10 29 26 37 33 46 33 47 34 48 34 49 44 55
ROOT
ATOM      1  N   UNL     1       6.233   8.887   3.218  1.00  0.00    -0.326 N 
ATOM      2  C   UNL     1       4.269   9.054   4.504  1.00  0.00     0.014 C 
ATOM      3  C   UNL     1       5.791   8.928   4.614  1.00  0.00     0.091 C 
ATOM      4  C   UNL     1       3.954   8.231   3.264  1.00  0.00     0.041 C 
ATOM      5  C   UNL     1       5.064   8.728   2.319  1.00  0.00     0.175 C 
ATOM      6  C   UNL     1       6.306  10.058   5.504  1.00  0.00     0.059 C 
ATOM      7  C   UNL     1       3.599   8.704   5.818  1.00  0.00     0.008 C 
ATOM      8  C   UNL     1       5.311  10.484   6.606  1.00  0.00     0.143 C 
ATOM      9  C   UNL     1       4.360   9.336   7.002  1.00  0.00     0.034 C 
ENDROOT
BRANCH   1  10
ATOM     10  C   UNL     1       7.509   8.761   2.694  1.00  0.00     0.246 C 
ATOM     11  O   UNL     1       7.774   7.784   1.985  1.00  0.00    -0.272 OA
BRANCH  10  12
ATOM     12  C   UNL     1       8.565   9.869   2.972  1.00  0.00     0.174 C 
BRANCH  12  13
ATOM     13  N   UNL     1       9.091  10.385   1.709  1.00  0.00    -0.342 N 
ATOM     14  C   UNL     1       9.204  11.719   1.387  1.00  0.00     0.249 C 
ATOM     15  O   UNL     1       8.898  12.632   2.144  1.00  0.00    -0.272 OA
ATOM     16  H   UNL     1       9.238   9.751   0.928  1.00  0.00     0.164 HD
BRANCH  14  17
ATOM     17  C   UNL     1       9.780  11.943  -0.028  1.00  0.00     0.207 C 
BRANCH  17  18
ATOM     18  C   UNL     1      10.643  10.750  -0.450  1.00  0.00     0.077 C 
BRANCH  18  19
ATOM     19  C   UNL     1      11.226  10.939  -1.833  1.00  0.00    -0.043 A 
ATOM     20  C   UNL     1      13.150  11.196  -3.286  1.00  0.00     0.083 A 
ATOM     21  C   UNL     1      12.617  10.971  -2.017  1.00  0.00     0.028 A 
ATOM     22  C   UNL     1      12.302  11.389  -4.376  1.00  0.00     0.134 A 
ATOM     23  C   UNL     1      10.922  11.359  -4.208  1.00  0.00     0.048 A 
ATOM     24  C   UNL     1      10.385  11.137  -2.939  1.00  0.00     0.008 A 
ATOM     25  Cl  UNL     1      14.862  11.233  -3.492  1.00  0.00    -0.080 Cl
BRANCH  22  26
ATOM     26  O   UNL     1      12.779  11.623  -5.638  1.00  0.00    -0.506 OA
ATOM     27  H   UNL     1      13.751  11.572  -5.584  1.00  0.00     0.293 HD
ENDBRANCH  22  26
ENDBRANCH  18  19
ENDBRANCH  17  18
BRANCH  17  28
ATOM     28  O   UNL     1      10.567  13.144  -0.082  1.00  0.00    -0.383 OA
ATOM     29  H   UNL     1      10.262  13.703   0.668  1.00  0.00     0.211 HD
ENDBRANCH  17  28
ENDBRANCH  14  17
ENDBRANCH  12  13
BRANCH  12  30
ATOM     30  C   UNL     1       9.690   9.398   3.934  1.00  0.00     0.018 C 
ATOM     31  C   UNL     1       9.993  10.473   4.989  1.00  0.00     0.010 C 
BRANCH  30  32
ATOM     32  C   UNL     1      10.993   8.981   3.209  1.00  0.00     0.002 C 
ATOM     33  C   UNL     1      12.151   9.962   3.337  1.00  0.00     0.004 C 
ENDBRANCH  30  32
ENDBRANCH  12  30
ENDBRANCH  10  12
ENDBRANCH   1  10
BRANCH   5  34
ATOM     34  C   UNL     1       4.689  10.081   1.658  1.00  0.00     0.242 C 
ATOM     35  O   UNL     1       5.336  11.110   1.853  1.00  0.00    -0.273 OA
ATOM     36  N   UNL     1       3.551  10.059   0.883  1.00  0.00    -0.354 N 
ATOM     37  H   UNL     1       2.991   9.207   0.856  1.00  0.00     0.163 HD
BRANCH  36  38
ATOM     38  C   UNL     1       3.178  11.166   0.026  1.00  0.00     0.116 C 
BRANCH  38  39
ATOM     39  C   UNL     1       1.681  11.112  -0.268  1.00  0.00     0.023 C 
BRANCH  39  40
ATOM     40  C   UNL     1       1.315   9.979  -1.220  1.00  0.00     0.026 C 
BRANCH  40  41
ATOM     41  C   UNL     1       0.403   8.964  -0.531  1.00  0.00     0.146 C 
BRANCH  41  42
ATOM     42  N   UNL     1      -0.839   8.829  -1.280  1.00  0.00    -0.254 NA
ATOM     43  C   UNL     1      -1.920   9.329  -0.809  1.00  0.00     0.185 C 
ATOM     44  N   UNL     1      -2.134  10.007   0.333  1.00  0.00    -0.370 N 
ATOM     45  N   UNL     1      -3.055   9.190  -1.513  1.00  0.00    -0.370 N 
ATOM     46  H   UNL     1      -3.066  10.125   0.692  1.00  0.00     0.159 HD
ATOM     47  H   UNL     1      -1.379  10.214   0.980  1.00  0.00     0.159 HD
ATOM     48  H   UNL     1      -2.980   8.697  -2.393  1.00  0.00     0.159 HD
ATOM     49  H   UNL     1      -3.875   9.743  -1.338  1.00  0.00     0.159 HD
ENDBRANCH  41  42
ENDBRANCH  40  41
ENDBRANCH  39  40
ENDBRANCH  38  39
ENDBRANCH  36  38
ENDBRANCH   5  34
BRANCH   8  50
ATOM     50  O   UNL     1       4.526  11.589   6.157  1.00  0.00    -0.245 OA
BRANCH  50  51
ATOM     51  S   UNL     1       4.550  12.983   6.995  1.00  0.00     0.397 S 
ATOM     52  O   UNL     1       3.319  13.074   7.747  1.00  0.00    -0.169 OA
ATOM     53  O   UNL     1       4.995  14.059   6.134  1.00  0.00    -0.169 OA
BRANCH  51  54
ATOM     54  O   UNL     1       5.705  12.704   8.078  1.00  0.00    -0.264 OA
ATOM     55  H   UNL     1       5.383  12.007   8.685  1.00  0.00     0.236 HD
ENDBRANCH  51  54
ENDBRANCH  50  51
ENDBRANCH   8  50
TORSDOF 19
ENDMDL
MODEL 47
REMARK VINA RESULT:    -5.028      9.768     12.733
REMARK INTER + INTRA:         -14.939
REMARK INTER:                 -11.732
REMARK INTRA:                  -3.207
REMARK UNBOUND:                -4.768
REMARK SMILES CC[C@@H](C)[C@@H](NC(=O)[C@@H](O)Cc1ccc(O)c(Cl)c1)C(=O)N1[C@H](C(=O)NCCCCN=C(N)N)C[C@H]2CC[C@H](OS(=O)(=O)O)C[C@@H]21
REMARK SMILES IDX 22 1 36 2 46 3 35 4 23 5 45 6 37 7 39 8 38 9 20 10 21 11
REMARK SMILES IDX 5 12 6 13 7 14 8 15 9 17 11 18 12 19 17 20 19 21 15 22 14 23
REMARK SMILES IDX 13 24 18 25 16 26 10 28 3 30 4 31 2 32 1 33 24 34 25 35
REMARK SMILES IDX 26 36 27 38 28 39 29 40 30 41 31 42 32 43 33 44 34 45 40 50
REMARK SMILES IDX 41 51 42 52 43 53 44 54
REMARK H PARENT 6 16 16 27 10 29 26 37 33 46 33 47 34 48 34 49 44 55
ROOT
ATOM      1  N   UNL     1       2.003   6.986  -5.329  1.00  0.00    -0.326 N 
ATOM      2  C   UNL     1       2.183   4.659  -5.634  1.00  0.00     0.014 C 
ATOM      3  C   UNL     1       1.174   5.810  -5.605  1.00  0.00     0.091 C 
ATOM      4  C   UNL     1       3.200   5.078  -4.584  1.00  0.00     0.041 C 
ATOM      5  C   UNL     1       3.374   6.563  -4.951  1.00  0.00     0.175 C 
ATOM      6  C   UNL     1       0.369   5.779  -6.903  1.00  0.00     0.059 C 
ATOM      7  C   UNL     1       1.484   3.321  -5.500  1.00  0.00     0.008 C 
ATOM      8  C   UNL     1       0.165   4.360  -7.475  1.00  0.00     0.143 C 
ATOM      9  C   UNL     1       0.214   3.280  -6.376  1.00  0.00     0.034 C 
ENDROOT
BRANCH   1  10
ATOM     10  C   UNL     1       1.638   8.312  -5.171  1.00  0.00     0.246 C 
ATOM     11  O   UNL     1       1.308   8.968  -6.165  1.00  0.00    -0.272 OA
BRANCH  10  12
ATOM     12  C   UNL     1       1.610   8.935  -3.745  1.00  0.00     0.174 C 
BRANCH  12  13
ATOM     13  N   UNL     1       0.245   8.919  -3.220  1.00  0.00    -0.342 N 
ATOM     14  C   UNL     1      -0.243   8.001  -2.317  1.00  0.00     0.249 C 
ATOM     15  O   UNL     1       0.429   7.102  -1.827  1.00  0.00    -0.272 OA
ATOM     16  H   UNL     1      -0.467   9.504  -3.650  1.00  0.00     0.164 HD
BRANCH  14  17
ATOM     17  C   UNL     1      -1.728   8.239  -1.971  1.00  0.00     0.207 C 
BRANCH  17  18
ATOM     18  C   UNL     1      -1.853   9.156  -0.750  1.00  0.00     0.077 C 
BRANCH  18  19
ATOM     19  C   UNL     1      -1.877  10.616  -1.143  1.00  0.00    -0.043 A 
ATOM     20  C   UNL     1      -1.357  12.934  -0.655  1.00  0.00     0.083 A 
ATOM     21  C   UNL     1      -1.290  11.583  -0.313  1.00  0.00     0.028 A 
ATOM     22  C   UNL     1      -2.010  13.328  -1.823  1.00  0.00     0.134 A 
ATOM     23  C   UNL     1      -2.596  12.380  -2.655  1.00  0.00     0.048 A 
ATOM     24  C   UNL     1      -2.532  11.027  -2.315  1.00  0.00     0.008 A 
ATOM     25  Cl  UNL     1      -0.629  14.108   0.379  1.00  0.00    -0.080 Cl
BRANCH  22  26
ATOM     26  O   UNL     1      -2.111  14.641  -2.194  1.00  0.00    -0.506 OA
ATOM     27  H   UNL     1      -1.370  15.110  -1.767  1.00  0.00     0.293 HD
ENDBRANCH  22  26
ENDBRANCH  18  19
ENDBRANCH  17  18
BRANCH  17  28
ATOM     28  O   UNL     1      -2.403   6.999  -1.706  1.00  0.00    -0.383 OA
ATOM     29  H   UNL     1      -2.269   6.815  -0.749  1.00  0.00     0.211 HD
ENDBRANCH  17  28
ENDBRANCH  14  17
ENDBRANCH  12  13
BRANCH  12  30
ATOM     30  C   UNL     1       2.247  10.350  -3.696  1.00  0.00     0.018 C 
ATOM     31  C   UNL     1       3.199  10.480  -2.496  1.00  0.00     0.010 C 
BRANCH  30  32
ATOM     32  C   UNL     1       1.209  11.498  -3.678  1.00  0.00     0.002 C 
ATOM     33  C   UNL     1       1.608  12.725  -2.868  1.00  0.00     0.004 C 
ENDBRANCH  30  32
ENDBRANCH  12  30
ENDBRANCH  10  12
ENDBRANCH   1  10
BRANCH   5  34
ATOM     34  C   UNL     1       4.354   6.747  -6.140  1.00  0.00     0.242 C 
ATOM     35  O   UNL     1       5.497   6.290  -6.128  1.00  0.00    -0.273 OA
ATOM     36  N   UNL     1       3.872   7.503  -7.185  1.00  0.00    -0.354 N 
ATOM     37  H   UNL     1       2.962   7.955  -7.086  1.00  0.00     0.163 HD
BRANCH  36  38
ATOM     38  C   UNL     1       4.561   7.596  -8.456  1.00  0.00     0.116 C 
BRANCH  38  39
ATOM     39  C   UNL     1       4.731   9.061  -8.848  1.00  0.00     0.023 C 
BRANCH  39  40
ATOM     40  C   UNL     1       3.734   9.499  -9.915  1.00  0.00     0.026 C 
BRANCH  40  41
ATOM     41  C   UNL     1       3.844   8.612 -11.155  1.00  0.00     0.146 C 
BRANCH  41  42
ATOM     42  N   UNL     1       5.039   8.966 -11.910  1.00  0.00    -0.254 NA
ATOM     43  C   UNL     1       5.890   8.058 -12.211  1.00  0.00     0.185 C 
ATOM     44  N   UNL     1       5.882   6.740 -11.939  1.00  0.00    -0.370 N 
ATOM     45  N   UNL     1       6.987   8.406 -12.903  1.00  0.00    -0.370 N 
ATOM     46  H   UNL     1       6.723   6.195 -12.020  1.00  0.00     0.159 HD
ATOM     47  H   UNL     1       5.117   6.305 -11.433  1.00  0.00     0.159 HD
ATOM     48  H   UNL     1       7.067   9.382 -13.156  1.00  0.00     0.159 HD
ATOM     49  H   UNL     1       7.568   7.736 -13.374  1.00  0.00     0.159 HD
ENDBRANCH  41  42
ENDBRANCH  40  41
ENDBRANCH  39  40
ENDBRANCH  38  39
ENDBRANCH  36  38
ENDBRANCH   5  34
BRANCH   8  50
ATOM     50  O   UNL     1       1.178   4.070  -8.440  1.00  0.00    -0.245 OA
BRANCH  50  51
ATOM     51  S   UNL     1       0.992   4.575  -9.975  1.00  0.00     0.397 S 
ATOM     52  O   UNL     1      -0.356   5.077 -10.120  1.00  0.00    -0.169 OA
ATOM     53  O   UNL     1       1.536   3.586 -10.881  1.00  0.00    -0.169 OA
BRANCH  51  54
ATOM     54  O   UNL     1       1.947   5.868 -10.021  1.00  0.00    -0.264 OA
ATOM     55  H   UNL     1       2.874   5.554 -10.051  1.00  0.00     0.236 HD
ENDBRANCH  51  54
ENDBRANCH  50  51
ENDBRANCH   8  50
TORSDOF 19
ENDMDL
MODEL 48
REMARK VINA RESULT:    -4.998      4.385      5.967
REMARK INTER + INTRA:         -14.878
REMARK INTER:                 -12.323
REMARK INTRA:                  -2.555
REMARK UNBOUND:                -4.768
REMARK SMILES CC[C@@H](C)[C@@H](NC(=O)[C@@H](O)Cc1ccc(O)c(Cl)c1)C(=O)N1[C@H](C(=O)NCCCCN=C(N)N)C[C@H]2CC[C@H](OS(=O)(=O)O)C[C@@H]21
REMARK SMILES IDX 22 1 36 2 46 3 35 4 23 5 45 6 37 7 39 8 38 9 20 10 21 11
REMARK SMILES IDX 5 12 6 13 7 14 8 15 9 17 11 18 12 19 17 20 19 21 15 22 14 23
REMARK SMILES IDX 13 24 18 25 16 26 10 28 3 30 4 31 2 32 1 33 24 34 25 35
REMARK SMILES IDX 26 36 27 38 28 39 29 40 30 41 31 42 32 43 33 44 34 45 40 50
REMARK SMILES IDX 41 51 42 52 43 53 44 54
REMARK H PARENT 6 16 16 27 10 29 26 37 33 46 33 47 34 48 34 49 44 55
ROOT
ATOM      1  N   UNL     1       9.860  11.288   0.610  1.00  0.00    -0.326 N 
ATOM      2  C   UNL     1      11.951  12.131  -0.068  1.00  0.00     0.014 C 
ATOM      3  C   UNL     1      11.077  10.874  -0.094  1.00  0.00     0.091 C 
ATOM      4  C   UNL     1      11.603  12.754   1.275  1.00  0.00     0.041 C 
ATOM      5  C   UNL     1      10.070  12.608   1.254  1.00  0.00     0.175 C 
ATOM      6  C   UNL     1      10.952  10.401  -1.541  1.00  0.00     0.059 C 
ATOM      7  C   UNL     1      13.396  11.794  -0.379  1.00  0.00     0.008 C 
ATOM      8  C   UNL     1      12.197  10.703  -2.403  1.00  0.00     0.143 C 
ATOM      9  C   UNL     1      13.481  10.796  -1.554  1.00  0.00     0.034 C 
ENDROOT
BRANCH   1  10
ATOM     10  C   UNL     1       8.719  10.564   0.912  1.00  0.00     0.246 C 
ATOM     11  O   UNL     1       7.739  10.647   0.163  1.00  0.00    -0.272 OA
BRANCH  10  12
ATOM     12  C   UNL     1       8.710   9.632   2.158  1.00  0.00     0.174 C 
BRANCH  12  13
ATOM     13  N   UNL     1       7.533   9.911   2.980  1.00  0.00    -0.342 N 
ATOM     14  C   UNL     1       6.396   9.136   3.022  1.00  0.00     0.249 C 
ATOM     15  O   UNL     1       6.255   8.098   2.387  1.00  0.00    -0.272 OA
ATOM     16  H   UNL     1       7.441  10.815   3.438  1.00  0.00     0.164 HD
BRANCH  14  17
ATOM     17  C   UNL     1       5.322   9.704   3.974  1.00  0.00     0.207 C 
BRANCH  17  18
ATOM     18  C   UNL     1       5.557   9.208   5.404  1.00  0.00     0.077 C 
BRANCH  18  19
ATOM     19  C   UNL     1       4.313   8.584   5.995  1.00  0.00    -0.043 A 
ATOM     20  C   UNL     1       2.398   8.711   7.479  1.00  0.00     0.083 A 
ATOM     21  C   UNL     1       3.519   9.307   6.898  1.00  0.00     0.028 A 
ATOM     22  C   UNL     1       2.066   7.393   7.163  1.00  0.00     0.134 A 
ATOM     23  C   UNL     1       2.844   6.666   6.270  1.00  0.00     0.048 A 
ATOM     24  C   UNL     1       3.967   7.259   5.688  1.00  0.00     0.008 A 
ATOM     25  Cl  UNL     1       1.435   9.615   8.587  1.00  0.00    -0.080 Cl
BRANCH  22  26
ATOM     26  O   UNL     1       0.984   6.763   7.715  1.00  0.00    -0.506 OA
ATOM     27  H   UNL     1       1.244   6.498   8.617  1.00  0.00     0.293 HD
ENDBRANCH  22  26
ENDBRANCH  18  19
ENDBRANCH  17  18
BRANCH  17  28
ATOM     28  O   UNL     1       4.002   9.327   3.550  1.00  0.00    -0.383 OA
ATOM     29  H   UNL     1       3.657  10.086   3.027  1.00  0.00     0.211 HD
ENDBRANCH  17  28
ENDBRANCH  14  17
ENDBRANCH  12  13
BRANCH  12  30
ATOM     30  C   UNL     1      10.030   9.703   2.970  1.00  0.00     0.018 C 
ATOM     31  C   UNL     1      10.824   8.394   2.839  1.00  0.00     0.010 C 
BRANCH  30  32
ATOM     32  C   UNL     1       9.823  10.052   4.464  1.00  0.00     0.002 C 
ATOM     33  C   UNL     1      10.385  11.398   4.903  1.00  0.00     0.004 C 
ENDBRANCH  30  32
ENDBRANCH  12  30
ENDBRANCH  10  12
ENDBRANCH   1  10
BRANCH   5  34
ATOM     34  C   UNL     1       9.400  13.737   0.426  1.00  0.00     0.242 C 
ATOM     35  O   UNL     1       9.375  14.907   0.808  1.00  0.00    -0.273 OA
ATOM     36  N   UNL     1       8.790  13.326  -0.739  1.00  0.00    -0.354 N 
ATOM     37  H   UNL     1       8.741  12.327  -0.941  1.00  0.00     0.163 HD
BRANCH  36  38
ATOM     38  C   UNL     1       8.309  14.264  -1.732  1.00  0.00     0.116 C 
BRANCH  38  39
ATOM     39  C   UNL     1       9.329  14.393  -2.860  1.00  0.00     0.023 C 
BRANCH  39  40
ATOM     40  C   UNL     1      10.358  15.487  -2.594  1.00  0.00     0.026 C 
BRANCH  40  41
ATOM     41  C   UNL     1      10.748  16.193  -3.892  1.00  0.00     0.146 C 
BRANCH  41  42
ATOM     42  N   UNL     1      11.881  17.076  -3.652  1.00  0.00    -0.254 NA
ATOM     43  C   UNL     1      13.059  16.584  -3.561  1.00  0.00     0.185 C 
ATOM     44  N   UNL     1      13.473  15.307  -3.654  1.00  0.00    -0.370 N 
ATOM     45  N   UNL     1      14.090  17.414  -3.334  1.00  0.00    -0.370 N 
ATOM     46  H   UNL     1      14.383  15.037  -3.322  1.00  0.00     0.159 HD
ATOM     47  H   UNL     1      12.824  14.548  -3.838  1.00  0.00     0.159 HD
ATOM     48  H   UNL     1      13.866  18.397  -3.259  1.00  0.00     0.159 HD
ATOM     49  H   UNL     1      15.047  17.148  -3.485  1.00  0.00     0.159 HD
ENDBRANCH  41  42
ENDBRANCH  40  41
ENDBRANCH  39  40
ENDBRANCH  38  39
ENDBRANCH  36  38
ENDBRANCH   5  34
BRANCH   8  50
ATOM     50  O   UNL     1      12.024  11.938  -3.099  1.00  0.00    -0.245 OA
BRANCH  50  51
ATOM     51  S   UNL     1      12.161  11.972  -4.719  1.00  0.00     0.397 S 
ATOM     52  O   UNL     1      13.286  11.144  -5.090  1.00  0.00    -0.169 OA
ATOM     53  O   UNL     1      12.035  13.337  -5.189  1.00  0.00    -0.169 OA
BRANCH  51  54
ATOM     54  O   UNL     1      10.850  11.165  -5.184  1.00  0.00    -0.264 OA
ATOM     55  H   UNL     1      10.688  10.457  -4.528  1.00  0.00     0.236 HD
ENDBRANCH  51  54
ENDBRANCH  50  51
ENDBRANCH   8  50
TORSDOF 19
ENDMDL
MODEL 49
REMARK VINA RESULT:    -4.995      4.281      7.444
REMARK INTER + INTRA:         -14.872
REMARK INTER:                 -10.987
REMARK INTRA:                  -3.885
REMARK UNBOUND:                -4.768
REMARK SMILES CC[C@@H](C)[C@@H](NC(=O)[C@@H](O)Cc1ccc(O)c(Cl)c1)C(=O)N1[C@H](C(=O)NCCCCN=C(N)N)C[C@H]2CC[C@H](OS(=O)(=O)O)C[C@@H]21
REMARK SMILES IDX 22 1 36 2 46 3 35 4 23 5 45 6 37 7 39 8 38 9 20 10 21 11
REMARK SMILES IDX 5 12 6 13 7 14 8 15 9 17 11 18 12 19 17 20 19 21 15 22 14 23
REMARK SMILES IDX 13 24 18 25 16 26 10 28 3 30 4 31 2 32 1 33 24 34 25 35
REMARK SMILES IDX 26 36 27 38 28 39 29 40 30 41 31 42 32 43 33 44 34 45 40 50
REMARK SMILES IDX 41 51 42 52 43 53 44 54
REMARK H PARENT 6 16 16 27 10 29 26 37 33 46 33 47 34 48 34 49 44 55
ROOT
ATOM      1  N   UNL     1      11.837  11.988   0.310  1.00  0.00    -0.326 N 
ATOM      2  C   UNL     1      10.095  11.690  -1.244  1.00  0.00     0.014 C 
ATOM      3  C   UNL     1      10.418  12.301   0.123  1.00  0.00     0.091 C 
ATOM      4  C   UNL     1      10.970  10.447  -1.270  1.00  0.00     0.041 C 
ATOM      5  C   UNL     1      12.288  11.030  -0.729  1.00  0.00     0.175 C 
ATOM      6  C   UNL     1       9.995  13.769   0.107  1.00  0.00     0.059 C 
ATOM      7  C   UNL     1       8.597  11.549  -1.434  1.00  0.00     0.008 C 
ATOM      8  C   UNL     1       8.770  14.053  -0.788  1.00  0.00     0.143 C 
ATOM      9  C   UNL     1       7.864  12.814  -0.942  1.00  0.00     0.034 C 
ENDROOT
BRANCH   1  10
ATOM     10  C   UNL     1      12.676  12.273   1.375  1.00  0.00     0.246 C 
ATOM     11  O   UNL     1      13.785  12.770   1.150  1.00  0.00    -0.272 OA
BRANCH  10  12
ATOM     12  C   UNL     1      12.189  12.004   2.828  1.00  0.00     0.174 C 
BRANCH  12  13
ATOM     13  N   UNL     1      11.027  11.116   2.808  1.00  0.00    -0.342 N 
ATOM     14  C   UNL     1      11.041   9.788   3.172  1.00  0.00     0.249 C 
ATOM     15  O   UNL     1      12.035   9.204   3.584  1.00  0.00    -0.272 OA
ATOM     16  H   UNL     1      10.173  11.415   2.344  1.00  0.00     0.164 HD
BRANCH  14  17
ATOM     17  C   UNL     1       9.659   9.116   3.025  1.00  0.00     0.207 C 
BRANCH  17  18
ATOM     18  C   UNL     1       8.955   9.036   4.383  1.00  0.00     0.077 C 
BRANCH  18  19
ATOM     19  C   UNL     1       7.535   9.550   4.311  1.00  0.00    -0.043 A 
ATOM     20  C   UNL     1       5.206   9.394   4.973  1.00  0.00     0.083 A 
ATOM     21  C   UNL     1       6.524   8.950   5.079  1.00  0.00     0.028 A 
ATOM     22  C   UNL     1       4.889  10.437   4.101  1.00  0.00     0.134 A 
ATOM     23  C   UNL     1       5.879  11.040   3.335  1.00  0.00     0.048 A 
ATOM     24  C   UNL     1       7.200  10.596   3.437  1.00  0.00     0.008 A 
ATOM     25  Cl  UNL     1       3.979   8.644   5.924  1.00  0.00    -0.080 Cl
BRANCH  22  26
ATOM     26  O   UNL     1       3.609  10.900   3.955  1.00  0.00    -0.506 OA
ATOM     27  H   UNL     1       3.227  10.954   4.851  1.00  0.00     0.293 HD
ENDBRANCH  22  26
ENDBRANCH  18  19
ENDBRANCH  17  18
BRANCH  17  28
ATOM     28  O   UNL     1       9.782   7.795   2.473  1.00  0.00    -0.383 OA
ATOM     29  H   UNL     1       9.834   7.183   3.242  1.00  0.00     0.211 HD
ENDBRANCH  17  28
ENDBRANCH  14  17
ENDBRANCH  12  13
BRANCH  12  30
ATOM     30  C   UNL     1      11.923  13.310   3.624  1.00  0.00     0.018 C 
ATOM     31  C   UNL     1      13.138  13.680   4.489  1.00  0.00     0.010 C 
BRANCH  30  32
ATOM     32  C   UNL     1      10.645  13.257   4.496  1.00  0.00     0.002 C 
ATOM     33  C   UNL     1      10.742  13.971   5.838  1.00  0.00     0.004 C 
ENDBRANCH  30  32
ENDBRANCH  12  30
ENDBRANCH  10  12
ENDBRANCH   1  10
BRANCH   5  34
ATOM     34  C   UNL     1      13.090  11.760  -1.840  1.00  0.00     0.242 C 
ATOM     35  O   UNL     1      12.984  12.970  -2.040  1.00  0.00    -0.273 OA
ATOM     36  N   UNL     1      13.884  10.948  -2.618  1.00  0.00    -0.354 N 
ATOM     37  H   UNL     1      13.838   9.938  -2.481  1.00  0.00     0.163 HD
BRANCH  36  38
ATOM     38  C   UNL     1      14.856  11.482  -3.550  1.00  0.00     0.116 C 
BRANCH  38  39
ATOM     39  C   UNL     1      14.461  11.112  -4.978  1.00  0.00     0.023 C 
BRANCH  39  40
ATOM     40  C   UNL     1      13.003  10.678  -5.086  1.00  0.00     0.026 C 
BRANCH  40  41
ATOM     41  C   UNL     1      12.215  11.642  -5.972  1.00  0.00     0.146 C 
BRANCH  41  42
ATOM     42  N   UNL     1      12.284  12.988  -5.419  1.00  0.00    -0.254 NA
ATOM     43  C   UNL     1      11.261  13.485  -4.832  1.00  0.00     0.185 C 
ATOM     44  N   UNL     1      10.045  12.952  -4.614  1.00  0.00    -0.370 N 
ATOM     45  N   UNL     1      11.344  14.729  -4.332  1.00  0.00    -0.370 N 
ATOM     46  H   UNL     1       9.267  13.537  -4.361  1.00  0.00     0.159 HD
ATOM     47  H   UNL     1       9.814  12.011  -4.915  1.00  0.00     0.159 HD
ATOM     48  H   UNL     1      12.232  15.199  -4.446  1.00  0.00     0.159 HD
ATOM     49  H   UNL     1      10.687  15.092  -3.665  1.00  0.00     0.159 HD
ENDBRANCH  41  42
ENDBRANCH  40  41
ENDBRANCH  39  40
ENDBRANCH  38  39
ENDBRANCH  36  38
ENDBRANCH   5  34
BRANCH   8  50
ATOM     50  O   UNL     1       9.197  14.467  -2.086  1.00  0.00    -0.245 OA
BRANCH  50  51
ATOM     51  S   UNL     1       8.576  15.820  -2.743  1.00  0.00     0.397 S 
ATOM     52  O   UNL     1       9.640  16.794  -2.846  1.00  0.00    -0.169 OA
ATOM     53  O   UNL     1       7.316  16.136  -2.104  1.00  0.00    -0.169 OA
BRANCH  51  54
ATOM     54  O   UNL     1       8.265  15.350  -4.248  1.00  0.00    -0.264 OA
ATOM     55  H   UNL     1       8.979  15.694  -4.822  1.00  0.00     0.236 HD
ENDBRANCH  51  54
ENDBRANCH  50  51
ENDBRANCH   8  50
TORSDOF 19
ENDMDL
MODEL 50
REMARK VINA RESULT:    -4.976      3.334      5.554
REMARK INTER + INTRA:         -14.834
REMARK INTER:                 -11.730
REMARK INTRA:                  -3.104
REMARK UNBOUND:                -4.768
REMARK SMILES CC[C@@H](C)[C@@H](NC(=O)[C@@H](O)Cc1ccc(O)c(Cl)c1)C(=O)N1[C@H](C(=O)NCCCCN=C(N)N)C[C@H]2CC[C@H](OS(=O)(=O)O)C[C@@H]21
REMARK SMILES IDX 22 1 36 2 46 3 35 4 23 5 45 6 37 7 39 8 38 9 20 10 21 11
REMARK SMILES IDX 5 12 6 13 7 14 8 15 9 17 11 18 12 19 17 20 19 21 15 22 14 23
REMARK SMILES IDX 13 24 18 25 16 26 10 28 3 30 4 31 2 32 1 33 24 34 25 35
REMARK SMILES IDX 26 36 27 38 28 39 29 40 30 41 31 42 32 43 33 44 34 45 40 50
REMARK SMILES IDX 41 51 42 52 43 53 44 54
REMARK H PARENT 6 16 16 27 10 29 26 37 33 46 33 47 34 48 34 49 44 55
ROOT
ATOM      1  N   UNL     1       8.803  10.366   2.122  1.00  0.00    -0.326 N 
ATOM      2  C   UNL     1       9.645  12.385   1.252  1.00  0.00     0.014 C 
ATOM      3  C   UNL     1      10.040  10.945   1.591  1.00  0.00     0.091 C 
ATOM      4  C   UNL     1       8.641  12.722   2.344  1.00  0.00     0.041 C 
ATOM      5  C   UNL     1       7.798  11.434   2.346  1.00  0.00     0.175 C 
ATOM      6  C   UNL     1      10.662  10.311   0.348  1.00  0.00     0.059 C 
ATOM      7  C   UNL     1      10.872  13.258   1.076  1.00  0.00     0.008 C 
ATOM      8  C   UNL     1      11.423  11.313  -0.547  1.00  0.00     0.143 C 
ATOM      9  C   UNL     1      11.950  12.521   0.254  1.00  0.00     0.034 C 
ENDROOT
BRANCH   1  10
ATOM     10  C   UNL     1       8.556   9.094   2.609  1.00  0.00     0.246 C 
ATOM     11  O   UNL     1       8.472   8.151   1.815  1.00  0.00    -0.272 OA
BRANCH  10  12
ATOM     12  C   UNL     1       8.433   8.872   4.145  1.00  0.00     0.174 C 
BRANCH  12  13
ATOM     13  N   UNL     1       7.290   9.619   4.667  1.00  0.00    -0.342 N 
ATOM     14  C   UNL     1       5.988   9.170   4.671  1.00  0.00     0.249 C 
ATOM     15  O   UNL     1       5.645   8.069   4.258  1.00  0.00    -0.272 OA
ATOM     16  H   UNL     1       7.394  10.603   4.897  1.00  0.00     0.164 HD
BRANCH  14  17
ATOM     17  C   UNL     1       5.006  10.196   5.274  1.00  0.00     0.207 C 
BRANCH  17  18
ATOM     18  C   UNL     1       3.643   9.546   5.532  1.00  0.00     0.077 C 
BRANCH  18  19
ATOM     19  C   UNL     1       3.555   8.955   6.921  1.00  0.00    -0.043 A 
ATOM     20  C   UNL     1       3.372   7.023   8.376  1.00  0.00     0.083 A 
ATOM     21  C   UNL     1       3.502   7.564   7.097  1.00  0.00     0.028 A 
ATOM     22  C   UNL     1       3.292   7.866   9.486  1.00  0.00     0.134 A 
ATOM     23  C   UNL     1       3.344   9.246   9.326  1.00  0.00     0.048 A 
ATOM     24  C   UNL     1       3.472   9.790   8.046  1.00  0.00     0.008 A 
ATOM     25  Cl  UNL     1       3.308   5.311   8.572  1.00  0.00    -0.080 Cl
BRANCH  22  26
ATOM     26  O   UNL     1       3.153   7.383  10.759  1.00  0.00    -0.506 OA
ATOM     27  H   UNL     1       2.261   7.638  11.059  1.00  0.00     0.293 HD
ENDBRANCH  22  26
ENDBRANCH  18  19
ENDBRANCH  17  18
BRANCH  17  28
ATOM     28  O   UNL     1       4.839  11.326   4.403  1.00  0.00    -0.383 OA
ATOM     29  H   UNL     1       5.697  11.808   4.414  1.00  0.00     0.211 HD
ENDBRANCH  17  28
ENDBRANCH  14  17
ENDBRANCH  12  13
BRANCH  12  30
ATOM     30  C   UNL     1       9.748   9.194   4.904  1.00  0.00     0.018 C 
ATOM     31  C   UNL     1       9.839  10.693   5.228  1.00  0.00     0.010 C 
BRANCH  30  32
ATOM     32  C   UNL     1      11.025   8.732   4.161  1.00  0.00     0.002 C 
ATOM     33  C   UNL     1      12.060   9.821   3.905  1.00  0.00     0.004 C 
ENDBRANCH  30  32
ENDBRANCH  12  30
ENDBRANCH  10  12
ENDBRANCH   1  10
BRANCH   5  34
ATOM     34  C   UNL     1       6.740  11.441   1.209  1.00  0.00     0.242 C 
ATOM     35  O   UNL     1       6.841  10.726   0.212  1.00  0.00    -0.273 OA
ATOM     36  N   UNL     1       5.712  12.343   1.372  1.00  0.00    -0.354 N 
ATOM     37  H   UNL     1       5.748  12.992   2.159  1.00  0.00     0.163 HD
BRANCH  36  38
ATOM     38  C   UNL     1       4.536  12.335   0.527  1.00  0.00     0.116 C 
BRANCH  38  39
ATOM     39  C   UNL     1       3.297  12.030   1.367  1.00  0.00     0.023 C 
BRANCH  39  40
ATOM     40  C   UNL     1       2.162  13.014   1.108  1.00  0.00     0.026 C 
BRANCH  40  41
ATOM     41  C   UNL     1       1.891  13.868   2.347  1.00  0.00     0.146 C 
BRANCH  41  42
ATOM     42  N   UNL     1       2.508  13.251   3.514  1.00  0.00    -0.254 NA
ATOM     43  C   UNL     1       2.101  13.566   4.686  1.00  0.00     0.185 C 
ATOM     44  N   UNL     1       1.137  14.424   5.066  1.00  0.00    -0.370 N 
ATOM     45  N   UNL     1       2.686  12.990   5.749  1.00  0.00    -0.370 N 
ATOM     46  H   UNL     1       1.089  14.755   6.014  1.00  0.00     0.159 HD
ATOM     47  H   UNL     1       0.583  14.937   4.387  1.00  0.00     0.159 HD
ATOM     48  H   UNL     1       3.419  12.322   5.551  1.00  0.00     0.159 HD
ATOM     49  H   UNL     1       2.277  12.999   6.667  1.00  0.00     0.159 HD
ENDBRANCH  41  42
ENDBRANCH  40  41
ENDBRANCH  39  40
ENDBRANCH  38  39
ENDBRANCH  36  38
ENDBRANCH   5  34
BRANCH   8  50
ATOM     50  O   UNL     1      10.565  11.795  -1.582  1.00  0.00    -0.245 OA
BRANCH  50  51
ATOM     51  S   UNL     1      11.040  11.688  -3.134  1.00  0.00     0.397 S 
ATOM     52  O   UNL     1      11.531  10.348  -3.359  1.00  0.00    -0.169 OA
ATOM     53  O   UNL     1      11.826  12.854  -3.482  1.00  0.00    -0.169 OA
BRANCH  51  54
ATOM     54  O   UNL     1       9.641  11.781  -3.920  1.00  0.00    -0.264 OA
ATOM     55  H   UNL     1       9.259  12.665  -3.747  1.00  0.00     0.236 HD
ENDBRANCH  51  54
ENDBRANCH  50  51
ENDBRANCH   8  50
TORSDOF 19
ENDMDL
