MODEL 1
REMARK VINA RESULT:    -5.191      0.000      0.000
REMARK INTER + INTRA:         -11.267
REMARK INTER:                  -9.289
REMARK INTRA:                  -1.978
REMARK UNBOUND:                -1.978
REMARK SMILES CC[C@H](C)[C@H]1NC(=O)c2coc(n2)[C@H](C(C)C)NC(=O)[C@H]([C@@H](C)O)NC(=O)[C@H](C)NC(=O)c2csc1n2
REMARK SMILES IDX 11 1 13 2 12 3 9 4 10 5 7 6 6 7 8 8 5 10 36 11 35 12 34 13
REMARK SMILES IDX 37 14 33 15 31 16 32 17 30 18 28 20 29 21 3 23 4 24 2 25
REMARK SMILES IDX 1 26 14 27 18 28 19 29 20 30 21 32 25 33 26 34 27 35 22 38
REMARK SMILES IDX 23 39 24 40 15 42 16 43 17 44
REMARK H PARENT 6 9 30 19 18 31 25 36 24 41
REMARK Flexibility Score:   94.900
ROOT
ATOM      1  O   UNL     1      -8.750   8.629  10.751  1.00  0.00    -0.446 OA
ATOM      2  N   UNL     1      -7.018   7.810   9.562  1.00  0.00    -0.207 NA
ATOM      3  C   UNL     1      -7.779   8.861   9.813  1.00  0.00     0.217 A 
ATOM      4  C   UNL     1      -7.503   6.830  10.411  1.00  0.00     0.167 A 
ATOM      5  C   UNL     1      -8.557   7.335  11.132  1.00  0.00     0.231 A 
ENDROOT
BRANCH   4   6
ATOM      6  C   UNL     1      -6.960   5.484  10.460  1.00  0.00     0.273 C 
ATOM      7  N   UNL     1      -6.560   5.142  11.727  1.00  0.00    -0.341 N 
ATOM      8  O   UNL     1      -6.854   4.759   9.478  1.00  0.00    -0.267 OA
ATOM      9  H   UNL     1      -6.624   5.879  12.423  1.00  0.00     0.164 HD
BRANCH   7  10
ATOM     10  C   UNL     1      -5.763   3.965  12.015  1.00  0.00     0.145 C 
BRANCH  10  11
ATOM     11  C   UNL     1      -4.328   4.270  11.609  1.00  0.00     0.116 A 
ATOM     12  S   UNL     1      -3.190   2.984  11.462  1.00  0.00    -0.124 S 
ATOM     13  C   UNL     1      -1.995   4.108  10.983  1.00  0.00     0.101 A 
ATOM     14  N   UNL     1      -3.858   5.476  11.335  1.00  0.00    -0.234 NA
ATOM     15  C   UNL     1      -2.516   5.387  10.956  1.00  0.00     0.139 A 
BRANCH  15  16
ATOM     16  C   UNL     1      -1.749   6.569  10.559  1.00  0.00     0.271 C 
ATOM     17  O   UNL     1      -0.527   6.565  10.455  1.00  0.00    -0.267 OA
ATOM     18  N   UNL     1      -2.532   7.678  10.314  1.00  0.00    -0.339 N 
ATOM     19  H   UNL     1      -3.518   7.584  10.543  1.00  0.00     0.164 HD
BRANCH  18  20
ATOM     20  C   UNL     1      -1.936   8.962   9.974  1.00  0.00     0.168 CG0
ATOM     21  C   UNL     1      -1.933   9.191   8.461  1.00  0.00     0.041 C 
ATOM     22  G   UNL     1      -2.665  10.147  10.627  1.00  0.00     0.000 G0
ENDBRANCH  18  20
ENDBRANCH  15  16
ENDBRANCH  10  11
BRANCH  10  23
ATOM     23  C   UNL     1      -5.878   3.529  13.500  1.00  0.00     0.015 C 
ATOM     24  C   UNL     1      -5.742   2.011  13.700  1.00  0.00     0.010 C 
BRANCH  23  25
ATOM     25  C   UNL     1      -4.856   4.243  14.414  1.00  0.00     0.002 C 
ATOM     26  C   UNL     1      -3.958   3.294  15.195  1.00  0.00     0.004 C 
ENDBRANCH  23  25
ENDBRANCH  10  23
ENDBRANCH   7  10
ENDBRANCH   4   6
BRANCH   3  27
ATOM     27  C   UNL     1      -7.711  10.209   9.150  1.00  0.00     0.171 C 
BRANCH  27  28
ATOM     28  N   UNL     1      -6.338  10.691   9.258  1.00  0.00    -0.342 N 
ATOM     29  C   UNL     1      -5.940  11.603  10.210  1.00  0.00     0.245 C 
ATOM     30  O   UNL     1      -6.709  12.068  11.049  1.00  0.00    -0.273 OA
ATOM     31  H   UNL     1      -5.621  10.265   8.672  1.00  0.00     0.164 HD
BRANCH  29  32
ATOM     32  C   UNL     1      -4.424  11.894  10.251  1.00  0.00     0.200 C 
BRANCH  32  33
ATOM     33  N   UNL     1      -3.711  10.679   9.838  1.00  0.00    -0.340 N 
ATOM     34  C   UNL     1      -2.685  10.158  10.599  1.00  0.00     0.243 CG0
ATOM     35  O   UNL     1      -2.281  10.718  11.616  1.00  0.00    -0.273 OA
ATOM     36  H   UNL     1      -4.001  10.212   8.987  1.00  0.00     0.164 HD
ATOM     37  G   UNL     1      -1.936   8.966   9.981  1.00  0.00     0.000 G0
ENDBRANCH  32  33
BRANCH  32  38
ATOM     38  C   UNL     1      -4.062  13.127   9.392  1.00  0.00     0.143 C 
ATOM     39  C   UNL     1      -2.564  13.387   9.277  1.00  0.00     0.041 C 
BRANCH  38  40
ATOM     40  O   UNL     1      -4.615  12.986   8.069  1.00  0.00    -0.391 OA
ATOM     41  H   UNL     1      -5.503  12.596   8.177  1.00  0.00     0.211 HD
ENDBRANCH  38  40
ENDBRANCH  32  38
ENDBRANCH  29  32
ENDBRANCH  27  28
BRANCH  27  42
ATOM     42  C   UNL     1      -8.239  10.317   7.698  1.00  0.00     0.015 C 
ATOM     43  C   UNL     1      -9.550  11.094   7.528  1.00  0.00     0.010 C 
ATOM     44  C   UNL     1      -7.173  10.858   6.740  1.00  0.00     0.010 C 
ENDBRANCH  27  42
ENDBRANCH   3  27
TORSDOF 5
ENDMDL
MODEL 2
REMARK VINA RESULT:    -4.993      6.710      9.180
REMARK INTER + INTRA:         -10.911
REMARK INTER:                  -8.720
REMARK INTRA:                  -2.192
REMARK UNBOUND:                -1.978
REMARK SMILES CC[C@H](C)[C@H]1NC(=O)c2coc(n2)[C@H](C(C)C)NC(=O)[C@H]([C@@H](C)O)NC(=O)[C@H](C)NC(=O)c2csc1n2
REMARK SMILES IDX 11 1 13 2 12 3 9 4 10 5 7 6 6 7 8 8 5 10 36 11 35 12 34 13
REMARK SMILES IDX 37 14 33 15 31 16 32 17 30 18 28 20 29 21 3 23 4 24 2 25
REMARK SMILES IDX 1 26 14 27 18 28 19 29 20 30 21 32 25 33 26 34 27 35 22 38
REMARK SMILES IDX 23 39 24 40 15 42 16 43 17 44
REMARK H PARENT 6 9 30 19 18 31 25 36 24 41
REMARK Flexibility Score:   94.900
ROOT
ATOM      1  O   UNL     1      -5.977  -0.026  13.110  1.00  0.00    -0.446 OA
ATOM      2  N   UNL     1      -5.043   0.169  11.068  1.00  0.00    -0.207 NA
ATOM      3  C   UNL     1      -5.191   0.710  12.264  1.00  0.00     0.217 A 
ATOM      4  C   UNL     1      -5.758  -1.014  11.140  1.00  0.00     0.167 A 
ATOM      5  C   UNL     1      -6.323  -1.127  12.386  1.00  0.00     0.231 A 
ENDROOT
BRANCH   4   6
ATOM      6  C   UNL     1      -5.880  -1.937  10.025  1.00  0.00     0.273 C 
ATOM      7  N   UNL     1      -5.069  -3.032  10.178  1.00  0.00    -0.341 N 
ATOM      8  O   UNL     1      -6.605  -1.738   9.057  1.00  0.00    -0.267 OA
ATOM      9  H   UNL     1      -4.454  -3.016  10.987  1.00  0.00     0.164 HD
BRANCH   7  10
ATOM     10  C   UNL     1      -4.808  -3.979   9.112  1.00  0.00     0.145 C 
BRANCH  10  11
ATOM     11  C   UNL     1      -3.985  -3.263   8.050  1.00  0.00     0.116 A 
ATOM     12  S   UNL     1      -4.164  -3.699   6.393  1.00  0.00    -0.124 S 
ATOM     13  C   UNL     1      -3.028  -2.496   5.962  1.00  0.00     0.101 A 
ATOM     14  N   UNL     1      -3.123  -2.289   8.289  1.00  0.00    -0.234 NA
ATOM     15  C   UNL     1      -2.580  -1.830   7.086  1.00  0.00     0.139 A 
BRANCH  15  16
ATOM     16  C   UNL     1      -1.619  -0.725   7.047  1.00  0.00     0.271 C 
ATOM     17  O   UNL     1      -0.868  -0.530   6.098  1.00  0.00    -0.267 OA
ATOM     18  N   UNL     1      -1.647   0.068   8.175  1.00  0.00    -0.339 N 
ATOM     19  H   UNL     1      -2.234  -0.262   8.936  1.00  0.00     0.164 HD
BRANCH  18  20
ATOM     20  C   UNL     1      -0.715   1.175   8.341  1.00  0.00     0.168 CG0
ATOM     21  C   UNL     1      -1.338   2.500   7.896  1.00  0.00     0.041 C 
ATOM     22  G   UNL     1      -0.244   1.342   9.795  1.00  0.00     0.000 G0
ENDBRANCH  18  20
ENDBRANCH  15  16
ENDBRANCH  10  11
BRANCH  10  23
ATOM     23  C   UNL     1      -4.113  -5.267   9.629  1.00  0.00     0.015 C 
ATOM     24  C   UNL     1      -4.153  -5.407  11.160  1.00  0.00     0.010 C 
BRANCH  23  25
ATOM     25  C   UNL     1      -4.692  -6.554   8.999  1.00  0.00     0.002 C 
ATOM     26  C   UNL     1      -3.637  -7.497   8.438  1.00  0.00     0.004 C 
ENDBRANCH  23  25
ENDBRANCH  10  23
ENDBRANCH   7  10
ENDBRANCH   4   6
BRANCH   3  27
ATOM     27  C   UNL     1      -4.642   2.028  12.737  1.00  0.00     0.171 C 
BRANCH  27  28
ATOM     28  N   UNL     1      -3.330   2.210  12.127  1.00  0.00    -0.342 N 
ATOM     29  C   UNL     1      -2.158   2.176  12.850  1.00  0.00     0.245 C 
ATOM     30  O   UNL     1      -2.131   1.973  14.062  1.00  0.00    -0.273 OA
ATOM     31  H   UNL     1      -3.265   2.268  11.111  1.00  0.00     0.164 HD
BRANCH  29  32
ATOM     32  C   UNL     1      -0.864   2.259  12.013  1.00  0.00     0.200 C 
BRANCH  32  33
ATOM     33  N   UNL     1      -1.194   1.929  10.621  1.00  0.00    -0.340 N 
ATOM     34  C   UNL     1      -0.270   1.330   9.789  1.00  0.00     0.243 CG0
ATOM     35  O   UNL     1       0.882   1.105  10.153  1.00  0.00    -0.273 OA
ATOM     36  H   UNL     1      -2.127   2.131  10.282  1.00  0.00     0.164 HD
ATOM     37  G   UNL     1      -0.701   1.168   8.322  1.00  0.00     0.000 G0
ENDBRANCH  32  33
BRANCH  32  38
ATOM     38  C   UNL     1      -0.183   3.639  12.161  1.00  0.00     0.143 C 
ATOM     39  C   UNL     1      -0.798   4.733  11.296  1.00  0.00     0.041 C 
BRANCH  38  40
ATOM     40  O   UNL     1      -0.215   4.059  13.539  1.00  0.00    -0.391 OA
ATOM     41  H   UNL     1      -0.126   5.031  13.536  1.00  0.00     0.211 HD
ENDBRANCH  38  40
ENDBRANCH  32  38
ENDBRANCH  29  32
ENDBRANCH  27  28
BRANCH  27  42
ATOM     42  C   UNL     1      -5.535   3.280  12.552  1.00  0.00     0.015 C 
ATOM     43  C   UNL     1      -7.024   3.001  12.319  1.00  0.00     0.010 C 
ATOM     44  C   UNL     1      -5.355   4.285  13.695  1.00  0.00     0.010 C 
ENDBRANCH  27  42
ENDBRANCH   3  27
TORSDOF 5
ENDMDL
MODEL 3
REMARK VINA RESULT:    -4.883      6.786     10.800
REMARK INTER + INTRA:         -10.715
REMARK INTER:                  -8.401
REMARK INTRA:                  -2.314
REMARK UNBOUND:                -1.978
REMARK SMILES CC[C@H](C)[C@H]1NC(=O)c2coc(n2)[C@H](C(C)C)NC(=O)[C@H]([C@@H](C)O)NC(=O)[C@H](C)NC(=O)c2csc1n2
REMARK SMILES IDX 11 1 13 2 12 3 9 4 10 5 7 6 6 7 8 8 5 10 36 11 35 12 34 13
REMARK SMILES IDX 37 14 33 15 31 16 32 17 30 18 28 20 29 21 3 23 4 24 2 25
REMARK SMILES IDX 1 26 14 27 18 28 19 29 20 30 21 32 25 33 26 34 27 35 22 38
REMARK SMILES IDX 23 39 24 40 15 42 16 43 17 44
REMARK H PARENT 6 9 30 19 18 31 25 36 24 41
REMARK Flexibility Score:   94.900
ROOT
ATOM      1  O   UNL     1      -6.889  -1.341  10.872  1.00  0.00    -0.446 OA
ATOM      2  N   UNL     1      -4.662  -1.259  11.213  1.00  0.00    -0.207 NA
ATOM      3  C   UNL     1      -5.666  -1.920  10.664  1.00  0.00     0.217 A 
ATOM      4  C   UNL     1      -5.263  -0.158  11.800  1.00  0.00     0.167 A 
ATOM      5  C   UNL     1      -6.618  -0.214  11.588  1.00  0.00     0.231 A 
ENDROOT
BRANCH   4   6
ATOM      6  C   UNL     1      -4.522   0.849  12.540  1.00  0.00     0.273 C 
ATOM      7  N   UNL     1      -4.205   1.928  11.754  1.00  0.00    -0.341 N 
ATOM      8  O   UNL     1      -4.203   0.727  13.716  1.00  0.00    -0.267 OA
ATOM      9  H   UNL     1      -4.455   1.848  10.773  1.00  0.00     0.164 HD
BRANCH   7  10
ATOM     10  C   UNL     1      -3.266   2.955  12.162  1.00  0.00     0.145 C 
BRANCH  10  11
ATOM     11  C   UNL     1      -2.081   2.901  11.208  1.00  0.00     0.116 A 
ATOM     12  S   UNL     1      -0.916   4.171  11.221  1.00  0.00    -0.124 S 
ATOM     13  C   UNL     1      -0.027   3.356  10.009  1.00  0.00     0.101 A 
ATOM     14  N   UNL     1      -1.846   1.925  10.347  1.00  0.00    -0.234 NA
ATOM     15  C   UNL     1      -0.653   2.174   9.663  1.00  0.00     0.139 A 
BRANCH  15  16
ATOM     16  C   UNL     1      -0.125   1.235   8.671  1.00  0.00     0.271 C 
ATOM     17  O   UNL     1       0.906   1.443   8.041  1.00  0.00    -0.267 OA
ATOM     18  N   UNL     1      -0.896   0.102   8.519  1.00  0.00    -0.339 N 
ATOM     19  H   UNL     1      -1.783   0.099   9.016  1.00  0.00     0.164 HD
BRANCH  18  20
ATOM     20  C   UNL     1      -0.562  -0.911   7.528  1.00  0.00     0.168 CG0
ATOM     21  C   UNL     1      -0.024  -2.182   8.190  1.00  0.00     0.041 C 
ATOM     22  G   UNL     1      -1.764  -1.308   6.655  1.00  0.00     0.000 G0
ENDBRANCH  18  20
ENDBRANCH  15  16
ENDBRANCH  10  11
BRANCH  10  23
ATOM     23  C   UNL     1      -3.922   4.361  12.212  1.00  0.00     0.015 C 
ATOM     24  C   UNL     1      -4.803   4.666  10.989  1.00  0.00     0.010 C 
BRANCH  23  25
ATOM     25  C   UNL     1      -4.757   4.587  13.492  1.00  0.00     0.002 C 
ATOM     26  C   UNL     1      -6.257   4.424  13.289  1.00  0.00     0.004 C 
ENDBRANCH  23  25
ENDBRANCH  10  23
ENDBRANCH   7  10
ENDBRANCH   4   6
BRANCH   3  27
ATOM     27  C   UNL     1      -5.591  -3.220   9.912  1.00  0.00     0.171 C 
BRANCH  27  28
ATOM     28  N   UNL     1      -4.637  -3.050   8.820  1.00  0.00    -0.342 N 
ATOM     29  C   UNL     1      -5.025  -2.871   7.511  1.00  0.00     0.245 C 
ATOM     30  O   UNL     1      -6.205  -2.825   7.167  1.00  0.00    -0.273 OA
ATOM     31  H   UNL     1      -3.647  -2.962   9.044  1.00  0.00     0.164 HD
BRANCH  29  32
ATOM     32  C   UNL     1      -3.880  -2.579   6.518  1.00  0.00     0.200 C 
BRANCH  32  33
ATOM     33  N   UNL     1      -2.746  -2.029   7.271  1.00  0.00    -0.340 N 
ATOM     34  C   UNL     1      -1.750  -1.311   6.642  1.00  0.00     0.243 CG0
ATOM     35  O   UNL     1      -1.733  -1.155   5.423  1.00  0.00    -0.273 OA
ATOM     36  H   UNL     1      -2.717  -2.168   8.274  1.00  0.00     0.164 HD
ATOM     37  G   UNL     1      -0.556  -0.913   7.526  1.00  0.00     0.000 G0
ENDBRANCH  32  33
BRANCH  32  38
ATOM     38  C   UNL     1      -3.507  -3.838   5.700  1.00  0.00     0.143 C 
ATOM     39  C   UNL     1      -2.841  -4.938   6.519  1.00  0.00     0.041 C 
BRANCH  38  40
ATOM     40  O   UNL     1      -4.681  -4.376   5.061  1.00  0.00    -0.391 OA
ATOM     41  H   UNL     1      -4.803  -5.277   5.415  1.00  0.00     0.211 HD
ENDBRANCH  38  40
ENDBRANCH  32  38
ENDBRANCH  29  32
ENDBRANCH  27  28
BRANCH  27  42
ATOM     42  C   UNL     1      -5.297  -4.502  10.730  1.00  0.00     0.015 C 
ATOM     43  C   UNL     1      -3.990  -5.224  10.381  1.00  0.00     0.010 C 
ATOM     44  C   UNL     1      -5.377  -4.249  12.239  1.00  0.00     0.010 C 
ENDBRANCH  27  42
ENDBRANCH   3  27
TORSDOF 5
ENDMDL
MODEL 4
REMARK VINA RESULT:    -4.788      6.063      9.079
REMARK INTER + INTRA:         -10.544
REMARK INTER:                  -8.063
REMARK INTRA:                  -2.481
REMARK UNBOUND:                -1.978
REMARK SMILES CC[C@H](C)[C@H]1NC(=O)c2coc(n2)[C@H](C(C)C)NC(=O)[C@H]([C@@H](C)O)NC(=O)[C@H](C)NC(=O)c2csc1n2
REMARK SMILES IDX 11 1 13 2 12 3 9 4 10 5 7 6 6 7 8 8 5 10 36 11 35 12 34 13
REMARK SMILES IDX 37 14 33 15 31 16 32 17 30 18 28 20 29 21 3 23 4 24 2 25
REMARK SMILES IDX 1 26 14 27 18 28 19 29 20 30 21 32 25 33 26 34 27 35 22 38
REMARK SMILES IDX 23 39 24 40 15 42 16 43 17 44
REMARK H PARENT 6 9 30 19 18 31 25 36 24 41
REMARK Flexibility Score:   94.900
ROOT
ATOM      1  O   UNL     1      -3.725   0.151  12.143  1.00  0.00    -0.446 OA
ATOM      2  N   UNL     1      -1.842   0.040  13.377  1.00  0.00    -0.207 NA
ATOM      3  C   UNL     1      -2.940   0.723  13.108  1.00  0.00     0.217 A 
ATOM      4  C   UNL     1      -1.923  -1.070  12.553  1.00  0.00     0.167 A 
ATOM      5  C   UNL     1      -3.073  -0.997  11.806  1.00  0.00     0.231 A 
ENDROOT
BRANCH   4   6
ATOM      6  C   UNL     1      -0.901  -2.102  12.509  1.00  0.00     0.273 C 
ATOM      7  N   UNL     1       0.067  -1.901  13.460  1.00  0.00    -0.341 N 
ATOM      8  O   UNL     1      -0.901  -3.020  11.699  1.00  0.00    -0.267 OA
ATOM      9  H   UNL     1      -0.016  -1.045  14.000  1.00  0.00     0.164 HD
BRANCH   7  10
ATOM     10  C   UNL     1       1.321  -2.629  13.479  1.00  0.00     0.145 C 
BRANCH  10  11
ATOM     11  C   UNL     1       2.378  -1.741  12.840  1.00  0.00     0.116 A 
ATOM     12  S   UNL     1       3.773  -2.455  12.121  1.00  0.00    -0.124 S 
ATOM     13  C   UNL     1       4.325  -0.902  11.669  1.00  0.00     0.101 A 
ATOM     14  N   UNL     1       2.318  -0.422  12.769  1.00  0.00    -0.234 NA
ATOM     15  C   UNL     1       3.431   0.068  12.080  1.00  0.00     0.139 A 
BRANCH  15  16
ATOM     16  C   UNL     1       3.607   1.498  11.819  1.00  0.00     0.271 C 
ATOM     17  O   UNL     1       4.646   2.097  12.071  1.00  0.00    -0.267 OA
ATOM     18  N   UNL     1       2.495   2.098  11.265  1.00  0.00    -0.339 N 
ATOM     19  H   UNL     1       1.660   1.520  11.208  1.00  0.00     0.164 HD
BRANCH  18  20
ATOM     20  C   UNL     1       2.463   3.530  11.000  1.00  0.00     0.168 CG0
ATOM     21  C   UNL     1       2.008   3.821   9.569  1.00  0.00     0.041 C 
ATOM     22  G   UNL     1       1.528   4.290  11.955  1.00  0.00     0.000 G0
ENDBRANCH  18  20
ENDBRANCH  15  16
ENDBRANCH  10  11
BRANCH  10  23
ATOM     23  C   UNL     1       1.714  -3.081  14.911  1.00  0.00     0.015 C 
ATOM     24  C   UNL     1       0.869  -2.420  16.012  1.00  0.00     0.010 C 
BRANCH  23  25
ATOM     25  C   UNL     1       1.651  -4.615  15.092  1.00  0.00     0.002 C 
ATOM     26  C   UNL     1       2.101  -5.094  16.466  1.00  0.00     0.004 C 
ENDBRANCH  23  25
ENDBRANCH  10  23
ENDBRANCH   7  10
ENDBRANCH   4   6
BRANCH   3  27
ATOM     27  C   UNL     1      -3.355   2.041  13.702  1.00  0.00     0.171 C 
BRANCH  27  28
ATOM     28  N   UNL     1      -2.639   3.096  12.993  1.00  0.00    -0.342 N 
ATOM     29  C   UNL     1      -1.535   3.732  13.517  1.00  0.00     0.245 C 
ATOM     30  O   UNL     1      -1.062   3.447  14.615  1.00  0.00    -0.273 OA
ATOM     31  H   UNL     1      -2.903   3.307  12.031  1.00  0.00     0.164 HD
BRANCH  29  32
ATOM     32  C   UNL     1      -0.836   4.728  12.568  1.00  0.00     0.200 C 
BRANCH  32  33
ATOM     33  N   UNL     1       0.189   4.000  11.810  1.00  0.00    -0.340 N 
ATOM     34  C   UNL     1       1.530   4.289  11.959  1.00  0.00     0.243 CG0
ATOM     35  O   UNL     1       1.921   5.205  12.680  1.00  0.00    -0.273 OA
ATOM     36  H   UNL     1      -0.105   3.259  11.184  1.00  0.00     0.164 HD
ATOM     37  G   UNL     1       2.482   3.548  11.006  1.00  0.00     0.000 G0
ENDBRANCH  32  33
BRANCH  32  38
ATOM     38  C   UNL     1      -1.855   5.454  11.659  1.00  0.00     0.143 C 
ATOM     39  C   UNL     1      -1.367   6.795  11.123  1.00  0.00     0.041 C 
BRANCH  38  40
ATOM     40  O   UNL     1      -2.215   4.610  10.548  1.00  0.00    -0.391 OA
ATOM     41  H   UNL     1      -2.219   3.693  10.884  1.00  0.00     0.211 HD
ENDBRANCH  38  40
ENDBRANCH  32  38
ENDBRANCH  29  32
ENDBRANCH  27  28
BRANCH  27  42
ATOM     42  C   UNL     1      -4.872   2.340  13.785  1.00  0.00     0.015 C 
ATOM     43  C   UNL     1      -5.410   2.650  15.186  1.00  0.00     0.010 C 
ATOM     44  C   UNL     1      -5.295   3.434  12.799  1.00  0.00     0.010 C 
ENDBRANCH  27  42
ENDBRANCH   3  27
TORSDOF 5
ENDMDL
MODEL 5
REMARK VINA RESULT:    -4.661      5.055      8.412
REMARK INTER + INTRA:         -10.318
REMARK INTER:                  -8.052
REMARK INTRA:                  -2.266
REMARK UNBOUND:                -1.978
REMARK SMILES CC[C@H](C)[C@H]1NC(=O)c2coc(n2)[C@H](C(C)C)NC(=O)[C@H]([C@@H](C)O)NC(=O)[C@H](C)NC(=O)c2csc1n2
REMARK SMILES IDX 11 1 13 2 12 3 9 4 10 5 7 6 6 7 8 8 5 10 36 11 35 12 34 13
REMARK SMILES IDX 37 14 33 15 31 16 32 17 30 18 28 20 29 21 3 23 4 24 2 25
REMARK SMILES IDX 1 26 14 27 18 28 19 29 20 30 21 32 25 33 26 34 27 35 22 38
REMARK SMILES IDX 23 39 24 40 15 42 16 43 17 44
REMARK H PARENT 6 9 30 19 18 31 25 36 24 41
REMARK Flexibility Score:   94.900
ROOT
ATOM      1  O   UNL     1      -0.950   1.023   6.604  1.00  0.00    -0.446 OA
ATOM      2  N   UNL     1      -1.403   0.779   8.798  1.00  0.00    -0.207 NA
ATOM      3  C   UNL     1      -0.955   1.585   7.852  1.00  0.00     0.217 A 
ATOM      4  C   UNL     1      -1.740  -0.382   8.124  1.00  0.00     0.167 A 
ATOM      5  C   UNL     1      -1.462  -0.226   6.787  1.00  0.00     0.231 A 
ENDROOT
BRANCH   4   6
ATOM      6  C   UNL     1      -2.269  -1.560   8.787  1.00  0.00     0.273 C 
ATOM      7  N   UNL     1      -3.641  -1.591   8.752  1.00  0.00    -0.341 N 
ATOM      8  O   UNL     1      -1.568  -2.404   9.331  1.00  0.00    -0.267 OA
ATOM      9  H   UNL     1      -4.090  -0.775   8.347  1.00  0.00     0.164 HD
BRANCH   7  10
ATOM     10  C   UNL     1      -4.432  -2.513   9.543  1.00  0.00     0.145 C 
BRANCH  10  11
ATOM     11  C   UNL     1      -5.113  -1.711  10.642  1.00  0.00     0.116 A 
ATOM     12  S   UNL     1      -6.222  -2.489  11.707  1.00  0.00    -0.124 S 
ATOM     13  C   UNL     1      -6.440  -1.015  12.545  1.00  0.00     0.101 A 
ATOM     14  N   UNL     1      -4.916  -0.423  10.873  1.00  0.00    -0.234 NA
ATOM     15  C   UNL     1      -5.665  -0.020  11.981  1.00  0.00     0.139 A 
BRANCH  15  16
ATOM     16  C   UNL     1      -5.611   1.353  12.489  1.00  0.00     0.271 C 
ATOM     17  O   UNL     1      -6.237   1.722  13.476  1.00  0.00    -0.267 OA
ATOM     18  N   UNL     1      -4.789   2.180  11.752  1.00  0.00    -0.339 N 
ATOM     19  H   UNL     1      -4.415   1.785  10.894  1.00  0.00     0.164 HD
BRANCH  18  20
ATOM     20  C   UNL     1      -4.664   3.596  12.070  1.00  0.00     0.168 CG0
ATOM     21  C   UNL     1      -3.418   3.869  12.914  1.00  0.00     0.041 C 
ATOM     22  G   UNL     1      -4.586   4.482  10.816  1.00  0.00     0.000 G0
ENDBRANCH  18  20
ENDBRANCH  15  16
ENDBRANCH  10  11
BRANCH  10  23
ATOM     23  C   UNL     1      -5.445  -3.309   8.677  1.00  0.00     0.015 C 
ATOM     24  C   UNL     1      -5.699  -2.673   7.300  1.00  0.00     0.010 C 
BRANCH  23  25
ATOM     25  C   UNL     1      -5.028  -4.783   8.472  1.00  0.00     0.002 C 
ATOM     26  C   UNL     1      -4.501  -5.457   9.731  1.00  0.00     0.004 C 
ENDBRANCH  23  25
ENDBRANCH  10  23
ENDBRANCH   7  10
ENDBRANCH   4   6
BRANCH   3  27
ATOM     27  C   UNL     1      -0.425   2.982   8.027  1.00  0.00     0.171 C 
BRANCH  27  28
ATOM     28  N   UNL     1      -1.419   3.747   8.772  1.00  0.00    -0.342 N 
ATOM     29  C   UNL     1      -1.913   4.955   8.335  1.00  0.00     0.245 C 
ATOM     30  O   UNL     1      -1.565   5.472   7.274  1.00  0.00    -0.273 OA
ATOM     31  H   UNL     1      -1.839   3.329   9.601  1.00  0.00     0.164 HD
BRANCH  29  32
ATOM     32  C   UNL     1      -3.051   5.552   9.191  1.00  0.00     0.200 C 
BRANCH  32  33
ATOM     33  N   UNL     1      -3.305   4.644  10.316  1.00  0.00    -0.340 N 
ATOM     34  C   UNL     1      -4.578   4.461  10.814  1.00  0.00     0.243 CG0
ATOM     35  O   UNL     1      -5.541   5.093  10.385  1.00  0.00    -0.273 OA
ATOM     36  H   UNL     1      -2.526   4.131  10.711  1.00  0.00     0.164 HD
ATOM     37  G   UNL     1      -4.681   3.591  12.078  1.00  0.00     0.000 G0
ENDBRANCH  32  33
BRANCH  32  38
ATOM     38  C   UNL     1      -2.722   6.994   9.642  1.00  0.00     0.143 C 
ATOM     39  C   UNL     1      -3.786   8.020   9.270  1.00  0.00     0.041 C 
BRANCH  38  40
ATOM     40  O   UNL     1      -2.517   7.029  11.068  1.00  0.00    -0.391 OA
ATOM     41  H   UNL     1      -3.392   7.181  11.472  1.00  0.00     0.211 HD
ENDBRANCH  38  40
ENDBRANCH  32  38
ENDBRANCH  29  32
ENDBRANCH  27  28
BRANCH  27  42
ATOM     42  C   UNL     1       0.989   3.136   8.640  1.00  0.00     0.015 C 
ATOM     43  C   UNL     1       1.917   1.927   8.475  1.00  0.00     0.010 C 
ATOM     44  C   UNL     1       1.687   4.411   8.155  1.00  0.00     0.010 C 
ENDBRANCH  27  42
ENDBRANCH   3  27
TORSDOF 5
ENDMDL
MODEL 6
REMARK VINA RESULT:    -4.557      6.002      8.830
REMARK INTER + INTRA:         -10.132
REMARK INTER:                  -7.700
REMARK INTRA:                  -2.433
REMARK UNBOUND:                -1.978
REMARK SMILES CC[C@H](C)[C@H]1NC(=O)c2coc(n2)[C@H](C(C)C)NC(=O)[C@H]([C@@H](C)O)NC(=O)[C@H](C)NC(=O)c2csc1n2
REMARK SMILES IDX 11 1 13 2 12 3 9 4 10 5 7 6 6 7 8 8 5 10 36 11 35 12 34 13
REMARK SMILES IDX 37 14 33 15 31 16 32 17 30 18 28 20 29 21 3 23 4 24 2 25
REMARK SMILES IDX 1 26 14 27 18 28 19 29 20 30 21 32 25 33 26 34 27 35 22 38
REMARK SMILES IDX 23 39 24 40 15 42 16 43 17 44
REMARK H PARENT 6 9 30 19 18 31 25 36 24 41
REMARK Flexibility Score:   94.900
ROOT
ATOM      1  O   UNL     1      -2.916  10.644   2.308  1.00  0.00    -0.446 OA
ATOM      2  N   UNL     1      -2.141  11.509   4.240  1.00  0.00    -0.207 NA
ATOM      3  C   UNL     1      -1.980  11.426   2.931  1.00  0.00     0.217 A 
ATOM      4  C   UNL     1      -3.272  10.753   4.491  1.00  0.00     0.167 A 
ATOM      5  C   UNL     1      -3.740  10.230   3.311  1.00  0.00     0.231 A 
ENDROOT
BRANCH   4   6
ATOM      6  C   UNL     1      -3.814  10.555   5.824  1.00  0.00     0.273 C 
ATOM      7  N   UNL     1      -3.279  11.437   6.729  1.00  0.00    -0.341 N 
ATOM      8  O   UNL     1      -4.630   9.685   6.102  1.00  0.00    -0.267 OA
ATOM      9  H   UNL     1      -2.543  12.041   6.372  1.00  0.00     0.164 HD
BRANCH   7  10
ATOM     10  C   UNL     1      -3.452  11.305   8.162  1.00  0.00     0.145 C 
BRANCH  10  11
ATOM     11  C   UNL     1      -2.277  10.498   8.695  1.00  0.00     0.116 A 
ATOM     12  S   UNL     1      -2.280   9.964  10.333  1.00  0.00    -0.124 S 
ATOM     13  C   UNL     1      -0.777   9.191  10.076  1.00  0.00     0.101 A 
ATOM     14  N   UNL     1      -1.218  10.142   7.986  1.00  0.00    -0.234 NA
ATOM     15  C   UNL     1      -0.357   9.373   8.773  1.00  0.00     0.139 A 
BRANCH  15  16
ATOM     16  C   UNL     1       0.882   8.809   8.232  1.00  0.00     0.271 C 
ATOM     17  O   UNL     1       1.640   8.111   8.897  1.00  0.00    -0.267 OA
ATOM     18  N   UNL     1       1.107   9.138   6.912  1.00  0.00    -0.339 N 
ATOM     19  H   UNL     1       0.464   9.813   6.507  1.00  0.00     0.164 HD
BRANCH  18  20
ATOM     20  C   UNL     1       2.324   8.722   6.228  1.00  0.00     0.168 CG0
ATOM     21  C   UNL     1       2.101   7.437   5.428  1.00  0.00     0.041 C 
ATOM     22  G   UNL     1       2.856   9.791   5.260  1.00  0.00     0.000 G0
ENDBRANCH  18  20
ENDBRANCH  15  16
ENDBRANCH  10  11
BRANCH  10  23
ATOM     23  C   UNL     1      -3.591  12.681   8.865  1.00  0.00     0.015 C 
ATOM     24  C   UNL     1      -2.734  13.784   8.220  1.00  0.00     0.010 C 
BRANCH  23  25
ATOM     25  C   UNL     1      -5.055  13.171   8.936  1.00  0.00     0.002 C 
ATOM     26  C   UNL     1      -6.086  12.053   8.857  1.00  0.00     0.004 C 
ENDBRANCH  23  25
ENDBRANCH  10  23
ENDBRANCH   7  10
ENDBRANCH   4   6
BRANCH   3  27
ATOM     27  C   UNL     1      -0.879  12.042   2.112  1.00  0.00     0.171 C 
BRANCH  27  28
ATOM     28  N   UNL     1       0.334  11.264   2.338  1.00  0.00    -0.342 N 
ATOM     29  C   UNL     1       1.525  11.834   2.729  1.00  0.00     0.245 C 
ATOM     30  O   UNL     1       1.650  13.041   2.932  1.00  0.00    -0.273 OA
ATOM     31  H   UNL     1       0.278  10.247   2.300  1.00  0.00     0.164 HD
BRANCH  29  32
ATOM     32  C   UNL     1       2.661  10.838   3.043  1.00  0.00     0.200 C 
BRANCH  32  33
ATOM     33  N   UNL     1       2.189   9.913   4.081  1.00  0.00    -0.340 N 
ATOM     34  C   UNL     1       2.840   9.804   5.293  1.00  0.00     0.243 CG0
ATOM     35  O   UNL     1       3.874  10.424   5.533  1.00  0.00    -0.273 OA
ATOM     36  H   UNL     1       1.356   9.366   3.900  1.00  0.00     0.164 HD
ATOM     37  G   UNL     1       2.322   8.702   6.230  1.00  0.00     0.000 G0
ENDBRANCH  32  33
BRANCH  32  38
ATOM     38  C   UNL     1       3.148  10.114   1.766  1.00  0.00     0.143 C 
ATOM     39  C   UNL     1       3.478  11.048   0.608  1.00  0.00     0.041 C 
BRANCH  38  40
ATOM     40  O   UNL     1       4.307   9.313   2.065  1.00  0.00    -0.391 OA
ATOM     41  H   UNL     1       3.984   8.411   2.249  1.00  0.00     0.211 HD
ENDBRANCH  38  40
ENDBRANCH  32  38
ENDBRANCH  29  32
ENDBRANCH  27  28
BRANCH  27  42
ATOM     42  C   UNL     1      -1.147  12.253   0.601  1.00  0.00     0.015 C 
ATOM     43  C   UNL     1      -0.870  13.665   0.072  1.00  0.00     0.010 C 
ATOM     44  C   UNL     1      -0.425  11.212  -0.260  1.00  0.00     0.010 C 
ENDBRANCH  27  42
ENDBRANCH   3  27
TORSDOF 5
ENDMDL
MODEL 7
REMARK VINA RESULT:    -4.540      5.693      7.967
REMARK INTER + INTRA:         -10.101
REMARK INTER:                  -7.903
REMARK INTRA:                  -2.198
REMARK UNBOUND:                -1.978
REMARK SMILES CC[C@H](C)[C@H]1NC(=O)c2coc(n2)[C@H](C(C)C)NC(=O)[C@H]([C@@H](C)O)NC(=O)[C@H](C)NC(=O)c2csc1n2
REMARK SMILES IDX 11 1 13 2 12 3 9 4 10 5 7 6 6 7 8 8 5 10 36 11 35 12 34 13
REMARK SMILES IDX 37 14 33 15 31 16 32 17 30 18 28 20 29 21 3 23 4 24 2 25
REMARK SMILES IDX 1 26 14 27 18 28 19 29 20 30 21 32 25 33 26 34 27 35 22 38
REMARK SMILES IDX 23 39 24 40 15 42 16 43 17 44
REMARK H PARENT 6 9 30 19 18 31 25 36 24 41
REMARK Flexibility Score:   94.900
ROOT
ATOM      1  O   UNL     1      -2.868  11.085   2.925  1.00  0.00    -0.446 OA
ATOM      2  N   UNL     1      -1.726   9.814   4.395  1.00  0.00    -0.207 NA
ATOM      3  C   UNL     1      -2.902  10.311   4.054  1.00  0.00     0.217 A 
ATOM      4  C   UNL     1      -0.867  10.270   3.410  1.00  0.00     0.167 A 
ATOM      5  C   UNL     1      -1.569  11.043   2.518  1.00  0.00     0.231 A 
ENDROOT
BRANCH   4   6
ATOM      6  C   UNL     1       0.554   9.970   3.396  1.00  0.00     0.273 C 
ATOM      7  N   UNL     1       0.809   8.687   3.810  1.00  0.00    -0.341 N 
ATOM      8  O   UNL     1       1.415  10.780   3.074  1.00  0.00    -0.267 OA
ATOM      9  H   UNL     1       0.002   8.161   4.134  1.00  0.00     0.164 HD
BRANCH   7  10
ATOM     10  C   UNL     1       2.139   8.206   4.127  1.00  0.00     0.145 C 
BRANCH  10  11
ATOM     11  C   UNL     1       2.540   8.808   5.466  1.00  0.00     0.116 A 
ATOM     12  S   UNL     1       4.191   9.197   5.769  1.00  0.00    -0.124 S 
ATOM     13  C   UNL     1       3.761   9.790   7.313  1.00  0.00     0.101 A 
ATOM     14  N   UNL     1       1.704   9.084   6.453  1.00  0.00    -0.234 NA
ATOM     15  C   UNL     1       2.400   9.667   7.516  1.00  0.00     0.139 A 
BRANCH  15  16
ATOM     16  C   UNL     1       1.716  10.111   8.732  1.00  0.00     0.271 C 
ATOM     17  O   UNL     1       1.878   9.570   9.821  1.00  0.00    -0.267 OA
ATOM     18  N   UNL     1       0.881  11.190   8.532  1.00  0.00    -0.339 N 
ATOM     19  H   UNL     1       0.749  11.476   7.566  1.00  0.00     0.164 HD
BRANCH  18  20
ATOM     20  C   UNL     1       0.068  11.726   9.616  1.00  0.00     0.168 CG0
ATOM     21  C   UNL     1      -0.044  13.249   9.527  1.00  0.00     0.041 C 
ATOM     22  G   UNL     1      -1.357  11.150   9.629  1.00  0.00     0.000 G0
ENDBRANCH  18  20
ENDBRANCH  15  16
ENDBRANCH  10  11
BRANCH  10  23
ATOM     23  C   UNL     1       2.218   6.657   4.128  1.00  0.00     0.015 C 
ATOM     24  C   UNL     1       0.839   5.977   4.181  1.00  0.00     0.010 C 
BRANCH  23  25
ATOM     25  C   UNL     1       2.999   6.097   2.917  1.00  0.00     0.002 C 
ATOM     26  C   UNL     1       2.179   6.012   1.637  1.00  0.00     0.004 C 
ENDBRANCH  23  25
ENDBRANCH  10  23
ENDBRANCH   7  10
ENDBRANCH   4   6
BRANCH   3  27
ATOM     27  C   UNL     1      -4.202  10.153   4.794  1.00  0.00     0.171 C 
BRANCH  27  28
ATOM     28  N   UNL     1      -4.082  10.862   6.063  1.00  0.00    -0.342 N 
ATOM     29  C   UNL     1      -3.781  10.228   7.248  1.00  0.00     0.245 C 
ATOM     30  O   UNL     1      -3.574   9.018   7.321  1.00  0.00    -0.273 OA
ATOM     31  H   UNL     1      -4.127  11.881   6.062  1.00  0.00     0.164 HD
BRANCH  29  32
ATOM     32  C   UNL     1      -3.570  11.161   8.460  1.00  0.00     0.200 C 
BRANCH  32  33
ATOM     33  N   UNL     1      -2.146  11.512   8.528  1.00  0.00    -0.340 N 
ATOM     34  C   UNL     1      -1.373  11.162   9.615  1.00  0.00     0.243 CG0
ATOM     35  O   UNL     1      -1.852  10.599  10.598  1.00  0.00    -0.273 OA
ATOM     36  H   UNL     1      -1.730  12.004   7.746  1.00  0.00     0.164 HD
ATOM     37  G   UNL     1       0.062  11.711   9.618  1.00  0.00     0.000 G0
ENDBRANCH  32  33
BRANCH  32  38
ATOM     38  C   UNL     1      -4.494  12.398   8.388  1.00  0.00     0.143 C 
ATOM     39  C   UNL     1      -4.964  12.904   9.747  1.00  0.00     0.041 C 
BRANCH  38  40
ATOM     40  O   UNL     1      -3.827  13.472   7.695  1.00  0.00    -0.391 OA
ATOM     41  H   UNL     1      -4.051  14.293   8.173  1.00  0.00     0.211 HD
ENDBRANCH  38  40
ENDBRANCH  32  38
ENDBRANCH  29  32
ENDBRANCH  27  28
BRANCH  27  42
ATOM     42  C   UNL     1      -5.500  10.540   4.045  1.00  0.00     0.015 C 
ATOM     43  C   UNL     1      -5.837   9.684   2.818  1.00  0.00     0.010 C 
ATOM     44  C   UNL     1      -6.706  10.613   4.988  1.00  0.00     0.010 C 
ENDBRANCH  27  42
ENDBRANCH   3  27
TORSDOF 5
ENDMDL
MODEL 8
REMARK VINA RESULT:    -4.463      5.647      9.460
REMARK INTER + INTRA:          -9.964
REMARK INTER:                  -7.850
REMARK INTRA:                  -2.114
REMARK UNBOUND:                -1.978
REMARK SMILES CC[C@H](C)[C@H]1NC(=O)c2coc(n2)[C@H](C(C)C)NC(=O)[C@H]([C@@H](C)O)NC(=O)[C@H](C)NC(=O)c2csc1n2
REMARK SMILES IDX 11 1 13 2 12 3 9 4 10 5 7 6 6 7 8 8 5 10 36 11 35 12 34 13
REMARK SMILES IDX 37 14 33 15 31 16 32 17 30 18 28 20 29 21 3 23 4 24 2 25
REMARK SMILES IDX 1 26 14 27 18 28 19 29 20 30 21 32 25 33 26 34 27 35 22 38
REMARK SMILES IDX 23 39 24 40 15 42 16 43 17 44
REMARK H PARENT 6 9 30 19 18 31 25 36 24 41
REMARK Flexibility Score:   94.900
ROOT
ATOM      1  O   UNL     1      -3.022  -1.259   8.778  1.00  0.00    -0.446 OA
ATOM      2  N   UNL     1      -1.604  -1.115  10.525  1.00  0.00    -0.207 NA
ATOM      3  C   UNL     1      -2.862  -1.228  10.138  1.00  0.00     0.217 A 
ATOM      4  C   UNL     1      -0.886  -1.097   9.342  1.00  0.00     0.167 A 
ATOM      5  C   UNL     1      -1.755  -1.186   8.282  1.00  0.00     0.231 A 
ENDROOT
BRANCH   4   6
ATOM      6  C   UNL     1       0.560  -0.969   9.294  1.00  0.00     0.273 C 
ATOM      7  N   UNL     1       1.070  -0.496  10.476  1.00  0.00    -0.341 N 
ATOM      8  O   UNL     1       1.231  -1.231   8.302  1.00  0.00    -0.267 OA
ATOM      9  H   UNL     1       0.384  -0.235  11.179  1.00  0.00     0.164 HD
BRANCH   7  10
ATOM     10  C   UNL     1       2.439  -0.042  10.623  1.00  0.00     0.145 C 
BRANCH  10  11
ATOM     11  C   UNL     1       2.397   1.423  11.034  1.00  0.00     0.116 A 
ATOM     12  S   UNL     1       3.832   2.374  10.956  1.00  0.00    -0.124 S 
ATOM     13  C   UNL     1       2.949   3.736  11.494  1.00  0.00     0.101 A 
ATOM     14  N   UNL     1       1.316   2.063  11.450  1.00  0.00    -0.234 NA
ATOM     15  C   UNL     1       1.624   3.402  11.700  1.00  0.00     0.139 A 
BRANCH  15  16
ATOM     16  C   UNL     1       0.605   4.358  12.138  1.00  0.00     0.271 C 
ATOM     17  O   UNL     1       0.826   5.233  12.968  1.00  0.00    -0.267 OA
ATOM     18  N   UNL     1      -0.618   4.177  11.526  1.00  0.00    -0.339 N 
ATOM     19  H   UNL     1      -0.704   3.350  10.942  1.00  0.00     0.164 HD
BRANCH  18  20
ATOM     20  C   UNL     1      -1.770   4.992  11.887  1.00  0.00     0.168 CG0
ATOM     21  C   UNL     1      -2.412   5.626  10.651  1.00  0.00     0.041 C 
ATOM     22  G   UNL     1      -2.856   4.193  12.624  1.00  0.00     0.000 G0
ENDBRANCH  18  20
ENDBRANCH  15  16
ENDBRANCH  10  11
BRANCH  10  23
ATOM     23  C   UNL     1       3.241  -0.914  11.625  1.00  0.00     0.015 C 
ATOM     24  C   UNL     1       2.679  -0.872  13.056  1.00  0.00     0.010 C 
BRANCH  23  25
ATOM     25  C   UNL     1       3.349  -2.390  11.179  1.00  0.00     0.002 C 
ATOM     26  C   UNL     1       4.473  -3.161  11.859  1.00  0.00     0.004 C 
ENDBRANCH  23  25
ENDBRANCH  10  23
ENDBRANCH   7  10
ENDBRANCH   4   6
BRANCH   3  27
ATOM     27  C   UNL     1      -4.081  -1.268  11.018  1.00  0.00     0.171 C 
BRANCH  27  28
ATOM     28  N   UNL     1      -4.389   0.101  11.418  1.00  0.00    -0.342 N 
ATOM     29  C   UNL     1      -3.904   0.668  12.575  1.00  0.00     0.245 C 
ATOM     30  O   UNL     1      -3.163   0.067  13.351  1.00  0.00    -0.273 OA
ATOM     31  H   UNL     1      -4.902   0.697  10.770  1.00  0.00     0.164 HD
BRANCH  29  32
ATOM     32  C   UNL     1      -4.230   2.165  12.764  1.00  0.00     0.200 C 
BRANCH  32  33
ATOM     33  N   UNL     1      -3.125   2.952  12.203  1.00  0.00    -0.340 N 
ATOM     34  C   UNL     1      -2.862   4.232  12.644  1.00  0.00     0.243 CG0
ATOM     35  O   UNL     1      -3.574   4.792  13.475  1.00  0.00    -0.273 OA
ATOM     36  H   UNL     1      -2.539   2.527  11.493  1.00  0.00     0.164 HD
ATOM     37  G   UNL     1      -1.766   4.989  11.876  1.00  0.00     0.000 G0
ENDBRANCH  32  33
BRANCH  32  38
ATOM     38  C   UNL     1      -5.602   2.526  12.147  1.00  0.00     0.143 C 
ATOM     39  C   UNL     1      -6.626   3.029  13.158  1.00  0.00     0.041 C 
BRANCH  38  40
ATOM     40  O   UNL     1      -5.433   3.521  11.119  1.00  0.00    -0.391 OA
ATOM     41  H   UNL     1      -5.618   3.078  10.269  1.00  0.00     0.211 HD
ENDBRANCH  38  40
ENDBRANCH  32  38
ENDBRANCH  29  32
ENDBRANCH  27  28
BRANCH  27  42
ATOM     42  C   UNL     1      -5.333  -1.996  10.470  1.00  0.00     0.015 C 
ATOM     43  C   UNL     1      -5.256  -3.527  10.459  1.00  0.00     0.010 C 
ATOM     44  C   UNL     1      -6.616  -1.533  11.168  1.00  0.00     0.010 C 
ENDBRANCH  27  42
ENDBRANCH   3  27
TORSDOF 5
ENDMDL
MODEL 9
REMARK VINA RESULT:    -4.437      7.021      9.571
REMARK INTER + INTRA:          -9.917
REMARK INTER:                  -7.345
REMARK INTRA:                  -2.572
REMARK UNBOUND:                -1.978
REMARK SMILES CC[C@H](C)[C@H]1NC(=O)c2coc(n2)[C@H](C(C)C)NC(=O)[C@H]([C@@H](C)O)NC(=O)[C@H](C)NC(=O)c2csc1n2
REMARK SMILES IDX 11 1 13 2 12 3 9 4 10 5 7 6 6 7 8 8 5 10 36 11 35 12 34 13
REMARK SMILES IDX 37 14 33 15 31 16 32 17 30 18 28 20 29 21 3 23 4 24 2 25
REMARK SMILES IDX 1 26 14 27 18 28 19 29 20 30 21 32 25 33 26 34 27 35 22 38
REMARK SMILES IDX 23 39 24 40 15 42 16 43 17 44
REMARK H PARENT 6 9 30 19 18 31 25 36 24 41
REMARK Flexibility Score:   94.900
ROOT
ATOM      1  O   UNL     1      -3.690  10.798   1.954  1.00  0.00    -0.446 OA
ATOM      2  N   UNL     1      -2.088  11.285   3.463  1.00  0.00    -0.207 NA
ATOM      3  C   UNL     1      -2.457  11.342   2.196  1.00  0.00     0.217 A 
ATOM      4  C   UNL     1      -3.160  10.688   4.102  1.00  0.00     0.167 A 
ATOM      5  C   UNL     1      -4.133  10.394   3.178  1.00  0.00     0.231 A 
ENDROOT
BRANCH   4   6
ATOM      6  C   UNL     1      -3.180  10.411   5.528  1.00  0.00     0.273 C 
ATOM      7  N   UNL     1      -2.218  11.123   6.199  1.00  0.00    -0.341 N 
ATOM      8  O   UNL     1      -3.951   9.617   6.053  1.00  0.00    -0.267 OA
ATOM      9  H   UNL     1      -1.591  11.672   5.618  1.00  0.00     0.164 HD
BRANCH   7  10
ATOM     10  C   UNL     1      -1.854  10.858   7.577  1.00  0.00     0.145 C 
BRANCH  10  11
ATOM     11  C   UNL     1      -0.473  10.217   7.573  1.00  0.00     0.116 A 
ATOM     12  S   UNL     1      -0.165   8.845   8.570  1.00  0.00    -0.124 S 
ATOM     13  C   UNL     1       1.432   8.775   7.966  1.00  0.00     0.101 A 
ATOM     14  N   UNL     1       0.548  10.622   6.837  1.00  0.00    -0.234 NA
ATOM     15  C   UNL     1       1.646   9.783   7.046  1.00  0.00     0.139 A 
BRANCH  15  16
ATOM     16  C   UNL     1       2.909   9.975   6.329  1.00  0.00     0.271 C 
ATOM     17  O   UNL     1       3.920  10.410   6.868  1.00  0.00    -0.267 OA
ATOM     18  N   UNL     1       2.846   9.617   4.999  1.00  0.00    -0.339 N 
ATOM     19  H   UNL     1       1.923   9.376   4.646  1.00  0.00     0.164 HD
BRANCH  18  20
ATOM     20  C   UNL     1       3.987   9.802   4.113  1.00  0.00     0.168 CG0
ATOM     21  C   UNL     1       4.741   8.489   3.894  1.00  0.00     0.041 C 
ATOM     22  G   UNL     1       3.586  10.350   2.733  1.00  0.00     0.000 G0
ENDBRANCH  18  20
ENDBRANCH  15  16
ENDBRANCH  10  11
BRANCH  10  23
ATOM     23  C   UNL     1      -1.910  12.136   8.454  1.00  0.00     0.015 C 
ATOM     24  C   UNL     1      -2.374  13.383   7.684  1.00  0.00     0.010 C 
BRANCH  23  25
ATOM     25  C   UNL     1      -2.804  11.965   9.704  1.00  0.00     0.002 C 
ATOM     26  C   UNL     1      -3.309  10.545   9.913  1.00  0.00     0.004 C 
ENDBRANCH  23  25
ENDBRANCH  10  23
ENDBRANCH   7  10
ENDBRANCH   4   6
BRANCH   3  27
ATOM     27  C   UNL     1      -1.655  11.877   1.041  1.00  0.00     0.171 C 
BRANCH  27  28
ATOM     28  N   UNL     1      -0.502  11.003   0.855  1.00  0.00    -0.342 N 
ATOM     29  C   UNL     1       0.793  11.418   1.075  1.00  0.00     0.245 C 
ATOM     30  O   UNL     1       1.072  12.552   1.460  1.00  0.00    -0.273 OA
ATOM     31  H   UNL     1      -0.661  10.018   0.648  1.00  0.00     0.164 HD
BRANCH  29  32
ATOM     32  C   UNL     1       1.868  10.317   0.951  1.00  0.00     0.200 C 
BRANCH  32  33
ATOM     33  N   UNL     1       2.337   9.978   2.300  1.00  0.00    -0.340 N 
ATOM     34  C   UNL     1       3.593  10.348   2.736  1.00  0.00     0.243 CG0
ATOM     35  O   UNL     1       4.394  10.919   1.999  1.00  0.00    -0.273 OA
ATOM     36  H   UNL     1       1.710   9.480   2.921  1.00  0.00     0.164 HD
ATOM     37  G   UNL     1       4.005   9.810   4.115  1.00  0.00     0.000 G0
ENDBRANCH  32  33
BRANCH  32  38
ATOM     38  C   UNL     1       1.336   9.092   0.172  1.00  0.00     0.143 C 
ATOM     39  C   UNL     1       2.375   8.422  -0.719  1.00  0.00     0.041 C 
BRANCH  38  40
ATOM     40  O   UNL     1       0.808   8.115   1.090  1.00  0.00    -0.391 OA
ATOM     41  H   UNL     1       1.007   8.441   1.989  1.00  0.00     0.211 HD
ENDBRANCH  38  40
ENDBRANCH  32  38
ENDBRANCH  29  32
ENDBRANCH  27  28
BRANCH  27  42
ATOM     42  C   UNL     1      -2.403  12.125  -0.292  1.00  0.00     0.015 C 
ATOM     43  C   UNL     1      -2.576  13.596  -0.689  1.00  0.00     0.010 C 
ATOM     44  C   UNL     1      -1.788  11.332  -1.450  1.00  0.00     0.010 C 
ENDBRANCH  27  42
ENDBRANCH   3  27
TORSDOF 5
ENDMDL
MODEL 10
REMARK VINA RESULT:    -4.418      7.261      9.949
REMARK INTER + INTRA:          -9.883
REMARK INTER:                  -7.599
REMARK INTRA:                  -2.284
REMARK UNBOUND:                -1.978
REMARK SMILES CC[C@H](C)[C@H]1NC(=O)c2coc(n2)[C@H](C(C)C)NC(=O)[C@H]([C@@H](C)O)NC(=O)[C@H](C)NC(=O)c2csc1n2
REMARK SMILES IDX 11 1 13 2 12 3 9 4 10 5 7 6 6 7 8 8 5 10 36 11 35 12 34 13
REMARK SMILES IDX 37 14 33 15 31 16 32 17 30 18 28 20 29 21 3 23 4 24 2 25
REMARK SMILES IDX 1 26 14 27 18 28 19 29 20 30 21 32 25 33 26 34 27 35 22 38
REMARK SMILES IDX 23 39 24 40 15 42 16 43 17 44
REMARK H PARENT 6 9 30 19 18 31 25 36 24 41
REMARK Flexibility Score:   94.900
ROOT
ATOM      1  O   UNL     1      -0.046   5.816   3.694  1.00  0.00    -0.446 OA
ATOM      2  N   UNL     1       1.173   4.372   4.923  1.00  0.00    -0.207 NA
ATOM      3  C   UNL     1       1.165   5.211   3.902  1.00  0.00     0.217 A 
ATOM      4  C   UNL     1      -0.110   4.450   5.436  1.00  0.00     0.167 A 
ATOM      5  C   UNL     1      -0.847   5.332   4.684  1.00  0.00     0.231 A 
ENDROOT
BRANCH   4   6
ATOM      6  C   UNL     1      -0.557   3.669   6.576  1.00  0.00     0.273 C 
ATOM      7  N   UNL     1      -0.647   4.432   7.713  1.00  0.00    -0.341 N 
ATOM      8  O   UNL     1      -0.797   2.469   6.524  1.00  0.00    -0.267 OA
ATOM      9  H   UNL     1      -0.327   5.392   7.625  1.00  0.00     0.164 HD
BRANCH   7  10
ATOM     10  C   UNL     1      -0.827   3.866   9.035  1.00  0.00     0.145 C 
BRANCH  10  11
ATOM     11  C   UNL     1       0.533   3.847   9.717  1.00  0.00     0.116 A 
ATOM     12  S   UNL     1       0.629   3.664  11.428  1.00  0.00    -0.124 S 
ATOM     13  C   UNL     1       2.335   3.703  11.329  1.00  0.00     0.101 A 
ATOM     14  N   UNL     1       1.695   3.947   9.093  1.00  0.00    -0.234 NA
ATOM     15  C   UNL     1       2.739   3.848  10.016  1.00  0.00     0.139 A 
BRANCH  15  16
ATOM     16  C   UNL     1       4.143   3.888   9.598  1.00  0.00     0.271 C 
ATOM     17  O   UNL     1       5.060   3.492  10.308  1.00  0.00    -0.267 OA
ATOM     18  N   UNL     1       4.326   4.410   8.335  1.00  0.00    -0.339 N 
ATOM     19  H   UNL     1       3.500   4.805   7.893  1.00  0.00     0.164 HD
BRANCH  18  20
ATOM     20  C   UNL     1       5.660   4.591   7.779  1.00  0.00     0.168 CG0
ATOM     21  C   UNL     1       6.063   3.403   6.902  1.00  0.00     0.041 C 
ATOM     22  G   UNL     1       5.783   5.865   6.929  1.00  0.00     0.000 G0
ENDBRANCH  18  20
ENDBRANCH  15  16
ENDBRANCH  10  11
BRANCH  10  23
ATOM     23  C   UNL     1      -1.893   4.634   9.862  1.00  0.00     0.015 C 
ATOM     24  C   UNL     1      -2.324   5.961   9.215  1.00  0.00     0.010 C 
BRANCH  23  25
ATOM     25  C   UNL     1      -3.155   3.788  10.145  1.00  0.00     0.002 C 
ATOM     26  C   UNL     1      -4.343   4.598  10.643  1.00  0.00     0.004 C 
ENDBRANCH  23  25
ENDBRANCH  10  23
ENDBRANCH   7  10
ENDBRANCH   4   6
BRANCH   3  27
ATOM     27  C   UNL     1       2.300   5.505   2.961  1.00  0.00     0.171 C 
BRANCH  27  28
ATOM     28  N   UNL     1       3.508   5.682   3.760  1.00  0.00    -0.342 N 
ATOM     29  C   UNL     1       4.340   6.772   3.625  1.00  0.00     0.245 C 
ATOM     30  O   UNL     1       4.117   7.684   2.831  1.00  0.00    -0.273 OA
ATOM     31  H   UNL     1       3.696   5.026   4.517  1.00  0.00     0.164 HD
BRANCH  29  32
ATOM     32  C   UNL     1       5.496   6.849   4.644  1.00  0.00     0.200 C 
BRANCH  32  33
ATOM     33  N   UNL     1       5.336   5.752   5.607  1.00  0.00    -0.340 N 
ATOM     34  C   UNL     1       5.772   5.874   6.910  1.00  0.00     0.243 CG0
ATOM     35  O   UNL     1       6.367   6.874   7.305  1.00  0.00    -0.273 OA
ATOM     36  H   UNL     1       4.876   4.902   5.301  1.00  0.00     0.164 HD
ATOM     37  G   UNL     1       5.667   4.603   7.769  1.00  0.00     0.000 G0
ENDBRANCH  32  33
BRANCH  32  38
ATOM     38  C   UNL     1       6.872   6.838   3.940  1.00  0.00     0.143 C 
ATOM     39  C   UNL     1       7.199   5.528   3.233  1.00  0.00     0.041 C 
BRANCH  38  40
ATOM     40  O   UNL     1       6.946   7.915   2.985  1.00  0.00    -0.391 OA
ATOM     41  H   UNL     1       6.348   7.679   2.251  1.00  0.00     0.211 HD
ENDBRANCH  38  40
ENDBRANCH  32  38
ENDBRANCH  29  32
ENDBRANCH  27  28
BRANCH  27  42
ATOM     42  C   UNL     1       2.531   4.516   1.792  1.00  0.00     0.015 C 
ATOM     43  C   UNL     1       3.816   3.683   1.874  1.00  0.00     0.010 C 
ATOM     44  C   UNL     1       1.321   3.604   1.565  1.00  0.00     0.010 C 
ENDBRANCH  27  42
ENDBRANCH   3  27
TORSDOF 5
ENDMDL
