MODEL 1
REMARK VINA RESULT:    -4.716      0.000      0.000
REMARK INTER + INTRA:         -14.027
REMARK INTER:                  -9.541
REMARK INTRA:                  -4.486
REMARK UNBOUND:                -4.486
REMARK SMILES CC[C@@H](C)[C@@H](NC(=O)[C@@H](O)Cc1ccc(O)c(Cl)c1)C(=O)N1[C@H](C(=O)NCCCCN=C(N)N)C[C@H]2CC[C@H](OS(=O)(=O)O)C[C@@H]21
REMARK SMILES IDX 22 1 36 2 46 3 35 4 23 5 45 6 37 7 39 8 38 9 20 10 21 11
REMARK SMILES IDX 5 12 6 13 7 14 8 15 9 17 11 18 12 19 17 20 19 21 15 22 14 23
REMARK SMILES IDX 13 24 18 25 16 26 10 28 3 30 4 31 2 32 1 33 24 34 25 35
REMARK SMILES IDX 26 36 27 38 28 39 29 40 30 41 31 42 32 43 33 44 34 45 40 50
REMARK SMILES IDX 41 51 42 52 43 53 44 54
REMARK H PARENT 6 16 16 27 10 29 26 37 33 46 33 47 34 48 34 49 44 55
ROOT
ATOM      1  N   UNL     1      15.223  -7.856  -5.561  1.00  0.00    -0.326 N 
ATOM      2  C   UNL     1      13.508  -6.653  -6.635  1.00  0.00     0.014 C 
ATOM      3  C   UNL     1      14.717  -7.554  -6.903  1.00  0.00     0.091 C 
ATOM      4  C   UNL     1      13.943  -5.864  -5.409  1.00  0.00     0.041 C 
ATOM      5  C   UNL     1      14.548  -6.996  -4.558  1.00  0.00     0.175 C 
ATOM      6  C   UNL     1      14.267  -8.716  -7.786  1.00  0.00     0.059 C 
ATOM      7  C   UNL     1      13.097  -5.909  -7.890  1.00  0.00     0.008 C 
ATOM      8  C   UNL     1      13.127  -8.350  -8.762  1.00  0.00     0.143 C 
ATOM      9  C   UNL     1      13.126  -6.849  -9.114  1.00  0.00     0.034 C 
ENDROOT
BRANCH   1  10
ATOM     10  C   UNL     1      16.316  -8.614  -5.174  1.00  0.00     0.246 C 
ATOM     11  O   UNL     1      16.198  -9.841  -5.095  1.00  0.00    -0.272 OA
BRANCH  10  12
ATOM     12  C   UNL     1      17.675  -7.911  -4.891  1.00  0.00     0.174 C 
BRANCH  12  13
ATOM     13  N   UNL     1      17.577  -7.108  -3.673  1.00  0.00    -0.342 N 
ATOM     14  C   UNL     1      17.636  -7.606  -2.390  1.00  0.00     0.249 C 
ATOM     15  O   UNL     1      17.807  -8.790  -2.126  1.00  0.00    -0.272 OA
ATOM     16  H   UNL     1      17.278  -6.138  -3.732  1.00  0.00     0.164 HD
BRANCH  14  17
ATOM     17  C   UNL     1      17.483  -6.508  -1.317  1.00  0.00     0.207 C 
BRANCH  17  18
ATOM     18  C   UNL     1      17.416  -5.125  -1.972  1.00  0.00     0.077 C 
BRANCH  18  19
ATOM     19  C   UNL     1      16.268  -4.302  -1.431  1.00  0.00    -0.043 A 
ATOM     20  C   UNL     1      15.453  -2.320  -0.296  1.00  0.00     0.083 A 
ATOM     21  C   UNL     1      16.509  -3.054  -0.837  1.00  0.00     0.028 A 
ATOM     22  C   UNL     1      14.154  -2.827  -0.342  1.00  0.00     0.134 A 
ATOM     23  C   UNL     1      13.901  -4.062  -0.927  1.00  0.00     0.048 A 
ATOM     24  C   UNL     1      14.956  -4.800  -1.469  1.00  0.00     0.008 A 
ATOM     25  Cl  UNL     1      15.769  -0.788   0.430  1.00  0.00    -0.080 Cl
BRANCH  22  26
ATOM     26  O   UNL     1      13.089  -2.149   0.185  1.00  0.00    -0.506 OA
ATOM     27  H   UNL     1      12.332  -2.763   0.173  1.00  0.00     0.293 HD
ENDBRANCH  22  26
ENDBRANCH  18  19
ENDBRANCH  17  18
BRANCH  17  28
ATOM     28  O   UNL     1      18.576  -6.541  -0.384  1.00  0.00    -0.383 OA
ATOM     29  H   UNL     1      18.754  -5.605  -0.141  1.00  0.00     0.211 HD
ENDBRANCH  17  28
ENDBRANCH  14  17
ENDBRANCH  12  13
BRANCH  12  30
ATOM     30  C   UNL     1      18.190  -7.089  -6.103  1.00  0.00     0.018 C 
ATOM     31  C   UNL     1      18.407  -7.994  -7.325  1.00  0.00     0.010 C 
BRANCH  30  32
ATOM     32  C   UNL     1      19.476  -6.280  -5.804  1.00  0.00     0.002 C 
ATOM     33  C   UNL     1      20.576  -6.396  -6.851  1.00  0.00     0.004 C 
ENDBRANCH  30  32
ENDBRANCH  12  30
ENDBRANCH  10  12
ENDBRANCH   1  10
BRANCH   5  34
ATOM     34  C   UNL     1      13.451  -7.791  -3.801  1.00  0.00     0.242 C 
ATOM     35  O   UNL     1      13.185  -8.963  -4.068  1.00  0.00    -0.273 OA
ATOM     36  N   UNL     1      12.762  -7.076  -2.847  1.00  0.00    -0.354 N 
ATOM     37  H   UNL     1      12.946  -6.076  -2.755  1.00  0.00     0.163 HD
BRANCH  36  38
ATOM     38  C   UNL     1      11.863  -7.710  -1.905  1.00  0.00     0.116 C 
BRANCH  38  39
ATOM     39  C   UNL     1      10.478  -7.075  -2.004  1.00  0.00     0.023 C 
BRANCH  39  40
ATOM     40  C   UNL     1       9.359  -8.110  -1.961  1.00  0.00     0.026 C 
BRANCH  40  41
ATOM     41  C   UNL     1       9.633  -9.247  -2.946  1.00  0.00     0.146 C 
BRANCH  41  42
ATOM     42  N   UNL     1       8.781  -9.098  -4.118  1.00  0.00    -0.254 NA
ATOM     43  C   UNL     1       9.310  -8.855  -5.258  1.00  0.00     0.185 C 
ATOM     44  N   UNL     1      10.604  -8.701  -5.597  1.00  0.00    -0.370 N 
ATOM     45  N   UNL     1       8.508  -8.717  -6.326  1.00  0.00    -0.370 N 
ATOM     46  H   UNL     1      10.857  -8.274  -6.472  1.00  0.00     0.159 HD
ATOM     47  H   UNL     1      11.348  -8.787  -4.912  1.00  0.00     0.159 HD
ATOM     48  H   UNL     1       7.517  -8.827  -6.160  1.00  0.00     0.159 HD
ATOM     49  H   UNL     1       8.847  -8.763  -7.271  1.00  0.00     0.159 HD
ENDBRANCH  41  42
ENDBRANCH  40  41
ENDBRANCH  39  40
ENDBRANCH  38  39
ENDBRANCH  36  38
ENDBRANCH   5  34
BRANCH   8  50
ATOM     50  O   UNL     1      11.864  -8.682  -8.186  1.00  0.00    -0.245 OA
BRANCH  50  51
ATOM     51  S   UNL     1      10.695  -9.313  -9.125  1.00  0.00     0.397 S 
ATOM     52  O   UNL     1      10.037 -10.359  -8.375  1.00  0.00    -0.169 OA
ATOM     53  O   UNL     1      11.213  -9.543 -10.457  1.00  0.00    -0.169 OA
BRANCH  51  54
ATOM     54  O   UNL     1       9.639  -8.102  -9.205  1.00  0.00    -0.264 OA
ATOM     55  H   UNL     1       9.941  -7.490  -9.908  1.00  0.00     0.236 HD
ENDBRANCH  51  54
ENDBRANCH  50  51
ENDBRANCH   8  50
TORSDOF 19
ENDMDL
MODEL 2
REMARK VINA RESULT:    -4.687     17.254     20.042
REMARK INTER + INTRA:         -13.968
REMARK INTER:                 -10.903
REMARK INTRA:                  -3.066
REMARK UNBOUND:                -4.486
REMARK SMILES CC[C@@H](C)[C@@H](NC(=O)[C@@H](O)Cc1ccc(O)c(Cl)c1)C(=O)N1[C@H](C(=O)NCCCCN=C(N)N)C[C@H]2CC[C@H](OS(=O)(=O)O)C[C@@H]21
REMARK SMILES IDX 22 1 36 2 46 3 35 4 23 5 45 6 37 7 39 8 38 9 20 10 21 11
REMARK SMILES IDX 5 12 6 13 7 14 8 15 9 17 11 18 12 19 17 20 19 21 15 22 14 23
REMARK SMILES IDX 13 24 18 25 16 26 10 28 3 30 4 31 2 32 1 33 24 34 25 35
REMARK SMILES IDX 26 36 27 38 28 39 29 40 30 41 31 42 32 43 33 44 34 45 40 50
REMARK SMILES IDX 41 51 42 52 43 53 44 54
REMARK H PARENT 6 16 16 27 10 29 26 37 33 46 33 47 34 48 34 49 44 55
ROOT
ATOM      1  N   UNL     1       8.919  10.595   3.705  1.00  0.00    -0.326 N 
ATOM      2  C   UNL     1       9.652  10.370   1.479  1.00  0.00     0.014 C 
ATOM      3  C   UNL     1      10.148  10.415   2.927  1.00  0.00     0.091 C 
ATOM      4  C   UNL     1       8.480  11.340   1.496  1.00  0.00     0.041 C 
ATOM      5  C   UNL     1       7.785  10.905   2.799  1.00  0.00     0.175 C 
ATOM      6  C   UNL     1      10.995   9.171   3.187  1.00  0.00     0.059 C 
ATOM      7  C   UNL     1      10.793  10.599   0.508  1.00  0.00     0.008 C 
ATOM      8  C   UNL     1      11.758   8.668   1.943  1.00  0.00     0.143 C 
ATOM      9  C   UNL     1      12.043   9.804   0.940  1.00  0.00     0.034 C 
ENDROOT
BRANCH   1  10
ATOM     10  C   UNL     1       8.744  10.723   5.073  1.00  0.00     0.246 C 
ATOM     11  O   UNL     1       8.490  11.836   5.544  1.00  0.00    -0.272 OA
BRANCH  10  12
ATOM     12  C   UNL     1       8.829   9.460   5.978  1.00  0.00     0.174 C 
BRANCH  12  13
ATOM     13  N   UNL     1       8.033   8.378   5.401  1.00  0.00    -0.342 N 
ATOM     14  C   UNL     1       8.446   7.070   5.282  1.00  0.00     0.249 C 
ATOM     15  O   UNL     1       9.529   6.658   5.678  1.00  0.00    -0.272 OA
ATOM     16  H   UNL     1       7.181   8.596   4.891  1.00  0.00     0.164 HD
BRANCH  14  17
ATOM     17  C   UNL     1       7.386   6.169   4.614  1.00  0.00     0.207 C 
BRANCH  17  18
ATOM     18  C   UNL     1       5.980   6.554   5.087  1.00  0.00     0.077 C 
BRANCH  18  19
ATOM     19  C   UNL     1       5.553   5.747   6.293  1.00  0.00    -0.043 A 
ATOM     20  C   UNL     1       5.781   5.199   8.645  1.00  0.00     0.083 A 
ATOM     21  C   UNL     1       6.142   5.978   7.545  1.00  0.00     0.028 A 
ATOM     22  C   UNL     1       4.833   4.185   8.500  1.00  0.00     0.134 A 
ATOM     23  C   UNL     1       4.241   3.945   7.266  1.00  0.00     0.048 A 
ATOM     24  C   UNL     1       4.602   4.723   6.163  1.00  0.00     0.008 A 
ATOM     25  Cl  UNL     1       6.517   5.498  10.175  1.00  0.00    -0.080 Cl
BRANCH  22  26
ATOM     26  O   UNL     1       4.455   3.388   9.547  1.00  0.00    -0.506 OA
ATOM     27  H   UNL     1       3.525   3.607   9.744  1.00  0.00     0.293 HD
ENDBRANCH  22  26
ENDBRANCH  18  19
ENDBRANCH  17  18
BRANCH  17  28
ATOM     28  O   UNL     1       7.625   4.783   4.908  1.00  0.00    -0.383 OA
ATOM     29  H   UNL     1       7.973   4.385   4.078  1.00  0.00     0.211 HD
ENDBRANCH  17  28
ENDBRANCH  14  17
ENDBRANCH  12  13
BRANCH  12  30
ATOM     30  C   UNL     1       8.447   9.754   7.454  1.00  0.00     0.018 C 
ATOM     31  C   UNL     1       9.309   8.923   8.418  1.00  0.00     0.010 C 
BRANCH  30  32
ATOM     32  C   UNL     1       6.945   9.537   7.763  1.00  0.00     0.002 C 
ATOM     33  C   UNL     1       6.621   9.193   9.210  1.00  0.00     0.004 C 
ENDBRANCH  30  32
ENDBRANCH  12  30
ENDBRANCH  10  12
ENDBRANCH   1  10
BRANCH   5  34
ATOM     34  C   UNL     1       6.895   9.652   2.582  1.00  0.00     0.242 C 
ATOM     35  O   UNL     1       7.361   8.565   2.244  1.00  0.00    -0.273 OA
ATOM     36  N   UNL     1       5.543   9.860   2.742  1.00  0.00    -0.354 N 
ATOM     37  H   UNL     1       5.208  10.810   2.904  1.00  0.00     0.163 HD
BRANCH  36  38
ATOM     38  C   UNL     1       4.594   8.767   2.790  1.00  0.00     0.116 C 
BRANCH  38  39
ATOM     39  C   UNL     1       3.303   9.231   3.461  1.00  0.00     0.023 C 
BRANCH  39  40
ATOM     40  C   UNL     1       3.465  10.570   4.173  1.00  0.00     0.026 C 
BRANCH  40  41
ATOM     41  C   UNL     1       2.273  11.483   3.887  1.00  0.00     0.146 C 
BRANCH  41  42
ATOM     42  N   UNL     1       1.057  10.888   4.427  1.00  0.00    -0.254 NA
ATOM     43  C   UNL     1       0.002  10.837   3.704  1.00  0.00     0.185 C 
ATOM     44  N   UNL     1      -0.205  11.262   2.444  1.00  0.00    -0.370 N 
ATOM     45  N   UNL     1      -1.110  10.289   4.222  1.00  0.00    -0.370 N 
ATOM     46  H   UNL     1      -1.138  11.381   2.090  1.00  0.00     0.159 HD
ATOM     47  H   UNL     1       0.536  11.690   1.897  1.00  0.00     0.159 HD
ATOM     48  H   UNL     1      -1.037   9.936   5.166  1.00  0.00     0.159 HD
ATOM     49  H   UNL     1      -1.888  10.000   3.656  1.00  0.00     0.159 HD
ENDBRANCH  41  42
ENDBRANCH  40  41
ENDBRANCH  39  40
ENDBRANCH  38  39
ENDBRANCH  36  38
ENDBRANCH   5  34
BRANCH   8  50
ATOM     50  O   UNL     1      11.001   7.656   1.279  1.00  0.00    -0.245 OA
BRANCH  50  51
ATOM     51  S   UNL     1      11.285   6.090   1.615  1.00  0.00     0.397 S 
ATOM     52  O   UNL     1      10.014   5.403   1.654  1.00  0.00    -0.169 OA
ATOM     53  O   UNL     1      12.236   5.991   2.703  1.00  0.00    -0.169 OA
BRANCH  51  54
ATOM     54  O   UNL     1      12.014   5.586   0.273  1.00  0.00    -0.264 OA
ATOM     55  H   UNL     1      12.280   4.654   0.410  1.00  0.00     0.236 HD
ENDBRANCH  51  54
ENDBRANCH  50  51
ENDBRANCH   8  50
TORSDOF 19
ENDMDL
MODEL 3
REMARK VINA RESULT:    -4.649      3.806      8.264
REMARK INTER + INTRA:         -13.892
REMARK INTER:                  -8.324
REMARK INTRA:                  -5.568
REMARK UNBOUND:                -4.486
REMARK SMILES CC[C@@H](C)[C@@H](NC(=O)[C@@H](O)Cc1ccc(O)c(Cl)c1)C(=O)N1[C@H](C(=O)NCCCCN=C(N)N)C[C@H]2CC[C@H](OS(=O)(=O)O)C[C@@H]21
REMARK SMILES IDX 22 1 36 2 46 3 35 4 23 5 45 6 37 7 39 8 38 9 20 10 21 11
REMARK SMILES IDX 5 12 6 13 7 14 8 15 9 17 11 18 12 19 17 20 19 21 15 22 14 23
REMARK SMILES IDX 13 24 18 25 16 26 10 28 3 30 4 31 2 32 1 33 24 34 25 35
REMARK SMILES IDX 26 36 27 38 28 39 29 40 30 41 31 42 32 43 33 44 34 45 40 50
REMARK SMILES IDX 41 51 42 52 43 53 44 54
REMARK H PARENT 6 16 16 27 10 29 26 37 33 46 33 47 34 48 34 49 44 55
ROOT
ATOM      1  N   UNL     1      14.667  -7.018  -3.659  1.00  0.00    -0.326 N 
ATOM      2  C   UNL     1      16.769  -7.976  -4.112  1.00  0.00     0.014 C 
ATOM      3  C   UNL     1      15.647  -7.935  -3.071  1.00  0.00     0.091 C 
ATOM      4  C   UNL     1      16.768  -6.558  -4.662  1.00  0.00     0.041 C 
ATOM      5  C   UNL     1      15.254  -6.336  -4.840  1.00  0.00     0.175 C 
ATOM      6  C   UNL     1      15.210  -9.369  -2.776  1.00  0.00     0.059 C 
ATOM      7  C   UNL     1      18.043  -8.540  -3.514  1.00  0.00     0.008 C 
ATOM      8  C   UNL     1      16.351 -10.403  -2.895  1.00  0.00     0.143 C 
ATOM      9  C   UNL     1      17.734  -9.772  -2.638  1.00  0.00     0.034 C 
ENDROOT
BRANCH   1  10
ATOM     10  C   UNL     1      13.452  -6.578  -3.162  1.00  0.00     0.246 C 
ATOM     11  O   UNL     1      13.236  -5.364  -3.088  1.00  0.00    -0.272 OA
BRANCH  10  12
ATOM     12  C   UNL     1      12.371  -7.619  -2.748  1.00  0.00     0.174 C 
BRANCH  12  13
ATOM     13  N   UNL     1      11.541  -7.962  -3.903  1.00  0.00    -0.342 N 
ATOM     14  C   UNL     1      11.305  -9.241  -4.354  1.00  0.00     0.249 C 
ATOM     15  O   UNL     1      11.748 -10.247  -3.815  1.00  0.00    -0.272 OA
ATOM     16  H   UNL     1      11.237  -7.230  -4.539  1.00  0.00     0.164 HD
BRANCH  14  17
ATOM     17  C   UNL     1      10.402  -9.273  -5.605  1.00  0.00     0.207 C 
BRANCH  17  18
ATOM     18  C   UNL     1       9.510 -10.519  -5.590  1.00  0.00     0.077 C 
BRANCH  18  19
ATOM     19  C   UNL     1       8.159 -10.235  -4.974  1.00  0.00    -0.043 A 
ATOM     20  C   UNL     1       5.831  -9.598  -5.214  1.00  0.00     0.083 A 
ATOM     21  C   UNL     1       7.064  -9.908  -5.789  1.00  0.00     0.028 A 
ATOM     22  C   UNL     1       5.684  -9.612  -3.827  1.00  0.00     0.134 A 
ATOM     23  C   UNL     1       6.760  -9.934  -3.008  1.00  0.00     0.048 A 
ATOM     24  C   UNL     1       7.996 -10.243  -3.580  1.00  0.00     0.008 A 
ATOM     25  Cl  UNL     1       4.497  -9.198  -6.232  1.00  0.00    -0.080 Cl
BRANCH  22  26
ATOM     26  O   UNL     1       4.497  -9.305  -3.218  1.00  0.00    -0.506 OA
ATOM     27  H   UNL     1       3.866 -10.006  -3.464  1.00  0.00     0.293 HD
ENDBRANCH  22  26
ENDBRANCH  18  19
ENDBRANCH  17  18
BRANCH  17  28
ATOM     28  O   UNL     1      11.186  -9.263  -6.810  1.00  0.00    -0.383 OA
ATOM     29  H   UNL     1      11.731 -10.082  -6.786  1.00  0.00     0.211 HD
ENDBRANCH  17  28
ENDBRANCH  14  17
ENDBRANCH  12  13
BRANCH  12  30
ATOM     30  C   UNL     1      11.529  -7.156  -1.529  1.00  0.00     0.018 C 
ATOM     31  C   UNL     1      11.574  -8.203  -0.405  1.00  0.00     0.010 C 
BRANCH  30  32
ATOM     32  C   UNL     1      10.060  -6.818  -1.882  1.00  0.00     0.002 C 
ATOM     33  C   UNL     1       9.008  -7.533  -1.044  1.00  0.00     0.004 C 
ENDBRANCH  30  32
ENDBRANCH  12  30
ENDBRANCH  10  12
ENDBRANCH   1  10
BRANCH   5  34
ATOM     34  C   UNL     1      14.734  -6.972  -6.157  1.00  0.00     0.242 C 
ATOM     35  O   UNL     1      13.697  -7.632  -6.204  1.00  0.00    -0.273 OA
ATOM     36  N   UNL     1      15.544  -6.789  -7.255  1.00  0.00    -0.354 N 
ATOM     37  H   UNL     1      16.450  -6.336  -7.128  1.00  0.00     0.163 HD
BRANCH  36  38
ATOM     38  C   UNL     1      15.115  -7.123  -8.597  1.00  0.00     0.116 C 
BRANCH  38  39
ATOM     39  C   UNL     1      16.315  -7.568  -9.430  1.00  0.00     0.023 C 
BRANCH  39  40
ATOM     40  C   UNL     1      17.092  -8.703  -8.771  1.00  0.00     0.026 C 
BRANCH  40  41
ATOM     41  C   UNL     1      16.301 -10.009  -8.833  1.00  0.00     0.146 C 
BRANCH  41  42
ATOM     42  N   UNL     1      15.730 -10.302  -7.525  1.00  0.00    -0.254 NA
ATOM     43  C   UNL     1      14.460 -10.400  -7.396  1.00  0.00     0.185 C 
ATOM     44  N   UNL     1      13.485 -10.276  -8.314  1.00  0.00    -0.370 N 
ATOM     45  N   UNL     1      13.953 -10.666  -6.180  1.00  0.00    -0.370 N 
ATOM     46  H   UNL     1      12.530 -10.135  -8.032  1.00  0.00     0.159 HD
ATOM     47  H   UNL     1      13.692 -10.088  -9.290  1.00  0.00     0.159 HD
ATOM     48  H   UNL     1      14.623 -10.783  -5.431  1.00  0.00     0.159 HD
ATOM     49  H   UNL     1      13.012 -10.988  -6.042  1.00  0.00     0.159 HD
ENDBRANCH  41  42
ENDBRANCH  40  41
ENDBRANCH  39  40
ENDBRANCH  38  39
ENDBRANCH  36  38
ENDBRANCH   5  34
BRANCH   8  50
ATOM     50  O   UNL     1      16.353 -10.984  -4.199  1.00  0.00    -0.245 OA
BRANCH  50  51
ATOM     51  S   UNL     1      16.150 -12.589  -4.364  1.00  0.00     0.397 S 
ATOM     52  O   UNL     1      14.757 -12.890  -4.120  1.00  0.00    -0.169 OA
ATOM     53  O   UNL     1      17.211 -13.287  -3.669  1.00  0.00    -0.169 OA
BRANCH  51  54
ATOM     54  O   UNL     1      16.372 -12.795  -5.944  1.00  0.00    -0.264 OA
ATOM     55  H   UNL     1      15.511 -13.045  -6.336  1.00  0.00     0.236 HD
ENDBRANCH  51  54
ENDBRANCH  50  51
ENDBRANCH   8  50
TORSDOF 19
ENDMDL
MODEL 4
REMARK VINA RESULT:    -4.628      4.023      8.615
REMARK INTER + INTRA:         -13.850
REMARK INTER:                 -10.789
REMARK INTRA:                  -3.061
REMARK UNBOUND:                -4.486
REMARK SMILES CC[C@@H](C)[C@@H](NC(=O)[C@@H](O)Cc1ccc(O)c(Cl)c1)C(=O)N1[C@H](C(=O)NCCCCN=C(N)N)C[C@H]2CC[C@H](OS(=O)(=O)O)C[C@@H]21
REMARK SMILES IDX 22 1 36 2 46 3 35 4 23 5 45 6 37 7 39 8 38 9 20 10 21 11
REMARK SMILES IDX 5 12 6 13 7 14 8 15 9 17 11 18 12 19 17 20 19 21 15 22 14 23
REMARK SMILES IDX 13 24 18 25 16 26 10 28 3 30 4 31 2 32 1 33 24 34 25 35
REMARK SMILES IDX 26 36 27 38 28 39 29 40 30 41 31 42 32 43 33 44 34 45 40 50
REMARK SMILES IDX 41 51 42 52 43 53 44 54
REMARK H PARENT 6 16 16 27 10 29 26 37 33 46 33 47 34 48 34 49 44 55
ROOT
ATOM      1  N   UNL     1      15.379  -6.733  -4.138  1.00  0.00    -0.326 N 
ATOM      2  C   UNL     1      14.379  -5.554  -2.362  1.00  0.00     0.014 C 
ATOM      3  C   UNL     1      14.063  -6.291  -3.667  1.00  0.00     0.091 C 
ATOM      4  C   UNL     1      15.725  -4.911  -2.658  1.00  0.00     0.041 C 
ATOM      5  C   UNL     1      16.448  -6.091  -3.333  1.00  0.00     0.175 C 
ATOM      6  C   UNL     1      13.003  -7.353  -3.378  1.00  0.00     0.059 C 
ATOM      7  C   UNL     1      13.214  -4.680  -1.938  1.00  0.00     0.008 C 
ATOM      8  C   UNL     1      12.020  -6.959  -2.254  1.00  0.00     0.143 C 
ATOM      9  C   UNL     1      11.878  -5.430  -2.118  1.00  0.00     0.034 C 
ENDROOT
BRANCH   1  10
ATOM     10  C   UNL     1      15.724  -7.433  -5.281  1.00  0.00     0.246 C 
ATOM     11  O   UNL     1      15.793  -8.666  -5.233  1.00  0.00    -0.272 OA
BRANCH  10  12
ATOM     12  C   UNL     1      15.973  -6.660  -6.608  1.00  0.00     0.174 C 
BRANCH  12  13
ATOM     13  N   UNL     1      15.056  -7.136  -7.643  1.00  0.00    -0.342 N 
ATOM     14  C   UNL     1      13.756  -6.714  -7.802  1.00  0.00     0.249 C 
ATOM     15  O   UNL     1      13.225  -5.861  -7.101  1.00  0.00    -0.272 OA
ATOM     16  H   UNL     1      15.302  -7.953  -8.197  1.00  0.00     0.164 HD
BRANCH  14  17
ATOM     17  C   UNL     1      13.040  -7.416  -8.975  1.00  0.00     0.207 C 
BRANCH  17  18
ATOM     18  C   UNL     1      13.501  -6.829 -10.313  1.00  0.00     0.077 C 
BRANCH  18  19
ATOM     19  C   UNL     1      14.019  -7.900 -11.247  1.00  0.00    -0.043 A 
ATOM     20  C   UNL     1      15.831  -9.306 -12.035  1.00  0.00     0.083 A 
ATOM     21  C   UNL     1      15.342  -8.354 -11.140  1.00  0.00     0.028 A 
ATOM     22  C   UNL     1      15.005  -9.807 -13.042  1.00  0.00     0.134 A 
ATOM     23  C   UNL     1      13.692  -9.365 -13.160  1.00  0.00     0.048 A 
ATOM     24  C   UNL     1      13.200  -8.411 -12.266  1.00  0.00     0.008 A 
ATOM     25  Cl  UNL     1      17.460  -9.852 -11.887  1.00  0.00    -0.080 Cl
BRANCH  22  26
ATOM     26  O   UNL     1      15.443 -10.733 -13.950  1.00  0.00    -0.506 OA
ATOM     27  H   UNL     1      15.485 -10.281 -14.813  1.00  0.00     0.293 HD
ENDBRANCH  22  26
ENDBRANCH  18  19
ENDBRANCH  17  18
BRANCH  17  28
ATOM     28  O   UNL     1      11.614  -7.286  -8.863  1.00  0.00    -0.383 OA
ATOM     29  H   UNL     1      11.417  -7.258  -7.899  1.00  0.00     0.211 HD
ENDBRANCH  17  28
ENDBRANCH  14  17
ENDBRANCH  12  13
BRANCH  12  30
ATOM     30  C   UNL     1      17.457  -6.711  -7.062  1.00  0.00     0.018 C 
ATOM     31  C   UNL     1      17.600  -7.494  -8.377  1.00  0.00     0.010 C 
BRANCH  30  32
ATOM     32  C   UNL     1      18.415  -7.290  -5.992  1.00  0.00     0.002 C 
ATOM     33  C   UNL     1      19.466  -6.321  -5.467  1.00  0.00     0.004 C 
ENDBRANCH  30  32
ENDBRANCH  12  30
ENDBRANCH  10  12
ENDBRANCH   1  10
BRANCH   5  34
ATOM     34  C   UNL     1      17.021  -7.084  -2.288  1.00  0.00     0.242 C 
ATOM     35  O   UNL     1      16.396  -8.075  -1.909  1.00  0.00    -0.273 OA
ATOM     36  N   UNL     1      18.254  -6.748  -1.775  1.00  0.00    -0.354 N 
ATOM     37  H   UNL     1      18.668  -5.853  -2.038  1.00  0.00     0.163 HD
BRANCH  36  38
ATOM     38  C   UNL     1      19.028  -7.661  -0.959  1.00  0.00     0.116 C 
BRANCH  38  39
ATOM     39  C   UNL     1      19.964  -8.481  -1.845  1.00  0.00     0.023 C 
BRANCH  39  40
ATOM     40  C   UNL     1      20.034  -9.944  -1.422  1.00  0.00     0.026 C 
BRANCH  40  41
ATOM     41  C   UNL     1      18.632 -10.511  -1.199  1.00  0.00     0.146 C 
BRANCH  41  42
ATOM     42  N   UNL     1      18.520 -11.029   0.159  1.00  0.00    -0.254 NA
ATOM     43  C   UNL     1      17.614 -10.571   0.938  1.00  0.00     0.185 C 
ATOM     44  N   UNL     1      16.676  -9.631   0.718  1.00  0.00    -0.370 N 
ATOM     45  N   UNL     1      17.530 -11.058   2.187  1.00  0.00    -0.370 N 
ATOM     46  H   UNL     1      16.193  -9.199   1.487  1.00  0.00     0.159 HD
ATOM     47  H   UNL     1      16.588  -9.167  -0.181  1.00  0.00     0.159 HD
ATOM     48  H   UNL     1      18.196 -11.778   2.433  1.00  0.00     0.159 HD
ATOM     49  H   UNL     1      16.721 -10.931   2.768  1.00  0.00     0.159 HD
ENDBRANCH  41  42
ENDBRANCH  40  41
ENDBRANCH  39  40
ENDBRANCH  38  39
ENDBRANCH  36  38
ENDBRANCH   5  34
BRANCH   8  50
ATOM     50  O   UNL     1      12.467  -7.486  -1.005  1.00  0.00    -0.245 OA
BRANCH  50  51
ATOM     51  S   UNL     1      11.507  -8.498  -0.170  1.00  0.00     0.397 S 
ATOM     52  O   UNL     1      11.845  -9.851  -0.552  1.00  0.00    -0.169 OA
ATOM     53  O   UNL     1      10.142  -8.016  -0.209  1.00  0.00    -0.169 OA
BRANCH  51  54
ATOM     54  O   UNL     1      12.053  -8.318   1.332  1.00  0.00    -0.264 OA
ATOM     55  H   UNL     1      12.851  -7.752   1.293  1.00  0.00     0.236 HD
ENDBRANCH  51  54
ENDBRANCH  50  51
ENDBRANCH   8  50
TORSDOF 19
ENDMDL
MODEL 5
REMARK VINA RESULT:    -4.590      3.935      8.399
REMARK INTER + INTRA:         -13.773
REMARK INTER:                 -10.940
REMARK INTRA:                  -2.833
REMARK UNBOUND:                -4.486
REMARK SMILES CC[C@@H](C)[C@@H](NC(=O)[C@@H](O)Cc1ccc(O)c(Cl)c1)C(=O)N1[C@H](C(=O)NCCCCN=C(N)N)C[C@H]2CC[C@H](OS(=O)(=O)O)C[C@@H]21
REMARK SMILES IDX 22 1 36 2 46 3 35 4 23 5 45 6 37 7 39 8 38 9 20 10 21 11
REMARK SMILES IDX 5 12 6 13 7 14 8 15 9 17 11 18 12 19 17 20 19 21 15 22 14 23
REMARK SMILES IDX 13 24 18 25 16 26 10 28 3 30 4 31 2 32 1 33 24 34 25 35
REMARK SMILES IDX 26 36 27 38 28 39 29 40 30 41 31 42 32 43 33 44 34 45 40 50
REMARK SMILES IDX 41 51 42 52 43 53 44 54
REMARK H PARENT 6 16 16 27 10 29 26 37 33 46 33 47 34 48 34 49 44 55
ROOT
ATOM      1  N   UNL     1      16.343  -8.248  -3.798  1.00  0.00    -0.326 N 
ATOM      2  C   UNL     1      17.082 -10.328  -2.978  1.00  0.00     0.014 C 
ATOM      3  C   UNL     1      17.464  -8.848  -3.068  1.00  0.00     0.091 C 
ATOM      4  C   UNL     1      16.359 -10.568  -4.295  1.00  0.00     0.041 C 
ATOM      5  C   UNL     1      15.469  -9.313  -4.349  1.00  0.00     0.175 C 
ATOM      6  C   UNL     1      17.766  -8.341  -1.660  1.00  0.00     0.059 C 
ATOM      7  C   UNL     1      18.286 -11.179  -2.626  1.00  0.00     0.008 C 
ATOM      8  C   UNL     1      18.366  -9.415  -0.727  1.00  0.00     0.143 C 
ATOM      9  C   UNL     1      19.118 -10.509  -1.512  1.00  0.00     0.034 C 
ENDROOT
BRANCH   1  10
ATOM     10  C   UNL     1      16.141  -6.937  -4.192  1.00  0.00     0.246 C 
ATOM     11  O   UNL     1      15.713  -6.120  -3.370  1.00  0.00    -0.272 OA
BRANCH  10  12
ATOM     12  C   UNL     1      16.496  -6.510  -5.646  1.00  0.00     0.174 C 
BRANCH  12  13
ATOM     13  N   UNL     1      15.389  -6.835  -6.546  1.00  0.00    -0.342 N 
ATOM     14  C   UNL     1      14.178  -6.179  -6.577  1.00  0.00     0.249 C 
ATOM     15  O   UNL     1      13.902  -5.222  -5.865  1.00  0.00    -0.272 OA
ATOM     16  H   UNL     1      15.411  -7.699  -7.081  1.00  0.00     0.164 HD
BRANCH  14  17
ATOM     17  C   UNL     1      13.209  -6.768  -7.624  1.00  0.00     0.207 C 
BRANCH  17  18
ATOM     18  C   UNL     1      13.971  -7.635  -8.632  1.00  0.00     0.077 C 
BRANCH  18  19
ATOM     19  C   UNL     1      13.239  -7.739  -9.951  1.00  0.00    -0.043 A 
ATOM     20  C   UNL     1      11.478  -8.710 -11.307  1.00  0.00     0.083 A 
ATOM     21  C   UNL     1      12.121  -8.579 -10.076  1.00  0.00     0.028 A 
ATOM     22  C   UNL     1      11.946  -8.008 -12.418  1.00  0.00     0.134 A 
ATOM     23  C   UNL     1      13.052  -7.173 -12.308  1.00  0.00     0.048 A 
ATOM     24  C   UNL     1      13.699  -7.040 -11.077  1.00  0.00     0.008 A 
ATOM     25  Cl  UNL     1      10.107  -9.747 -11.441  1.00  0.00    -0.080 Cl
BRANCH  22  26
ATOM     26  O   UNL     1      11.355  -8.113 -13.648  1.00  0.00    -0.506 OA
ATOM     27  H   UNL     1      11.161  -7.205 -13.944  1.00  0.00     0.293 HD
ENDBRANCH  22  26
ENDBRANCH  18  19
ENDBRANCH  17  18
BRANCH  17  28
ATOM     28  O   UNL     1      12.509  -5.727  -8.325  1.00  0.00    -0.383 OA
ATOM     29  H   UNL     1      12.986  -5.604  -9.177  1.00  0.00     0.211 HD
ENDBRANCH  17  28
ENDBRANCH  14  17
ENDBRANCH  12  13
BRANCH  12  30
ATOM     30  C   UNL     1      17.846  -7.102  -6.133  1.00  0.00     0.018 C 
ATOM     31  C   UNL     1      19.028  -6.412  -5.434  1.00  0.00     0.010 C 
BRANCH  30  32
ATOM     32  C   UNL     1      18.031  -7.048  -7.669  1.00  0.00     0.002 C 
ATOM     33  C   UNL     1      19.085  -7.993  -8.231  1.00  0.00     0.004 C 
ENDBRANCH  30  32
ENDBRANCH  12  30
ENDBRANCH  10  12
ENDBRANCH   1  10
BRANCH   5  34
ATOM     34  C   UNL     1      14.191  -9.479  -3.484  1.00  0.00     0.242 C 
ATOM     35  O   UNL     1      13.945 -10.516  -2.867  1.00  0.00    -0.273 OA
ATOM     36  N   UNL     1      13.329  -8.406  -3.499  1.00  0.00    -0.354 N 
ATOM     37  H   UNL     1      13.529  -7.624  -4.124  1.00  0.00     0.163 HD
BRANCH  36  38
ATOM     38  C   UNL     1      12.207  -8.302  -2.589  1.00  0.00     0.116 C 
BRANCH  38  39
ATOM     39  C   UNL     1      12.460  -7.184  -1.580  1.00  0.00     0.023 C 
BRANCH  39  40
ATOM     40  C   UNL     1      11.704  -5.906  -1.926  1.00  0.00     0.026 C 
BRANCH  40  41
ATOM     41  C   UNL     1      12.659  -4.841  -2.466  1.00  0.00     0.146 C 
BRANCH  41  42
ATOM     42  N   UNL     1      12.859  -3.803  -1.463  1.00  0.00    -0.254 NA
ATOM     43  C   UNL     1      13.954  -3.764  -0.802  1.00  0.00     0.185 C 
ATOM     44  N   UNL     1      15.035  -4.563  -0.870  1.00  0.00    -0.370 N 
ATOM     45  N   UNL     1      14.117  -2.802   0.121  1.00  0.00    -0.370 N 
ATOM     46  H   UNL     1      15.716  -4.568  -0.130  1.00  0.00     0.159 HD
ATOM     47  H   UNL     1      15.086  -5.336  -1.527  1.00  0.00     0.159 HD
ATOM     48  H   UNL     1      13.352  -2.151   0.230  1.00  0.00     0.159 HD
ATOM     49  H   UNL     1      15.014  -2.561   0.502  1.00  0.00     0.159 HD
ENDBRANCH  41  42
ENDBRANCH  40  41
ENDBRANCH  39  40
ENDBRANCH  38  39
ENDBRANCH  36  38
ENDBRANCH   5  34
BRANCH   8  50
ATOM     50  O   UNL     1      17.330 -10.036   0.035  1.00  0.00    -0.245 OA
BRANCH  50  51
ATOM     51  S   UNL     1      17.222  -9.743   1.631  1.00  0.00     0.397 S 
ATOM     52  O   UNL     1      15.823  -9.760   1.994  1.00  0.00    -0.169 OA
ATOM     53  O   UNL     1      18.084  -8.633   1.981  1.00  0.00    -0.169 OA
BRANCH  51  54
ATOM     54  O   UNL     1      17.855 -11.080   2.262  1.00  0.00    -0.264 OA
ATOM     55  H   UNL     1      18.713 -10.840   2.668  1.00  0.00     0.236 HD
ENDBRANCH  51  54
ENDBRANCH  50  51
ENDBRANCH   8  50
TORSDOF 19
ENDMDL
MODEL 6
REMARK VINA RESULT:    -4.581     19.334     23.614
REMARK INTER + INTRA:         -13.753
REMARK INTER:                  -9.963
REMARK INTRA:                  -3.790
REMARK UNBOUND:                -4.486
REMARK SMILES CC[C@@H](C)[C@@H](NC(=O)[C@@H](O)Cc1ccc(O)c(Cl)c1)C(=O)N1[C@H](C(=O)NCCCCN=C(N)N)C[C@H]2CC[C@H](OS(=O)(=O)O)C[C@@H]21
REMARK SMILES IDX 22 1 36 2 46 3 35 4 23 5 45 6 37 7 39 8 38 9 20 10 21 11
REMARK SMILES IDX 5 12 6 13 7 14 8 15 9 17 11 18 12 19 17 20 19 21 15 22 14 23
REMARK SMILES IDX 13 24 18 25 16 26 10 28 3 30 4 31 2 32 1 33 24 34 25 35
REMARK SMILES IDX 26 36 27 38 28 39 29 40 30 41 31 42 32 43 33 44 34 45 40 50
REMARK SMILES IDX 41 51 42 52 43 53 44 54
REMARK H PARENT 6 16 16 27 10 29 26 37 33 46 33 47 34 48 34 49 44 55
ROOT
ATOM      1  N   UNL     1      -4.685 -11.671   8.216  1.00  0.00    -0.326 N 
ATOM      2  C   UNL     1      -2.392 -12.009   8.627  1.00  0.00     0.014 C 
ATOM      3  C   UNL     1      -3.786 -12.517   9.007  1.00  0.00     0.091 C 
ATOM      4  C   UNL     1      -2.622 -10.520   8.424  1.00  0.00     0.041 C 
ATOM      5  C   UNL     1      -3.924 -10.554   7.604  1.00  0.00     0.175 C 
ATOM      6  C   UNL     1      -3.828 -14.027   8.782  1.00  0.00     0.059 C 
ATOM      7  C   UNL     1      -1.355 -12.472   9.632  1.00  0.00     0.008 C 
ATOM      8  C   UNL     1      -2.473 -14.728   9.016  1.00  0.00     0.143 C 
ATOM      9  C   UNL     1      -1.582 -13.951  10.007  1.00  0.00     0.034 C 
ENDROOT
BRANCH   1  10
ATOM     10  C   UNL     1      -6.068 -11.656   8.159  1.00  0.00     0.246 C 
ATOM     11  O   UNL     1      -6.696 -10.977   8.979  1.00  0.00    -0.272 OA
BRANCH  10  12
ATOM     12  C   UNL     1      -6.799 -12.456   7.043  1.00  0.00     0.174 C 
BRANCH  12  13
ATOM     13  N   UNL     1      -7.287 -11.542   6.011  1.00  0.00    -0.342 N 
ATOM     14  C   UNL     1      -8.496 -10.885   6.045  1.00  0.00     0.249 C 
ATOM     15  O   UNL     1      -9.295 -10.974   6.969  1.00  0.00    -0.272 OA
ATOM     16  H   UNL     1      -6.807 -11.490   5.116  1.00  0.00     0.164 HD
BRANCH  14  17
ATOM     17  C   UNL     1      -8.730 -10.003   4.800  1.00  0.00     0.207 C 
BRANCH  17  18
ATOM     18  C   UNL     1      -9.308 -10.839   3.653  1.00  0.00     0.077 C 
BRANCH  18  19
ATOM     19  C   UNL     1      -8.219 -11.459   2.806  1.00  0.00    -0.043 A 
ATOM     20  C   UNL     1      -6.720 -11.354   0.901  1.00  0.00     0.083 A 
ATOM     21  C   UNL     1      -7.689 -10.759   1.710  1.00  0.00     0.028 A 
ATOM     22  C   UNL     1      -6.277 -12.647   1.179  1.00  0.00     0.134 A 
ATOM     23  C   UNL     1      -6.793 -13.351   2.260  1.00  0.00     0.048 A 
ATOM     24  C   UNL     1      -7.764 -12.760   3.071  1.00  0.00     0.008 A 
ATOM     25  Cl  UNL     1      -6.081 -10.478  -0.440  1.00  0.00    -0.080 Cl
BRANCH  22  26
ATOM     26  O   UNL     1      -5.336 -13.275   0.408  1.00  0.00    -0.506 OA
ATOM     27  H   UNL     1      -5.493 -12.991  -0.512  1.00  0.00     0.293 HD
ENDBRANCH  22  26
ENDBRANCH  18  19
ENDBRANCH  17  18
BRANCH  17  28
ATOM     28  O   UNL     1      -7.509  -9.382   4.368  1.00  0.00    -0.383 OA
ATOM     29  H   UNL     1      -6.907  -9.397   5.147  1.00  0.00     0.211 HD
ENDBRANCH  17  28
ENDBRANCH  14  17
ENDBRANCH  12  13
BRANCH  12  30
ATOM     30  C   UNL     1      -7.921 -13.374   7.599  1.00  0.00     0.018 C 
ATOM     31  C   UNL     1      -7.429 -14.156   8.827  1.00  0.00     0.010 C 
BRANCH  30  32
ATOM     32  C   UNL     1      -8.507 -14.347   6.548  1.00  0.00     0.002 C 
ATOM     33  C   UNL     1      -7.556 -15.436   6.067  1.00  0.00     0.004 C 
ENDBRANCH  30  32
ENDBRANCH  12  30
ENDBRANCH  10  12
ENDBRANCH   1  10
BRANCH   5  34
ATOM     34  C   UNL     1      -3.647 -10.835   6.102  1.00  0.00     0.242 C 
ATOM     35  O   UNL     1      -2.671 -11.482   5.723  1.00  0.00    -0.273 OA
ATOM     36  N   UNL     1      -4.541 -10.263   5.225  1.00  0.00    -0.354 N 
ATOM     37  H   UNL     1      -5.260  -9.638   5.593  1.00  0.00     0.163 HD
BRANCH  36  38
ATOM     38  C   UNL     1      -4.562 -10.595   3.816  1.00  0.00     0.116 C 
BRANCH  38  39
ATOM     39  C   UNL     1      -3.755  -9.565   3.029  1.00  0.00     0.023 C 
BRANCH  39  40
ATOM     40  C   UNL     1      -3.049 -10.176   1.823  1.00  0.00     0.026 C 
BRANCH  40  41
ATOM     41  C   UNL     1      -2.128 -11.317   2.254  1.00  0.00     0.146 C 
BRANCH  41  42
ATOM     42  N   UNL     1      -2.659 -12.587   1.776  1.00  0.00    -0.254 NA
ATOM     43  C   UNL     1      -2.723 -13.587   2.572  1.00  0.00     0.185 C 
ATOM     44  N   UNL     1      -2.364 -13.688   3.865  1.00  0.00    -0.370 N 
ATOM     45  N   UNL     1      -3.212 -14.749   2.110  1.00  0.00    -0.370 N 
ATOM     46  H   UNL     1      -2.241 -14.589   4.294  1.00  0.00     0.159 HD
ATOM     47  H   UNL     1      -1.987 -12.897   4.377  1.00  0.00     0.159 HD
ATOM     48  H   UNL     1      -3.514 -14.757   1.145  1.00  0.00     0.159 HD
ATOM     49  H   UNL     1      -3.512 -15.492   2.715  1.00  0.00     0.159 HD
ENDBRANCH  41  42
ENDBRANCH  40  41
ENDBRANCH  39  40
ENDBRANCH  38  39
ENDBRANCH  36  38
ENDBRANCH   5  34
BRANCH   8  50
ATOM     50  O   UNL     1      -1.769 -14.859   7.781  1.00  0.00    -0.245 OA
BRANCH  50  51
ATOM     51  S   UNL     1      -1.665 -16.317   7.067  1.00  0.00     0.397 S 
ATOM     52  O   UNL     1      -0.633 -17.072   7.741  1.00  0.00    -0.169 OA
ATOM     53  O   UNL     1      -1.671 -16.155   5.628  1.00  0.00    -0.169 OA
BRANCH  51  54
ATOM     54  O   UNL     1      -3.057 -17.000   7.495  1.00  0.00    -0.264 OA
ATOM     55  H   UNL     1      -3.781 -16.417   7.190  1.00  0.00     0.236 HD
ENDBRANCH  51  54
ENDBRANCH  50  51
ENDBRANCH   8  50
TORSDOF 19
ENDMDL
MODEL 7
REMARK VINA RESULT:    -4.488      4.348      8.578
REMARK INTER + INTRA:         -13.567
REMARK INTER:                  -9.974
REMARK INTRA:                  -3.592
REMARK UNBOUND:                -4.486
REMARK SMILES CC[C@@H](C)[C@@H](NC(=O)[C@@H](O)Cc1ccc(O)c(Cl)c1)C(=O)N1[C@H](C(=O)NCCCCN=C(N)N)C[C@H]2CC[C@H](OS(=O)(=O)O)C[C@@H]21
REMARK SMILES IDX 22 1 36 2 46 3 35 4 23 5 45 6 37 7 39 8 38 9 20 10 21 11
REMARK SMILES IDX 5 12 6 13 7 14 8 15 9 17 11 18 12 19 17 20 19 21 15 22 14 23
REMARK SMILES IDX 13 24 18 25 16 26 10 28 3 30 4 31 2 32 1 33 24 34 25 35
REMARK SMILES IDX 26 36 27 38 28 39 29 40 30 41 31 42 32 43 33 44 34 45 40 50
REMARK SMILES IDX 41 51 42 52 43 53 44 54
REMARK H PARENT 6 16 16 27 10 29 26 37 33 46 33 47 34 48 34 49 44 55
ROOT
ATOM      1  N   UNL     1      16.714  -8.048  -3.663  1.00  0.00    -0.326 N 
ATOM      2  C   UNL     1      17.354 -10.083  -2.665  1.00  0.00     0.014 C 
ATOM      3  C   UNL     1      17.846  -8.664  -2.964  1.00  0.00     0.091 C 
ATOM      4  C   UNL     1      16.493 -10.401  -3.878  1.00  0.00     0.041 C 
ATOM      5  C   UNL     1      15.707  -9.083  -4.008  1.00  0.00     0.175 C 
ATOM      6  C   UNL     1      18.320  -8.032  -1.657  1.00  0.00     0.059 C 
ATOM      7  C   UNL     1      18.513 -10.996  -2.316  1.00  0.00     0.008 C 
ATOM      8  C   UNL     1      18.915  -9.046  -0.656  1.00  0.00     0.143 C 
ATOM      9  C   UNL     1      19.498 -10.285  -1.365  1.00  0.00     0.034 C 
ENDROOT
BRANCH   1  10
ATOM     10  C   UNL     1      16.583  -6.776  -4.194  1.00  0.00     0.246 C 
ATOM     11  O   UNL     1      16.167  -5.864  -3.473  1.00  0.00    -0.272 OA
BRANCH  10  12
ATOM     12  C   UNL     1      17.003  -6.515  -5.669  1.00  0.00     0.174 C 
BRANCH  12  13
ATOM     13  N   UNL     1      16.069  -7.178  -6.579  1.00  0.00    -0.342 N 
ATOM     14  C   UNL     1      14.760  -6.801  -6.780  1.00  0.00     0.249 C 
ATOM     15  O   UNL     1      14.236  -5.839  -6.233  1.00  0.00    -0.272 OA
ATOM     16  H   UNL     1      16.312  -8.079  -6.981  1.00  0.00     0.164 HD
BRANCH  14  17
ATOM     17  C   UNL     1      14.027  -7.710  -7.789  1.00  0.00     0.207 C 
BRANCH  17  18
ATOM     18  C   UNL     1      12.812  -6.987  -8.377  1.00  0.00     0.077 C 
BRANCH  18  19
ATOM     19  C   UNL     1      12.573  -7.371  -9.820  1.00  0.00    -0.043 A 
ATOM     20  C   UNL     1      11.418  -8.719 -11.474  1.00  0.00     0.083 A 
ATOM     21  C   UNL     1      11.601  -8.331 -10.146  1.00  0.00     0.028 A 
ATOM     22  C   UNL     1      12.202  -8.156 -12.481  1.00  0.00     0.134 A 
ATOM     23  C   UNL     1      13.167  -7.205 -12.172  1.00  0.00     0.048 A 
ATOM     24  C   UNL     1      13.355  -6.815 -10.844  1.00  0.00     0.008 A 
ATOM     25  Cl  UNL     1      10.220  -9.900 -11.854  1.00  0.00    -0.080 Cl
BRANCH  22  26
ATOM     26  O   UNL     1      12.066  -8.513 -13.795  1.00  0.00    -0.506 OA
ATOM     27  H   UNL     1      11.112  -8.483 -13.996  1.00  0.00     0.293 HD
ENDBRANCH  22  26
ENDBRANCH  18  19
ENDBRANCH  17  18
BRANCH  17  28
ATOM     28  O   UNL     1      13.599  -8.933  -7.167  1.00  0.00    -0.383 OA
ATOM     29  H   UNL     1      14.059  -8.971  -6.298  1.00  0.00     0.211 HD
ENDBRANCH  17  28
ENDBRANCH  14  17
ENDBRANCH  12  13
BRANCH  12  30
ATOM     30  C   UNL     1      18.480  -6.902  -5.951  1.00  0.00     0.018 C 
ATOM     31  C   UNL     1      19.441  -6.020  -5.138  1.00  0.00     0.010 C 
BRANCH  30  32
ATOM     32  C   UNL     1      18.859  -6.859  -7.451  1.00  0.00     0.002 C 
ATOM     33  C   UNL     1      19.160  -8.210  -8.086  1.00  0.00     0.004 C 
ENDBRANCH  30  32
ENDBRANCH  12  30
ENDBRANCH  10  12
ENDBRANCH   1  10
BRANCH   5  34
ATOM     34  C   UNL     1      14.508  -9.033  -3.024  1.00  0.00     0.242 C 
ATOM     35  O   UNL     1      13.893 -10.043  -2.684  1.00  0.00    -0.273 OA
ATOM     36  N   UNL     1      14.149  -7.772  -2.602  1.00  0.00    -0.354 N 
ATOM     37  H   UNL     1      14.619  -6.964  -3.012  1.00  0.00     0.163 HD
BRANCH  36  38
ATOM     38  C   UNL     1      13.202  -7.557  -1.527  1.00  0.00     0.116 C 
BRANCH  38  39
ATOM     39  C   UNL     1      13.931  -7.034  -0.292  1.00  0.00     0.023 C 
BRANCH  39  40
ATOM     40  C   UNL     1      13.535  -7.779   0.978  1.00  0.00     0.026 C 
BRANCH  40  41
ATOM     41  C   UNL     1      13.213  -9.242   0.670  1.00  0.00     0.146 C 
BRANCH  41  42
ATOM     42  N   UNL     1      13.911 -10.109   1.610  1.00  0.00    -0.254 NA
ATOM     43  C   UNL     1      14.817 -10.905   1.183  1.00  0.00     0.185 C 
ATOM     44  N   UNL     1      15.278 -11.103  -0.065  1.00  0.00    -0.370 N 
ATOM     45  N   UNL     1      15.446 -11.699   2.066  1.00  0.00    -0.370 N 
ATOM     46  H   UNL     1      15.813 -11.924  -0.291  1.00  0.00     0.159 HD
ATOM     47  H   UNL     1      14.921 -10.574  -0.855  1.00  0.00     0.159 HD
ATOM     48  H   UNL     1      15.164 -11.607   3.032  1.00  0.00     0.159 HD
ATOM     49  H   UNL     1      16.311 -12.166   1.858  1.00  0.00     0.159 HD
ENDBRANCH  41  42
ENDBRANCH  40  41
ENDBRANCH  39  40
ENDBRANCH  38  39
ENDBRANCH  36  38
ENDBRANCH   5  34
BRANCH   8  50
ATOM     50  O   UNL     1      17.909  -9.479   0.260  1.00  0.00    -0.245 OA
BRANCH  50  51
ATOM     51  S   UNL     1      17.945  -8.955   1.799  1.00  0.00     0.397 S 
ATOM     52  O   UNL     1      18.072 -10.109   2.660  1.00  0.00    -0.169 OA
ATOM     53  O   UNL     1      16.905  -7.968   2.001  1.00  0.00    -0.169 OA
BRANCH  51  54
ATOM     54  O   UNL     1      19.363  -8.201   1.864  1.00  0.00    -0.264 OA
ATOM     55  H   UNL     1      20.057  -8.849   1.625  1.00  0.00     0.236 HD
ENDBRANCH  51  54
ENDBRANCH  50  51
ENDBRANCH   8  50
TORSDOF 19
ENDMDL
MODEL 8
REMARK VINA RESULT:    -4.427      5.141      8.527
REMARK INTER + INTRA:         -13.442
REMARK INTER:                  -7.349
REMARK INTRA:                  -6.093
REMARK UNBOUND:                -4.486
REMARK SMILES CC[C@@H](C)[C@@H](NC(=O)[C@@H](O)Cc1ccc(O)c(Cl)c1)C(=O)N1[C@H](C(=O)NCCCCN=C(N)N)C[C@H]2CC[C@H](OS(=O)(=O)O)C[C@@H]21
REMARK SMILES IDX 22 1 36 2 46 3 35 4 23 5 45 6 37 7 39 8 38 9 20 10 21 11
REMARK SMILES IDX 5 12 6 13 7 14 8 15 9 17 11 18 12 19 17 20 19 21 15 22 14 23
REMARK SMILES IDX 13 24 18 25 16 26 10 28 3 30 4 31 2 32 1 33 24 34 25 35
REMARK SMILES IDX 26 36 27 38 28 39 29 40 30 41 31 42 32 43 33 44 34 45 40 50
REMARK SMILES IDX 41 51 42 52 43 53 44 54
REMARK H PARENT 6 16 16 27 10 29 26 37 33 46 33 47 34 48 34 49 44 55
ROOT
ATOM      1  N   UNL     1      16.047 -12.121  -9.783  1.00  0.00    -0.326 N 
ATOM      2  C   UNL     1      18.265 -12.022  -8.998  1.00  0.00     0.014 C 
ATOM      3  C   UNL     1      17.395 -11.758 -10.231  1.00  0.00     0.091 C 
ATOM      4  C   UNL     1      17.594 -13.233  -8.368  1.00  0.00     0.041 C 
ATOM      5  C   UNL     1      16.117 -12.809  -8.470  1.00  0.00     0.175 C 
ATOM      6  C   UNL     1      17.641 -10.324 -10.697  1.00  0.00     0.059 C 
ATOM      7  C   UNL     1      19.731 -12.098  -9.376  1.00  0.00     0.008 C 
ATOM      8  C   UNL     1      19.076  -9.821 -10.429  1.00  0.00     0.143 C 
ATOM      9  C   UNL     1      20.094 -10.978 -10.374  1.00  0.00     0.034 C 
ENDROOT
BRANCH   1  10
ATOM     10  C   UNL     1      14.848 -12.107 -10.475  1.00  0.00     0.246 C 
ATOM     11  O   UNL     1      14.212 -13.160 -10.598  1.00  0.00    -0.272 OA
BRANCH  10  12
ATOM     12  C   UNL     1      14.307 -10.764 -11.045  1.00  0.00     0.174 C 
BRANCH  12  13
ATOM     13  N   UNL     1      14.092  -9.811  -9.956  1.00  0.00    -0.342 N 
ATOM     14  C   UNL     1      14.457  -8.484  -9.984  1.00  0.00     0.249 C 
ATOM     15  O   UNL     1      14.985  -7.942 -10.947  1.00  0.00    -0.272 OA
ATOM     16  H   UNL     1      13.809 -10.149  -9.040  1.00  0.00     0.164 HD
BRANCH  14  17
ATOM     17  C   UNL     1      14.111  -7.744  -8.675  1.00  0.00     0.207 C 
BRANCH  17  18
ATOM     18  C   UNL     1      12.813  -6.946  -8.837  1.00  0.00     0.077 C 
BRANCH  18  19
ATOM     19  C   UNL     1      11.607  -7.736  -8.379  1.00  0.00    -0.043 A 
ATOM     20  C   UNL     1       9.395  -8.634  -8.808  1.00  0.00     0.083 A 
ATOM     21  C   UNL     1      10.527  -7.948  -9.250  1.00  0.00     0.028 A 
ATOM     22  C   UNL     1       9.334  -9.110  -7.498  1.00  0.00     0.134 A 
ATOM     23  C   UNL     1      10.397  -8.907  -6.625  1.00  0.00     0.048 A 
ATOM     24  C   UNL     1      11.531  -8.219  -7.064  1.00  0.00     0.008 A 
ATOM     25  Cl  UNL     1       8.078  -8.885  -9.893  1.00  0.00    -0.080 Cl
BRANCH  22  26
ATOM     26  O   UNL     1       8.242  -9.779  -7.016  1.00  0.00    -0.506 OA
ATOM     27  H   UNL     1       8.531 -10.242  -6.208  1.00  0.00     0.293 HD
ENDBRANCH  22  26
ENDBRANCH  18  19
ENDBRANCH  17  18
BRANCH  17  28
ATOM     28  O   UNL     1      15.171  -6.855  -8.287  1.00  0.00    -0.383 OA
ATOM     29  H   UNL     1      14.784  -5.949  -8.298  1.00  0.00     0.211 HD
ENDBRANCH  17  28
ENDBRANCH  14  17
ENDBRANCH  12  13
BRANCH  12  30
ATOM     30  C   UNL     1      13.043 -10.952 -11.926  1.00  0.00     0.018 C 
ATOM     31  C   UNL     1      13.203 -10.228 -13.272  1.00  0.00     0.010 C 
BRANCH  30  32
ATOM     32  C   UNL     1      11.732 -10.506 -11.235  1.00  0.00     0.002 C 
ATOM     33  C   UNL     1      11.014 -11.589 -10.440  1.00  0.00     0.004 C 
ENDBRANCH  30  32
ENDBRANCH  12  30
ENDBRANCH  10  12
ENDBRANCH   1  10
BRANCH   5  34
ATOM     34  C   UNL     1      15.718 -11.845  -7.322  1.00  0.00     0.242 C 
ATOM     35  O   UNL     1      15.548 -10.639  -7.504  1.00  0.00    -0.273 OA
ATOM     36  N   UNL     1      15.620 -12.425  -6.077  1.00  0.00    -0.354 N 
ATOM     37  H   UNL     1      15.890 -13.403  -5.968  1.00  0.00     0.163 HD
BRANCH  36  38
ATOM     38  C   UNL     1      15.054 -11.727  -4.941  1.00  0.00     0.116 C 
BRANCH  38  39
ATOM     39  C   UNL     1      16.170 -11.279  -4.000  1.00  0.00     0.023 C 
BRANCH  39  40
ATOM     40  C   UNL     1      16.063  -9.803  -3.631  1.00  0.00     0.026 C 
BRANCH  40  41
ATOM     41  C   UNL     1      17.428  -9.121  -3.722  1.00  0.00     0.146 C 
BRANCH  41  42
ATOM     42  N   UNL     1      17.281  -7.805  -4.330  1.00  0.00    -0.254 NA
ATOM     43  C   UNL     1      17.240  -7.698  -5.605  1.00  0.00     0.185 C 
ATOM     44  N   UNL     1      17.312  -8.647  -6.556  1.00  0.00    -0.370 N 
ATOM     45  N   UNL     1      17.109  -6.476  -6.146  1.00  0.00    -0.370 N 
ATOM     46  H   UNL     1      17.513  -8.403  -7.511  1.00  0.00     0.159 HD
ATOM     47  H   UNL     1      17.400  -9.631  -6.321  1.00  0.00     0.159 HD
ATOM     48  H   UNL     1      17.039  -5.703  -5.498  1.00  0.00     0.159 HD
ATOM     49  H   UNL     1      16.835  -6.331  -7.102  1.00  0.00     0.159 HD
ENDBRANCH  41  42
ENDBRANCH  40  41
ENDBRANCH  39  40
ENDBRANCH  38  39
ENDBRANCH  36  38
ENDBRANCH   5  34
BRANCH   8  50
ATOM     50  O   UNL     1      19.124  -9.115  -9.189  1.00  0.00    -0.245 OA
BRANCH  50  51
ATOM     51  S   UNL     1      19.131  -7.488  -9.191  1.00  0.00     0.397 S 
ATOM     52  O   UNL     1      17.760  -7.036  -9.114  1.00  0.00    -0.169 OA
ATOM     53  O   UNL     1      20.033  -7.007 -10.217  1.00  0.00    -0.169 OA
BRANCH  51  54
ATOM     54  O   UNL     1      19.783  -7.154  -7.760  1.00  0.00    -0.264 OA
ATOM     55  H   UNL     1      19.168  -6.560  -7.283  1.00  0.00     0.236 HD
ENDBRANCH  51  54
ENDBRANCH  50  51
ENDBRANCH   8  50
TORSDOF 19
ENDMDL
MODEL 9
REMARK VINA RESULT:    -4.425      6.122      8.963
REMARK INTER + INTRA:         -13.438
REMARK INTER:                 -10.611
REMARK INTRA:                  -2.827
REMARK UNBOUND:                -4.486
REMARK SMILES CC[C@@H](C)[C@@H](NC(=O)[C@@H](O)Cc1ccc(O)c(Cl)c1)C(=O)N1[C@H](C(=O)NCCCCN=C(N)N)C[C@H]2CC[C@H](OS(=O)(=O)O)C[C@@H]21
REMARK SMILES IDX 22 1 36 2 46 3 35 4 23 5 45 6 37 7 39 8 38 9 20 10 21 11
REMARK SMILES IDX 5 12 6 13 7 14 8 15 9 17 11 18 12 19 17 20 19 21 15 22 14 23
REMARK SMILES IDX 13 24 18 25 16 26 10 28 3 30 4 31 2 32 1 33 24 34 25 35
REMARK SMILES IDX 26 36 27 38 28 39 29 40 30 41 31 42 32 43 33 44 34 45 40 50
REMARK SMILES IDX 41 51 42 52 43 53 44 54
REMARK H PARENT 6 16 16 27 10 29 26 37 33 46 33 47 34 48 34 49 44 55
ROOT
ATOM      1  N   UNL     1       8.600  -8.836 -11.127  1.00  0.00    -0.326 N 
ATOM      2  C   UNL     1       6.898  -7.254 -11.505  1.00  0.00     0.014 C 
ATOM      3  C   UNL     1       8.021  -8.026 -12.203  1.00  0.00     0.091 C 
ATOM      4  C   UNL     1       7.472  -7.009 -10.118  1.00  0.00     0.041 C 
ATOM      5  C   UNL     1       8.058  -8.400  -9.816  1.00  0.00     0.175 C 
ATOM      6  C   UNL     1       7.432  -8.746 -13.414  1.00  0.00     0.059 C 
ATOM      7  C   UNL     1       6.451  -6.072 -12.344  1.00  0.00     0.008 C 
ATOM      8  C   UNL     1       6.254  -7.995 -14.071  1.00  0.00     0.143 C 
ATOM      9  C   UNL     1       6.329  -6.474 -13.829  1.00  0.00     0.034 C 
ENDROOT
BRANCH   1  10
ATOM     10  C   UNL     1       9.663  -9.722 -11.156  1.00  0.00     0.246 C 
ATOM     11  O   UNL     1       9.438 -10.925 -11.330  1.00  0.00    -0.272 OA
BRANCH  10  12
ATOM     12  C   UNL     1      11.116  -9.183 -11.014  1.00  0.00     0.174 C 
BRANCH  12  13
ATOM     13  N   UNL     1      11.242  -8.410  -9.779  1.00  0.00    -0.342 N 
ATOM     14  C   UNL     1      12.034  -8.756  -8.707  1.00  0.00     0.249 C 
ATOM     15  O   UNL     1      12.750  -9.749  -8.681  1.00  0.00    -0.272 OA
ATOM     16  H   UNL     1      10.593  -7.649  -9.592  1.00  0.00     0.164 HD
BRANCH  14  17
ATOM     17  C   UNL     1      11.939  -7.745  -7.545  1.00  0.00     0.207 C 
BRANCH  17  18
ATOM     18  C   UNL     1      12.723  -6.472  -7.877  1.00  0.00     0.077 C 
BRANCH  18  19
ATOM     19  C   UNL     1      14.047  -6.422  -7.148  1.00  0.00    -0.043 A 
ATOM     20  C   UNL     1      16.434  -6.852  -7.091  1.00  0.00     0.083 A 
ATOM     21  C   UNL     1      15.222  -6.853  -7.783  1.00  0.00     0.028 A 
ATOM     22  C   UNL     1      16.479  -6.422  -5.764  1.00  0.00     0.134 A 
ATOM     23  C   UNL     1      15.324  -5.992  -5.123  1.00  0.00     0.048 A 
ATOM     24  C   UNL     1      14.109  -5.994  -5.812  1.00  0.00     0.008 A 
ATOM     25  Cl  UNL     1      17.867  -7.386  -7.888  1.00  0.00    -0.080 Cl
BRANCH  22  26
ATOM     26  O   UNL     1      17.642  -6.413  -5.041  1.00  0.00    -0.506 OA
ATOM     27  H   UNL     1      17.605  -5.630  -4.461  1.00  0.00     0.293 HD
ENDBRANCH  22  26
ENDBRANCH  18  19
ENDBRANCH  17  18
BRANCH  17  28
ATOM     28  O   UNL     1      12.443  -8.311  -6.324  1.00  0.00    -0.383 OA
ATOM     29  H   UNL     1      12.147  -7.711  -5.603  1.00  0.00     0.211 HD
ENDBRANCH  17  28
ENDBRANCH  14  17
ENDBRANCH  12  13
BRANCH  12  30
ATOM     30  C   UNL     1      11.585  -8.387 -12.262  1.00  0.00     0.018 C 
ATOM     31  C   UNL     1      11.201  -9.122 -13.555  1.00  0.00     0.010 C 
BRANCH  30  32
ATOM     32  C   UNL     1      13.100  -8.067 -12.261  1.00  0.00     0.002 C 
ATOM     33  C   UNL     1      13.495  -6.786 -11.538  1.00  0.00     0.004 C 
ENDBRANCH  30  32
ENDBRANCH  12  30
ENDBRANCH  10  12
ENDBRANCH   1  10
BRANCH   5  34
ATOM     34  C   UNL     1       6.966  -9.385  -9.318  1.00  0.00     0.242 C 
ATOM     35  O   UNL     1       6.497  -9.327  -8.182  1.00  0.00    -0.273 OA
ATOM     36  N   UNL     1       6.600 -10.359 -10.220  1.00  0.00    -0.354 N 
ATOM     37  H   UNL     1       7.110 -10.429 -11.102  1.00  0.00     0.163 HD
BRANCH  36  38
ATOM     38  C   UNL     1       5.455 -11.219 -10.007  1.00  0.00     0.116 C 
BRANCH  38  39
ATOM     39  C   UNL     1       4.183 -10.514 -10.473  1.00  0.00     0.023 C 
BRANCH  39  40
ATOM     40  C   UNL     1       3.310 -11.407 -11.349  1.00  0.00     0.026 C 
BRANCH  40  41
ATOM     41  C   UNL     1       1.844 -11.313 -10.926  1.00  0.00     0.146 C 
BRANCH  41  42
ATOM     42  N   UNL     1       1.468  -9.915 -10.759  1.00  0.00    -0.254 NA
ATOM     43  C   UNL     1       0.865  -9.304 -11.708  1.00  0.00     0.185 C 
ATOM     44  N   UNL     1       0.485  -9.749 -12.920  1.00  0.00    -0.370 N 
ATOM     45  N   UNL     1       0.531  -8.014 -11.536  1.00  0.00    -0.370 N 
ATOM     46  H   UNL     1       0.244  -9.102 -13.651  1.00  0.00     0.159 HD
ATOM     47  H   UNL     1       0.648 -10.708 -13.211  1.00  0.00     0.159 HD
ATOM     48  H   UNL     1       0.773  -7.604 -10.645  1.00  0.00     0.159 HD
ATOM     49  H   UNL     1      -0.138  -7.544 -12.119  1.00  0.00     0.159 HD
ENDBRANCH  41  42
ENDBRANCH  40  41
ENDBRANCH  39  40
ENDBRANCH  38  39
ENDBRANCH  36  38
ENDBRANCH   5  34
BRANCH   8  50
ATOM     50  O   UNL     1       5.014  -8.477 -13.550  1.00  0.00    -0.245 OA
BRANCH  50  51
ATOM     51  S   UNL     1       3.723  -8.595 -14.532  1.00  0.00     0.397 S 
ATOM     52  O   UNL     1       3.173  -9.924 -14.388  1.00  0.00    -0.169 OA
ATOM     53  O   UNL     1       4.047  -8.043 -15.831  1.00  0.00    -0.169 OA
BRANCH  51  54
ATOM     54  O   UNL     1       2.671  -7.607 -13.822  1.00  0.00    -0.264 OA
ATOM     55  H   UNL     1       3.179  -6.889 -13.394  1.00  0.00     0.236 HD
ENDBRANCH  51  54
ENDBRANCH  50  51
ENDBRANCH   8  50
TORSDOF 19
ENDMDL
MODEL 10
REMARK VINA RESULT:    -4.272      9.925     13.223
REMARK INTER + INTRA:         -13.129
REMARK INTER:                  -9.295
REMARK INTRA:                  -3.834
REMARK UNBOUND:                -4.486
REMARK SMILES CC[C@@H](C)[C@@H](NC(=O)[C@@H](O)Cc1ccc(O)c(Cl)c1)C(=O)N1[C@H](C(=O)NCCCCN=C(N)N)C[C@H]2CC[C@H](OS(=O)(=O)O)C[C@@H]21
REMARK SMILES IDX 22 1 36 2 46 3 35 4 23 5 45 6 37 7 39 8 38 9 20 10 21 11
REMARK SMILES IDX 5 12 6 13 7 14 8 15 9 17 11 18 12 19 17 20 19 21 15 22 14 23
REMARK SMILES IDX 13 24 18 25 16 26 10 28 3 30 4 31 2 32 1 33 24 34 25 35
REMARK SMILES IDX 26 36 27 38 28 39 29 40 30 41 31 42 32 43 33 44 34 45 40 50
REMARK SMILES IDX 41 51 42 52 43 53 44 54
REMARK H PARENT 6 16 16 27 10 29 26 37 33 46 33 47 34 48 34 49 44 55
ROOT
ATOM      1  N   UNL     1       4.547  -9.960   1.525  1.00  0.00    -0.326 N 
ATOM      2  C   UNL     1       5.062  -9.372  -0.696  1.00  0.00     0.014 C 
ATOM      3  C   UNL     1       5.614 -10.105   0.530  1.00  0.00     0.091 C 
ATOM      4  C   UNL     1       4.270  -8.231  -0.075  1.00  0.00     0.041 C 
ATOM      5  C   UNL     1       3.534  -8.988   1.046  1.00  0.00     0.175 C 
ATOM      6  C   UNL     1       6.023 -11.515   0.106  1.00  0.00     0.059 C 
ATOM      7  C   UNL     1       6.168  -9.058  -1.684  1.00  0.00     0.008 C 
ATOM      8  C   UNL     1       6.522 -11.605  -1.352  1.00  0.00     0.143 C 
ATOM      9  C   UNL     1       7.112 -10.268  -1.846  1.00  0.00     0.034 C 
ENDROOT
BRANCH   1  10
ATOM     10  C   UNL     1       4.489 -10.405   2.835  1.00  0.00     0.246 C 
ATOM     11  O   UNL     1       3.893 -11.458   3.086  1.00  0.00    -0.272 OA
BRANCH  10  12
ATOM     12  C   UNL     1       5.209  -9.596   3.952  1.00  0.00     0.174 C 
BRANCH  12  13
ATOM     13  N   UNL     1       4.225  -8.874   4.758  1.00  0.00    -0.342 N 
ATOM     14  C   UNL     1       4.200  -8.843   6.135  1.00  0.00     0.249 C 
ATOM     15  O   UNL     1       5.027  -9.402   6.844  1.00  0.00    -0.272 OA
ATOM     16  H   UNL     1       3.391  -8.496   4.315  1.00  0.00     0.164 HD
BRANCH  14  17
ATOM     17  C   UNL     1       3.027  -8.009   6.691  1.00  0.00     0.207 C 
BRANCH  17  18
ATOM     18  C   UNL     1       3.493  -7.147   7.868  1.00  0.00     0.077 C 
BRANCH  18  19
ATOM     19  C   UNL     1       2.739  -5.838   7.940  1.00  0.00    -0.043 A 
ATOM     20  C   UNL     1       1.259  -4.206   6.925  1.00  0.00     0.083 A 
ATOM     21  C   UNL     1       1.914  -5.437   6.878  1.00  0.00     0.028 A 
ATOM     22  C   UNL     1       1.424  -3.370   8.030  1.00  0.00     0.134 A 
ATOM     23  C   UNL     1       2.238  -3.755   9.089  1.00  0.00     0.048 A 
ATOM     24  C   UNL     1       2.897  -4.985   9.043  1.00  0.00     0.008 A 
ATOM     25  Cl  UNL     1       0.250  -3.730   5.610  1.00  0.00    -0.080 Cl
BRANCH  22  26
ATOM     26  O   UNL     1       0.811  -2.149   8.117  1.00  0.00    -0.506 OA
ATOM     27  H   UNL     1      -0.075  -2.252   7.724  1.00  0.00     0.293 HD
ENDBRANCH  22  26
ENDBRANCH  18  19
ENDBRANCH  17  18
BRANCH  17  28
ATOM     28  O   UNL     1       1.947  -8.855   7.117  1.00  0.00    -0.383 OA
ATOM     29  H   UNL     1       1.241  -8.252   7.442  1.00  0.00     0.211 HD
ENDBRANCH  17  28
ENDBRANCH  14  17
ENDBRANCH  12  13
BRANCH  12  30
ATOM     30  C   UNL     1       6.319  -8.663   3.397  1.00  0.00     0.018 C 
ATOM     31  C   UNL     1       7.583  -8.739   4.268  1.00  0.00     0.010 C 
BRANCH  30  32
ATOM     32  C   UNL     1       5.870  -7.190   3.238  1.00  0.00     0.002 C 
ATOM     33  C   UNL     1       6.464  -6.454   2.043  1.00  0.00     0.004 C 
ENDBRANCH  30  32
ENDBRANCH  12  30
ENDBRANCH  10  12
ENDBRANCH   1  10
BRANCH   5  34
ATOM     34  C   UNL     1       2.277  -9.723   0.509  1.00  0.00     0.242 C 
ATOM     35  O   UNL     1       2.256 -10.940   0.322  1.00  0.00    -0.273 OA
ATOM     36  N   UNL     1       1.207  -8.911   0.208  1.00  0.00    -0.354 N 
ATOM     37  H   UNL     1       1.326  -7.899   0.271  1.00  0.00     0.163 HD
BRANCH  36  38
ATOM     38  C   UNL     1      -0.106  -9.441  -0.095  1.00  0.00     0.116 C 
BRANCH  38  39
ATOM     39  C   UNL     1      -0.714  -8.681  -1.271  1.00  0.00     0.023 C 
BRANCH  39  40
ATOM     40  C   UNL     1      -0.694  -9.492  -2.562  1.00  0.00     0.026 C 
BRANCH  40  41
ATOM     41  C   UNL     1      -0.043 -10.856  -2.335  1.00  0.00     0.146 C 
BRANCH  41  42
ATOM     42  N   UNL     1       0.594 -11.309  -3.565  1.00  0.00    -0.254 NA
ATOM     43  C   UNL     1       1.852 -11.139  -3.726  1.00  0.00     0.185 C 
ATOM     44  N   UNL     1       2.762 -10.579  -2.908  1.00  0.00    -0.370 N 
ATOM     45  N   UNL     1       2.419 -11.559  -4.869  1.00  0.00    -0.370 N 
ATOM     46  H   UNL     1       3.659 -10.291  -3.259  1.00  0.00     0.159 HD
ATOM     47  H   UNL     1       2.506 -10.219  -1.994  1.00  0.00     0.159 HD
ATOM     48  H   UNL     1       1.804 -12.002  -5.538  1.00  0.00     0.159 HD
ATOM     49  H   UNL     1       3.411 -11.678  -4.972  1.00  0.00     0.159 HD
ENDBRANCH  41  42
ENDBRANCH  40  41
ENDBRANCH  39  40
ENDBRANCH  38  39
ENDBRANCH  36  38
ENDBRANCH   5  34
BRANCH   8  50
ATOM     50  O   UNL     1       5.447 -11.973  -2.217  1.00  0.00    -0.245 OA
BRANCH  50  51
ATOM     51  S   UNL     1       5.763 -12.399  -3.754  1.00  0.00     0.397 S 
ATOM     52  O   UNL     1       7.050 -13.057  -3.780  1.00  0.00    -0.169 OA
ATOM     53  O   UNL     1       5.458 -11.292  -4.637  1.00  0.00    -0.169 OA
BRANCH  51  54
ATOM     54  O   UNL     1       4.675 -13.554  -4.013  1.00  0.00    -0.264 OA
ATOM     55  H   UNL     1       4.278 -13.789  -3.150  1.00  0.00     0.236 HD
ENDBRANCH  51  54
ENDBRANCH  50  51
ENDBRANCH   8  50
TORSDOF 19
ENDMDL
