MODEL 1
REMARK VINA RESULT:    -5.531      0.000      0.000
REMARK INTER + INTRA:         -13.624
REMARK INTER:                 -13.776
REMARK INTRA:                   0.152
REMARK UNBOUND:                 0.152
REMARK SMILES CCCCCCC[C@H](N)[C@H](O)C(=O)N[C@H](C)C(=O)N(C)[C@H](CC(C)C)C(=O)N[C@@H](Cc1ccc(O)cc1)C(=O)N[C@@H](Cc1ccc(O)cc1)C(=O)O
REMARK SMILES IDX 18 1 17 2 15 3 16 4 14 5 12 6 13 7 10 9 11 10 8 12 9 13 7 16
REMARK SMILES IDX 6 17 5 18 4 19 3 20 2 21 1 22 19 23 20 24 21 25 22 26 23 27
REMARK SMILES IDX 24 28 25 29 26 30 27 31 28 32 29 34 30 35 31 36 32 37 37 38
REMARK SMILES IDX 33 39 36 40 34 41 35 42 38 44 39 45 40 46 41 48 42 49 43 50
REMARK SMILES IDX 44 51 49 52 45 53 48 54 46 55 47 56 50 58 51 59 52 60
REMARK H PARENT 14 8 11 11 9 14 9 15 28 33 35 43 40 47 47 57 52 61
ROOT
ATOM      1  O   UNL     1      -0.904   0.451  -7.123  1.00  0.00    -0.272 OA
ATOM      2  C   UNL     1      -0.855   0.456  -8.362  1.00  0.00     0.245 C 
ENDROOT
BRANCH   2   3
ATOM      3  C   UNL     1      -1.768   1.440  -9.135  1.00  0.00     0.168 C 
ATOM      4  C   UNL     1      -3.107   1.609  -8.426  1.00  0.00     0.041 C 
BRANCH   3   5
ATOM      5  N   UNL     1      -1.157   2.722  -9.450  1.00  0.00    -0.342 N 
ATOM      6  C   UNL     1      -1.688   3.569 -10.399  1.00  0.00     0.251 C 
ATOM      7  O   UNL     1      -2.677   3.296 -11.072  1.00  0.00    -0.272 OA
ATOM      8  H   UNL     1      -0.312   3.043  -8.981  1.00  0.00     0.164 HD
BRANCH   6   9
ATOM      9  C   UNL     1      -0.962   4.923 -10.462  1.00  0.00     0.219 C 
BRANCH   9  10
ATOM     10  O   UNL     1       0.458   4.795 -10.322  1.00  0.00    -0.382 OA
ATOM     11  H   UNL     1       0.572   3.901  -9.930  1.00  0.00     0.211 HD
ENDBRANCH   9  10
BRANCH   9  12
ATOM     12  C   UNL     1      -1.319   5.747 -11.726  1.00  0.00     0.089 C 
BRANCH  12  13
ATOM     13  N   UNL     1      -2.793   5.878 -11.798  1.00  0.00    -0.325 NA
ATOM     14  H   UNL     1      -3.224   5.111 -11.279  1.00  0.00     0.119 HD
ATOM     15  H   UNL     1      -3.090   5.745 -12.767  1.00  0.00     0.119 HD
ENDBRANCH  12  13
BRANCH  12  16
ATOM     16  C   UNL     1      -0.656   7.141 -11.836  1.00  0.00     0.022 C 
BRANCH  16  17
ATOM     17  C   UNL     1      -1.538   8.395 -11.777  1.00  0.00     0.002 C 
BRANCH  17  18
ATOM     18  C   UNL     1      -0.923   9.583 -11.040  1.00  0.00     0.000 C 
BRANCH  18  19
ATOM     19  C   UNL     1      -1.831  10.818 -10.977  1.00  0.00    -0.000 C 
BRANCH  19  20
ATOM     20  C   UNL     1      -3.276  10.541 -10.554  1.00  0.00    -0.000 C 
BRANCH  20  21
ATOM     21  C   UNL     1      -4.307  11.203 -11.472  1.00  0.00    -0.003 C 
ATOM     22  C   UNL     1      -5.127  10.165 -12.223  1.00  0.00     0.004 C 
ENDBRANCH  20  21
ENDBRANCH  19  20
ENDBRANCH  18  19
ENDBRANCH  17  18
ENDBRANCH  16  17
ENDBRANCH  12  16
ENDBRANCH   9  12
ENDBRANCH   6   9
ENDBRANCH   3   5
ENDBRANCH   2   3
BRANCH   2  23
ATOM     23  N   UNL     1       0.090  -0.320  -9.024  1.00  0.00    -0.332 N 
ATOM     24  C   UNL     1       1.153   0.212  -9.865  1.00  0.00     0.147 C 
BRANCH  23  25
ATOM     25  C   UNL     1       0.145  -1.790  -8.799  1.00  0.00     0.174 C 
BRANCH  25  26
ATOM     26  C   UNL     1       0.289  -2.166  -7.306  1.00  0.00     0.038 C 
BRANCH  26  27
ATOM     27  C   UNL     1      -0.850  -3.003  -6.682  1.00  0.00    -0.015 C 
ATOM     28  C   UNL     1      -2.019  -2.138  -6.210  1.00  0.00     0.007 C 
ATOM     29  C   UNL     1      -1.345  -4.126  -7.589  1.00  0.00     0.007 C 
ENDBRANCH  26  27
ENDBRANCH  25  26
BRANCH  25  30
ATOM     30  C   UNL     1       1.223  -2.427  -9.707  1.00  0.00     0.243 C 
ATOM     31  O   UNL     1       2.308  -1.884  -9.907  1.00  0.00    -0.273 OA
ATOM     32  N   UNL     1       0.885  -3.628 -10.276  1.00  0.00    -0.342 N 
ATOM     33  H   UNL     1       0.027  -4.081  -9.951  1.00  0.00     0.164 HD
BRANCH  32  34
ATOM     34  C   UNL     1       1.770  -4.362 -11.184  1.00  0.00     0.175 C 
BRANCH  34  35
ATOM     35  C   UNL     1       2.706  -5.306 -10.412  1.00  0.00     0.070 C 
BRANCH  35  36
ATOM     36  C   UNL     1       4.057  -4.688 -10.129  1.00  0.00    -0.045 A 
ATOM     37  C   UNL     1       4.374  -4.256  -8.833  1.00  0.00     0.007 A 
ATOM     38  C   UNL     1       4.997  -4.517 -11.154  1.00  0.00     0.007 A 
ATOM     39  C   UNL     1       5.612  -3.673  -8.565  1.00  0.00     0.046 A 
ATOM     40  C   UNL     1       6.237  -3.931 -10.887  1.00  0.00     0.046 A 
ATOM     41  C   UNL     1       6.534  -3.515  -9.594  1.00  0.00     0.115 A 
BRANCH  41  42
ATOM     42  O   UNL     1       7.731  -2.938  -9.291  1.00  0.00    -0.508 OA
ATOM     43  H   UNL     1       7.588  -2.296  -8.576  1.00  0.00     0.293 HD
ENDBRANCH  41  42
ENDBRANCH  35  36
ENDBRANCH  34  35
BRANCH  34  44
ATOM     44  C   UNL     1       0.889  -5.126 -12.198  1.00  0.00     0.243 C 
ATOM     45  O   UNL     1       1.326  -5.806 -13.122  1.00  0.00    -0.273 OA
ATOM     46  N   UNL     1      -0.458  -4.870 -12.055  1.00  0.00    -0.341 N 
ATOM     47  H   UNL     1      -0.763  -4.207 -11.348  1.00  0.00     0.164 HD
BRANCH  46  48
ATOM     48  C   UNL     1      -1.482  -5.426 -12.943  1.00  0.00     0.196 C 
BRANCH  48  49
ATOM     49  C   UNL     1      -2.893  -4.994 -12.510  1.00  0.00     0.072 C 
BRANCH  49  50
ATOM     50  C   UNL     1      -3.935  -5.259 -13.574  1.00  0.00    -0.045 A 
ATOM     51  C   UNL     1      -4.857  -4.258 -13.914  1.00  0.00     0.007 A 
ATOM     52  C   UNL     1      -4.009  -6.501 -14.216  1.00  0.00     0.007 A 
ATOM     53  C   UNL     1      -5.830  -4.495 -14.884  1.00  0.00     0.046 A 
ATOM     54  C   UNL     1      -4.985  -6.739 -15.187  1.00  0.00     0.046 A 
ATOM     55  C   UNL     1      -5.887  -5.733 -15.514  1.00  0.00     0.115 A 
BRANCH  55  56
ATOM     56  O   UNL     1      -6.855  -5.925 -16.455  1.00  0.00    -0.508 OA
ATOM     57  H   UNL     1      -6.602  -6.685 -17.003  1.00  0.00     0.293 HD
ENDBRANCH  55  56
ENDBRANCH  49  50
ENDBRANCH  48  49
BRANCH  48  58
ATOM     58  C   UNL     1      -1.214  -4.946 -14.376  1.00  0.00     0.326 C 
ATOM     59  O   UNL     1      -1.267  -3.801 -14.795  1.00  0.00    -0.250 OA
BRANCH  58  60
ATOM     60  O   UNL     1      -0.870  -5.947 -15.227  1.00  0.00    -0.480 OA
ATOM     61  H   UNL     1      -0.506  -6.635 -14.630  1.00  0.00     0.296 HD
ENDBRANCH  58  60
ENDBRANCH  48  58
ENDBRANCH  46  48
ENDBRANCH  34  44
ENDBRANCH  32  34
ENDBRANCH  25  30
ENDBRANCH  23  25
ENDBRANCH   2  23
TORSDOF 28
ENDMDL
MODEL 2
REMARK VINA RESULT:    -5.419      1.986      3.099
REMARK INTER + INTRA:         -13.345
REMARK INTER:                 -13.648
REMARK INTRA:                   0.304
REMARK UNBOUND:                 0.152
REMARK SMILES CCCCCCC[C@H](N)[C@H](O)C(=O)N[C@H](C)C(=O)N(C)[C@H](CC(C)C)C(=O)N[C@@H](Cc1ccc(O)cc1)C(=O)N[C@@H](Cc1ccc(O)cc1)C(=O)O
REMARK SMILES IDX 18 1 17 2 15 3 16 4 14 5 12 6 13 7 10 9 11 10 8 12 9 13 7 16
REMARK SMILES IDX 6 17 5 18 4 19 3 20 2 21 1 22 19 23 20 24 21 25 22 26 23 27
REMARK SMILES IDX 24 28 25 29 26 30 27 31 28 32 29 34 30 35 31 36 32 37 37 38
REMARK SMILES IDX 33 39 36 40 34 41 35 42 38 44 39 45 40 46 41 48 42 49 43 50
REMARK SMILES IDX 44 51 49 52 45 53 48 54 46 55 47 56 50 58 51 59 52 60
REMARK H PARENT 14 8 11 11 9 14 9 15 28 33 35 43 40 47 47 57 52 61
ROOT
ATOM      1  O   UNL     1      -2.372   2.987  -8.425  1.00  0.00    -0.272 OA
ATOM      2  C   UNL     1      -1.726   2.838  -9.472  1.00  0.00     0.245 C 
ENDROOT
BRANCH   2   3
ATOM      3  C   UNL     1      -2.035   3.767 -10.673  1.00  0.00     0.168 C 
ATOM      4  C   UNL     1      -3.539   3.954 -10.840  1.00  0.00     0.041 C 
BRANCH   3   5
ATOM      5  N   UNL     1      -1.329   5.039 -10.659  1.00  0.00    -0.342 N 
ATOM      6  C   UNL     1      -1.708   6.091 -11.466  1.00  0.00     0.251 C 
ATOM      7  O   UNL     1      -2.626   6.025 -12.276  1.00  0.00    -0.272 OA
ATOM      8  H   UNL     1      -0.528   5.201 -10.053  1.00  0.00     0.164 HD
BRANCH   6   9
ATOM      9  C   UNL     1      -0.913   7.375 -11.181  1.00  0.00     0.219 C 
BRANCH   9  10
ATOM     10  O   UNL     1       0.489   7.225 -11.432  1.00  0.00    -0.382 OA
ATOM     11  H   UNL     1       0.809   6.715 -10.655  1.00  0.00     0.211 HD
ENDBRANCH   9  10
BRANCH   9  12
ATOM     12  C   UNL     1      -1.475   8.616 -11.922  1.00  0.00     0.089 C 
BRANCH  12  13
ATOM     13  N   UNL     1      -2.952   8.595 -11.817  1.00  0.00    -0.325 NA
ATOM     14  H   UNL     1      -3.257   7.652 -11.569  1.00  0.00     0.119 HD
ATOM     15  H   UNL     1      -3.353   8.770 -12.741  1.00  0.00     0.119 HD
ENDBRANCH  12  13
BRANCH  12  16
ATOM     16  C   UNL     1      -0.929   9.988 -11.459  1.00  0.00     0.022 C 
BRANCH  16  17
ATOM     17  C   UNL     1      -1.917  11.066 -10.992  1.00  0.00     0.002 C 
BRANCH  17  18
ATOM     18  C   UNL     1      -1.905  11.345  -9.491  1.00  0.00     0.000 C 
BRANCH  18  19
ATOM     19  C   UNL     1      -3.272  11.742  -8.918  1.00  0.00    -0.000 C 
BRANCH  19  20
ATOM     20  C   UNL     1      -3.232  12.392  -7.532  1.00  0.00    -0.000 C 
BRANCH  20  21
ATOM     21  C   UNL     1      -4.315  11.861  -6.589  1.00  0.00    -0.003 C 
ATOM     22  C   UNL     1      -5.678  12.449  -6.922  1.00  0.00     0.004 C 
ENDBRANCH  20  21
ENDBRANCH  19  20
ENDBRANCH  18  19
ENDBRANCH  17  18
ENDBRANCH  16  17
ENDBRANCH  12  16
ENDBRANCH   9  12
ENDBRANCH   6   9
ENDBRANCH   3   5
ENDBRANCH   2   3
BRANCH   2  23
ATOM     23  N   UNL     1      -0.667   1.937  -9.514  1.00  0.00    -0.332 N 
ATOM     24  C   UNL     1       0.667   2.252 -10.003  1.00  0.00     0.147 C 
BRANCH  23  25
ATOM     25  C   UNL     1      -0.811   0.581  -8.918  1.00  0.00     0.174 C 
BRANCH  25  26
ATOM     26  C   UNL     1      -1.129   0.619  -7.404  1.00  0.00     0.038 C 
BRANCH  26  27
ATOM     27  C   UNL     1      -2.339  -0.213  -6.922  1.00  0.00    -0.015 C 
ATOM     28  C   UNL     1      -3.440  -0.309  -7.978  1.00  0.00     0.007 C 
ATOM     29  C   UNL     1      -1.958  -1.601  -6.415  1.00  0.00     0.007 C 
ENDBRANCH  26  27
ENDBRANCH  25  26
BRANCH  25  30
ATOM     30  C   UNL     1       0.415  -0.290  -9.273  1.00  0.00     0.243 C 
ATOM     31  O   UNL     1       1.473   0.204  -9.662  1.00  0.00    -0.273 OA
ATOM     32  N   UNL     1       0.243  -1.643  -9.134  1.00  0.00    -0.342 N 
ATOM     33  H   UNL     1      -0.612  -1.967  -8.673  1.00  0.00     0.164 HD
BRANCH  32  34
ATOM     34  C   UNL     1       1.287  -2.622  -9.451  1.00  0.00     0.175 C 
BRANCH  34  35
ATOM     35  C   UNL     1       1.995  -3.115  -8.179  1.00  0.00     0.070 C 
BRANCH  35  36
ATOM     36  C   UNL     1       3.496  -3.198  -8.340  1.00  0.00    -0.045 A 
ATOM     37  C   UNL     1       4.101  -2.741  -9.521  1.00  0.00     0.007 A 
ATOM     38  C   UNL     1       4.298  -3.748  -7.332  1.00  0.00     0.007 A 
ATOM     39  C   UNL     1       5.484  -2.826  -9.684  1.00  0.00     0.046 A 
ATOM     40  C   UNL     1       5.683  -3.834  -7.495  1.00  0.00     0.046 A 
ATOM     41  C   UNL     1       6.264  -3.371  -8.671  1.00  0.00     0.115 A 
BRANCH  41  42
ATOM     42  O   UNL     1       7.611  -3.438  -8.872  1.00  0.00    -0.508 OA
ATOM     43  H   UNL     1       7.965  -4.156  -8.322  1.00  0.00     0.293 HD
ENDBRANCH  41  42
ENDBRANCH  35  36
ENDBRANCH  34  35
BRANCH  34  44
ATOM     44  C   UNL     1       0.634  -3.782 -10.235  1.00  0.00     0.243 C 
ATOM     45  O   UNL     1      -0.314  -4.447  -9.829  1.00  0.00    -0.273 OA
ATOM     46  N   UNL     1       1.300  -4.100 -11.400  1.00  0.00    -0.341 N 
ATOM     47  H   UNL     1       2.150  -3.595 -11.636  1.00  0.00     0.164 HD
BRANCH  46  48
ATOM     48  C   UNL     1       0.908  -5.206 -12.276  1.00  0.00     0.196 C 
BRANCH  48  49
ATOM     49  C   UNL     1       0.094  -4.705 -13.481  1.00  0.00     0.072 C 
BRANCH  49  50
ATOM     50  C   UNL     1      -1.153  -5.525 -13.722  1.00  0.00    -0.045 A 
ATOM     51  C   UNL     1      -1.343  -6.164 -14.956  1.00  0.00     0.007 A 
ATOM     52  C   UNL     1      -2.141  -5.641 -12.735  1.00  0.00     0.007 A 
ATOM     53  C   UNL     1      -2.496  -6.912 -15.194  1.00  0.00     0.046 A 
ATOM     54  C   UNL     1      -3.296  -6.388 -12.974  1.00  0.00     0.046 A 
ATOM     55  C   UNL     1      -3.463  -7.019 -14.202  1.00  0.00     0.115 A 
BRANCH  55  56
ATOM     56  O   UNL     1      -4.577  -7.757 -14.476  1.00  0.00    -0.508 OA
ATOM     57  H   UNL     1      -5.307  -7.149 -14.671  1.00  0.00     0.293 HD
ENDBRANCH  55  56
ENDBRANCH  49  50
ENDBRANCH  48  49
BRANCH  48  58
ATOM     58  C   UNL     1       2.172  -5.923 -12.770  1.00  0.00     0.326 C 
ATOM     59  O   UNL     1       2.289  -6.606 -13.775  1.00  0.00    -0.250 OA
BRANCH  58  60
ATOM     60  O   UNL     1       3.250  -5.732 -11.969  1.00  0.00    -0.480 OA
ATOM     61  H   UNL     1       3.953  -6.260 -12.407  1.00  0.00     0.296 HD
ENDBRANCH  58  60
ENDBRANCH  48  58
ENDBRANCH  46  48
ENDBRANCH  34  44
ENDBRANCH  32  34
ENDBRANCH  25  30
ENDBRANCH  23  25
ENDBRANCH   2  23
TORSDOF 28
ENDMDL
MODEL 3
REMARK VINA RESULT:    -3.905      1.994      4.687
REMARK INTER + INTRA:          -9.575
REMARK INTER:                 -11.029
REMARK INTRA:                   1.455
REMARK UNBOUND:                 0.152
REMARK SMILES CCCCCCC[C@H](N)[C@H](O)C(=O)N[C@H](C)C(=O)N(C)[C@H](CC(C)C)C(=O)N[C@@H](Cc1ccc(O)cc1)C(=O)N[C@@H](Cc1ccc(O)cc1)C(=O)O
REMARK SMILES IDX 18 1 17 2 15 3 16 4 14 5 12 6 13 7 10 9 11 10 8 12 9 13 7 16
REMARK SMILES IDX 6 17 5 18 4 19 3 20 2 21 1 22 19 23 20 24 21 25 22 26 23 27
REMARK SMILES IDX 24 28 25 29 26 30 27 31 28 32 29 34 30 35 31 36 32 37 37 38
REMARK SMILES IDX 33 39 36 40 34 41 35 42 38 44 39 45 40 46 41 48 42 49 43 50
REMARK SMILES IDX 44 51 49 52 45 53 48 54 46 55 47 56 50 58 51 59 52 60
REMARK H PARENT 14 8 11 11 9 14 9 15 28 33 35 43 40 47 47 57 52 61
ROOT
ATOM      1  O   UNL     1       4.141   0.596  -8.716  1.00  0.00    -0.272 OA
ATOM      2  C   UNL     1       3.422  -0.261  -9.250  1.00  0.00     0.245 C 
ENDROOT
BRANCH   2   3
ATOM      3  C   UNL     1       2.111   0.194  -9.937  1.00  0.00     0.168 C 
ATOM      4  C   UNL     1       0.894  -0.313  -9.171  1.00  0.00     0.041 C 
BRANCH   3   5
ATOM      5  N   UNL     1       2.026   1.621 -10.206  1.00  0.00    -0.342 N 
ATOM      6  C   UNL     1       0.815   2.277 -10.283  1.00  0.00     0.251 C 
ATOM      7  O   UNL     1      -0.268   1.712 -10.175  1.00  0.00    -0.272 OA
ATOM      8  H   UNL     1       2.857   2.190 -10.349  1.00  0.00     0.164 HD
BRANCH   6   9
ATOM      9  C   UNL     1       0.972   3.799 -10.432  1.00  0.00     0.219 C 
BRANCH   9  10
ATOM     10  O   UNL     1       1.950   4.160 -11.415  1.00  0.00    -0.382 OA
ATOM     11  H   UNL     1       1.575   4.969 -11.827  1.00  0.00     0.211 HD
ENDBRANCH   9  10
BRANCH   9  12
ATOM     12  C   UNL     1      -0.372   4.526 -10.699  1.00  0.00     0.089 C 
BRANCH  12  13
ATOM     13  N   UNL     1      -1.287   4.247  -9.569  1.00  0.00    -0.325 NA
ATOM     14  H   UNL     1      -1.718   3.331  -9.704  1.00  0.00     0.119 HD
ATOM     15  H   UNL     1      -2.062   4.914  -9.598  1.00  0.00     0.119 HD
ENDBRANCH  12  13
BRANCH  12  16
ATOM     16  C   UNL     1      -0.280   6.051 -10.945  1.00  0.00     0.022 C 
BRANCH  16  17
ATOM     17  C   UNL     1      -1.398   6.749 -11.732  1.00  0.00     0.002 C 
BRANCH  17  18
ATOM     18  C   UNL     1      -1.333   8.275 -11.729  1.00  0.00     0.000 C 
BRANCH  18  19
ATOM     19  C   UNL     1      -2.705   8.959 -11.687  1.00  0.00    -0.000 C 
BRANCH  19  20
ATOM     20  C   UNL     1      -2.735  10.313 -10.971  1.00  0.00    -0.000 C 
BRANCH  20  21
ATOM     21  C   UNL     1      -1.465  10.591 -10.162  1.00  0.00    -0.003 C 
ATOM     22  C   UNL     1      -1.661  11.760  -9.209  1.00  0.00     0.004 C 
ENDBRANCH  20  21
ENDBRANCH  19  20
ENDBRANCH  18  19
ENDBRANCH  17  18
ENDBRANCH  16  17
ENDBRANCH  12  16
ENDBRANCH   9  12
ENDBRANCH   6   9
ENDBRANCH   3   5
ENDBRANCH   2   3
BRANCH   2  23
ATOM     23  N   UNL     1       3.856  -1.580  -9.331  1.00  0.00    -0.332 N 
ATOM     24  C   UNL     1       4.653  -2.122 -10.421  1.00  0.00     0.147 C 
BRANCH  23  25
ATOM     25  C   UNL     1       3.625  -2.518  -8.197  1.00  0.00     0.174 C 
BRANCH  25  26
ATOM     26  C   UNL     1       4.516  -3.780  -8.269  1.00  0.00     0.038 C 
BRANCH  26  27
ATOM     27  C   UNL     1       5.885  -3.711  -7.555  1.00  0.00    -0.015 C 
ATOM     28  C   UNL     1       5.886  -4.455  -6.220  1.00  0.00     0.007 C 
ATOM     29  C   UNL     1       7.049  -4.174  -8.429  1.00  0.00     0.007 C 
ENDBRANCH  26  27
ENDBRANCH  25  26
BRANCH  25  30
ATOM     30  C   UNL     1       2.117  -2.829  -8.063  1.00  0.00     0.243 C 
ATOM     31  O   UNL     1       1.498  -2.611  -7.022  1.00  0.00    -0.273 OA
ATOM     32  N   UNL     1       1.520  -3.366  -9.175  1.00  0.00    -0.342 N 
ATOM     33  H   UNL     1       2.064  -3.385 -10.041  1.00  0.00     0.164 HD
BRANCH  32  34
ATOM     34  C   UNL     1       0.106  -3.748  -9.220  1.00  0.00     0.175 C 
BRANCH  34  35
ATOM     35  C   UNL     1      -0.788  -2.544  -9.552  1.00  0.00     0.070 C 
BRANCH  35  36
ATOM     36  C   UNL     1      -1.358  -1.881  -8.319  1.00  0.00    -0.045 A 
ATOM     37  C   UNL     1      -1.449  -2.597  -7.116  1.00  0.00     0.007 A 
ATOM     38  C   UNL     1      -1.822  -0.560  -8.362  1.00  0.00     0.007 A 
ATOM     39  C   UNL     1      -1.986  -1.999  -5.976  1.00  0.00     0.046 A 
ATOM     40  C   UNL     1      -2.362   0.040  -7.221  1.00  0.00     0.046 A 
ATOM     41  C   UNL     1      -2.437  -0.686  -6.037  1.00  0.00     0.115 A 
BRANCH  41  42
ATOM     42  O   UNL     1      -2.958  -0.139  -4.902  1.00  0.00    -0.508 OA
ATOM     43  H   UNL     1      -3.904  -0.359  -4.864  1.00  0.00     0.293 HD
ENDBRANCH  41  42
ENDBRANCH  35  36
ENDBRANCH  34  35
BRANCH  34  44
ATOM     44  C   UNL     1      -0.049  -4.885 -10.255  1.00  0.00     0.243 C 
ATOM     45  O   UNL     1      -0.213  -6.068  -9.968  1.00  0.00    -0.273 OA
ATOM     46  N   UNL     1       0.145  -4.473 -11.557  1.00  0.00    -0.341 N 
ATOM     47  H   UNL     1       0.394  -3.503 -11.736  1.00  0.00     0.164 HD
BRANCH  46  48
ATOM     48  C   UNL     1       0.115  -5.383 -12.704  1.00  0.00     0.196 C 
BRANCH  48  49
ATOM     49  C   UNL     1      -0.476  -4.698 -13.947  1.00  0.00     0.072 C 
BRANCH  49  50
ATOM     50  C   UNL     1      -1.865  -5.192 -14.279  1.00  0.00    -0.045 A 
ATOM     51  C   UNL     1      -2.535  -4.692 -15.406  1.00  0.00     0.007 A 
ATOM     52  C   UNL     1      -2.510  -6.132 -13.465  1.00  0.00     0.007 A 
ATOM     53  C   UNL     1      -3.822  -5.130 -15.715  1.00  0.00     0.046 A 
ATOM     54  C   UNL     1      -3.800  -6.570 -13.774  1.00  0.00     0.046 A 
ATOM     55  C   UNL     1      -4.445  -6.066 -14.897  1.00  0.00     0.115 A 
BRANCH  55  56
ATOM     56  O   UNL     1      -5.704  -6.467 -15.233  1.00  0.00    -0.508 OA
ATOM     57  H   UNL     1      -5.926  -6.087 -16.098  1.00  0.00     0.293 HD
ENDBRANCH  55  56
ENDBRANCH  49  50
ENDBRANCH  48  49
BRANCH  48  58
ATOM     58  C   UNL     1       1.544  -5.854 -13.005  1.00  0.00     0.326 C 
ATOM     59  O   UNL     1       2.551  -5.621 -12.356  1.00  0.00    -0.250 OA
BRANCH  58  60
ATOM     60  O   UNL     1       1.638  -6.622 -14.119  1.00  0.00    -0.480 OA
ATOM     61  H   UNL     1       1.052  -6.163 -14.760  1.00  0.00     0.296 HD
ENDBRANCH  58  60
ENDBRANCH  48  58
ENDBRANCH  46  48
ENDBRANCH  34  44
ENDBRANCH  32  34
ENDBRANCH  25  30
ENDBRANCH  23  25
ENDBRANCH   2  23
TORSDOF 28
ENDMDL
MODEL 4
REMARK VINA RESULT:    -2.811      3.234      9.562
REMARK INTER + INTRA:          -6.850
REMARK INTER:                  -7.159
REMARK INTRA:                   0.309
REMARK UNBOUND:                 0.152
REMARK SMILES CCCCCCC[C@H](N)[C@H](O)C(=O)N[C@H](C)C(=O)N(C)[C@H](CC(C)C)C(=O)N[C@@H](Cc1ccc(O)cc1)C(=O)N[C@@H](Cc1ccc(O)cc1)C(=O)O
REMARK SMILES IDX 18 1 17 2 15 3 16 4 14 5 12 6 13 7 10 9 11 10 8 12 9 13 7 16
REMARK SMILES IDX 6 17 5 18 4 19 3 20 2 21 1 22 19 23 20 24 21 25 22 26 23 27
REMARK SMILES IDX 24 28 25 29 26 30 27 31 28 32 29 34 30 35 31 36 32 37 37 38
REMARK SMILES IDX 33 39 36 40 34 41 35 42 38 44 39 45 40 46 41 48 42 49 43 50
REMARK SMILES IDX 44 51 49 52 45 53 48 54 46 55 47 56 50 58 51 59 52 60
REMARK H PARENT 14 8 11 11 9 14 9 15 28 33 35 43 40 47 47 57 52 61
ROOT
ATOM      1  O   UNL     1       0.983  -2.929 -11.180  1.00  0.00    -0.272 OA
ATOM      2  C   UNL     1       0.272  -3.944 -11.205  1.00  0.00     0.245 C 
ENDROOT
BRANCH   2   3
ATOM      3  C   UNL     1      -0.024  -4.608 -12.573  1.00  0.00     0.168 C 
ATOM      4  C   UNL     1       1.072  -5.602 -12.941  1.00  0.00     0.041 C 
BRANCH   3   5
ATOM      5  N   UNL     1      -1.350  -5.193 -12.694  1.00  0.00    -0.342 N 
ATOM      6  C   UNL     1      -2.024  -5.227 -13.896  1.00  0.00     0.251 C 
ATOM      7  O   UNL     1      -1.585  -4.738 -14.932  1.00  0.00    -0.272 OA
ATOM      8  H   UNL     1      -1.832  -5.600 -11.895  1.00  0.00     0.164 HD
BRANCH   6   9
ATOM      9  C   UNL     1      -3.340  -6.017 -13.818  1.00  0.00     0.219 C 
BRANCH   9  10
ATOM     10  O   UNL     1      -3.466  -6.763 -12.601  1.00  0.00    -0.382 OA
ATOM     11  H   UNL     1      -4.020  -6.185 -12.032  1.00  0.00     0.211 HD
ENDBRANCH   9  10
BRANCH   9  12
ATOM     12  C   UNL     1      -4.594  -5.136 -14.056  1.00  0.00     0.089 C 
BRANCH  12  13
ATOM     13  N   UNL     1      -4.190  -3.714 -13.970  1.00  0.00    -0.325 NA
ATOM     14  H   UNL     1      -4.200  -3.421 -12.992  1.00  0.00     0.119 HD
ATOM     15  H   UNL     1      -4.901  -3.140 -14.429  1.00  0.00     0.119 HD
ENDBRANCH  12  13
BRANCH  12  16
ATOM     16  C   UNL     1      -5.362  -5.392 -15.375  1.00  0.00     0.022 C 
BRANCH  16  17
ATOM     17  C   UNL     1      -6.879  -5.619 -15.324  1.00  0.00     0.002 C 
BRANCH  17  18
ATOM     18  C   UNL     1      -7.695  -4.739 -16.268  1.00  0.00     0.000 C 
BRANCH  18  19
ATOM     19  C   UNL     1      -8.102  -5.433 -17.575  1.00  0.00    -0.000 C 
BRANCH  19  20
ATOM     20  C   UNL     1      -9.488  -6.084 -17.561  1.00  0.00    -0.000 C 
BRANCH  20  21
ATOM     21  C   UNL     1      -9.446  -7.591 -17.828  1.00  0.00    -0.003 C 
ATOM     22  C   UNL     1     -10.845  -8.185 -17.871  1.00  0.00     0.004 C 
ENDBRANCH  20  21
ENDBRANCH  19  20
ENDBRANCH  18  19
ENDBRANCH  17  18
ENDBRANCH  16  17
ENDBRANCH  12  16
ENDBRANCH   9  12
ENDBRANCH   6   9
ENDBRANCH   3   5
ENDBRANCH   2   3
BRANCH   2  23
ATOM     23  N   UNL     1      -0.141  -4.534 -10.015  1.00  0.00    -0.332 N 
ATOM     24  C   UNL     1      -0.317  -5.966  -9.821  1.00  0.00     0.147 C 
BRANCH  23  25
ATOM     25  C   UNL     1      -0.310  -3.710  -8.787  1.00  0.00     0.174 C 
BRANCH  25  26
ATOM     26  C   UNL     1      -1.425  -2.647  -8.925  1.00  0.00     0.038 C 
BRANCH  26  27
ATOM     27  C   UNL     1      -1.644  -1.702  -7.722  1.00  0.00    -0.015 C 
ATOM     28  C   UNL     1      -2.583  -0.542  -8.053  1.00  0.00     0.007 C 
ATOM     29  C   UNL     1      -2.107  -2.423  -6.459  1.00  0.00     0.007 C 
ENDBRANCH  26  27
ENDBRANCH  25  26
BRANCH  25  30
ATOM     30  C   UNL     1       1.052  -3.127  -8.345  1.00  0.00     0.243 C 
ATOM     31  O   UNL     1       1.152  -2.359  -7.390  1.00  0.00    -0.273 OA
ATOM     32  N   UNL     1       2.135  -3.518  -9.091  1.00  0.00    -0.342 N 
ATOM     33  H   UNL     1       1.993  -4.264  -9.776  1.00  0.00     0.164 HD
BRANCH  32  34
ATOM     34  C   UNL     1       3.498  -3.045  -8.835  1.00  0.00     0.175 C 
BRANCH  34  35
ATOM     35  C   UNL     1       4.507  -3.707  -9.785  1.00  0.00     0.070 C 
BRANCH  35  36
ATOM     36  C   UNL     1       5.498  -4.591  -9.062  1.00  0.00    -0.045 A 
ATOM     37  C   UNL     1       5.734  -4.406  -7.692  1.00  0.00     0.007 A 
ATOM     38  C   UNL     1       6.207  -5.586  -9.748  1.00  0.00     0.007 A 
ATOM     39  C   UNL     1       6.656  -5.208  -7.019  1.00  0.00     0.046 A 
ATOM     40  C   UNL     1       7.132  -6.389  -9.075  1.00  0.00     0.046 A 
ATOM     41  C   UNL     1       7.347  -6.193  -7.715  1.00  0.00     0.115 A 
BRANCH  41  42
ATOM     42  O   UNL     1       8.242  -6.952  -7.021  1.00  0.00    -0.508 OA
ATOM     43  H   UNL     1       9.072  -6.453  -6.947  1.00  0.00     0.293 HD
ENDBRANCH  41  42
ENDBRANCH  35  36
ENDBRANCH  34  35
BRANCH  34  44
ATOM     44  C   UNL     1       3.503  -1.505  -8.968  1.00  0.00     0.243 C 
ATOM     45  O   UNL     1       4.117  -0.746  -8.223  1.00  0.00    -0.273 OA
ATOM     46  N   UNL     1       2.641  -1.035  -9.936  1.00  0.00    -0.341 N 
ATOM     47  H   UNL     1       2.066  -1.699 -10.449  1.00  0.00     0.164 HD
BRANCH  46  48
ATOM     48  C   UNL     1       2.424   0.389 -10.199  1.00  0.00     0.196 C 
BRANCH  48  49
ATOM     49  C   UNL     1       1.544   1.032  -9.114  1.00  0.00     0.072 C 
BRANCH  49  50
ATOM     50  C   UNL     1       0.609   2.082  -9.670  1.00  0.00    -0.045 A 
ATOM     51  C   UNL     1       1.132   3.257 -10.230  1.00  0.00     0.007 A 
ATOM     52  C   UNL     1      -0.780   1.911  -9.617  1.00  0.00     0.007 A 
ATOM     53  C   UNL     1       0.279   4.239 -10.734  1.00  0.00     0.046 A 
ATOM     54  C   UNL     1      -1.634   2.895 -10.121  1.00  0.00     0.046 A 
ATOM     55  C   UNL     1      -1.097   4.051 -10.676  1.00  0.00     0.115 A 
BRANCH  55  56
ATOM     56  O   UNL     1      -1.896   5.035 -11.178  1.00  0.00    -0.508 OA
ATOM     57  H   UNL     1      -1.478   5.390 -11.979  1.00  0.00     0.293 HD
ENDBRANCH  55  56
ENDBRANCH  49  50
ENDBRANCH  48  49
BRANCH  48  58
ATOM     58  C   UNL     1       3.784   1.100 -10.247  1.00  0.00     0.326 C 
ATOM     59  O   UNL     1       4.043   2.226  -9.854  1.00  0.00    -0.250 OA
BRANCH  58  60
ATOM     60  O   UNL     1       4.773   0.342 -10.784  1.00  0.00    -0.480 OA
ATOM     61  H   UNL     1       4.895   0.731 -11.678  1.00  0.00     0.296 HD
ENDBRANCH  58  60
ENDBRANCH  48  58
ENDBRANCH  46  48
ENDBRANCH  34  44
ENDBRANCH  32  34
ENDBRANCH  25  30
ENDBRANCH  23  25
ENDBRANCH   2  23
TORSDOF 28
ENDMDL
