MODEL 1
REMARK VINA RESULT:    -5.915      0.000      0.000
REMARK INTER + INTRA:         -11.724
REMARK INTER:                 -10.065
REMARK INTRA:                  -1.659
REMARK UNBOUND:                -1.659
REMARK SMILES CC[C@H](C)[C@@H]1NC(=O)[C@H]2CSC(=N2)[C@@H]([C@@H](C)CC)NC(=O)c2csc(n2)CNC(=O)[C@H]2N=C1O[C@@H]2C
REMARK SMILES IDX 27 1 25 2 22 3 26 4 23 5 24 6 20 7 19 8 21 9 14 11 12 12
REMARK SMILES IDX 11 13 10 14 13 15 9 16 15 18 16 19 17 20 18 21 28 22 29 23
REMARK SMILES IDX 30 24 31 26 32 27 35 28 33 29 34 30 36 31 5 32 6 33 7 34
REMARK SMILES IDX 8 35 3 38 4 39 2 40 1 41
REMARK H PARENT 19 10 28 25 6 36
REMARK Flexibility Score:   91.900
ROOT
ATOM      1  C   UNL     1      -5.765  -9.691  -3.964  1.00  0.00     0.183 C 
ENDROOT
BRANCH   1   2
ATOM      2  C   UNL     1      -6.591  -8.722  -3.166  1.00  0.00     0.113 A 
ATOM      3  C   UNL     1      -7.250  -6.795  -2.263  1.00  0.00     0.139 A 
ATOM      4  N   UNL     1      -6.411  -7.415  -3.191  1.00  0.00    -0.234 NA
ATOM      5  C   UNL     1      -8.095  -7.656  -1.591  1.00  0.00     0.101 A 
ATOM      6  S   UNL     1      -7.825  -9.271  -2.106  1.00  0.00    -0.125 S 
BRANCH   3   7
ATOM      7  C   UNL     1      -7.156  -5.350  -2.040  1.00  0.00     0.271 C 
ATOM      8  N   UNL     1      -8.322  -4.709  -2.381  1.00  0.00    -0.341 N 
ATOM      9  O   UNL     1      -6.147  -4.788  -1.633  1.00  0.00    -0.267 OA
ATOM     10  H   UNL     1      -9.085  -5.314  -2.683  1.00  0.00     0.164 HD
BRANCH   8  11
ATOM     11  C   UNL     1      -8.471  -3.265  -2.447  1.00  0.00     0.140 C 
BRANCH  11  12
ATOM     12  C   UNL     1      -8.458  -2.858  -3.924  1.00  0.00     0.091 C 
ATOM     13  S   UNL     1      -9.803  -1.981  -4.615  1.00  0.00    -0.106 SA
ATOM     14  C   UNL     1      -8.834  -1.641  -6.100  1.00  0.00     0.113 C 
ATOM     15  N   UNL     1      -7.499  -3.207  -4.723  1.00  0.00    -0.267 NA
ATOM     16  C   UNL     1      -7.807  -2.763  -6.119  1.00  0.00     0.205 CG0
ATOM     17  G   UNL     1      -8.305  -3.941  -6.972  1.00  0.00     0.000 G0
ENDBRANCH  11  12
BRANCH  11  18
ATOM     18  C   UNL     1      -9.639  -2.712  -1.591  1.00  0.00     0.015 C 
ATOM     19  C   UNL     1     -10.106  -3.766  -0.578  1.00  0.00     0.010 C 
BRANCH  18  20
ATOM     20  C   UNL     1      -9.353  -1.361  -0.906  1.00  0.00     0.002 C 
ATOM     21  C   UNL     1      -9.824  -1.316   0.544  1.00  0.00     0.004 C 
ENDBRANCH  18  20
ENDBRANCH  11  18
ENDBRANCH   8  11
ENDBRANCH   3   7
ENDBRANCH   1   2
BRANCH   1  22
ATOM     22  N   UNL     1      -5.544  -9.101  -5.265  1.00  0.00    -0.348 N 
ATOM     23  C   UNL     1      -5.827  -9.713  -6.456  1.00  0.00     0.249 C 
ATOM     24  O   UNL     1      -6.382 -10.803  -6.537  1.00  0.00    -0.272 OA
ATOM     25  H   UNL     1      -5.066  -8.202  -5.315  1.00  0.00     0.163 HD
BRANCH  23  26
ATOM     26  C   UNL     1      -5.431  -8.861  -7.672  1.00  0.00     0.238 C 
ATOM     27  N   UNL     1      -6.656  -8.271  -8.278  1.00  0.00    -0.236 NA
ATOM     28  C   UNL     1      -4.562  -7.678  -7.278  1.00  0.00     0.206 C 
ATOM     29  C   UNL     1      -6.539  -7.004  -8.013  1.00  0.00     0.208 C 
ATOM     30  O   UNL     1      -5.447  -6.561  -7.342  1.00  0.00    -0.474 OA
ATOM     31  C   UNL     1      -3.415  -7.446  -8.253  1.00  0.00     0.056 C 
BRANCH  29  32
ATOM     32  C   UNL     1      -7.557  -5.914  -8.338  1.00  0.00     0.171 C 
BRANCH  32  33
ATOM     33  N   UNL     1      -7.299  -4.713  -7.559  1.00  0.00    -0.342 N 
ATOM     34  C   UNL     1      -8.304  -3.970  -6.988  1.00  0.00     0.246 CG0
ATOM     35  O   UNL     1      -9.495  -4.247  -7.111  1.00  0.00    -0.273 OA
ATOM     36  H   UNL     1      -6.356  -4.358  -7.441  1.00  0.00     0.164 HD
ATOM     37  G   UNL     1      -7.817  -2.773  -6.156  1.00  0.00     0.000 G0
ENDBRANCH  32  33
BRANCH  32  38
ATOM     38  C   UNL     1      -7.587  -5.637  -9.865  1.00  0.00     0.017 C 
ATOM     39  C   UNL     1      -8.937  -6.068 -10.451  1.00  0.00     0.010 C 
BRANCH  38  40
ATOM     40  C   UNL     1      -7.255  -4.169 -10.218  1.00  0.00     0.002 C 
ATOM     41  C   UNL     1      -8.456  -3.377 -10.719  1.00  0.00     0.004 C 
ENDBRANCH  38  40
ENDBRANCH  32  38
ENDBRANCH  29  32
ENDBRANCH  23  26
ENDBRANCH   1  22
TORSDOF 4
ENDMDL
MODEL 2
REMARK VINA RESULT:    -4.838      9.852     14.084
REMARK INTER + INTRA:          -9.891
REMARK INTER:                  -8.027
REMARK INTRA:                  -1.864
REMARK UNBOUND:                -1.659
REMARK SMILES CC[C@H](C)[C@@H]1NC(=O)[C@H]2CSC(=N2)[C@@H]([C@@H](C)CC)NC(=O)c2csc(n2)CNC(=O)[C@H]2N=C1O[C@@H]2C
REMARK SMILES IDX 27 1 25 2 22 3 26 4 23 5 24 6 20 7 19 8 21 9 14 11 12 12
REMARK SMILES IDX 11 13 10 14 13 15 9 16 15 18 16 19 17 20 18 21 28 22 29 23
REMARK SMILES IDX 30 24 31 26 32 27 35 28 33 29 34 30 36 31 5 32 6 33 7 34
REMARK SMILES IDX 8 35 3 38 4 39 2 40 1 41
REMARK H PARENT 19 10 28 25 6 36
REMARK Flexibility Score:   91.900
ROOT
ATOM      1  C   UNL     1     -18.605  -0.185   4.437  1.00  0.00     0.183 C 
ENDROOT
BRANCH   1   2
ATOM      2  C   UNL     1     -18.178  -1.096   5.551  1.00  0.00     0.113 A 
ATOM      3  C   UNL     1     -17.565  -2.967   6.596  1.00  0.00     0.139 A 
ATOM      4  N   UNL     1     -17.787  -2.344   5.367  1.00  0.00    -0.234 NA
ATOM      5  C   UNL     1     -17.741  -2.146   7.693  1.00  0.00     0.101 A 
ATOM      6  S   UNL     1     -18.215  -0.576   7.187  1.00  0.00    -0.125 S 
BRANCH   3   7
ATOM      7  C   UNL     1     -17.219  -4.389   6.646  1.00  0.00     0.271 C 
ATOM      8  N   UNL     1     -15.889  -4.576   6.933  1.00  0.00    -0.341 N 
ATOM      9  O   UNL     1     -18.016  -5.292   6.423  1.00  0.00    -0.267 OA
ATOM     10  H   UNL     1     -15.355  -3.728   7.117  1.00  0.00     0.164 HD
BRANCH   8  11
ATOM     11  C   UNL     1     -15.212  -5.861   6.866  1.00  0.00     0.140 C 
BRANCH  11  12
ATOM     12  C   UNL     1     -13.986  -5.699   5.964  1.00  0.00     0.091 C 
ATOM     13  S   UNL     1     -12.383  -6.040   6.574  1.00  0.00    -0.106 SA
ATOM     14  C   UNL     1     -11.715  -5.965   4.898  1.00  0.00     0.113 C 
ATOM     15  N   UNL     1     -14.078  -5.240   4.755  1.00  0.00    -0.267 NA
ATOM     16  C   UNL     1     -12.714  -5.091   4.156  1.00  0.00     0.205 CG0
ATOM     17  G   UNL     1     -12.267  -3.620   4.171  1.00  0.00     0.000 G0
ENDBRANCH  11  12
BRANCH  11  18
ATOM     18  C   UNL     1     -14.968  -6.517   8.249  1.00  0.00     0.015 C 
ATOM     19  C   UNL     1     -15.148  -5.485   9.371  1.00  0.00     0.010 C 
BRANCH  18  20
ATOM     20  C   UNL     1     -15.799  -7.789   8.515  1.00  0.00     0.002 C 
ATOM     21  C   UNL     1     -16.865  -7.590   9.587  1.00  0.00     0.004 C 
ENDBRANCH  18  20
ENDBRANCH  11  18
ENDBRANCH   8  11
ENDBRANCH   3   7
ENDBRANCH   1   2
BRANCH   1  22
ATOM     22  N   UNL     1     -17.501  -0.090   3.508  1.00  0.00    -0.348 N 
ATOM     23  C   UNL     1     -16.517   0.860   3.562  1.00  0.00     0.249 C 
ATOM     24  O   UNL     1     -16.427   1.684   4.465  1.00  0.00    -0.272 OA
ATOM     25  H   UNL     1     -17.489  -0.715   2.703  1.00  0.00     0.163 HD
BRANCH  23  26
ATOM     26  C   UNL     1     -15.510   0.741   2.408  1.00  0.00     0.238 C 
ATOM     27  N   UNL     1     -14.141   0.568   2.967  1.00  0.00    -0.236 NA
ATOM     28  C   UNL     1     -15.761  -0.494   1.560  1.00  0.00     0.206 C 
ATOM     29  C   UNL     1     -13.844  -0.658   2.656  1.00  0.00     0.208 C 
ATOM     30  O   UNL     1     -14.737  -1.403   1.960  1.00  0.00    -0.474 OA
ATOM     31  C   UNL     1     -15.613  -0.219   0.069  1.00  0.00     0.056 C 
BRANCH  29  32
ATOM     32  C   UNL     1     -12.573  -1.408   3.045  1.00  0.00     0.171 C 
BRANCH  32  33
ATOM     33  N   UNL     1     -12.832  -2.833   3.183  1.00  0.00    -0.342 N 
ATOM     34  C   UNL     1     -12.237  -3.604   4.152  1.00  0.00     0.246 CG0
ATOM     35  O   UNL     1     -11.425  -3.158   4.959  1.00  0.00    -0.273 OA
ATOM     36  H   UNL     1     -13.441  -3.320   2.534  1.00  0.00     0.164 HD
ATOM     37  G   UNL     1     -12.690  -5.073   4.165  1.00  0.00     0.000 G0
ENDBRANCH  32  33
BRANCH  32  38
ATOM     38  C   UNL     1     -11.434  -1.105   2.036  1.00  0.00     0.017 C 
ATOM     39  C   UNL     1     -10.128  -0.819   2.787  1.00  0.00     0.010 C 
BRANCH  38  40
ATOM     40  C   UNL     1     -11.252  -2.220   0.981  1.00  0.00     0.002 C 
ATOM     41  C   UNL     1      -9.991  -3.051   1.183  1.00  0.00     0.004 C 
ENDBRANCH  38  40
ENDBRANCH  32  38
ENDBRANCH  29  32
ENDBRANCH  23  26
ENDBRANCH   1  22
TORSDOF 4
ENDMDL
MODEL 3
REMARK VINA RESULT:    -4.678      3.070      5.055
REMARK INTER + INTRA:          -9.619
REMARK INTER:                  -7.934
REMARK INTRA:                  -1.685
REMARK UNBOUND:                -1.659
REMARK SMILES CC[C@H](C)[C@@H]1NC(=O)[C@H]2CSC(=N2)[C@@H]([C@@H](C)CC)NC(=O)c2csc(n2)CNC(=O)[C@H]2N=C1O[C@@H]2C
REMARK SMILES IDX 27 1 25 2 22 3 26 4 23 5 24 6 20 7 19 8 21 9 14 11 12 12
REMARK SMILES IDX 11 13 10 14 13 15 9 16 15 18 16 19 17 20 18 21 28 22 29 23
REMARK SMILES IDX 30 24 31 26 32 27 35 28 33 29 34 30 36 31 5 32 6 33 7 34
REMARK SMILES IDX 8 35 3 38 4 39 2 40 1 41
REMARK H PARENT 19 10 28 25 6 36
REMARK Flexibility Score:   91.900
ROOT
ATOM      1  C   UNL     1      -8.980  -5.056   0.385  1.00  0.00     0.183 C 
ENDROOT
BRANCH   1   2
ATOM      2  C   UNL     1      -9.337  -3.601   0.288  1.00  0.00     0.113 A 
ATOM      3  C   UNL     1      -9.110  -1.421  -0.115  1.00  0.00     0.139 A 
ATOM      4  N   UNL     1      -8.564  -2.695  -0.282  1.00  0.00    -0.234 NA
ATOM      5  C   UNL     1     -10.329  -1.402   0.534  1.00  0.00     0.101 A 
ATOM      6  S   UNL     1     -10.792  -2.996   0.968  1.00  0.00    -0.125 S 
BRANCH   3   7
ATOM      7  C   UNL     1      -8.375  -0.242  -0.579  1.00  0.00     0.271 C 
ATOM      8  N   UNL     1      -9.112   0.495  -1.473  1.00  0.00    -0.341 N 
ATOM      9  O   UNL     1      -7.232   0.027  -0.232  1.00  0.00    -0.267 OA
ATOM     10  H   UNL     1     -10.059   0.158  -1.646  1.00  0.00     0.164 HD
BRANCH   8  11
ATOM     11  C   UNL     1      -8.586   1.609  -2.244  1.00  0.00     0.140 C 
BRANCH  11  12
ATOM     12  C   UNL     1      -8.163   1.074  -3.615  1.00  0.00     0.091 C 
ATOM     13  S   UNL     1      -8.788   1.794  -5.080  1.00  0.00    -0.106 SA
ATOM     14  C   UNL     1      -7.576   0.884  -6.060  1.00  0.00     0.113 C 
ATOM     15  N   UNL     1      -7.397   0.037  -3.740  1.00  0.00    -0.267 NA
ATOM     16  C   UNL     1      -7.243  -0.316  -5.187  1.00  0.00     0.205 CG0
ATOM     17  G   UNL     1      -8.127  -1.519  -5.555  1.00  0.00     0.000 G0
ENDBRANCH  11  12
BRANCH  11  18
ATOM     18  C   UNL     1      -9.500   2.862  -2.245  1.00  0.00     0.015 C 
ATOM     19  C   UNL     1     -10.656   2.682  -1.251  1.00  0.00     0.010 C 
BRANCH  18  20
ATOM     20  C   UNL     1      -8.763   4.197  -2.016  1.00  0.00     0.002 C 
ATOM     21  C   UNL     1      -8.955   4.749  -0.608  1.00  0.00     0.004 C 
ENDBRANCH  18  20
ENDBRANCH  11  18
ENDBRANCH   8  11
ENDBRANCH   3   7
ENDBRANCH   1   2
BRANCH   1  22
ATOM     22  N   UNL     1      -8.373  -5.438  -0.870  1.00  0.00    -0.348 N 
ATOM     23  C   UNL     1      -8.915  -6.324  -1.761  1.00  0.00     0.249 C 
ATOM     24  O   UNL     1     -10.025  -6.825  -1.620  1.00  0.00    -0.272 OA
ATOM     25  H   UNL     1      -7.436  -5.096  -1.079  1.00  0.00     0.163 HD
BRANCH  23  26
ATOM     26  C   UNL     1      -8.012  -6.572  -2.978  1.00  0.00     0.238 C 
ATOM     27  N   UNL     1      -8.669  -6.024  -4.197  1.00  0.00    -0.236 NA
ATOM     28  C   UNL     1      -6.688  -5.836  -2.864  1.00  0.00     0.206 C 
ATOM     29  C   UNL     1      -7.920  -5.009  -4.509  1.00  0.00     0.208 C 
ATOM     30  O   UNL     1      -6.830  -4.728  -3.753  1.00  0.00    -0.474 OA
ATOM     31  C   UNL     1      -5.508  -6.680  -3.324  1.00  0.00     0.056 C 
BRANCH  29  32
ATOM     32  C   UNL     1      -8.163  -4.021  -5.646  1.00  0.00     0.171 C 
BRANCH  32  33
ATOM     33  N   UNL     1      -7.488  -2.758  -5.390  1.00  0.00    -0.342 N 
ATOM     34  C   UNL     1      -8.104  -1.541  -5.560  1.00  0.00     0.246 CG0
ATOM     35  O   UNL     1      -9.258  -1.425  -5.964  1.00  0.00    -0.273 OA
ATOM     36  H   UNL     1      -6.514  -2.732  -5.109  1.00  0.00     0.164 HD
ATOM     37  G   UNL     1      -7.237  -0.330  -5.179  1.00  0.00     0.000 G0
ENDBRANCH  32  33
BRANCH  32  38
ATOM     38  C   UNL     1      -7.756  -4.648  -7.006  1.00  0.00     0.017 C 
ATOM     39  C   UNL     1      -8.864  -4.424  -8.042  1.00  0.00     0.010 C 
BRANCH  38  40
ATOM     40  C   UNL     1      -6.387  -4.142  -7.517  1.00  0.00     0.002 C 
ATOM     41  C   UNL     1      -5.618  -5.179  -8.325  1.00  0.00     0.004 C 
ENDBRANCH  38  40
ENDBRANCH  32  38
ENDBRANCH  29  32
ENDBRANCH  23  26
ENDBRANCH   1  22
TORSDOF 4
ENDMDL
MODEL 4
REMARK VINA RESULT:    -4.664     11.029     14.539
REMARK INTER + INTRA:          -9.595
REMARK INTER:                  -8.106
REMARK INTRA:                  -1.489
REMARK UNBOUND:                -1.659
REMARK SMILES CC[C@H](C)[C@@H]1NC(=O)[C@H]2CSC(=N2)[C@@H]([C@@H](C)CC)NC(=O)c2csc(n2)CNC(=O)[C@H]2N=C1O[C@@H]2C
REMARK SMILES IDX 27 1 25 2 22 3 26 4 23 5 24 6 20 7 19 8 21 9 14 11 12 12
REMARK SMILES IDX 11 13 10 14 13 15 9 16 15 18 16 19 17 20 18 21 28 22 29 23
REMARK SMILES IDX 30 24 31 26 32 27 35 28 33 29 34 30 36 31 5 32 6 33 7 34
REMARK SMILES IDX 8 35 3 38 4 39 2 40 1 41
REMARK H PARENT 19 10 28 25 6 36
REMARK Flexibility Score:   91.900
ROOT
ATOM      1  C   UNL     1     -11.697  -5.566   4.468  1.00  0.00     0.183 C 
ENDROOT
BRANCH   1   2
ATOM      2  C   UNL     1     -11.685  -5.646   5.967  1.00  0.00     0.113 A 
ATOM      3  C   UNL     1     -12.455  -5.718   8.058  1.00  0.00     0.139 A 
ATOM      4  N   UNL     1     -12.774  -5.793   6.700  1.00  0.00    -0.234 NA
ATOM      5  C   UNL     1     -11.107  -5.572   8.321  1.00  0.00     0.101 A 
ATOM      6  S   UNL     1     -10.221  -5.502   6.853  1.00  0.00    -0.125 S 
BRANCH   3   7
ATOM      7  C   UNL     1     -13.519  -5.755   9.064  1.00  0.00     0.271 C 
ATOM      8  N   UNL     1     -14.761  -5.825   8.484  1.00  0.00    -0.341 N 
ATOM      9  O   UNL     1     -13.317  -5.695  10.270  1.00  0.00    -0.267 OA
ATOM     10  H   UNL     1     -14.770  -5.892   7.466  1.00  0.00     0.164 HD
BRANCH   8  11
ATOM     11  C   UNL     1     -16.012  -5.689   9.212  1.00  0.00     0.140 C 
BRANCH  11  12
ATOM     12  C   UNL     1     -16.652  -4.359   8.802  1.00  0.00     0.091 C 
ATOM     13  S   UNL     1     -18.389  -4.167   8.821  1.00  0.00    -0.106 SA
ATOM     14  C   UNL     1     -18.207  -2.385   8.603  1.00  0.00     0.113 C 
ATOM     15  N   UNL     1     -15.947  -3.365   8.362  1.00  0.00    -0.267 NA
ATOM     16  C   UNL     1     -16.846  -2.245   7.940  1.00  0.00     0.205 CG0
ATOM     17  G   UNL     1     -16.988  -2.203   6.409  1.00  0.00     0.000 G0
ENDBRANCH  11  12
BRANCH  11  18
ATOM     18  C   UNL     1     -16.922  -6.942   9.142  1.00  0.00     0.015 C 
ATOM     19  C   UNL     1     -16.176  -8.108   8.479  1.00  0.00     0.010 C 
BRANCH  18  20
ATOM     20  C   UNL     1     -17.544  -7.364  10.488  1.00  0.00     0.002 C 
ATOM     21  C   UNL     1     -16.715  -6.924  11.690  1.00  0.00     0.004 C 
ENDBRANCH  18  20
ENDBRANCH  11  18
ENDBRANCH   8  11
ENDBRANCH   3   7
ENDBRANCH   1   2
BRANCH   1  22
ATOM     22  N   UNL     1     -12.106  -4.227   4.109  1.00  0.00    -0.348 N 
ATOM     23  C   UNL     1     -12.290  -3.785   2.827  1.00  0.00     0.249 C 
ATOM     24  O   UNL     1     -12.206  -4.515   1.846  1.00  0.00    -0.272 OA
ATOM     25  H   UNL     1     -12.184  -3.529   4.849  1.00  0.00     0.163 HD
BRANCH  23  26
ATOM     26  C   UNL     1     -12.670  -2.298   2.759  1.00  0.00     0.238 C 
ATOM     27  N   UNL     1     -14.152  -2.174   2.667  1.00  0.00    -0.236 NA
ATOM     28  C   UNL     1     -12.277  -1.552   4.022  1.00  0.00     0.206 C 
ATOM     29  C   UNL     1     -14.480  -1.664   3.817  1.00  0.00     0.208 C 
ATOM     30  O   UNL     1     -13.510  -1.378   4.720  1.00  0.00    -0.474 OA
ATOM     31  C   UNL     1     -11.687  -0.179   3.729  1.00  0.00     0.056 C 
BRANCH  29  32
ATOM     32  C   UNL     1     -15.896  -1.385   4.312  1.00  0.00     0.171 C 
BRANCH  32  33
ATOM     33  N   UNL     1     -15.972  -1.500   5.760  1.00  0.00    -0.342 N 
ATOM     34  C   UNL     1     -16.976  -2.192   6.396  1.00  0.00     0.246 CG0
ATOM     35  O   UNL     1     -17.895  -2.742   5.796  1.00  0.00    -0.273 OA
ATOM     36  H   UNL     1     -15.298  -1.036   6.359  1.00  0.00     0.164 HD
ATOM     37  G   UNL     1     -16.841  -2.244   7.926  1.00  0.00     0.000 G0
ENDBRANCH  32  33
BRANCH  32  38
ATOM     38  C   UNL     1     -16.388  -0.006   3.798  1.00  0.00     0.017 C 
ATOM     39  C   UNL     1     -15.798   1.118   4.659  1.00  0.00     0.010 C 
BRANCH  38  40
ATOM     40  C   UNL     1     -16.098   0.216   2.296  1.00  0.00     0.002 C 
ATOM     41  C   UNL     1     -17.111   1.122   1.607  1.00  0.00     0.004 C 
ENDBRANCH  38  40
ENDBRANCH  32  38
ENDBRANCH  29  32
ENDBRANCH  23  26
ENDBRANCH   1  22
TORSDOF 4
ENDMDL
MODEL 5
REMARK VINA RESULT:    -4.494      4.896      8.427
REMARK INTER + INTRA:          -9.306
REMARK INTER:                  -7.893
REMARK INTRA:                  -1.413
REMARK UNBOUND:                -1.659
REMARK SMILES CC[C@H](C)[C@@H]1NC(=O)[C@H]2CSC(=N2)[C@@H]([C@@H](C)CC)NC(=O)c2csc(n2)CNC(=O)[C@H]2N=C1O[C@@H]2C
REMARK SMILES IDX 27 1 25 2 22 3 26 4 23 5 24 6 20 7 19 8 21 9 14 11 12 12
REMARK SMILES IDX 11 13 10 14 13 15 9 16 15 18 16 19 17 20 18 21 28 22 29 23
REMARK SMILES IDX 30 24 31 26 32 27 35 28 33 29 34 30 36 31 5 32 6 33 7 34
REMARK SMILES IDX 8 35 3 38 4 39 2 40 1 41
REMARK H PARENT 19 10 28 25 6 36
REMARK Flexibility Score:   91.900
ROOT
ATOM      1  C   UNL     1      -8.525   1.082  -3.847  1.00  0.00     0.183 C 
ENDROOT
BRANCH   1   2
ATOM      2  C   UNL     1      -8.591   1.322  -2.366  1.00  0.00     0.113 A 
ATOM      3  C   UNL     1      -9.422   1.390  -0.299  1.00  0.00     0.139 A 
ATOM      4  N   UNL     1      -9.592   0.922  -1.604  1.00  0.00    -0.234 NA
ATOM      5  C   UNL     1      -8.251   2.093  -0.092  1.00  0.00     0.101 A 
ATOM      6  S   UNL     1      -7.356   2.195  -1.553  1.00  0.00    -0.125 S 
BRANCH   3   7
ATOM      7  C   UNL     1     -10.462   1.155   0.705  1.00  0.00     0.271 C 
ATOM      8  N   UNL     1     -10.010   0.349   1.721  1.00  0.00    -0.341 N 
ATOM      9  O   UNL     1     -11.600   1.598   0.623  1.00  0.00    -0.267 OA
ATOM     10  H   UNL     1      -9.029   0.077   1.665  1.00  0.00     0.164 HD
BRANCH   8  11
ATOM     11  C   UNL     1     -10.860  -0.210   2.760  1.00  0.00     0.140 C 
BRANCH  11  12
ATOM     12  C   UNL     1     -10.833  -1.735   2.618  1.00  0.00     0.091 C 
ATOM     13  S   UNL     1     -10.226  -2.737   3.916  1.00  0.00    -0.106 SA
ATOM     14  C   UNL     1     -10.879  -4.210   3.102  1.00  0.00     0.113 C 
ATOM     15  N   UNL     1     -11.184  -2.329   1.521  1.00  0.00    -0.267 NA
ATOM     16  C   UNL     1     -10.953  -3.803   1.638  1.00  0.00     0.205 CG0
ATOM     17  G   UNL     1      -9.674  -4.219   0.893  1.00  0.00     0.000 G0
ENDBRANCH  11  12
BRANCH  11  18
ATOM     18  C   UNL     1     -10.580   0.355   4.176  1.00  0.00     0.015 C 
ATOM     19  C   UNL     1      -9.152   0.911   4.257  1.00  0.00     0.010 C 
BRANCH  18  20
ATOM     20  C   UNL     1     -11.614   1.384   4.675  1.00  0.00     0.002 C 
ATOM     21  C   UNL     1     -11.191   2.075   5.966  1.00  0.00     0.004 C 
ENDBRANCH  18  20
ENDBRANCH  11  18
ENDBRANCH   8  11
ENDBRANCH   3   7
ENDBRANCH   1   2
BRANCH   1  22
ATOM     22  N   UNL     1      -8.703  -0.337  -4.064  1.00  0.00    -0.348 N 
ATOM     23  C   UNL     1      -7.781  -1.296  -3.745  1.00  0.00     0.249 C 
ATOM     24  O   UNL     1      -6.733  -1.052  -3.158  1.00  0.00    -0.272 OA
ATOM     25  H   UNL     1      -9.533  -0.650  -4.566  1.00  0.00     0.163 HD
BRANCH  23  26
ATOM     26  C   UNL     1      -8.230  -2.710  -4.145  1.00  0.00     0.238 C 
ATOM     27  N   UNL     1      -7.726  -3.687  -3.140  1.00  0.00    -0.236 NA
ATOM     28  C   UNL     1      -9.742  -2.852  -4.128  1.00  0.00     0.206 C 
ATOM     29  C   UNL     1      -8.809  -4.082  -2.540  1.00  0.00     0.208 C 
ATOM     30  O   UNL     1     -10.008  -3.586  -2.934  1.00  0.00    -0.474 OA
ATOM     31  C   UNL     1     -10.267  -3.649  -5.315  1.00  0.00     0.056 C 
BRANCH  29  32
ATOM     32  C   UNL     1      -8.888  -5.043  -1.357  1.00  0.00     0.171 C 
BRANCH  32  33
ATOM     33  N   UNL     1      -9.942  -4.647  -0.436  1.00  0.00    -0.342 N 
ATOM     34  C   UNL     1      -9.688  -4.254   0.856  1.00  0.00     0.246 CG0
ATOM     35  O   UNL     1      -8.559  -4.232   1.340  1.00  0.00    -0.273 OA
ATOM     36  H   UNL     1     -10.918  -4.683  -0.709  1.00  0.00     0.164 HD
ATOM     37  G   UNL     1     -10.933  -3.819   1.647  1.00  0.00     0.000 G0
ENDBRANCH  32  33
BRANCH  32  38
ATOM     38  C   UNL     1      -9.051  -6.504  -1.854  1.00  0.00     0.017 C 
ATOM     39  C   UNL     1      -8.233  -6.719  -3.134  1.00  0.00     0.010 C 
BRANCH  38  40
ATOM     40  C   UNL     1      -8.701  -7.551  -0.772  1.00  0.00     0.002 C 
ATOM     41  C   UNL     1      -7.299  -7.390  -0.199  1.00  0.00     0.004 C 
ENDBRANCH  38  40
ENDBRANCH  32  38
ENDBRANCH  29  32
ENDBRANCH  23  26
ENDBRANCH   1  22
TORSDOF 4
ENDMDL
MODEL 6
REMARK VINA RESULT:    -4.345      2.727      5.616
REMARK INTER + INTRA:          -9.053
REMARK INTER:                  -8.430
REMARK INTRA:                  -0.622
REMARK UNBOUND:                -1.659
REMARK SMILES CC[C@H](C)[C@@H]1NC(=O)[C@H]2CSC(=N2)[C@@H]([C@@H](C)CC)NC(=O)c2csc(n2)CNC(=O)[C@H]2N=C1O[C@@H]2C
REMARK SMILES IDX 27 1 25 2 22 3 26 4 23 5 24 6 20 7 19 8 21 9 14 11 12 12
REMARK SMILES IDX 11 13 10 14 13 15 9 16 15 18 16 19 17 20 18 21 28 22 29 23
REMARK SMILES IDX 30 24 31 26 32 27 35 28 33 29 34 30 36 31 5 32 6 33 7 34
REMARK SMILES IDX 8 35 3 38 4 39 2 40 1 41
REMARK H PARENT 19 10 28 25 6 36
REMARK Flexibility Score:   91.900
ROOT
ATOM      1  C   UNL     1      -7.774  -4.513  -2.626  1.00  0.00     0.183 C 
ENDROOT
BRANCH   1   2
ATOM      2  C   UNL     1      -7.934  -3.151  -3.238  1.00  0.00     0.113 A 
ATOM      3  C   UNL     1      -7.996  -1.560  -4.797  1.00  0.00     0.139 A 
ATOM      4  N   UNL     1      -7.949  -2.932  -4.540  1.00  0.00    -0.234 NA
ATOM      5  C   UNL     1      -8.076  -0.769  -3.668  1.00  0.00     0.101 A 
ATOM      6  S   UNL     1      -8.067  -1.748  -2.258  1.00  0.00    -0.125 S 
BRANCH   3   7
ATOM      7  C   UNL     1      -7.921  -1.070  -6.175  1.00  0.00     0.271 C 
ATOM      8  N   UNL     1      -7.248  -1.948  -6.988  1.00  0.00    -0.341 N 
ATOM      9  O   UNL     1      -8.375   0.008  -6.539  1.00  0.00    -0.267 OA
ATOM     10  H   UNL     1      -6.949  -2.817  -6.547  1.00  0.00     0.164 HD
BRANCH   8  11
ATOM     11  C   UNL     1      -6.852  -1.655  -8.356  1.00  0.00     0.140 C 
BRANCH  11  12
ATOM     12  C   UNL     1      -7.495  -2.705  -9.266  1.00  0.00     0.091 C 
ATOM     13  S   UNL     1      -9.232  -2.774  -9.453  1.00  0.00    -0.106 SA
ATOM     14  C   UNL     1      -9.051  -3.914 -10.841  1.00  0.00     0.113 C 
ATOM     15  N   UNL     1      -6.795  -3.617  -9.865  1.00  0.00    -0.267 NA
ATOM     16  C   UNL     1      -7.698  -4.563 -10.593  1.00  0.00     0.205 CG0
ATOM     17  G   UNL     1      -7.861  -5.877  -9.812  1.00  0.00     0.000 G0
ENDBRANCH  11  12
BRANCH  11  18
ATOM     18  C   UNL     1      -7.050  -0.174  -8.766  1.00  0.00     0.015 C 
ATOM     19  C   UNL     1      -5.828   0.662  -8.362  1.00  0.00     0.010 C 
BRANCH  18  20
ATOM     20  C   UNL     1      -7.415   0.042 -10.249  1.00  0.00     0.002 C 
ATOM     21  C   UNL     1      -7.298   1.498 -10.686  1.00  0.00     0.004 C 
ENDBRANCH  18  20
ENDBRANCH  11  18
ENDBRANCH   8  11
ENDBRANCH   3   7
ENDBRANCH   1   2
BRANCH   1  22
ATOM     22  N   UNL     1      -6.877  -5.266  -3.475  1.00  0.00    -0.348 N 
ATOM     23  C   UNL     1      -7.163  -6.489  -4.019  1.00  0.00     0.249 C 
ATOM     24  O   UNL     1      -8.254  -7.036  -3.909  1.00  0.00    -0.272 OA
ATOM     25  H   UNL     1      -5.932  -4.913  -3.615  1.00  0.00     0.163 HD
BRANCH  23  26
ATOM     26  C   UNL     1      -5.993  -7.067  -4.830  1.00  0.00     0.238 C 
ATOM     27  N   UNL     1      -6.530  -7.906  -5.937  1.00  0.00    -0.236 NA
ATOM     28  C   UNL     1      -5.176  -5.978  -5.505  1.00  0.00     0.206 C 
ATOM     29  C   UNL     1      -6.240  -7.217  -7.001  1.00  0.00     0.208 C 
ATOM     30  O   UNL     1      -5.576  -6.042  -6.873  1.00  0.00    -0.474 OA
ATOM     31  C   UNL     1      -3.677  -6.237  -5.424  1.00  0.00     0.056 C 
BRANCH  29  32
ATOM     32  C   UNL     1      -6.621  -7.567  -8.437  1.00  0.00     0.171 C 
BRANCH  32  33
ATOM     33  N   UNL     1      -6.674  -6.372  -9.265  1.00  0.00    -0.342 N 
ATOM     34  C   UNL     1      -7.848  -5.887  -9.791  1.00  0.00     0.246 CG0
ATOM     35  O   UNL     1      -8.934  -6.436  -9.625  1.00  0.00    -0.273 OA
ATOM     36  H   UNL     1      -5.829  -5.871  -9.517  1.00  0.00     0.164 HD
ATOM     37  G   UNL     1      -7.696  -4.582 -10.589  1.00  0.00     0.000 G0
ENDBRANCH  32  33
BRANCH  32  38
ATOM     38  C   UNL     1      -5.661  -8.643  -9.006  1.00  0.00     0.017 C 
ATOM     39  C   UNL     1      -6.285 -10.037  -8.860  1.00  0.00     0.010 C 
BRANCH  38  40
ATOM     40  C   UNL     1      -5.235  -8.361 -10.466  1.00  0.00     0.002 C 
ATOM     41  C   UNL     1      -4.225  -9.361 -11.011  1.00  0.00     0.004 C 
ENDBRANCH  38  40
ENDBRANCH  32  38
ENDBRANCH  29  32
ENDBRANCH  23  26
ENDBRANCH   1  22
TORSDOF 4
ENDMDL
MODEL 7
REMARK VINA RESULT:    -4.235     10.809     15.038
REMARK INTER + INTRA:          -8.865
REMARK INTER:                  -7.597
REMARK INTRA:                  -1.268
REMARK UNBOUND:                -1.659
REMARK SMILES CC[C@H](C)[C@@H]1NC(=O)[C@H]2CSC(=N2)[C@@H]([C@@H](C)CC)NC(=O)c2csc(n2)CNC(=O)[C@H]2N=C1O[C@@H]2C
REMARK SMILES IDX 27 1 25 2 22 3 26 4 23 5 24 6 20 7 19 8 21 9 14 11 12 12
REMARK SMILES IDX 11 13 10 14 13 15 9 16 15 18 16 19 17 20 18 21 28 22 29 23
REMARK SMILES IDX 30 24 31 26 32 27 35 28 33 29 34 30 36 31 5 32 6 33 7 34
REMARK SMILES IDX 8 35 3 38 4 39 2 40 1 41
REMARK H PARENT 19 10 28 25 6 36
REMARK Flexibility Score:   91.900
ROOT
ATOM      1  C   UNL     1     -17.738  -0.338   5.021  1.00  0.00     0.183 C 
ENDROOT
BRANCH   1   2
ATOM      2  C   UNL     1     -17.730  -1.161   6.278  1.00  0.00     0.113 A 
ATOM      3  C   UNL     1     -17.762  -2.960   7.592  1.00  0.00     0.139 A 
ATOM      4  N   UNL     1     -17.624  -2.477   6.289  1.00  0.00    -0.234 NA
ATOM      5  C   UNL     1     -17.914  -1.980   8.553  1.00  0.00     0.101 A 
ATOM      6  S   UNL     1     -17.908  -0.428   7.819  1.00  0.00    -0.125 S 
BRANCH   3   7
ATOM      7  C   UNL     1     -17.779  -4.403   7.840  1.00  0.00     0.271 C 
ATOM      8  N   UNL     1     -16.560  -4.855   8.282  1.00  0.00    -0.341 N 
ATOM      9  O   UNL     1     -18.755  -5.116   7.643  1.00  0.00    -0.267 OA
ATOM     10  H   UNL     1     -15.849  -4.138   8.421  1.00  0.00     0.164 HD
BRANCH   8  11
ATOM     11  C   UNL     1     -16.215  -6.259   8.434  1.00  0.00     0.140 C 
BRANCH  11  12
ATOM     12  C   UNL     1     -14.862  -6.486   7.753  1.00  0.00     0.091 C 
ATOM     13  S   UNL     1     -13.520  -7.159   8.649  1.00  0.00    -0.106 SA
ATOM     14  C   UNL     1     -12.600  -7.400   7.114  1.00  0.00     0.113 C 
ATOM     15  N   UNL     1     -14.640  -6.126   6.528  1.00  0.00    -0.267 NA
ATOM     16  C   UNL     1     -13.208  -6.373   6.171  1.00  0.00     0.205 CG0
ATOM     17  G   UNL     1     -12.402  -5.065   6.198  1.00  0.00     0.000 G0
ENDBRANCH  11  12
BRANCH  11  18
ATOM     18  C   UNL     1     -16.354  -6.789   9.884  1.00  0.00     0.015 C 
ATOM     19  C   UNL     1     -16.445  -5.621  10.874  1.00  0.00     0.010 C 
BRANCH  18  20
ATOM     20  C   UNL     1     -17.503  -7.797  10.094  1.00  0.00     0.002 C 
ATOM     21  C   UNL     1     -18.633  -7.630   9.084  1.00  0.00     0.004 C 
ENDBRANCH  18  20
ENDBRANCH  11  18
ENDBRANCH   8  11
ENDBRANCH   3   7
ENDBRANCH   1   2
BRANCH   1  22
ATOM     22  N   UNL     1     -16.495  -0.594   4.328  1.00  0.00    -0.348 N 
ATOM     23  C   UNL     1     -15.400   0.226   4.364  1.00  0.00     0.249 C 
ATOM     24  O   UNL     1     -15.335   1.231   5.063  1.00  0.00    -0.272 OA
ATOM     25  H   UNL     1     -16.447  -1.394   3.699  1.00  0.00     0.163 HD
BRANCH  23  26
ATOM     26  C   UNL     1     -14.248  -0.281   3.483  1.00  0.00     0.238 C 
ATOM     27  N   UNL     1     -13.098  -0.660   4.350  1.00  0.00    -0.236 NA
ATOM     28  C   UNL     1     -14.623  -1.545   2.729  1.00  0.00     0.206 C 
ATOM     29  C   UNL     1     -13.055  -1.954   4.239  1.00  0.00     0.208 C 
ATOM     30  O   UNL     1     -13.949  -2.584   3.438  1.00  0.00    -0.474 OA
ATOM     31  C   UNL     1     -14.125  -1.537   1.290  1.00  0.00     0.056 C 
BRANCH  29  32
ATOM     32  C   UNL     1     -12.106  -2.894   4.977  1.00  0.00     0.171 C 
BRANCH  32  33
ATOM     33  N   UNL     1     -12.692  -4.217   5.119  1.00  0.00    -0.342 N 
ATOM     34  C   UNL     1     -12.406  -5.044   6.180  1.00  0.00     0.246 CG0
ATOM     35  O   UNL     1     -11.617  -4.742   7.071  1.00  0.00    -0.273 OA
ATOM     36  H   UNL     1     -13.313  -4.595   4.411  1.00  0.00     0.164 HD
ATOM     37  G   UNL     1     -13.175  -6.375   6.174  1.00  0.00     0.000 G0
ENDBRANCH  32  33
BRANCH  32  38
ATOM     38  C   UNL     1     -10.722  -2.929   4.275  1.00  0.00     0.017 C 
ATOM     39  C   UNL     1      -9.600  -2.842   5.317  1.00  0.00     0.010 C 
BRANCH  38  40
ATOM     40  C   UNL     1     -10.546  -4.156   3.351  1.00  0.00     0.002 C 
ATOM     41  C   UNL     1      -9.217  -4.174   2.608  1.00  0.00     0.004 C 
ENDBRANCH  38  40
ENDBRANCH  32  38
ENDBRANCH  29  32
ENDBRANCH  23  26
ENDBRANCH   1  22
TORSDOF 4
ENDMDL
MODEL 8
REMARK VINA RESULT:    -4.201      4.447     10.275
REMARK INTER + INTRA:          -8.807
REMARK INTER:                  -7.303
REMARK INTRA:                  -1.505
REMARK UNBOUND:                -1.659
REMARK SMILES CC[C@H](C)[C@@H]1NC(=O)[C@H]2CSC(=N2)[C@@H]([C@@H](C)CC)NC(=O)c2csc(n2)CNC(=O)[C@H]2N=C1O[C@@H]2C
REMARK SMILES IDX 27 1 25 2 22 3 26 4 23 5 24 6 20 7 19 8 21 9 14 11 12 12
REMARK SMILES IDX 11 13 10 14 13 15 9 16 15 18 16 19 17 20 18 21 28 22 29 23
REMARK SMILES IDX 30 24 31 26 32 27 35 28 33 29 34 30 36 31 5 32 6 33 7 34
REMARK SMILES IDX 8 35 3 38 4 39 2 40 1 41
REMARK H PARENT 19 10 28 25 6 36
REMARK Flexibility Score:   91.900
ROOT
ATOM      1  C   UNL     1      -8.966   3.041  -1.052  1.00  0.00     0.183 C 
ENDROOT
BRANCH   1   2
ATOM      2  C   UNL     1      -9.114   2.037  -2.160  1.00  0.00     0.113 A 
ATOM      3  C   UNL     1      -8.683   0.262  -3.437  1.00  0.00     0.139 A 
ATOM      4  N   UNL     1      -8.400   0.930  -2.243  1.00  0.00    -0.234 NA
ATOM      5  C   UNL     1      -9.660   0.861  -4.209  1.00  0.00     0.101 A 
ATOM      6  S   UNL     1     -10.219   2.294  -3.448  1.00  0.00    -0.125 S 
BRANCH   3   7
ATOM      7  C   UNL     1      -7.936  -0.945  -3.797  1.00  0.00     0.271 C 
ATOM      8  N   UNL     1      -8.754  -2.047  -3.855  1.00  0.00    -0.341 N 
ATOM      9  O   UNL     1      -6.727  -0.966  -3.986  1.00  0.00    -0.267 OA
ATOM     10  H   UNL     1      -9.745  -1.869  -3.696  1.00  0.00     0.164 HD
BRANCH   8  11
ATOM     11  C   UNL     1      -8.276  -3.412  -4.003  1.00  0.00     0.140 C 
BRANCH  11  12
ATOM     12  C   UNL     1      -8.560  -4.153  -2.694  1.00  0.00     0.091 C 
ATOM     13  S   UNL     1      -9.533  -5.606  -2.690  1.00  0.00    -0.106 SA
ATOM     14  C   UNL     1      -9.043  -5.944  -0.985  1.00  0.00     0.113 C 
ATOM     15  N   UNL     1      -8.160  -3.701  -1.548  1.00  0.00    -0.267 NA
ATOM     16  C   UNL     1      -8.672  -4.572  -0.443  1.00  0.00     0.205 CG0
ATOM     17  G   UNL     1      -9.876  -3.919   0.256  1.00  0.00     0.000 G0
ENDBRANCH  11  12
BRANCH  11  18
ATOM     18  C   UNL     1      -8.749  -4.107  -5.306  1.00  0.00     0.015 C 
ATOM     19  C   UNL     1     -10.087  -3.518  -5.772  1.00  0.00     0.010 C 
BRANCH  18  20
ATOM     20  C   UNL     1      -7.710  -4.116  -6.445  1.00  0.00     0.002 C 
ATOM     21  C   UNL     1      -7.968  -3.041  -7.495  1.00  0.00     0.004 C 
ENDBRANCH  18  20
ENDBRANCH  11  18
ENDBRANCH   8  11
ENDBRANCH   3   7
ENDBRANCH   1   2
BRANCH   1  22
ATOM     22  N   UNL     1      -9.572   2.472   0.131  1.00  0.00    -0.348 N 
ATOM     23  C   UNL     1      -8.916   1.694   1.046  1.00  0.00     0.249 C 
ATOM     24  O   UNL     1      -7.713   1.468   0.996  1.00  0.00    -0.272 OA
ATOM     25  H   UNL     1     -10.578   2.580   0.260  1.00  0.00     0.163 HD
BRANCH  23  26
ATOM     26  C   UNL     1      -9.837   1.189   2.167  1.00  0.00     0.238 C 
ATOM     27  N   UNL     1     -10.645   0.044   1.661  1.00  0.00    -0.236 NA
ATOM     28  C   UNL     1      -9.051   0.643   3.346  1.00  0.00     0.206 C 
ATOM     29  C   UNL     1     -10.165  -0.971   2.316  1.00  0.00     0.208 C 
ATOM     30  O   UNL     1      -9.170  -0.773   3.216  1.00  0.00    -0.474 OA
ATOM     31  C   UNL     1      -9.642   1.060   4.686  1.00  0.00     0.056 C 
BRANCH  29  32
ATOM     32  C   UNL     1     -10.572  -2.431   2.145  1.00  0.00     0.171 C 
BRANCH  32  33
ATOM     33  N   UNL     1      -9.571  -3.164   1.385  1.00  0.00    -0.342 N 
ATOM     34  C   UNL     1      -9.880  -3.891   0.260  1.00  0.00     0.246 CG0
ATOM     35  O   UNL     1     -11.024  -3.999  -0.174  1.00  0.00    -0.273 OA
ATOM     36  H   UNL     1      -8.602  -3.194   1.686  1.00  0.00     0.164 HD
ATOM     37  G   UNL     1      -8.670  -4.542  -0.430  1.00  0.00     0.000 G0
ENDBRANCH  32  33
BRANCH  32  38
ATOM     38  C   UNL     1     -10.862  -3.079   3.525  1.00  0.00     0.017 C 
ATOM     39  C   UNL     1     -12.190  -3.845   3.478  1.00  0.00     0.010 C 
BRANCH  38  40
ATOM     40  C   UNL     1      -9.706  -3.974   4.026  1.00  0.00     0.002 C 
ATOM     41  C   UNL     1     -10.012  -5.464   3.949  1.00  0.00     0.004 C 
ENDBRANCH  38  40
ENDBRANCH  32  38
ENDBRANCH  29  32
ENDBRANCH  23  26
ENDBRANCH   1  22
TORSDOF 4
ENDMDL
MODEL 9
REMARK VINA RESULT:    -4.067      9.298     12.391
REMARK INTER + INTRA:          -8.580
REMARK INTER:                  -6.672
REMARK INTRA:                  -1.908
REMARK UNBOUND:                -1.659
REMARK SMILES CC[C@H](C)[C@@H]1NC(=O)[C@H]2CSC(=N2)[C@@H]([C@@H](C)CC)NC(=O)c2csc(n2)CNC(=O)[C@H]2N=C1O[C@@H]2C
REMARK SMILES IDX 27 1 25 2 22 3 26 4 23 5 24 6 20 7 19 8 21 9 14 11 12 12
REMARK SMILES IDX 11 13 10 14 13 15 9 16 15 18 16 19 17 20 18 21 28 22 29 23
REMARK SMILES IDX 30 24 31 26 32 27 35 28 33 29 34 30 36 31 5 32 6 33 7 34
REMARK SMILES IDX 8 35 3 38 4 39 2 40 1 41
REMARK H PARENT 19 10 28 25 6 36
REMARK Flexibility Score:   91.900
ROOT
ATOM      1  C   UNL     1      -5.736   2.917 -12.585  1.00  0.00     0.183 C 
ENDROOT
BRANCH   1   2
ATOM      2  C   UNL     1      -5.079   4.043 -11.841  1.00  0.00     0.113 A 
ATOM      3  C   UNL     1      -3.459   5.322 -11.000  1.00  0.00     0.139 A 
ATOM      4  N   UNL     1      -3.781   4.286 -11.879  1.00  0.00    -0.234 NA
ATOM      5  C   UNL     1      -4.543   5.882 -10.353  1.00  0.00     0.101 A 
ATOM      6  S   UNL     1      -5.989   5.089 -10.829  1.00  0.00    -0.125 S 
BRANCH   3   7
ATOM      7  C   UNL     1      -2.059   5.702 -10.797  1.00  0.00     0.271 C 
ATOM      8  N   UNL     1      -1.204   4.677 -11.120  1.00  0.00    -0.341 N 
ATOM      9  O   UNL     1      -1.706   6.790 -10.361  1.00  0.00    -0.267 OA
ATOM     10  H   UNL     1      -1.645   3.837 -11.494  1.00  0.00     0.164 HD
BRANCH   8  11
ATOM     11  C   UNL     1       0.224   4.687 -10.850  1.00  0.00     0.140 C 
BRANCH  11  12
ATOM     12  C   UNL     1       0.508   3.624  -9.785  1.00  0.00     0.091 C 
ATOM     13  S   UNL     1       2.121   2.979  -9.584  1.00  0.00    -0.106 SA
ATOM     14  C   UNL     1       1.626   2.192  -8.036  1.00  0.00     0.113 C 
ATOM     15  N   UNL     1      -0.433   3.115  -9.055  1.00  0.00    -0.267 NA
ATOM     16  C   UNL     1       0.121   2.030  -8.185  1.00  0.00     0.205 CG0
ATOM     17  G   UNL     1      -0.223   0.643  -8.752  1.00  0.00     0.000 G0
ENDBRANCH  11  12
BRANCH  11  18
ATOM     18  C   UNL     1       1.107   4.641 -12.123  1.00  0.00     0.015 C 
ATOM     19  C   UNL     1       0.236   4.741 -13.383  1.00  0.00     0.010 C 
BRANCH  18  20
ATOM     20  C   UNL     1       2.255   5.670 -12.149  1.00  0.00     0.002 C 
ATOM     21  C   UNL     1       2.102   6.759 -11.093  1.00  0.00     0.004 C 
ENDBRANCH  18  20
ENDBRANCH  11  18
ENDBRANCH   8  11
ENDBRANCH   3   7
ENDBRANCH   1   2
BRANCH   1  22
ATOM     22  N   UNL     1      -5.601   1.726 -11.775  1.00  0.00    -0.348 N 
ATOM     23  C   UNL     1      -5.266   0.490 -12.256  1.00  0.00     0.249 C 
ATOM     24  O   UNL     1      -4.961   0.284 -13.426  1.00  0.00    -0.272 OA
ATOM     25  H   UNL     1      -5.853   1.780 -10.789  1.00  0.00     0.163 HD
BRANCH  23  26
ATOM     26  C   UNL     1      -5.255  -0.591 -11.165  1.00  0.00     0.238 C 
ATOM     27  N   UNL     1      -3.881  -1.152 -11.043  1.00  0.00    -0.236 NA
ATOM     28  C   UNL     1      -5.583  -0.020  -9.796  1.00  0.00     0.206 C 
ATOM     29  C   UNL     1      -3.484  -0.720  -9.883  1.00  0.00     0.208 C 
ATOM     30  O   UNL     1      -4.322   0.036  -9.132  1.00  0.00    -0.474 OA
ATOM     31  C   UNL     1      -6.515  -0.921  -8.995  1.00  0.00     0.056 C 
BRANCH  29  32
ATOM     32  C   UNL     1      -2.106  -0.931  -9.263  1.00  0.00     0.171 C 
BRANCH  32  33
ATOM     33  N   UNL     1      -1.576   0.318  -8.738  1.00  0.00    -0.342 N 
ATOM     34  C   UNL     1      -0.233   0.610  -8.734  1.00  0.00     0.246 CG0
ATOM     35  O   UNL     1       0.623  -0.169  -9.146  1.00  0.00    -0.273 OA
ATOM     36  H   UNL     1      -2.186   1.011  -8.318  1.00  0.00     0.164 HD
ATOM     37  G   UNL     1       0.114   2.005  -8.191  1.00  0.00     0.000 G0
ENDBRANCH  32  33
BRANCH  32  38
ATOM     38  C   UNL     1      -2.159  -2.051  -8.191  1.00  0.00     0.017 C 
ATOM     39  C   UNL     1      -2.450  -1.446  -6.811  1.00  0.00     0.010 C 
BRANCH  38  40
ATOM     40  C   UNL     1      -3.161  -3.175  -8.542  1.00  0.00     0.002 C 
ATOM     41  C   UNL     1      -4.160  -3.470  -7.431  1.00  0.00     0.004 C 
ENDBRANCH  38  40
ENDBRANCH  32  38
ENDBRANCH  29  32
ENDBRANCH  23  26
ENDBRANCH   1  22
TORSDOF 4
ENDMDL
MODEL 10
REMARK VINA RESULT:    -4.023      5.429      9.308
REMARK INTER + INTRA:          -8.505
REMARK INTER:                  -7.347
REMARK INTRA:                  -1.158
REMARK UNBOUND:                -1.659
REMARK SMILES CC[C@H](C)[C@@H]1NC(=O)[C@H]2CSC(=N2)[C@@H]([C@@H](C)CC)NC(=O)c2csc(n2)CNC(=O)[C@H]2N=C1O[C@@H]2C
REMARK SMILES IDX 27 1 25 2 22 3 26 4 23 5 24 6 20 7 19 8 21 9 14 11 12 12
REMARK SMILES IDX 11 13 10 14 13 15 9 16 15 18 16 19 17 20 18 21 28 22 29 23
REMARK SMILES IDX 30 24 31 26 32 27 35 28 33 29 34 30 36 31 5 32 6 33 7 34
REMARK SMILES IDX 8 35 3 38 4 39 2 40 1 41
REMARK H PARENT 19 10 28 25 6 36
REMARK Flexibility Score:   91.900
ROOT
ATOM      1  C   UNL     1      -8.855   2.439   0.452  1.00  0.00     0.183 C 
ENDROOT
BRANCH   1   2
ATOM      2  C   UNL     1      -9.461   1.975   1.745  1.00  0.00     0.113 A 
ATOM      3  C   UNL     1     -10.320   0.593   3.269  1.00  0.00     0.139 A 
ATOM      4  N   UNL     1      -9.631   0.704   2.059  1.00  0.00    -0.234 NA
ATOM      5  C   UNL     1     -10.606   1.800   3.876  1.00  0.00     0.101 A 
ATOM      6  S   UNL     1     -10.030   3.098   2.912  1.00  0.00    -0.125 S 
BRANCH   3   7
ATOM      7  C   UNL     1     -10.711  -0.725   3.771  1.00  0.00     0.271 C 
ATOM      8  N   UNL     1     -11.214  -1.519   2.770  1.00  0.00    -0.341 N 
ATOM      9  O   UNL     1     -10.628  -1.058   4.947  1.00  0.00    -0.267 OA
ATOM     10  H   UNL     1     -11.198  -1.113   1.835  1.00  0.00     0.164 HD
BRANCH   8  11
ATOM     11  C   UNL     1     -11.854  -2.806   2.991  1.00  0.00     0.140 C 
BRANCH  11  12
ATOM     12  C   UNL     1     -10.781  -3.891   2.873  1.00  0.00     0.091 C 
ATOM     13  S   UNL     1      -9.660  -4.178   4.184  1.00  0.00    -0.106 SA
ATOM     14  C   UNL     1      -9.108  -5.705   3.394  1.00  0.00     0.113 C 
ATOM     15  N   UNL     1     -10.615  -4.578   1.786  1.00  0.00    -0.267 NA
ATOM     16  C   UNL     1      -9.430  -5.482   1.925  1.00  0.00     0.205 CG0
ATOM     17  G   UNL     1      -8.212  -4.909   1.182  1.00  0.00     0.000 G0
ENDBRANCH  11  12
BRANCH  11  18
ATOM     18  C   UNL     1     -12.748  -2.856   4.257  1.00  0.00     0.015 C 
ATOM     19  C   UNL     1     -13.983  -1.964   4.075  1.00  0.00     0.010 C 
BRANCH  18  20
ATOM     20  C   UNL     1     -13.140  -4.276   4.713  1.00  0.00     0.002 C 
ATOM     21  C   UNL     1     -13.829  -4.295   6.073  1.00  0.00     0.004 C 
ENDBRANCH  18  20
ENDBRANCH  11  18
ENDBRANCH   8  11
ENDBRANCH   3   7
ENDBRANCH   1   2
BRANCH   1  22
ATOM     22  N   UNL     1      -8.922   1.334  -0.478  1.00  0.00    -0.348 N 
ATOM     23  C   UNL     1      -7.842   0.782  -1.111  1.00  0.00     0.249 C 
ATOM     24  O   UNL     1      -6.685   1.119  -0.885  1.00  0.00    -0.272 OA
ATOM     25  H   UNL     1      -9.840   0.989  -0.755  1.00  0.00     0.163 HD
BRANCH  23  26
ATOM     26  C   UNL     1      -8.232  -0.341  -2.084  1.00  0.00     0.238 C 
ATOM     27  N   UNL     1      -7.282  -1.477  -1.929  1.00  0.00    -0.236 NA
ATOM     28  C   UNL     1      -9.604  -0.913  -1.771  1.00  0.00     0.206 C 
ATOM     29  C   UNL     1      -8.013  -2.406  -1.389  1.00  0.00     0.208 C 
ATOM     30  O   UNL     1      -9.323  -2.162  -1.140  1.00  0.00    -0.474 OA
ATOM     31  C   UNL     1     -10.428  -1.177  -3.024  1.00  0.00     0.056 C 
BRANCH  29  32
ATOM     32  C   UNL     1      -7.537  -3.784  -0.936  1.00  0.00     0.171 C 
BRANCH  32  33
ATOM     33  N   UNL     1      -8.526  -4.419  -0.080  1.00  0.00    -0.342 N 
ATOM     34  C   UNL     1      -8.218  -4.921   1.162  1.00  0.00     0.246 CG0
ATOM     35  O   UNL     1      -7.084  -4.896   1.632  1.00  0.00    -0.273 OA
ATOM     36  H   UNL     1      -9.483  -4.548  -0.391  1.00  0.00     0.164 HD
ATOM     37  G   UNL     1      -9.417  -5.499   1.931  1.00  0.00     0.000 G0
ENDBRANCH  32  33
BRANCH  32  38
ATOM     38  C   UNL     1      -7.161  -4.658  -2.162  1.00  0.00     0.017 C 
ATOM     39  C   UNL     1      -6.401  -5.909  -1.703  1.00  0.00     0.010 C 
BRANCH  38  40
ATOM     40  C   UNL     1      -8.382  -5.023  -3.038  1.00  0.00     0.002 C 
ATOM     41  C   UNL     1      -8.009  -5.468  -4.446  1.00  0.00     0.004 C 
ENDBRANCH  38  40
ENDBRANCH  32  38
ENDBRANCH  29  32
ENDBRANCH  23  26
ENDBRANCH   1  22
TORSDOF 4
ENDMDL
