MODEL 1
REMARK VINA RESULT:    -7.239      0.000      0.000
REMARK INTER + INTRA:         -19.491
REMARK INTER:                 -14.645
REMARK INTRA:                  -4.846
REMARK UNBOUND:                -4.846
REMARK SMILES CC[C@@H](C)[C@@H](NC(=O)[C@@H](O)Cc1ccc(O)c(Cl)c1)C(=O)N1[C@H](C(=O)NCCCCN=C(N)N)C[C@H]2CC[C@H](OS(=O)(=O)O)C[C@@H]21
REMARK SMILES IDX 22 1 36 2 46 3 35 4 23 5 45 6 37 7 39 8 38 9 20 10 21 11
REMARK SMILES IDX 5 12 6 13 7 14 8 15 9 17 11 18 12 19 17 20 19 21 15 22 14 23
REMARK SMILES IDX 13 24 18 25 16 26 10 28 3 30 4 31 2 32 1 33 24 34 25 35
REMARK SMILES IDX 26 36 27 38 28 39 29 40 30 41 31 42 32 43 33 44 34 45 40 50
REMARK SMILES IDX 41 51 42 52 43 53 44 54
REMARK H PARENT 6 16 16 27 10 29 26 37 33 46 33 47 34 48 34 49 44 55
ROOT
ATOM      1  N   UNL     1       6.152  -3.465   4.178  1.00  0.00    -0.326 N 
ATOM      2  C   UNL     1       4.891  -2.633   5.983  1.00  0.00     0.014 C 
ATOM      3  C   UNL     1       5.665  -3.864   5.501  1.00  0.00     0.091 C 
ATOM      4  C   UNL     1       4.290  -2.090   4.696  1.00  0.00     0.041 C 
ATOM      5  C   UNL     1       5.508  -2.195   3.760  1.00  0.00     0.175 C 
ATOM      6  C   UNL     1       6.691  -4.237   6.569  1.00  0.00     0.059 C 
ATOM      7  C   UNL     1       3.977  -2.985   7.140  1.00  0.00     0.008 C 
ATOM      8  C   UNL     1       6.237  -3.911   8.009  1.00  0.00     0.143 C 
ATOM      9  C   UNL     1       4.701  -3.906   8.144  1.00  0.00     0.034 C 
ENDROOT
BRANCH   1  10
ATOM     10  C   UNL     1       6.899  -4.178   3.255  1.00  0.00     0.246 C 
ATOM     11  O   UNL     1       6.502  -4.251   2.087  1.00  0.00    -0.272 OA
BRANCH  10  12
ATOM     12  C   UNL     1       8.239  -4.835   3.696  1.00  0.00     0.174 C 
BRANCH  12  13
ATOM     13  N   UNL     1       9.319  -3.851   3.639  1.00  0.00    -0.342 N 
ATOM     14  C   UNL     1      10.445  -3.866   4.431  1.00  0.00     0.249 C 
ATOM     15  O   UNL     1      10.682  -4.733   5.263  1.00  0.00    -0.272 OA
ATOM     16  H   UNL     1       9.190  -2.992   3.111  1.00  0.00     0.164 HD
BRANCH  14  17
ATOM     17  C   UNL     1      11.392  -2.681   4.144  1.00  0.00     0.207 C 
BRANCH  17  18
ATOM     18  C   UNL     1      10.899  -1.883   2.933  1.00  0.00     0.077 C 
BRANCH  18  19
ATOM     19  C   UNL     1      11.136  -0.399   3.104  1.00  0.00    -0.043 A 
ATOM     20  C   UNL     1      12.454   1.430   3.998  1.00  0.00     0.083 A 
ATOM     21  C   UNL     1      12.264   0.062   3.799  1.00  0.00     0.028 A 
ATOM     22  C   UNL     1      11.520   2.343   3.505  1.00  0.00     0.134 A 
ATOM     23  C   UNL     1      10.399   1.900   2.814  1.00  0.00     0.048 A 
ATOM     24  C   UNL     1      10.205   0.531   2.616  1.00  0.00     0.008 A 
ATOM     25  Cl  UNL     1      13.846   1.978   4.855  1.00  0.00    -0.080 Cl
BRANCH  22  26
ATOM     26  O   UNL     1      11.658   3.693   3.684  1.00  0.00    -0.506 OA
ATOM     27  H   UNL     1      10.769   4.081   3.587  1.00  0.00     0.293 HD
ENDBRANCH  22  26
ENDBRANCH  18  19
ENDBRANCH  17  18
BRANCH  17  28
ATOM     28  O   UNL     1      12.732  -3.137   3.900  1.00  0.00    -0.383 OA
ATOM     29  H   UNL     1      12.699  -4.120   3.953  1.00  0.00     0.211 HD
ENDBRANCH  17  28
ENDBRANCH  14  17
ENDBRANCH  12  13
BRANCH  12  30
ATOM     30  C   UNL     1       8.568  -6.123   2.895  1.00  0.00     0.018 C 
ATOM     31  C   UNL     1       8.953  -7.272   3.841  1.00  0.00     0.010 C 
BRANCH  30  32
ATOM     32  C   UNL     1       9.668  -5.925   1.824  1.00  0.00     0.002 C 
ATOM     33  C   UNL     1       9.164  -5.743   0.398  1.00  0.00     0.004 C 
ENDBRANCH  30  32
ENDBRANCH  12  30
ENDBRANCH  10  12
ENDBRANCH   1  10
BRANCH   5  34
ATOM     34  C   UNL     1       6.479  -0.999   3.948  1.00  0.00     0.242 C 
ATOM     35  O   UNL     1       7.569  -1.117   4.508  1.00  0.00    -0.273 OA
ATOM     36  N   UNL     1       6.010   0.213   3.493  1.00  0.00    -0.354 N 
ATOM     37  H   UNL     1       5.051   0.270   3.147  1.00  0.00     0.163 HD
BRANCH  36  38
ATOM     38  C   UNL     1       6.858   1.382   3.391  1.00  0.00     0.116 C 
BRANCH  38  39
ATOM     39  C   UNL     1       6.409   2.438   4.398  1.00  0.00     0.023 C 
BRANCH  39  40
ATOM     40  C   UNL     1       7.578   3.048   5.164  1.00  0.00     0.026 C 
BRANCH  40  41
ATOM     41  C   UNL     1       8.347   1.969   5.928  1.00  0.00     0.146 C 
BRANCH  41  42
ATOM     42  N   UNL     1       8.085   2.095   7.355  1.00  0.00    -0.254 NA
ATOM     43  C   UNL     1       7.380   1.208   7.950  1.00  0.00     0.185 C 
ATOM     44  N   UNL     1       6.794   0.099   7.464  1.00  0.00    -0.370 N 
ATOM     45  N   UNL     1       7.146   1.345   9.266  1.00  0.00    -0.370 N 
ATOM     46  H   UNL     1       6.073  -0.371   7.985  1.00  0.00     0.159 HD
ATOM     47  H   UNL     1       6.881  -0.165   6.487  1.00  0.00     0.159 HD
ATOM     48  H   UNL     1       7.560   2.151   9.713  1.00  0.00     0.159 HD
ATOM     49  H   UNL     1       6.815   0.591   9.841  1.00  0.00     0.159 HD
ENDBRANCH  41  42
ENDBRANCH  40  41
ENDBRANCH  39  40
ENDBRANCH  38  39
ENDBRANCH  36  38
ENDBRANCH   5  34
BRANCH   8  50
ATOM     50  O   UNL     1       6.731  -2.630   8.400  1.00  0.00    -0.245 OA
BRANCH  50  51
ATOM     51  S   UNL     1       6.846  -2.262   9.980  1.00  0.00     0.397 S 
ATOM     52  O   UNL     1       7.060  -3.491  10.710  1.00  0.00    -0.169 OA
ATOM     53  O   UNL     1       5.791  -1.338  10.342  1.00  0.00    -0.169 OA
BRANCH  51  54
ATOM     54  O   UNL     1       8.243  -1.468  10.039  1.00  0.00    -0.264 OA
ATOM     55  H   UNL     1       8.667  -1.545   9.160  1.00  0.00     0.236 HD
ENDBRANCH  51  54
ENDBRANCH  50  51
ENDBRANCH   8  50
TORSDOF 19
ENDMDL
MODEL 2
REMARK VINA RESULT:    -7.142     12.333     15.246
REMARK INTER + INTRA:         -19.295
REMARK INTER:                 -16.074
REMARK INTRA:                  -3.221
REMARK UNBOUND:                -4.846
REMARK SMILES CC[C@@H](C)[C@@H](NC(=O)[C@@H](O)Cc1ccc(O)c(Cl)c1)C(=O)N1[C@H](C(=O)NCCCCN=C(N)N)C[C@H]2CC[C@H](OS(=O)(=O)O)C[C@@H]21
REMARK SMILES IDX 22 1 36 2 46 3 35 4 23 5 45 6 37 7 39 8 38 9 20 10 21 11
REMARK SMILES IDX 5 12 6 13 7 14 8 15 9 17 11 18 12 19 17 20 19 21 15 22 14 23
REMARK SMILES IDX 13 24 18 25 16 26 10 28 3 30 4 31 2 32 1 33 24 34 25 35
REMARK SMILES IDX 26 36 27 38 28 39 29 40 30 41 31 42 32 43 33 44 34 45 40 50
REMARK SMILES IDX 41 51 42 52 43 53 44 54
REMARK H PARENT 6 16 16 27 10 29 26 37 33 46 33 47 34 48 34 49 44 55
ROOT
ATOM      1  N   UNL     1      -2.543  -6.910   2.265  1.00  0.00    -0.326 N 
ATOM      2  C   UNL     1      -2.584  -5.376   4.051  1.00  0.00     0.014 C 
ATOM      3  C   UNL     1      -2.636  -5.470   2.523  1.00  0.00     0.091 C 
ATOM      4  C   UNL     1      -1.645  -6.512   4.424  1.00  0.00     0.041 C 
ATOM      5  C   UNL     1      -2.192  -7.628   3.515  1.00  0.00     0.175 C 
ATOM      6  C   UNL     1      -3.877  -4.725   2.035  1.00  0.00     0.059 C 
ATOM      7  C   UNL     1      -2.258  -3.964   4.497  1.00  0.00     0.008 C 
ATOM      8  C   UNL     1      -4.268  -3.522   2.920  1.00  0.00     0.143 C 
ATOM      9  C   UNL     1      -3.054  -2.934   3.668  1.00  0.00     0.034 C 
ENDROOT
BRANCH   1  10
ATOM     10  C   UNL     1      -2.521  -7.596   1.063  1.00  0.00     0.246 C 
ATOM     11  O   UNL     1      -2.514  -8.832   1.077  1.00  0.00    -0.272 OA
BRANCH  10  12
ATOM     12  C   UNL     1      -2.550  -6.802  -0.275  1.00  0.00     0.174 C 
BRANCH  12  13
ATOM     13  N   UNL     1      -3.324  -7.537  -1.275  1.00  0.00    -0.342 N 
ATOM     14  C   UNL     1      -4.378  -7.020  -1.994  1.00  0.00     0.249 C 
ATOM     15  O   UNL     1      -4.772  -5.865  -1.893  1.00  0.00    -0.272 OA
ATOM     16  H   UNL     1      -3.216  -8.545  -1.354  1.00  0.00     0.164 HD
BRANCH  14  17
ATOM     17  C   UNL     1      -5.002  -8.050  -2.960  1.00  0.00     0.207 C 
BRANCH  17  18
ATOM     18  C   UNL     1      -5.744  -7.339  -4.095  1.00  0.00     0.077 C 
BRANCH  18  19
ATOM     19  C   UNL     1      -4.975  -7.402  -5.396  1.00  0.00    -0.043 A 
ATOM     20  C   UNL     1      -2.920  -7.073  -6.641  1.00  0.00     0.083 A 
ATOM     21  C   UNL     1      -3.614  -7.062  -5.431  1.00  0.00     0.028 A 
ATOM     22  C   UNL     1      -3.578  -7.422  -7.821  1.00  0.00     0.134 A 
ATOM     23  C   UNL     1      -4.926  -7.761  -7.800  1.00  0.00     0.048 A 
ATOM     24  C   UNL     1      -5.624  -7.748  -6.591  1.00  0.00     0.008 A 
ATOM     25  Cl  UNL     1      -1.247  -6.652  -6.664  1.00  0.00    -0.080 Cl
BRANCH  22  26
ATOM     26  O   UNL     1      -2.942  -7.437  -9.032  1.00  0.00    -0.506 OA
ATOM     27  H   UNL     1      -3.564  -7.833  -9.670  1.00  0.00     0.293 HD
ENDBRANCH  22  26
ENDBRANCH  18  19
ENDBRANCH  17  18
BRANCH  17  28
ATOM     28  O   UNL     1      -5.910  -8.923  -2.269  1.00  0.00    -0.383 OA
ATOM     29  H   UNL     1      -6.815  -8.635  -2.530  1.00  0.00     0.211 HD
ENDBRANCH  17  28
ENDBRANCH  14  17
ENDBRANCH  12  13
BRANCH  12  30
ATOM     30  C   UNL     1      -1.130  -6.429  -0.781  1.00  0.00     0.018 C 
ATOM     31  C   UNL     1      -0.795  -4.968  -0.440  1.00  0.00     0.010 C 
BRANCH  30  32
ATOM     32  C   UNL     1      -0.923  -6.682  -2.294  1.00  0.00     0.002 C 
ATOM     33  C   UNL     1      -1.244  -5.502  -3.202  1.00  0.00     0.004 C 
ENDBRANCH  30  32
ENDBRANCH  12  30
ENDBRANCH  10  12
ENDBRANCH   1  10
BRANCH   5  34
ATOM     34  C   UNL     1      -3.445  -8.306   4.131  1.00  0.00     0.242 C 
ATOM     35  O   UNL     1      -4.560  -8.220   3.615  1.00  0.00    -0.273 OA
ATOM     36  N   UNL     1      -3.230  -8.963   5.321  1.00  0.00    -0.354 N 
ATOM     37  H   UNL     1      -2.310  -8.897   5.760  1.00  0.00     0.163 HD
BRANCH  36  38
ATOM     38  C   UNL     1      -4.228  -9.825   5.920  1.00  0.00     0.116 C 
BRANCH  38  39
ATOM     39  C   UNL     1      -4.452  -9.425   7.377  1.00  0.00     0.023 C 
BRANCH  39  40
ATOM     40  C   UNL     1      -3.828  -8.075   7.712  1.00  0.00     0.026 C 
BRANCH  40  41
ATOM     41  C   UNL     1      -4.906  -7.002   7.866  1.00  0.00     0.146 C 
BRANCH  41  42
ATOM     42  N   UNL     1      -5.487  -6.698   6.564  1.00  0.00    -0.254 NA
ATOM     43  C   UNL     1      -6.707  -7.006   6.328  1.00  0.00     0.185 C 
ATOM     44  N   UNL     1      -7.618  -7.602   7.118  1.00  0.00    -0.370 N 
ATOM     45  N   UNL     1      -7.222  -6.722   5.120  1.00  0.00    -0.370 N 
ATOM     46  H   UNL     1      -8.453  -8.002   6.727  1.00  0.00     0.159 HD
ATOM     47  H   UNL     1      -7.400  -7.874   8.072  1.00  0.00     0.159 HD
ATOM     48  H   UNL     1      -6.603  -6.263   4.466  1.00  0.00     0.159 HD
ATOM     49  H   UNL     1      -8.210  -6.711   4.939  1.00  0.00     0.159 HD
ENDBRANCH  41  42
ENDBRANCH  40  41
ENDBRANCH  39  40
ENDBRANCH  38  39
ENDBRANCH  36  38
ENDBRANCH   5  34
BRANCH   8  50
ATOM     50  O   UNL     1      -5.245  -3.919   3.883  1.00  0.00    -0.245 OA
BRANCH  50  51
ATOM     51  S   UNL     1      -6.772  -3.376   3.748  1.00  0.00     0.397 S 
ATOM     52  O   UNL     1      -7.387  -3.443   5.055  1.00  0.00    -0.169 OA
ATOM     53  O   UNL     1      -7.397  -3.968   2.583  1.00  0.00    -0.169 OA
BRANCH  51  54
ATOM     54  O   UNL     1      -6.548  -1.812   3.449  1.00  0.00    -0.264 OA
ATOM     55  H   UNL     1      -6.547  -1.691   2.478  1.00  0.00     0.236 HD
ENDBRANCH  51  54
ENDBRANCH  50  51
ENDBRANCH   8  50
TORSDOF 19
ENDMDL
MODEL 3
REMARK VINA RESULT:    -7.021     11.930     14.688
REMARK INTER + INTRA:         -19.050
REMARK INTER:                 -16.742
REMARK INTRA:                  -2.309
REMARK UNBOUND:                -4.846
REMARK SMILES CC[C@@H](C)[C@@H](NC(=O)[C@@H](O)Cc1ccc(O)c(Cl)c1)C(=O)N1[C@H](C(=O)NCCCCN=C(N)N)C[C@H]2CC[C@H](OS(=O)(=O)O)C[C@@H]21
REMARK SMILES IDX 22 1 36 2 46 3 35 4 23 5 45 6 37 7 39 8 38 9 20 10 21 11
REMARK SMILES IDX 5 12 6 13 7 14 8 15 9 17 11 18 12 19 17 20 19 21 15 22 14 23
REMARK SMILES IDX 13 24 18 25 16 26 10 28 3 30 4 31 2 32 1 33 24 34 25 35
REMARK SMILES IDX 26 36 27 38 28 39 29 40 30 41 31 42 32 43 33 44 34 45 40 50
REMARK SMILES IDX 41 51 42 52 43 53 44 54
REMARK H PARENT 6 16 16 27 10 29 26 37 33 46 33 47 34 48 34 49 44 55
ROOT
ATOM      1  N   UNL     1      -2.422  -6.642   2.152  1.00  0.00    -0.326 N 
ATOM      2  C   UNL     1      -2.472  -5.166   3.986  1.00  0.00     0.014 C 
ATOM      3  C   UNL     1      -2.541  -5.213   2.456  1.00  0.00     0.091 C 
ATOM      4  C   UNL     1      -1.504  -6.293   4.312  1.00  0.00     0.041 C 
ATOM      5  C   UNL     1      -2.038  -7.391   3.375  1.00  0.00     0.175 C 
ATOM      6  C   UNL     1      -3.804  -4.480   2.007  1.00  0.00     0.059 C 
ATOM      7  C   UNL     1      -2.170  -3.762   4.471  1.00  0.00     0.008 C 
ATOM      8  C   UNL     1      -4.209  -3.314   2.935  1.00  0.00     0.143 C 
ATOM      9  C   UNL     1      -2.999  -2.724   3.686  1.00  0.00     0.034 C 
ENDROOT
BRANCH   1  10
ATOM     10  C   UNL     1      -2.401  -7.290   0.929  1.00  0.00     0.246 C 
ATOM     11  O   UNL     1      -3.373  -7.977   0.596  1.00  0.00    -0.272 OA
BRANCH  10  12
ATOM     12  C   UNL     1      -1.177  -7.108  -0.015  1.00  0.00     0.174 C 
BRANCH  12  13
ATOM     13  N   UNL     1      -1.635  -6.834  -1.377  1.00  0.00    -0.342 N 
ATOM     14  C   UNL     1      -0.926  -6.127  -2.322  1.00  0.00     0.249 C 
ATOM     15  O   UNL     1       0.193  -5.668  -2.132  1.00  0.00    -0.272 OA
ATOM     16  H   UNL     1      -2.604  -7.015  -1.629  1.00  0.00     0.164 HD
BRANCH  14  17
ATOM     17  C   UNL     1      -1.685  -5.993  -3.659  1.00  0.00     0.207 C 
BRANCH  17  18
ATOM     18  C   UNL     1      -1.287  -7.121  -4.617  1.00  0.00     0.077 C 
BRANCH  18  19
ATOM     19  C   UNL     1      -2.153  -7.136  -5.857  1.00  0.00    -0.043 A 
ATOM     20  C   UNL     1      -4.291  -7.552  -6.924  1.00  0.00     0.083 A 
ATOM     21  C   UNL     1      -3.508  -7.491  -5.770  1.00  0.00     0.028 A 
ATOM     22  C   UNL     1      -3.727  -7.262  -8.167  1.00  0.00     0.134 A 
ATOM     23  C   UNL     1      -2.387  -6.909  -8.267  1.00  0.00     0.048 A 
ATOM     24  C   UNL     1      -1.600  -6.849  -7.114  1.00  0.00     0.008 A 
ATOM     25  Cl  UNL     1      -5.954  -7.991  -6.797  1.00  0.00    -0.080 Cl
BRANCH  22  26
ATOM     26  O   UNL     1      -4.453  -7.319  -9.326  1.00  0.00    -0.506 OA
ATOM     27  H   UNL     1      -5.108  -8.032  -9.211  1.00  0.00     0.293 HD
ENDBRANCH  22  26
ENDBRANCH  18  19
ENDBRANCH  17  18
BRANCH  17  28
ATOM     28  O   UNL     1      -1.420  -4.725  -4.280  1.00  0.00    -0.383 OA
ATOM     29  H   UNL     1      -2.292  -4.278  -4.370  1.00  0.00     0.211 HD
ENDBRANCH  17  28
ENDBRANCH  14  17
ENDBRANCH  12  13
BRANCH  12  30
ATOM     30  C   UNL     1      -0.187  -8.301   0.048  1.00  0.00     0.018 C 
ATOM     31  C   UNL     1      -0.943  -9.632   0.184  1.00  0.00     0.010 C 
BRANCH  30  32
ATOM     32  C   UNL     1       0.870  -8.173   1.172  1.00  0.00     0.002 C 
ATOM     33  C   UNL     1       1.447  -9.489   1.677  1.00  0.00     0.004 C 
ENDBRANCH  30  32
ENDBRANCH  12  30
ENDBRANCH  10  12
ENDBRANCH   1  10
BRANCH   5  34
ATOM     34  C   UNL     1      -3.269  -8.115   3.985  1.00  0.00     0.242 C 
ATOM     35  O   UNL     1      -4.390  -8.043   3.482  1.00  0.00    -0.273 OA
ATOM     36  N   UNL     1      -3.026  -8.796   5.156  1.00  0.00    -0.354 N 
ATOM     37  H   UNL     1      -2.104  -8.719   5.587  1.00  0.00     0.163 HD
BRANCH  36  38
ATOM     38  C   UNL     1      -3.996  -9.698   5.742  1.00  0.00     0.116 C 
BRANCH  38  39
ATOM     39  C   UNL     1      -4.218  -9.338   7.209  1.00  0.00     0.023 C 
BRANCH  39  40
ATOM     40  C   UNL     1      -3.737  -7.930   7.543  1.00  0.00     0.026 C 
BRANCH  40  41
ATOM     41  C   UNL     1      -4.923  -6.986   7.749  1.00  0.00     0.146 C 
BRANCH  41  42
ATOM     42  N   UNL     1      -5.613  -6.780   6.483  1.00  0.00    -0.254 NA
ATOM     43  C   UNL     1      -6.826  -7.167   6.353  1.00  0.00     0.185 C 
ATOM     44  N   UNL     1      -7.641  -7.773   7.236  1.00  0.00    -0.370 N 
ATOM     45  N   UNL     1      -7.444  -6.971   5.176  1.00  0.00    -0.370 N 
ATOM     46  H   UNL     1      -8.477  -8.238   6.926  1.00  0.00     0.159 HD
ATOM     47  H   UNL     1      -7.338  -7.985   8.181  1.00  0.00     0.159 HD
ATOM     48  H   UNL     1      -6.903  -6.511   4.457  1.00  0.00     0.159 HD
ATOM     49  H   UNL     1      -8.441  -7.025   5.069  1.00  0.00     0.159 HD
ENDBRANCH  41  42
ENDBRANCH  40  41
ENDBRANCH  39  40
ENDBRANCH  38  39
ENDBRANCH  36  38
ENDBRANCH   5  34
BRANCH   8  50
ATOM     50  O   UNL     1      -5.165  -3.763   3.897  1.00  0.00    -0.245 OA
BRANCH  50  51
ATOM     51  S   UNL     1      -6.720  -3.307   3.757  1.00  0.00     0.397 S 
ATOM     52  O   UNL     1      -7.303  -3.295   5.080  1.00  0.00    -0.169 OA
ATOM     53  O   UNL     1      -7.339  -4.022   2.660  1.00  0.00    -0.169 OA
BRANCH  51  54
ATOM     54  O   UNL     1      -6.580  -1.764   3.326  1.00  0.00    -0.264 OA
ATOM     55  H   UNL     1      -6.235  -1.269   4.097  1.00  0.00     0.236 HD
ENDBRANCH  51  54
ENDBRANCH  50  51
ENDBRANCH   8  50
TORSDOF 19
ENDMDL
MODEL 4
REMARK VINA RESULT:    -6.949     11.540     14.743
REMARK INTER + INTRA:         -18.904
REMARK INTER:                 -14.959
REMARK INTRA:                  -3.945
REMARK UNBOUND:                -4.846
REMARK SMILES CC[C@@H](C)[C@@H](NC(=O)[C@@H](O)Cc1ccc(O)c(Cl)c1)C(=O)N1[C@H](C(=O)NCCCCN=C(N)N)C[C@H]2CC[C@H](OS(=O)(=O)O)C[C@@H]21
REMARK SMILES IDX 22 1 36 2 46 3 35 4 23 5 45 6 37 7 39 8 38 9 20 10 21 11
REMARK SMILES IDX 5 12 6 13 7 14 8 15 9 17 11 18 12 19 17 20 19 21 15 22 14 23
REMARK SMILES IDX 13 24 18 25 16 26 10 28 3 30 4 31 2 32 1 33 24 34 25 35
REMARK SMILES IDX 26 36 27 38 28 39 29 40 30 41 31 42 32 43 33 44 34 45 40 50
REMARK SMILES IDX 41 51 42 52 43 53 44 54
REMARK H PARENT 6 16 16 27 10 29 26 37 33 46 33 47 34 48 34 49 44 55
ROOT
ATOM      1  N   UNL     1      -1.112  -6.363   2.162  1.00  0.00    -0.326 N 
ATOM      2  C   UNL     1      -1.976  -5.304   4.080  1.00  0.00     0.014 C 
ATOM      3  C   UNL     1      -1.457  -5.030   2.666  1.00  0.00     0.091 C 
ATOM      4  C   UNL     1      -1.113  -6.473   4.532  1.00  0.00     0.041 C 
ATOM      5  C   UNL     1      -1.160  -7.351   3.268  1.00  0.00     0.175 C 
ATOM      6  C   UNL     1      -2.512  -4.222   1.912  1.00  0.00     0.059 C 
ATOM      7  C   UNL     1      -1.998  -4.033   4.906  1.00  0.00     0.008 C 
ATOM      8  C   UNL     1      -3.333  -3.277   2.816  1.00  0.00     0.143 C 
ATOM      9  C   UNL     1      -2.551  -2.855   4.076  1.00  0.00     0.034 C 
ENDROOT
BRANCH   1  10
ATOM     10  C   UNL     1      -0.576  -6.740   0.943  1.00  0.00     0.246 C 
ATOM     11  O   UNL     1       0.515  -7.319   0.919  1.00  0.00    -0.272 OA
BRANCH  10  12
ATOM     12  C   UNL     1      -1.375  -6.466  -0.364  1.00  0.00     0.174 C 
BRANCH  12  13
ATOM     13  N   UNL     1      -2.225  -7.614  -0.678  1.00  0.00    -0.342 N 
ATOM     14  C   UNL     1      -3.546  -7.538  -1.060  1.00  0.00     0.249 C 
ATOM     15  O   UNL     1      -4.154  -6.485  -1.206  1.00  0.00    -0.272 OA
ATOM     16  H   UNL     1      -1.908  -8.553  -0.451  1.00  0.00     0.164 HD
BRANCH  14  17
ATOM     17  C   UNL     1      -4.176  -8.926  -1.304  1.00  0.00     0.207 C 
BRANCH  17  18
ATOM     18  C   UNL     1      -4.973  -8.929  -2.613  1.00  0.00     0.077 C 
BRANCH  18  19
ATOM     19  C   UNL     1      -4.067  -8.861  -3.822  1.00  0.00    -0.043 A 
ATOM     20  C   UNL     1      -3.595  -8.027  -6.051  1.00  0.00     0.083 A 
ATOM     21  C   UNL     1      -4.408  -8.050  -4.916  1.00  0.00     0.028 A 
ATOM     22  C   UNL     1      -2.443  -8.812  -6.100  1.00  0.00     0.134 A 
ATOM     23  C   UNL     1      -2.094  -9.619  -5.023  1.00  0.00     0.048 A 
ATOM     24  C   UNL     1      -2.906  -9.645  -3.887  1.00  0.00     0.008 A 
ATOM     25  Cl  UNL     1      -4.030  -7.025  -7.385  1.00  0.00    -0.080 Cl
BRANCH  22  26
ATOM     26  O   UNL     1      -1.621  -8.830  -7.194  1.00  0.00    -0.506 OA
ATOM     27  H   UNL     1      -1.868  -8.062  -7.743  1.00  0.00     0.293 HD
ENDBRANCH  22  26
ENDBRANCH  18  19
ENDBRANCH  17  18
BRANCH  17  28
ATOM     28  O   UNL     1      -5.040  -9.300  -0.219  1.00  0.00    -0.383 OA
ATOM     29  H   UNL     1      -4.463  -9.728   0.453  1.00  0.00     0.211 HD
ENDBRANCH  17  28
ENDBRANCH  14  17
ENDBRANCH  12  13
BRANCH  12  30
ATOM     30  C   UNL     1      -0.461  -6.063  -1.553  1.00  0.00     0.018 C 
ATOM     31  C   UNL     1      -0.208  -4.547  -1.557  1.00  0.00     0.010 C 
BRANCH  30  32
ATOM     32  C   UNL     1      -0.999  -6.516  -2.932  1.00  0.00     0.002 C 
ATOM     33  C   UNL     1      -1.824  -5.479  -3.683  1.00  0.00     0.004 C 
ENDBRANCH  30  32
ENDBRANCH  12  30
ENDBRANCH  10  12
ENDBRANCH   1  10
BRANCH   5  34
ATOM     34  C   UNL     1      -2.465  -8.189   3.201  1.00  0.00     0.242 C 
ATOM     35  O   UNL     1      -3.012  -8.471   2.135  1.00  0.00    -0.273 OA
ATOM     36  N   UNL     1      -2.994  -8.547   4.421  1.00  0.00    -0.354 N 
ATOM     37  H   UNL     1      -2.561  -8.182   5.271  1.00  0.00     0.163 HD
BRANCH  36  38
ATOM     38  C   UNL     1      -4.076  -9.502   4.544  1.00  0.00     0.116 C 
BRANCH  38  39
ATOM     39  C   UNL     1      -4.533  -9.582   5.999  1.00  0.00     0.023 C 
BRANCH  39  40
ATOM     40  C   UNL     1      -3.793  -8.597   6.897  1.00  0.00     0.026 C 
BRANCH  40  41
ATOM     41  C   UNL     1      -4.745  -7.522   7.423  1.00  0.00     0.146 C 
BRANCH  41  42
ATOM     42  N   UNL     1      -5.454  -6.905   6.309  1.00  0.00    -0.254 NA
ATOM     43  C   UNL     1      -6.733  -6.956   6.267  1.00  0.00     0.185 C 
ATOM     44  N   UNL     1      -7.606  -7.514   7.125  1.00  0.00    -0.370 N 
ATOM     45  N   UNL     1      -7.367  -6.385   5.230  1.00  0.00    -0.370 N 
ATOM     46  H   UNL     1      -8.555  -7.693   6.847  1.00  0.00     0.159 HD
ATOM     47  H   UNL     1      -7.296  -7.978   7.974  1.00  0.00     0.159 HD
ATOM     48  H   UNL     1      -6.782  -5.933   4.540  1.00  0.00     0.159 HD
ATOM     49  H   UNL     1      -8.350  -6.176   5.242  1.00  0.00     0.159 HD
ENDBRANCH  41  42
ENDBRANCH  40  41
ENDBRANCH  39  40
ENDBRANCH  38  39
ENDBRANCH  36  38
ENDBRANCH   5  34
BRANCH   8  50
ATOM     50  O   UNL     1      -4.541  -3.919   3.227  1.00  0.00    -0.245 OA
BRANCH  50  51
ATOM     51  S   UNL     1      -5.957  -3.131   3.085  1.00  0.00     0.397 S 
ATOM     52  O   UNL     1      -7.015  -4.116   3.064  1.00  0.00    -0.169 OA
ATOM     53  O   UNL     1      -5.847  -2.113   2.062  1.00  0.00    -0.169 OA
BRANCH  51  54
ATOM     54  O   UNL     1      -6.074  -2.393   4.509  1.00  0.00    -0.264 OA
ATOM     55  H   UNL     1      -6.096  -3.084   5.202  1.00  0.00     0.236 HD
ENDBRANCH  51  54
ENDBRANCH  50  51
ENDBRANCH   8  50
TORSDOF 19
ENDMDL
MODEL 5
REMARK VINA RESULT:    -6.934      1.474      1.937
REMARK INTER + INTRA:         -18.873
REMARK INTER:                 -14.007
REMARK INTRA:                  -4.867
REMARK UNBOUND:                -4.846
REMARK SMILES CC[C@@H](C)[C@@H](NC(=O)[C@@H](O)Cc1ccc(O)c(Cl)c1)C(=O)N1[C@H](C(=O)NCCCCN=C(N)N)C[C@H]2CC[C@H](OS(=O)(=O)O)C[C@@H]21
REMARK SMILES IDX 22 1 36 2 46 3 35 4 23 5 45 6 37 7 39 8 38 9 20 10 21 11
REMARK SMILES IDX 5 12 6 13 7 14 8 15 9 17 11 18 12 19 17 20 19 21 15 22 14 23
REMARK SMILES IDX 13 24 18 25 16 26 10 28 3 30 4 31 2 32 1 33 24 34 25 35
REMARK SMILES IDX 26 36 27 38 28 39 29 40 30 41 31 42 32 43 33 44 34 45 40 50
REMARK SMILES IDX 41 51 42 52 43 53 44 54
REMARK H PARENT 6 16 16 27 10 29 26 37 33 46 33 47 34 48 34 49 44 55
ROOT
ATOM      1  N   UNL     1       6.599  -3.879   4.246  1.00  0.00    -0.326 N 
ATOM      2  C   UNL     1       5.372  -2.456   5.665  1.00  0.00     0.014 C 
ATOM      3  C   UNL     1       5.751  -3.923   5.441  1.00  0.00     0.091 C 
ATOM      4  C   UNL     1       5.263  -1.918   4.247  1.00  0.00     0.041 C 
ATOM      5  C   UNL     1       6.530  -2.533   3.624  1.00  0.00     0.175 C 
ATOM      6  C   UNL     1       6.351  -4.470   6.735  1.00  0.00     0.059 C 
ATOM      7  C   UNL     1       4.182  -2.341   6.597  1.00  0.00     0.008 C 
ATOM      8  C   UNL     1       5.762  -3.831   8.012  1.00  0.00     0.143 C 
ATOM      9  C   UNL     1       4.328  -3.310   7.789  1.00  0.00     0.034 C 
ENDROOT
BRANCH   1  10
ATOM     10  C   UNL     1       7.220  -4.908   3.560  1.00  0.00     0.246 C 
ATOM     11  O   UNL     1       6.871  -5.155   2.401  1.00  0.00    -0.272 OA
BRANCH  10  12
ATOM     12  C   UNL     1       8.370  -5.702   4.245  1.00  0.00     0.174 C 
BRANCH  12  13
ATOM     13  N   UNL     1       9.648  -5.028   4.014  1.00  0.00    -0.342 N 
ATOM     14  C   UNL     1      10.695  -4.992   4.907  1.00  0.00     0.249 C 
ATOM     15  O   UNL     1      10.681  -5.551   5.997  1.00  0.00    -0.272 OA
ATOM     16  H   UNL     1       9.747  -4.394   3.226  1.00  0.00     0.164 HD
BRANCH  14  17
ATOM     17  C   UNL     1      11.901  -4.186   4.379  1.00  0.00     0.207 C 
BRANCH  17  18
ATOM     18  C   UNL     1      11.849  -4.084   2.851  1.00  0.00     0.077 C 
BRANCH  18  19
ATOM     19  C   UNL     1      12.202  -2.695   2.368  1.00  0.00    -0.043 A 
ATOM     20  C   UNL     1      12.617  -0.351   2.831  1.00  0.00     0.083 A 
ATOM     21  C   UNL     1      12.340  -1.641   3.285  1.00  0.00     0.028 A 
ATOM     22  C   UNL     1      12.756  -0.105   1.465  1.00  0.00     0.134 A 
ATOM     23  C   UNL     1      12.621  -1.140   0.547  1.00  0.00     0.048 A 
ATOM     24  C   UNL     1      12.342  -2.432   0.997  1.00  0.00     0.008 A 
ATOM     25  Cl  UNL     1      12.784   0.932   3.972  1.00  0.00    -0.080 Cl
BRANCH  22  26
ATOM     26  O   UNL     1      13.017   1.145   0.973  1.00  0.00    -0.506 OA
ATOM     27  H   UNL     1      12.364   1.311   0.268  1.00  0.00     0.293 HD
ENDBRANCH  22  26
ENDBRANCH  18  19
ENDBRANCH  17  18
BRANCH  17  28
ATOM     28  O   UNL     1      13.141  -4.793   4.774  1.00  0.00    -0.383 OA
ATOM     29  H   UNL     1      13.214  -4.655   5.746  1.00  0.00     0.211 HD
ENDBRANCH  17  28
ENDBRANCH  14  17
ENDBRANCH  12  13
BRANCH  12  30
ATOM     30  C   UNL     1       8.403  -7.195   3.822  1.00  0.00     0.018 C 
ATOM     31  C   UNL     1       8.521  -8.109   5.052  1.00  0.00     0.010 C 
BRANCH  30  32
ATOM     32  C   UNL     1       9.520  -7.528   2.803  1.00  0.00     0.002 C 
ATOM     33  C   UNL     1      10.256  -8.839   3.048  1.00  0.00     0.004 C 
ENDBRANCH  30  32
ENDBRANCH  12  30
ENDBRANCH  10  12
ENDBRANCH   1  10
BRANCH   5  34
ATOM     34  C   UNL     1       7.796  -1.703   3.967  1.00  0.00     0.242 C 
ATOM     35  O   UNL     1       8.655  -2.107   4.751  1.00  0.00    -0.273 OA
ATOM     36  N   UNL     1       7.862  -0.463   3.372  1.00  0.00    -0.354 N 
ATOM     37  H   UNL     1       7.063  -0.136   2.828  1.00  0.00     0.163 HD
BRANCH  36  38
ATOM     38  C   UNL     1       9.061   0.349   3.407  1.00  0.00     0.116 C 
BRANCH  38  39
ATOM     39  C   UNL     1       8.692   1.807   3.665  1.00  0.00     0.023 C 
BRANCH  39  40
ATOM     40  C   UNL     1       8.901   2.213   5.120  1.00  0.00     0.026 C 
BRANCH  40  41
ATOM     41  C   UNL     1       7.619   2.009   5.929  1.00  0.00     0.146 C 
BRANCH  41  42
ATOM     42  N   UNL     1       7.941   1.916   7.347  1.00  0.00    -0.254 NA
ATOM     43  C   UNL     1       8.131   0.768   7.879  1.00  0.00     0.185 C 
ATOM     44  N   UNL     1       8.085  -0.460   7.329  1.00  0.00    -0.370 N 
ATOM     45  N   UNL     1       8.422   0.703   9.189  1.00  0.00    -0.370 N 
ATOM     46  H   UNL     1       8.011  -1.279   7.908  1.00  0.00     0.159 HD
ATOM     47  H   UNL     1       7.890  -0.594   6.342  1.00  0.00     0.159 HD
ATOM     48  H   UNL     1       8.485   1.586   9.678  1.00  0.00     0.159 HD
ATOM     49  H   UNL     1       8.811  -0.116   9.620  1.00  0.00     0.159 HD
ENDBRANCH  41  42
ENDBRANCH  40  41
ENDBRANCH  39  40
ENDBRANCH  38  39
ENDBRANCH  36  38
ENDBRANCH   5  34
BRANCH   8  50
ATOM     50  O   UNL     1       6.580  -2.741   8.437  1.00  0.00    -0.245 OA
BRANCH  50  51
ATOM     51  S   UNL     1       6.754  -2.441  10.026  1.00  0.00     0.397 S 
ATOM     52  O   UNL     1       8.130  -2.065  10.262  1.00  0.00    -0.169 OA
ATOM     53  O   UNL     1       6.111  -3.488  10.793  1.00  0.00    -0.169 OA
BRANCH  51  54
ATOM     54  O   UNL     1       5.895  -1.094  10.209  1.00  0.00    -0.264 OA
ATOM     55  H   UNL     1       6.201  -0.451   9.537  1.00  0.00     0.236 HD
ENDBRANCH  51  54
ENDBRANCH  50  51
ENDBRANCH   8  50
TORSDOF 19
ENDMDL
MODEL 6
REMARK VINA RESULT:    -6.867     11.369     14.345
REMARK INTER + INTRA:         -18.739
REMARK INTER:                 -15.080
REMARK INTRA:                  -3.659
REMARK UNBOUND:                -4.846
REMARK SMILES CC[C@@H](C)[C@@H](NC(=O)[C@@H](O)Cc1ccc(O)c(Cl)c1)C(=O)N1[C@H](C(=O)NCCCCN=C(N)N)C[C@H]2CC[C@H](OS(=O)(=O)O)C[C@@H]21
REMARK SMILES IDX 22 1 36 2 46 3 35 4 23 5 45 6 37 7 39 8 38 9 20 10 21 11
REMARK SMILES IDX 5 12 6 13 7 14 8 15 9 17 11 18 12 19 17 20 19 21 15 22 14 23
REMARK SMILES IDX 13 24 18 25 16 26 10 28 3 30 4 31 2 32 1 33 24 34 25 35
REMARK SMILES IDX 26 36 27 38 28 39 29 40 30 41 31 42 32 43 33 44 34 45 40 50
REMARK SMILES IDX 41 51 42 52 43 53 44 54
REMARK H PARENT 6 16 16 27 10 29 26 37 33 46 33 47 34 48 34 49 44 55
ROOT
ATOM      1  N   UNL     1      -1.959  -6.764   3.403  1.00  0.00    -0.326 N 
ATOM      2  C   UNL     1      -2.679  -4.893   4.636  1.00  0.00     0.014 C 
ATOM      3  C   UNL     1      -2.571  -5.445   3.213  1.00  0.00     0.091 C 
ATOM      4  C   UNL     1      -1.435  -5.452   5.309  1.00  0.00     0.041 C 
ATOM      5  C   UNL     1      -1.481  -6.905   4.800  1.00  0.00     0.175 C 
ATOM      6  C   UNL     1      -3.951  -5.374   2.560  1.00  0.00     0.059 C 
ATOM      7  C   UNL     1      -2.905  -3.393   4.620  1.00  0.00     0.008 C 
ATOM      8  C   UNL     1      -4.808  -4.187   3.049  1.00  0.00     0.143 C 
ATOM      9  C   UNL     1      -3.942  -3.011   3.543  1.00  0.00     0.034 C 
ENDROOT
BRANCH   1  10
ATOM     10  C   UNL     1      -1.601  -7.720   2.467  1.00  0.00     0.246 C 
ATOM     11  O   UNL     1      -2.343  -8.691   2.285  1.00  0.00    -0.272 OA
BRANCH  10  12
ATOM     12  C   UNL     1      -0.299  -7.530   1.637  1.00  0.00     0.174 C 
BRANCH  12  13
ATOM     13  N   UNL     1      -0.630  -7.084   0.284  1.00  0.00    -0.342 N 
ATOM     14  C   UNL     1      -0.772  -5.770  -0.103  1.00  0.00     0.249 C 
ATOM     15  O   UNL     1      -0.606  -4.817   0.648  1.00  0.00    -0.272 OA
ATOM     16  H   UNL     1      -0.949  -7.761  -0.405  1.00  0.00     0.164 HD
BRANCH  14  17
ATOM     17  C   UNL     1      -1.143  -5.625  -1.594  1.00  0.00     0.207 C 
BRANCH  17  18
ATOM     18  C   UNL     1      -1.528  -6.985  -2.185  1.00  0.00     0.077 C 
BRANCH  18  19
ATOM     19  C   UNL     1      -2.979  -7.024  -2.608  1.00  0.00    -0.043 A 
ATOM     20  C   UNL     1      -5.226  -6.116  -2.498  1.00  0.00     0.083 A 
ATOM     21  C   UNL     1      -3.877  -6.049  -2.146  1.00  0.00     0.028 A 
ATOM     22  C   UNL     1      -5.685  -7.154  -3.309  1.00  0.00     0.134 A 
ATOM     23  C   UNL     1      -4.806  -8.126  -3.774  1.00  0.00     0.048 A 
ATOM     24  C   UNL     1      -3.456  -8.063  -3.422  1.00  0.00     0.008 A 
ATOM     25  Cl  UNL     1      -6.314  -4.910  -1.920  1.00  0.00    -0.080 Cl
BRANCH  22  26
ATOM     26  O   UNL     1      -7.000  -7.267  -3.672  1.00  0.00    -0.506 OA
ATOM     27  H   UNL     1      -7.211  -6.481  -4.208  1.00  0.00     0.293 HD
ENDBRANCH  22  26
ENDBRANCH  18  19
ENDBRANCH  17  18
BRANCH  17  28
ATOM     28  O   UNL     1      -0.052  -5.070  -2.347  1.00  0.00    -0.383 OA
ATOM     29  H   UNL     1       0.221  -4.254  -1.868  1.00  0.00     0.211 HD
ENDBRANCH  17  28
ENDBRANCH  14  17
ENDBRANCH  12  13
BRANCH  12  30
ATOM     30  C   UNL     1       0.604  -8.793   1.640  1.00  0.00     0.018 C 
ATOM     31  C   UNL     1       1.290  -8.970   3.004  1.00  0.00     0.010 C 
BRANCH  30  32
ATOM     32  C   UNL     1       1.660  -8.805   0.508  1.00  0.00     0.002 C 
ATOM     33  C   UNL     1       2.691  -9.922   0.591  1.00  0.00     0.004 C 
ENDBRANCH  30  32
ENDBRANCH  12  30
ENDBRANCH  10  12
ENDBRANCH   1  10
BRANCH   5  34
ATOM     34  C   UNL     1      -2.463  -7.772   5.633  1.00  0.00     0.242 C 
ATOM     35  O   UNL     1      -3.040  -7.338   6.630  1.00  0.00    -0.273 OA
ATOM     36  N   UNL     1      -2.598  -9.075   5.208  1.00  0.00    -0.354 N 
ATOM     37  H   UNL     1      -2.003  -9.409   4.450  1.00  0.00     0.163 HD
BRANCH  36  38
ATOM     38  C   UNL     1      -3.624  -9.955   5.729  1.00  0.00     0.116 C 
BRANCH  38  39
ATOM     39  C   UNL     1      -4.583 -10.352   4.610  1.00  0.00     0.023 C 
BRANCH  39  40
ATOM     40  C   UNL     1      -5.221  -9.144   3.933  1.00  0.00     0.026 C 
BRANCH  40  41
ATOM     41  C   UNL     1      -6.621  -8.886   4.489  1.00  0.00     0.146 C 
BRANCH  41  42
ATOM     42  N   UNL     1      -6.580  -7.775   5.430  1.00  0.00    -0.254 NA
ATOM     43  C   UNL     1      -6.934  -7.962   6.646  1.00  0.00     0.185 C 
ATOM     44  N   UNL     1      -7.368  -9.078   7.260  1.00  0.00    -0.370 N 
ATOM     45  N   UNL     1      -6.894  -6.923   7.497  1.00  0.00    -0.370 N 
ATOM     46  H   UNL     1      -7.840  -9.026   8.146  1.00  0.00     0.159 HD
ATOM     47  H   UNL     1      -7.446  -9.962   6.765  1.00  0.00     0.159 HD
ATOM     48  H   UNL     1      -6.569  -6.044   7.117  1.00  0.00     0.159 HD
ATOM     49  H   UNL     1      -6.923  -7.036   8.495  1.00  0.00     0.159 HD
ENDBRANCH  41  42
ENDBRANCH  40  41
ENDBRANCH  39  40
ENDBRANCH  38  39
ENDBRANCH  36  38
ENDBRANCH   5  34
BRANCH   8  50
ATOM     50  O   UNL     1      -5.659  -4.604   4.118  1.00  0.00    -0.245 OA
BRANCH  50  51
ATOM     51  S   UNL     1      -7.192  -4.065   4.181  1.00  0.00     0.397 S 
ATOM     52  O   UNL     1      -7.668  -3.914   2.825  1.00  0.00    -0.169 OA
ATOM     53  O   UNL     1      -7.289  -2.988   5.145  1.00  0.00    -0.169 OA
BRANCH  51  54
ATOM     54  O   UNL     1      -7.971  -5.338   4.780  1.00  0.00    -0.264 OA
ATOM     55  H   UNL     1      -8.929  -5.140   4.757  1.00  0.00     0.236 HD
ENDBRANCH  51  54
ENDBRANCH  50  51
ENDBRANCH   8  50
TORSDOF 19
ENDMDL
MODEL 7
REMARK VINA RESULT:    -6.645     12.013     15.126
REMARK INTER + INTRA:         -18.290
REMARK INTER:                 -16.083
REMARK INTRA:                  -2.207
REMARK UNBOUND:                -4.846
REMARK SMILES CC[C@@H](C)[C@@H](NC(=O)[C@@H](O)Cc1ccc(O)c(Cl)c1)C(=O)N1[C@H](C(=O)NCCCCN=C(N)N)C[C@H]2CC[C@H](OS(=O)(=O)O)C[C@@H]21
REMARK SMILES IDX 22 1 36 2 46 3 35 4 23 5 45 6 37 7 39 8 38 9 20 10 21 11
REMARK SMILES IDX 5 12 6 13 7 14 8 15 9 17 11 18 12 19 17 20 19 21 15 22 14 23
REMARK SMILES IDX 13 24 18 25 16 26 10 28 3 30 4 31 2 32 1 33 24 34 25 35
REMARK SMILES IDX 26 36 27 38 28 39 29 40 30 41 31 42 32 43 33 44 34 45 40 50
REMARK SMILES IDX 41 51 42 52 43 53 44 54
REMARK H PARENT 6 16 16 27 10 29 26 37 33 46 33 47 34 48 34 49 44 55
ROOT
ATOM      1  N   UNL     1      -0.532  -6.354  -0.060  1.00  0.00    -0.326 N 
ATOM      2  C   UNL     1      -0.606  -6.199   2.288  1.00  0.00     0.014 C 
ATOM      3  C   UNL     1      -0.545  -5.354   1.012  1.00  0.00     0.091 C 
ATOM      4  C   UNL     1       0.221  -7.422   1.920  1.00  0.00     0.041 C 
ATOM      5  C   UNL     1      -0.329  -7.708   0.510  1.00  0.00     0.175 C 
ATOM      6  C   UNL     1      -1.690  -4.344   1.047  1.00  0.00     0.059 C 
ATOM      7  C   UNL     1      -0.218  -5.378   3.501  1.00  0.00     0.008 C 
ATOM      8  C   UNL     1      -2.065  -3.878   2.470  1.00  0.00     0.143 C 
ATOM      9  C   UNL     1      -0.875  -3.982   3.446  1.00  0.00     0.034 C 
ENDROOT
BRANCH   1  10
ATOM     10  C   UNL     1      -0.464  -6.182  -1.433  1.00  0.00     0.246 C 
ATOM     11  O   UNL     1       0.552  -5.682  -1.926  1.00  0.00    -0.272 OA
BRANCH  10  12
ATOM     12  C   UNL     1      -1.646  -6.661  -2.325  1.00  0.00     0.174 C 
BRANCH  12  13
ATOM     13  N   UNL     1      -1.195  -6.823  -3.706  1.00  0.00    -0.342 N 
ATOM     14  C   UNL     1      -1.446  -7.923  -4.496  1.00  0.00     0.249 C 
ATOM     15  O   UNL     1      -2.109  -8.886  -4.132  1.00  0.00    -0.272 OA
ATOM     16  H   UNL     1      -0.507  -6.180  -4.090  1.00  0.00     0.164 HD
BRANCH  14  17
ATOM     17  C   UNL     1      -0.820  -7.802  -5.901  1.00  0.00     0.207 C 
BRANCH  17  18
ATOM     18  C   UNL     1      -1.304  -6.525  -6.595  1.00  0.00     0.077 C 
BRANCH  18  19
ATOM     19  C   UNL     1      -2.461  -6.796  -7.530  1.00  0.00    -0.043 A 
ATOM     20  C   UNL     1      -3.391  -6.832  -9.770  1.00  0.00     0.083 A 
ATOM     21  C   UNL     1      -2.307  -6.629  -8.915  1.00  0.00     0.028 A 
ATOM     22  C   UNL     1      -4.631  -7.202  -9.249  1.00  0.00     0.134 A 
ATOM     23  C   UNL     1      -4.798  -7.372  -7.880  1.00  0.00     0.048 A 
ATOM     24  C   UNL     1      -3.715  -7.167  -7.021  1.00  0.00     0.008 A 
ATOM     25  Cl  UNL     1      -3.182  -6.621 -11.469  1.00  0.00    -0.080 Cl
BRANCH  22  26
ATOM     26  O   UNL     1      -5.725  -7.402 -10.047  1.00  0.00    -0.506 OA
ATOM     27  H   UNL     1      -5.972  -8.341  -9.953  1.00  0.00     0.293 HD
ENDBRANCH  22  26
ENDBRANCH  18  19
ENDBRANCH  17  18
BRANCH  17  28
ATOM     28  O   UNL     1      -1.151  -8.940  -6.714  1.00  0.00    -0.383 OA
ATOM     29  H   UNL     1      -0.321  -9.192  -7.180  1.00  0.00     0.211 HD
ENDBRANCH  17  28
ENDBRANCH  14  17
ENDBRANCH  12  13
BRANCH  12  30
ATOM     30  C   UNL     1      -2.893  -5.742  -2.213  1.00  0.00     0.018 C 
ATOM     31  C   UNL     1      -3.796  -6.185  -1.052  1.00  0.00     0.010 C 
BRANCH  30  32
ATOM     32  C   UNL     1      -3.715  -5.648  -3.521  1.00  0.00     0.002 C 
ATOM     33  C   UNL     1      -4.889  -6.613  -3.623  1.00  0.00     0.004 C 
ENDBRANCH  30  32
ENDBRANCH  12  30
ENDBRANCH  10  12
ENDBRANCH   1  10
BRANCH   5  34
ATOM     34  C   UNL     1      -1.670  -8.488   0.567  1.00  0.00     0.242 C 
ATOM     35  O   UNL     1      -1.985  -9.318  -0.285  1.00  0.00    -0.273 OA
ATOM     36  N   UNL     1      -2.504  -8.144   1.608  1.00  0.00    -0.354 N 
ATOM     37  H   UNL     1      -2.240  -7.365   2.211  1.00  0.00     0.163 HD
BRANCH  36  38
ATOM     38  C   UNL     1      -3.686  -8.913   1.937  1.00  0.00     0.116 C 
BRANCH  38  39
ATOM     39  C   UNL     1      -3.464  -9.672   3.242  1.00  0.00     0.023 C 
BRANCH  39  40
ATOM     40  C   UNL     1      -3.791  -8.829   4.470  1.00  0.00     0.026 C 
BRANCH  40  41
ATOM     41  C   UNL     1      -5.224  -8.303   4.401  1.00  0.00     0.146 C 
BRANCH  41  42
ATOM     42  N   UNL     1      -5.796  -8.253   5.740  1.00  0.00    -0.254 NA
ATOM     43  C   UNL     1      -6.842  -7.547   5.956  1.00  0.00     0.185 C 
ATOM     44  N   UNL     1      -7.563  -6.788   5.112  1.00  0.00    -0.370 N 
ATOM     45  N   UNL     1      -7.350  -7.511   7.199  1.00  0.00    -0.370 N 
ATOM     46  H   UNL     1      -8.207  -6.100   5.463  1.00  0.00     0.159 HD
ATOM     47  H   UNL     1      -7.325  -6.713   4.127  1.00  0.00     0.159 HD
ATOM     48  H   UNL     1      -6.871  -8.064   7.896  1.00  0.00     0.159 HD
ATOM     49  H   UNL     1      -8.280  -7.185   7.397  1.00  0.00     0.159 HD
ENDBRANCH  41  42
ENDBRANCH  40  41
ENDBRANCH  39  40
ENDBRANCH  38  39
ENDBRANCH  36  38
ENDBRANCH   5  34
BRANCH   8  50
ATOM     50  O   UNL     1      -3.138  -4.671   2.979  1.00  0.00    -0.245 OA
BRANCH  50  51
ATOM     51  S   UNL     1      -4.591  -3.985   3.237  1.00  0.00     0.397 S 
ATOM     52  O   UNL     1      -5.338  -4.844   4.127  1.00  0.00    -0.169 OA
ATOM     53  O   UNL     1      -5.144  -3.530   1.978  1.00  0.00    -0.169 OA
BRANCH  51  54
ATOM     54  O   UNL     1      -4.200  -2.688   4.104  1.00  0.00    -0.264 OA
ATOM     55  H   UNL     1      -3.384  -2.897   4.603  1.00  0.00     0.236 HD
ENDBRANCH  51  54
ENDBRANCH  50  51
ENDBRANCH   8  50
TORSDOF 19
ENDMDL
MODEL 8
REMARK VINA RESULT:    -6.510     11.116     14.213
REMARK INTER + INTRA:         -18.016
REMARK INTER:                 -14.868
REMARK INTRA:                  -3.148
REMARK UNBOUND:                -4.846
REMARK SMILES CC[C@@H](C)[C@@H](NC(=O)[C@@H](O)Cc1ccc(O)c(Cl)c1)C(=O)N1[C@H](C(=O)NCCCCN=C(N)N)C[C@H]2CC[C@H](OS(=O)(=O)O)C[C@@H]21
REMARK SMILES IDX 22 1 36 2 46 3 35 4 23 5 45 6 37 7 39 8 38 9 20 10 21 11
REMARK SMILES IDX 5 12 6 13 7 14 8 15 9 17 11 18 12 19 17 20 19 21 15 22 14 23
REMARK SMILES IDX 13 24 18 25 16 26 10 28 3 30 4 31 2 32 1 33 24 34 25 35
REMARK SMILES IDX 26 36 27 38 28 39 29 40 30 41 31 42 32 43 33 44 34 45 40 50
REMARK SMILES IDX 41 51 42 52 43 53 44 54
REMARK H PARENT 6 16 16 27 10 29 26 37 33 46 33 47 34 48 34 49 44 55
ROOT
ATOM      1  N   UNL     1      -1.716  -6.549   4.445  1.00  0.00    -0.326 N 
ATOM      2  C   UNL     1      -2.339  -4.301   4.760  1.00  0.00     0.014 C 
ATOM      3  C   UNL     1      -2.240  -5.401   3.699  1.00  0.00     0.091 C 
ATOM      4  C   UNL     1      -1.145  -4.591   5.656  1.00  0.00     0.041 C 
ATOM      5  C   UNL     1      -1.273  -6.119   5.794  1.00  0.00     0.175 C 
ATOM      6  C   UNL     1      -3.600  -5.539   3.018  1.00  0.00     0.059 C 
ATOM      7  C   UNL     1      -2.470  -2.936   4.114  1.00  0.00     0.008 C 
ATOM      8  C   UNL     1      -4.391  -4.216   2.934  1.00  0.00     0.143 C 
ATOM      9  C   UNL     1      -3.461  -2.985   2.932  1.00  0.00     0.034 C 
ENDROOT
BRANCH   1  10
ATOM     10  C   UNL     1      -1.402  -7.824   4.005  1.00  0.00     0.246 C 
ATOM     11  O   UNL     1      -1.885  -8.798   4.592  1.00  0.00    -0.272 OA
BRANCH  10  12
ATOM     12  C   UNL     1      -0.484  -8.002   2.761  1.00  0.00     0.174 C 
BRANCH  12  13
ATOM     13  N   UNL     1      -1.297  -8.057   1.546  1.00  0.00    -0.342 N 
ATOM     14  C   UNL     1      -1.314  -7.095   0.562  1.00  0.00     0.249 C 
ATOM     15  O   UNL     1      -0.619  -6.086   0.583  1.00  0.00    -0.272 OA
ATOM     16  H   UNL     1      -2.035  -8.752   1.465  1.00  0.00     0.164 HD
BRANCH  14  17
ATOM     17  C   UNL     1      -2.289  -7.433  -0.586  1.00  0.00     0.207 C 
BRANCH  17  18
ATOM     18  C   UNL     1      -2.789  -6.151  -1.259  1.00  0.00     0.077 C 
BRANCH  18  19
ATOM     19  C   UNL     1      -2.787  -6.270  -2.767  1.00  0.00    -0.043 A 
ATOM     20  C   UNL     1      -3.822  -7.057  -4.815  1.00  0.00     0.083 A 
ATOM     21  C   UNL     1      -3.850  -6.905  -3.428  1.00  0.00     0.028 A 
ATOM     22  C   UNL     1      -2.735  -6.580  -5.547  1.00  0.00     0.134 A 
ATOM     23  C   UNL     1      -1.675  -5.949  -4.905  1.00  0.00     0.048 A 
ATOM     24  C   UNL     1      -1.700  -5.797  -3.517  1.00  0.00     0.008 A 
ATOM     25  Cl  UNL     1      -5.137  -7.840  -5.609  1.00  0.00    -0.080 Cl
BRANCH  22  26
ATOM     26  O   UNL     1      -2.657  -6.715  -6.907  1.00  0.00    -0.506 OA
ATOM     27  H   UNL     1      -1.718  -6.871  -7.120  1.00  0.00     0.293 HD
ENDBRANCH  22  26
ENDBRANCH  18  19
ENDBRANCH  17  18
BRANCH  17  28
ATOM     28  O   UNL     1      -3.412  -8.188  -0.104  1.00  0.00    -0.383 OA
ATOM     29  H   UNL     1      -4.210  -7.648  -0.307  1.00  0.00     0.211 HD
ENDBRANCH  17  28
ENDBRANCH  14  17
ENDBRANCH  12  13
BRANCH  12  30
ATOM     30  C   UNL     1       0.472  -9.218   2.889  1.00  0.00     0.018 C 
ATOM     31  C   UNL     1       1.454  -9.020   4.054  1.00  0.00     0.010 C 
BRANCH  30  32
ATOM     32  C   UNL     1       1.247  -9.539   1.588  1.00  0.00     0.002 C 
ATOM     33  C   UNL     1       2.610 -10.191   1.786  1.00  0.00     0.004 C 
ENDBRANCH  30  32
ENDBRANCH  12  30
ENDBRANCH  10  12
ENDBRANCH   1  10
BRANCH   5  34
ATOM     34  C   UNL     1      -2.322  -6.511   6.868  1.00  0.00     0.242 C 
ATOM     35  O   UNL     1      -2.108  -6.382   8.074  1.00  0.00    -0.273 OA
ATOM     36  N   UNL     1      -3.484  -7.063   6.378  1.00  0.00    -0.354 N 
ATOM     37  H   UNL     1      -3.553  -7.255   5.378  1.00  0.00     0.163 HD
BRANCH  36  38
ATOM     38  C   UNL     1      -4.647  -7.284   7.213  1.00  0.00     0.116 C 
BRANCH  38  39
ATOM     39  C   UNL     1      -5.875  -6.641   6.573  1.00  0.00     0.023 C 
BRANCH  39  40
ATOM     40  C   UNL     1      -6.974  -7.655   6.275  1.00  0.00     0.026 C 
BRANCH  40  41
ATOM     41  C   UNL     1      -6.406  -9.073   6.228  1.00  0.00     0.146 C 
BRANCH  41  42
ATOM     42  N   UNL     1      -6.857  -9.745   5.017  1.00  0.00    -0.254 NA
ATOM     43  C   UNL     1      -6.079  -9.812   4.003  1.00  0.00     0.185 C 
ATOM     44  N   UNL     1      -4.828  -9.343   3.840  1.00  0.00    -0.370 N 
ATOM     45  N   UNL     1      -6.515 -10.432   2.894  1.00  0.00    -0.370 N 
ATOM     46  H   UNL     1      -4.431  -9.251   2.920  1.00  0.00     0.159 HD
ATOM     47  H   UNL     1      -4.339  -8.858   4.586  1.00  0.00     0.159 HD
ATOM     48  H   UNL     1      -7.446 -10.823   2.936  1.00  0.00     0.159 HD
ATOM     49  H   UNL     1      -5.898 -10.731   2.160  1.00  0.00     0.159 HD
ENDBRANCH  41  42
ENDBRANCH  40  41
ENDBRANCH  39  40
ENDBRANCH  38  39
ENDBRANCH  36  38
ENDBRANCH   5  34
BRANCH   8  50
ATOM     50  O   UNL     1      -5.285  -4.107   4.042  1.00  0.00    -0.245 OA
BRANCH  50  51
ATOM     51  S   UNL     1      -6.778  -3.504   3.814  1.00  0.00     0.397 S 
ATOM     52  O   UNL     1      -7.511  -3.647   5.051  1.00  0.00    -0.169 OA
ATOM     53  O   UNL     1      -7.309  -3.986   2.556  1.00  0.00    -0.169 OA
BRANCH  51  54
ATOM     54  O   UNL     1      -6.484  -1.931   3.657  1.00  0.00    -0.264 OA
ATOM     55  H   UNL     1      -6.706  -1.500   4.508  1.00  0.00     0.236 HD
ENDBRANCH  51  54
ENDBRANCH  50  51
ENDBRANCH   8  50
TORSDOF 19
ENDMDL
MODEL 9
REMARK VINA RESULT:    -6.487     11.370     14.542
REMARK INTER + INTRA:         -17.970
REMARK INTER:                 -15.455
REMARK INTRA:                  -2.514
REMARK UNBOUND:                -4.846
REMARK SMILES CC[C@@H](C)[C@@H](NC(=O)[C@@H](O)Cc1ccc(O)c(Cl)c1)C(=O)N1[C@H](C(=O)NCCCCN=C(N)N)C[C@H]2CC[C@H](OS(=O)(=O)O)C[C@@H]21
REMARK SMILES IDX 22 1 36 2 46 3 35 4 23 5 45 6 37 7 39 8 38 9 20 10 21 11
REMARK SMILES IDX 5 12 6 13 7 14 8 15 9 17 11 18 12 19 17 20 19 21 15 22 14 23
REMARK SMILES IDX 13 24 18 25 16 26 10 28 3 30 4 31 2 32 1 33 24 34 25 35
REMARK SMILES IDX 26 36 27 38 28 39 29 40 30 41 31 42 32 43 33 44 34 45 40 50
REMARK SMILES IDX 41 51 42 52 43 53 44 54
REMARK H PARENT 6 16 16 27 10 29 26 37 33 46 33 47 34 48 34 49 44 55
ROOT
ATOM      1  N   UNL     1      -1.703  -6.187   2.670  1.00  0.00    -0.326 N 
ATOM      2  C   UNL     1      -2.424  -4.631   4.283  1.00  0.00     0.014 C 
ATOM      3  C   UNL     1      -2.406  -4.905   2.777  1.00  0.00     0.091 C 
ATOM      4  C   UNL     1      -1.095  -5.210   4.744  1.00  0.00     0.041 C 
ATOM      5  C   UNL     1      -1.098  -6.544   3.977  1.00  0.00     0.175 C 
ATOM      6  C   UNL     1      -3.839  -4.819   2.253  1.00  0.00     0.059 C 
ATOM      7  C   UNL     1      -2.739  -3.176   4.566  1.00  0.00     0.008 C 
ATOM      8  C   UNL     1      -4.720  -3.809   3.018  1.00  0.00     0.143 C 
ATOM      9  C   UNL     1      -3.886  -2.681   3.660  1.00  0.00     0.034 C 
ENDROOT
BRANCH   1  10
ATOM     10  C   UNL     1      -1.370  -6.926   1.547  1.00  0.00     0.246 C 
ATOM     11  O   UNL     1      -0.997  -8.095   1.687  1.00  0.00    -0.272 OA
BRANCH  10  12
ATOM     12  C   UNL     1      -1.514  -6.285   0.136  1.00  0.00     0.174 C 
BRANCH  12  13
ATOM     13  N   UNL     1      -2.301  -7.161  -0.731  1.00  0.00    -0.342 N 
ATOM     14  C   UNL     1      -3.578  -6.896  -1.173  1.00  0.00     0.249 C 
ATOM     15  O   UNL     1      -4.193  -5.871  -0.906  1.00  0.00    -0.272 OA
ATOM     16  H   UNL     1      -1.986  -8.112  -0.906  1.00  0.00     0.164 HD
BRANCH  14  17
ATOM     17  C   UNL     1      -4.147  -8.023  -2.061  1.00  0.00     0.207 C 
BRANCH  17  18
ATOM     18  C   UNL     1      -4.713  -7.446  -3.362  1.00  0.00     0.077 C 
BRANCH  18  19
ATOM     19  C   UNL     1      -3.616  -7.017  -4.310  1.00  0.00    -0.043 A 
ATOM     20  C   UNL     1      -2.369  -7.338  -6.366  1.00  0.00     0.083 A 
ATOM     21  C   UNL     1      -3.413  -7.706  -5.517  1.00  0.00     0.028 A 
ATOM     22  C   UNL     1      -1.522  -6.286  -6.017  1.00  0.00     0.134 A 
ATOM     23  C   UNL     1      -1.711  -5.596  -4.826  1.00  0.00     0.048 A 
ATOM     24  C   UNL     1      -2.755  -5.962  -3.972  1.00  0.00     0.008 A 
ATOM     25  Cl  UNL     1      -2.135  -8.197  -7.844  1.00  0.00    -0.080 Cl
BRANCH  22  26
ATOM     26  O   UNL     1      -0.478  -5.897  -6.812  1.00  0.00    -0.506 OA
ATOM     27  H   UNL     1      -0.665  -4.981  -7.092  1.00  0.00     0.293 HD
ENDBRANCH  22  26
ENDBRANCH  18  19
ENDBRANCH  17  18
BRANCH  17  28
ATOM     28  O   UNL     1      -5.177  -8.752  -1.375  1.00  0.00    -0.383 OA
ATOM     29  H   UNL     1      -4.723  -9.269  -0.672  1.00  0.00     0.211 HD
ENDBRANCH  17  28
ENDBRANCH  14  17
ENDBRANCH  12  13
BRANCH  12  30
ATOM     30  C   UNL     1      -0.147  -5.902  -0.491  1.00  0.00     0.018 C 
ATOM     31  C   UNL     1      -0.281  -4.649  -1.371  1.00  0.00     0.010 C 
BRANCH  30  32
ATOM     32  C   UNL     1       0.510  -7.049  -1.296  1.00  0.00     0.002 C 
ATOM     33  C   UNL     1       1.843  -7.546  -0.751  1.00  0.00     0.004 C 
ENDBRANCH  30  32
ENDBRANCH  12  30
ENDBRANCH  10  12
ENDBRANCH   1  10
BRANCH   5  34
ATOM     34  C   UNL     1      -1.950  -7.620   4.701  1.00  0.00     0.242 C 
ATOM     35  O   UNL     1      -1.683  -8.017   5.835  1.00  0.00    -0.273 OA
ATOM     36  N   UNL     1      -2.993  -8.135   3.965  1.00  0.00    -0.354 N 
ATOM     37  H   UNL     1      -3.091  -7.853   2.988  1.00  0.00     0.163 HD
BRANCH  36  38
ATOM     38  C   UNL     1      -4.012  -8.980   4.552  1.00  0.00     0.116 C 
BRANCH  38  39
ATOM     39  C   UNL     1      -5.243  -8.145   4.897  1.00  0.00     0.023 C 
BRANCH  39  40
ATOM     40  C   UNL     1      -6.142  -8.828   5.921  1.00  0.00     0.026 C 
BRANCH  40  41
ATOM     41  C   UNL     1      -5.760 -10.300   6.083  1.00  0.00     0.146 C 
BRANCH  41  42
ATOM     42  N   UNL     1      -5.834 -10.676   7.488  1.00  0.00    -0.254 NA
ATOM     43  C   UNL     1      -4.770 -10.682   8.199  1.00  0.00     0.185 C 
ATOM     44  N   UNL     1      -3.502 -10.381   7.862  1.00  0.00    -0.370 N 
ATOM     45  N   UNL     1      -4.859 -11.037   9.492  1.00  0.00    -0.370 N 
ATOM     46  H   UNL     1      -2.735 -10.663   8.449  1.00  0.00     0.159 HD
ATOM     47  H   UNL     1      -3.257 -10.080   6.924  1.00  0.00     0.159 HD
ATOM     48  H   UNL     1      -5.782 -11.271   9.830  1.00  0.00     0.159 HD
ATOM     49  H   UNL     1      -4.135 -10.842  10.160  1.00  0.00     0.159 HD
ENDBRANCH  41  42
ENDBRANCH  40  41
ENDBRANCH  39  40
ENDBRANCH  38  39
ENDBRANCH  36  38
ENDBRANCH   5  34
BRANCH   8  50
ATOM     50  O   UNL     1      -5.449  -4.476   4.049  1.00  0.00    -0.245 OA
BRANCH  50  51
ATOM     51  S   UNL     1      -7.068  -4.332   4.112  1.00  0.00     0.397 S 
ATOM     52  O   UNL     1      -7.590  -5.468   4.836  1.00  0.00    -0.169 OA
ATOM     53  O   UNL     1      -7.574  -3.966   2.805  1.00  0.00    -0.169 OA
BRANCH  51  54
ATOM     54  O   UNL     1      -7.254  -3.067   5.087  1.00  0.00    -0.264 OA
ATOM     55  H   UNL     1      -8.169  -2.736   4.976  1.00  0.00     0.236 HD
ENDBRANCH  51  54
ENDBRANCH  50  51
ENDBRANCH   8  50
TORSDOF 19
ENDMDL
MODEL 10
REMARK VINA RESULT:    -6.485     11.371     14.284
REMARK INTER + INTRA:         -17.965
REMARK INTER:                 -13.729
REMARK INTRA:                  -4.236
REMARK UNBOUND:                -4.846
REMARK SMILES CC[C@@H](C)[C@@H](NC(=O)[C@@H](O)Cc1ccc(O)c(Cl)c1)C(=O)N1[C@H](C(=O)NCCCCN=C(N)N)C[C@H]2CC[C@H](OS(=O)(=O)O)C[C@@H]21
REMARK SMILES IDX 22 1 36 2 46 3 35 4 23 5 45 6 37 7 39 8 38 9 20 10 21 11
REMARK SMILES IDX 5 12 6 13 7 14 8 15 9 17 11 18 12 19 17 20 19 21 15 22 14 23
REMARK SMILES IDX 13 24 18 25 16 26 10 28 3 30 4 31 2 32 1 33 24 34 25 35
REMARK SMILES IDX 26 36 27 38 28 39 29 40 30 41 31 42 32 43 33 44 34 45 40 50
REMARK SMILES IDX 41 51 42 52 43 53 44 54
REMARK H PARENT 6 16 16 27 10 29 26 37 33 46 33 47 34 48 34 49 44 55
ROOT
ATOM      1  N   UNL     1      -1.146  -6.389   3.473  1.00  0.00    -0.326 N 
ATOM      2  C   UNL     1      -2.244  -4.653   4.624  1.00  0.00     0.014 C 
ATOM      3  C   UNL     1      -1.637  -5.023   3.267  1.00  0.00     0.091 C 
ATOM      4  C   UNL     1      -1.328  -5.367   5.606  1.00  0.00     0.041 C 
ATOM      5  C   UNL     1      -1.202  -6.736   4.915  1.00  0.00     0.175 C 
ATOM      6  C   UNL     1      -2.690  -4.787   2.186  1.00  0.00     0.059 C 
ATOM      7  C   UNL     1      -2.435  -3.153   4.741  1.00  0.00     0.008 C 
ATOM      8  C   UNL     1      -3.656  -3.624   2.503  1.00  0.00     0.143 C 
ATOM      9  C   UNL     1      -3.014  -2.575   3.432  1.00  0.00     0.034 C 
ENDROOT
BRANCH   1  10
ATOM     10  C   UNL     1      -0.484  -7.235   2.600  1.00  0.00     0.246 C 
ATOM     11  O   UNL     1       0.681  -7.563   2.847  1.00  0.00    -0.272 OA
BRANCH  10  12
ATOM     12  C   UNL     1      -1.233  -7.788   1.353  1.00  0.00     0.174 C 
BRANCH  12  13
ATOM     13  N   UNL     1      -1.232  -6.788   0.286  1.00  0.00    -0.342 N 
ATOM     14  C   UNL     1      -0.276  -6.686  -0.700  1.00  0.00     0.249 C 
ATOM     15  O   UNL     1       0.676  -7.450  -0.809  1.00  0.00    -0.272 OA
ATOM     16  H   UNL     1      -1.867  -5.996   0.337  1.00  0.00     0.164 HD
BRANCH  14  17
ATOM     17  C   UNL     1      -0.543  -5.516  -1.670  1.00  0.00     0.207 C 
BRANCH  17  18
ATOM     18  C   UNL     1      -1.084  -6.039  -3.004  1.00  0.00     0.077 C 
BRANCH  18  19
ATOM     19  C   UNL     1      -2.540  -6.435  -2.903  1.00  0.00    -0.043 A 
ATOM     20  C   UNL     1      -4.323  -8.020  -3.342  1.00  0.00     0.083 A 
ATOM     21  C   UNL     1      -2.971  -7.679  -3.392  1.00  0.00     0.028 A 
ATOM     22  C   UNL     1      -5.251  -7.125  -2.808  1.00  0.00     0.134 A 
ATOM     23  C   UNL     1      -4.838  -5.891  -2.321  1.00  0.00     0.048 A 
ATOM     24  C   UNL     1      -3.485  -5.545  -2.371  1.00  0.00     0.008 A 
ATOM     25  Cl  UNL     1      -4.833  -9.553  -3.947  1.00  0.00    -0.080 Cl
BRANCH  22  26
ATOM     26  O   UNL     1      -6.588  -7.412  -2.748  1.00  0.00    -0.506 OA
ATOM     27  H   UNL     1      -6.991  -6.745  -2.162  1.00  0.00     0.293 HD
ENDBRANCH  22  26
ENDBRANCH  18  19
ENDBRANCH  17  18
BRANCH  17  28
ATOM     28  O   UNL     1       0.653  -4.756  -1.906  1.00  0.00    -0.383 OA
ATOM     29  H   UNL     1       1.398  -5.397  -1.851  1.00  0.00     0.211 HD
ENDBRANCH  17  28
ENDBRANCH  14  17
ENDBRANCH  12  13
BRANCH  12  30
ATOM     30  C   UNL     1      -2.662  -8.295   1.687  1.00  0.00     0.018 C 
ATOM     31  C   UNL     1      -2.624  -9.750   2.180  1.00  0.00     0.010 C 
BRANCH  30  32
ATOM     32  C   UNL     1      -3.661  -8.157   0.513  1.00  0.00     0.002 C 
ATOM     33  C   UNL     1      -4.250  -9.466   0.002  1.00  0.00     0.004 C 
ENDBRANCH  30  32
ENDBRANCH  12  30
ENDBRANCH  10  12
ENDBRANCH   1  10
BRANCH   5  34
ATOM     34  C   UNL     1      -2.424  -7.644   5.215  1.00  0.00     0.242 C 
ATOM     35  O   UNL     1      -3.522  -7.465   4.687  1.00  0.00    -0.273 OA
ATOM     36  N   UNL     1      -2.207  -8.628   6.153  1.00  0.00    -0.354 N 
ATOM     37  H   UNL     1      -1.312  -8.650   6.644  1.00  0.00     0.163 HD
BRANCH  36  38
ATOM     38  C   UNL     1      -3.161  -9.690   6.395  1.00  0.00     0.116 C 
BRANCH  38  39
ATOM     39  C   UNL     1      -4.174  -9.248   7.449  1.00  0.00     0.023 C 
BRANCH  39  40
ATOM     40  C   UNL     1      -5.578  -9.768   7.162  1.00  0.00     0.026 C 
BRANCH  40  41
ATOM     41  C   UNL     1      -6.147  -9.126   5.897  1.00  0.00     0.146 C 
BRANCH  41  42
ATOM     42  N   UNL     1      -6.963  -7.973   6.254  1.00  0.00    -0.254 NA
ATOM     43  C   UNL     1      -6.913  -6.915   5.536  1.00  0.00     0.185 C 
ATOM     44  N   UNL     1      -6.192  -6.653   4.430  1.00  0.00    -0.370 N 
ATOM     45  N   UNL     1      -7.669  -5.861   5.885  1.00  0.00    -0.370 N 
ATOM     46  H   UNL     1      -6.064  -5.707   4.113  1.00  0.00     0.159 HD
ATOM     47  H   UNL     1      -5.575  -7.347   4.020  1.00  0.00     0.159 HD
ATOM     48  H   UNL     1      -8.250  -5.978   6.704  1.00  0.00     0.159 HD
ATOM     49  H   UNL     1      -7.866  -5.101   5.258  1.00  0.00     0.159 HD
ENDBRANCH  41  42
ENDBRANCH  40  41
ENDBRANCH  39  40
ENDBRANCH  38  39
ENDBRANCH  36  38
ENDBRANCH   5  34
BRANCH   8  50
ATOM     50  O   UNL     1      -4.836  -4.125   3.131  1.00  0.00    -0.245 OA
BRANCH  50  51
ATOM     51  S   UNL     1      -6.197  -3.235   3.107  1.00  0.00     0.397 S 
ATOM     52  O   UNL     1      -7.323  -4.140   3.160  1.00  0.00    -0.169 OA
ATOM     53  O   UNL     1      -6.091  -2.212   2.088  1.00  0.00    -0.169 OA
BRANCH  51  54
ATOM     54  O   UNL     1      -6.150  -2.511   4.542  1.00  0.00    -0.264 OA
ATOM     55  H   UNL     1      -6.465  -3.153   5.211  1.00  0.00     0.236 HD
ENDBRANCH  51  54
ENDBRANCH  50  51
ENDBRANCH   8  50
TORSDOF 19
ENDMDL
MODEL 11
REMARK VINA RESULT:    -6.469      3.374      6.261
REMARK INTER + INTRA:         -17.932
REMARK INTER:                 -15.650
REMARK INTRA:                  -2.282
REMARK UNBOUND:                -4.846
REMARK SMILES CC[C@@H](C)[C@@H](NC(=O)[C@@H](O)Cc1ccc(O)c(Cl)c1)C(=O)N1[C@H](C(=O)NCCCCN=C(N)N)C[C@H]2CC[C@H](OS(=O)(=O)O)C[C@@H]21
REMARK SMILES IDX 22 1 36 2 46 3 35 4 23 5 45 6 37 7 39 8 38 9 20 10 21 11
REMARK SMILES IDX 5 12 6 13 7 14 8 15 9 17 11 18 12 19 17 20 19 21 15 22 14 23
REMARK SMILES IDX 13 24 18 25 16 26 10 28 3 30 4 31 2 32 1 33 24 34 25 35
REMARK SMILES IDX 26 36 27 38 28 39 29 40 30 41 31 42 32 43 33 44 34 45 40 50
REMARK SMILES IDX 41 51 42 52 43 53 44 54
REMARK H PARENT 6 16 16 27 10 29 26 37 33 46 33 47 34 48 34 49 44 55
ROOT
ATOM      1  N   UNL     1       7.218  -0.036   6.200  1.00  0.00    -0.326 N 
ATOM      2  C   UNL     1       5.316  -1.418   6.085  1.00  0.00     0.014 C 
ATOM      3  C   UNL     1       6.675  -1.158   5.429  1.00  0.00     0.091 C 
ATOM      4  C   UNL     1       4.862  -0.022   6.481  1.00  0.00     0.041 C 
ATOM      5  C   UNL     1       6.168   0.528   7.084  1.00  0.00     0.175 C 
ATOM      6  C   UNL     1       7.460  -2.469   5.408  1.00  0.00     0.059 C 
ATOM      7  C   UNL     1       4.432  -2.260   5.185  1.00  0.00     0.008 C 
ATOM      8  C   UNL     1       6.571  -3.723   5.270  1.00  0.00     0.143 C 
ATOM      9  C   UNL     1       5.240  -3.415   4.555  1.00  0.00     0.034 C 
ENDROOT
BRANCH   1  10
ATOM     10  C   UNL     1       8.414   0.646   6.053  1.00  0.00     0.246 C 
ATOM     11  O   UNL     1       9.142   0.803   7.039  1.00  0.00    -0.272 OA
BRANCH  10  12
ATOM     12  C   UNL     1       8.835   1.162   4.646  1.00  0.00     0.174 C 
BRANCH  12  13
ATOM     13  N   UNL     1      10.291   1.267   4.569  1.00  0.00    -0.342 N 
ATOM     14  C   UNL     1      11.023   1.274   3.402  1.00  0.00     0.249 C 
ATOM     15  O   UNL     1      10.525   1.219   2.285  1.00  0.00    -0.272 OA
ATOM     16  H   UNL     1      10.849   1.163   5.413  1.00  0.00     0.164 HD
BRANCH  14  17
ATOM     17  C   UNL     1      12.542   1.379   3.652  1.00  0.00     0.207 C 
BRANCH  17  18
ATOM     18  C   UNL     1      13.043   0.157   4.429  1.00  0.00     0.077 C 
BRANCH  18  19
ATOM     19  C   UNL     1      12.871  -1.120   3.638  1.00  0.00    -0.043 A 
ATOM     20  C   UNL     1      12.064  -3.402   3.480  1.00  0.00     0.083 A 
ATOM     21  C   UNL     1      12.179  -2.208   4.193  1.00  0.00     0.028 A 
ATOM     22  C   UNL     1      12.639  -3.518   2.214  1.00  0.00     0.134 A 
ATOM     23  C   UNL     1      13.326  -2.448   1.653  1.00  0.00     0.048 A 
ATOM     24  C   UNL     1      13.445  -1.252   2.364  1.00  0.00     0.008 A 
ATOM     25  Cl  UNL     1      11.210  -4.728   4.178  1.00  0.00    -0.080 Cl
BRANCH  22  26
ATOM     26  O   UNL     1      12.561  -4.672   1.482  1.00  0.00    -0.506 OA
ATOM     27  H   UNL     1      11.792  -5.167   1.820  1.00  0.00     0.293 HD
ENDBRANCH  22  26
ENDBRANCH  18  19
ENDBRANCH  17  18
BRANCH  17  28
ATOM     28  O   UNL     1      12.864   2.573   4.384  1.00  0.00    -0.383 OA
ATOM     29  H   UNL     1      12.004   2.994   4.610  1.00  0.00     0.211 HD
ENDBRANCH  17  28
ENDBRANCH  14  17
ENDBRANCH  12  13
BRANCH  12  30
ATOM     30  C   UNL     1       8.123   2.485   4.254  1.00  0.00     0.018 C 
ATOM     31  C   UNL     1       8.400   3.582   5.293  1.00  0.00     0.010 C 
BRANCH  30  32
ATOM     32  C   UNL     1       6.598   2.329   4.037  1.00  0.00     0.002 C 
ATOM     33  C   UNL     1       6.194   1.444   2.865  1.00  0.00     0.004 C 
ENDBRANCH  30  32
ENDBRANCH  12  30
ENDBRANCH  10  12
ENDBRANCH   1  10
BRANCH   5  34
ATOM     34  C   UNL     1       6.367   0.051   8.548  1.00  0.00     0.242 C 
ATOM     35  O   UNL     1       6.405   0.836   9.495  1.00  0.00    -0.273 OA
ATOM     36  N   UNL     1       6.552  -1.304   8.702  1.00  0.00    -0.354 N 
ATOM     37  H   UNL     1       6.630  -1.888   7.868  1.00  0.00     0.163 HD
BRANCH  36  38
ATOM     38  C   UNL     1       6.536  -1.944  10.001  1.00  0.00     0.116 C 
BRANCH  38  39
ATOM     39  C   UNL     1       5.378  -2.935  10.077  1.00  0.00     0.023 C 
BRANCH  39  40
ATOM     40  C   UNL     1       5.771  -4.239  10.764  1.00  0.00     0.026 C 
BRANCH  40  41
ATOM     41  C   UNL     1       4.532  -5.070  11.100  1.00  0.00     0.146 C 
BRANCH  41  42
ATOM     42  N   UNL     1       3.883  -4.527  12.286  1.00  0.00    -0.254 NA
ATOM     43  C   UNL     1       3.032  -5.240  12.924  1.00  0.00     0.185 C 
ATOM     44  N   UNL     1       2.598  -6.490  12.684  1.00  0.00    -0.370 N 
ATOM     45  N   UNL     1       2.441  -4.719  14.012  1.00  0.00    -0.370 N 
ATOM     46  H   UNL     1       1.756  -6.832  13.117  1.00  0.00     0.159 HD
ATOM     47  H   UNL     1       2.952  -7.037  11.906  1.00  0.00     0.159 HD
ATOM     48  H   UNL     1       2.719  -3.782  14.269  1.00  0.00     0.159 HD
ATOM     49  H   UNL     1       1.957  -5.281  14.690  1.00  0.00     0.159 HD
ENDBRANCH  41  42
ENDBRANCH  40  41
ENDBRANCH  39  40
ENDBRANCH  38  39
ENDBRANCH  36  38
ENDBRANCH   5  34
BRANCH   8  50
ATOM     50  O   UNL     1       6.278  -4.260   6.561  1.00  0.00    -0.245 OA
BRANCH  50  51
ATOM     51  S   UNL     1       6.377  -5.865   6.804  1.00  0.00     0.397 S 
ATOM     52  O   UNL     1       6.479  -6.507   5.513  1.00  0.00    -0.169 OA
ATOM     53  O   UNL     1       5.385  -6.272   7.778  1.00  0.00    -0.169 OA
BRANCH  51  54
ATOM     54  O   UNL     1       7.827  -6.013   7.482  1.00  0.00    -0.264 OA
ATOM     55  H   UNL     1       7.870  -5.388   8.234  1.00  0.00     0.236 HD
ENDBRANCH  51  54
ENDBRANCH  50  51
ENDBRANCH   8  50
TORSDOF 19
ENDMDL
MODEL 12
REMARK VINA RESULT:    -6.439      3.202      5.909
REMARK INTER + INTRA:         -17.873
REMARK INTER:                 -14.149
REMARK INTRA:                  -3.724
REMARK UNBOUND:                -4.846
REMARK SMILES CC[C@@H](C)[C@@H](NC(=O)[C@@H](O)Cc1ccc(O)c(Cl)c1)C(=O)N1[C@H](C(=O)NCCCCN=C(N)N)C[C@H]2CC[C@H](OS(=O)(=O)O)C[C@@H]21
REMARK SMILES IDX 22 1 36 2 46 3 35 4 23 5 45 6 37 7 39 8 38 9 20 10 21 11
REMARK SMILES IDX 5 12 6 13 7 14 8 15 9 17 11 18 12 19 17 20 19 21 15 22 14 23
REMARK SMILES IDX 13 24 18 25 16 26 10 28 3 30 4 31 2 32 1 33 24 34 25 35
REMARK SMILES IDX 26 36 27 38 28 39 29 40 30 41 31 42 32 43 33 44 34 45 40 50
REMARK SMILES IDX 41 51 42 52 43 53 44 54
REMARK H PARENT 6 16 16 27 10 29 26 37 33 46 33 47 34 48 34 49 44 55
ROOT
ATOM      1  N   UNL     1       7.069  -3.850   4.570  1.00  0.00    -0.326 N 
ATOM      2  C   UNL     1       5.307  -2.540   5.421  1.00  0.00     0.014 C 
ATOM      3  C   UNL     1       5.993  -3.902   5.564  1.00  0.00     0.091 C 
ATOM      4  C   UNL     1       5.430  -2.258   3.932  1.00  0.00     0.041 C 
ATOM      5  C   UNL     1       6.897  -2.662   3.698  1.00  0.00     0.175 C 
ATOM      6  C   UNL     1       6.370  -4.102   7.030  1.00  0.00     0.059 C 
ATOM      7  C   UNL     1       3.935  -2.554   6.065  1.00  0.00     0.008 C 
ATOM      8  C   UNL     1       5.396  -3.427   8.020  1.00  0.00     0.143 C 
ATOM      9  C   UNL     1       3.980  -3.277   7.427  1.00  0.00     0.034 C 
ENDROOT
BRANCH   1  10
ATOM     10  C   UNL     1       8.011  -4.806   4.230  1.00  0.00     0.246 C 
ATOM     11  O   UNL     1       8.443  -5.562   5.107  1.00  0.00    -0.272 OA
BRANCH  10  12
ATOM     12  C   UNL     1       8.471  -4.937   2.749  1.00  0.00     0.174 C 
BRANCH  12  13
ATOM     13  N   UNL     1       8.057  -6.232   2.211  1.00  0.00    -0.342 N 
ATOM     14  C   UNL     1       7.729  -6.472   0.895  1.00  0.00     0.249 C 
ATOM     15  O   UNL     1       7.775  -5.622   0.015  1.00  0.00    -0.272 OA
ATOM     16  H   UNL     1       7.822  -6.990   2.846  1.00  0.00     0.164 HD
BRANCH  14  17
ATOM     17  C   UNL     1       7.314  -7.937   0.643  1.00  0.00     0.207 C 
BRANCH  17  18
ATOM     18  C   UNL     1       8.142  -8.886   1.516  1.00  0.00     0.077 C 
BRANCH  18  19
ATOM     19  C   UNL     1       9.264  -9.533   0.734  1.00  0.00    -0.043 A 
ATOM     20  C   UNL     1      11.521  -9.465  -0.152  1.00  0.00     0.083 A 
ATOM     21  C   UNL     1      10.505  -8.888   0.611  1.00  0.00     0.028 A 
ATOM     22  C   UNL     1      11.305 -10.684  -0.795  1.00  0.00     0.134 A 
ATOM     23  C   UNL     1      10.082 -11.333  -0.681  1.00  0.00     0.048 A 
ATOM     24  C   UNL     1       9.062 -10.758   0.080  1.00  0.00     0.008 A 
ATOM     25  Cl  UNL     1      13.038  -8.657  -0.292  1.00  0.00    -0.080 Cl
BRANCH  22  26
ATOM     26  O   UNL     1      12.268 -11.283  -1.562  1.00  0.00    -0.506 OA
ATOM     27  H   UNL     1      12.100 -11.012  -2.483  1.00  0.00     0.293 HD
ENDBRANCH  22  26
ENDBRANCH  18  19
ENDBRANCH  17  18
BRANCH  17  28
ATOM     28  O   UNL     1       7.483  -8.292  -0.739  1.00  0.00    -0.383 OA
ATOM     29  H   UNL     1       6.661  -8.001  -1.197  1.00  0.00     0.211 HD
ENDBRANCH  17  28
ENDBRANCH  14  17
ENDBRANCH  12  13
BRANCH  12  30
ATOM     30  C   UNL     1       9.992  -4.679   2.569  1.00  0.00     0.018 C 
ATOM     31  C   UNL     1      10.787  -5.988   2.700  1.00  0.00     0.010 C 
BRANCH  30  32
ATOM     32  C   UNL     1      10.560  -3.612   3.536  1.00  0.00     0.002 C 
ATOM     33  C   UNL     1      11.374  -2.505   2.878  1.00  0.00     0.004 C 
ENDBRANCH  30  32
ENDBRANCH  12  30
ENDBRANCH  10  12
ENDBRANCH   1  10
BRANCH   5  34
ATOM     34  C   UNL     1       7.875  -1.530   4.111  1.00  0.00     0.242 C 
ATOM     35  O   UNL     1       8.470  -1.535   5.189  1.00  0.00    -0.273 OA
ATOM     36  N   UNL     1       7.987  -0.494   3.210  1.00  0.00    -0.354 N 
ATOM     37  H   UNL     1       7.379  -0.488   2.391  1.00  0.00     0.163 HD
BRANCH  36  38
ATOM     38  C   UNL     1       9.005   0.529   3.331  1.00  0.00     0.116 C 
BRANCH  38  39
ATOM     39  C   UNL     1       8.361   1.911   3.268  1.00  0.00     0.023 C 
BRANCH  39  40
ATOM     40  C   UNL     1       6.945   1.920   3.834  1.00  0.00     0.026 C 
BRANCH  40  41
ATOM     41  C   UNL     1       6.917   2.580   5.213  1.00  0.00     0.146 C 
BRANCH  41  42
ATOM     42  N   UNL     1       7.746   1.820   6.139  1.00  0.00    -0.254 NA
ATOM     43  C   UNL     1       7.204   0.956   6.912  1.00  0.00     0.185 C 
ATOM     44  N   UNL     1       5.914   0.593   7.034  1.00  0.00    -0.370 N 
ATOM     45  N   UNL     1       7.985   0.269   7.761  1.00  0.00    -0.370 N 
ATOM     46  H   UNL     1       5.599   0.085   7.843  1.00  0.00     0.159 HD
ATOM     47  H   UNL     1       5.187   1.004   6.456  1.00  0.00     0.159 HD
ATOM     48  H   UNL     1       8.974   0.476   7.727  1.00  0.00     0.159 HD
ATOM     49  H   UNL     1       7.684  -0.573   8.218  1.00  0.00     0.159 HD
ENDBRANCH  41  42
ENDBRANCH  40  41
ENDBRANCH  39  40
ENDBRANCH  38  39
ENDBRANCH  36  38
ENDBRANCH   5  34
BRANCH   8  50
ATOM     50  O   UNL     1       5.878  -2.132   8.377  1.00  0.00    -0.245 OA
BRANCH  50  51
ATOM     51  S   UNL     1       6.274  -1.820   9.923  1.00  0.00     0.397 S 
ATOM     52  O   UNL     1       7.713  -1.886  10.038  1.00  0.00    -0.169 OA
ATOM     53  O   UNL     1       5.406  -2.569  10.808  1.00  0.00    -0.169 OA
BRANCH  51  54
ATOM     54  O   UNL     1       5.895  -0.263  10.059  1.00  0.00    -0.264 OA
ATOM     55  H   UNL     1       6.725   0.234  10.210  1.00  0.00     0.236 HD
ENDBRANCH  51  54
ENDBRANCH  50  51
ENDBRANCH   8  50
TORSDOF 19
ENDMDL
MODEL 13
REMARK VINA RESULT:    -6.425     11.240     13.775
REMARK INTER + INTRA:         -17.845
REMARK INTER:                 -14.099
REMARK INTRA:                  -3.746
REMARK UNBOUND:                -4.846
REMARK SMILES CC[C@@H](C)[C@@H](NC(=O)[C@@H](O)Cc1ccc(O)c(Cl)c1)C(=O)N1[C@H](C(=O)NCCCCN=C(N)N)C[C@H]2CC[C@H](OS(=O)(=O)O)C[C@@H]21
REMARK SMILES IDX 22 1 36 2 46 3 35 4 23 5 45 6 37 7 39 8 38 9 20 10 21 11
REMARK SMILES IDX 5 12 6 13 7 14 8 15 9 17 11 18 12 19 17 20 19 21 15 22 14 23
REMARK SMILES IDX 13 24 18 25 16 26 10 28 3 30 4 31 2 32 1 33 24 34 25 35
REMARK SMILES IDX 26 36 27 38 28 39 29 40 30 41 31 42 32 43 33 44 34 45 40 50
REMARK SMILES IDX 41 51 42 52 43 53 44 54
REMARK H PARENT 6 16 16 27 10 29 26 37 33 46 33 47 34 48 34 49 44 55
ROOT
ATOM      1  N   UNL     1      -1.451  -7.247   2.795  1.00  0.00    -0.326 N 
ATOM      2  C   UNL     1      -3.639  -7.978   3.265  1.00  0.00     0.014 C 
ATOM      3  C   UNL     1      -2.168  -8.394   3.358  1.00  0.00     0.091 C 
ATOM      4  C   UNL     1      -3.676  -7.168   1.977  1.00  0.00     0.041 C 
ATOM      5  C   UNL     1      -2.410  -6.311   2.158  1.00  0.00     0.175 C 
ATOM      6  C   UNL     1      -1.872  -8.797   4.802  1.00  0.00     0.059 C 
ATOM      7  C   UNL     1      -4.553  -9.178   3.415  1.00  0.00     0.008 C 
ATOM      8  C   UNL     1      -3.079  -9.424   5.533  1.00  0.00     0.143 C 
ATOM      9  C   UNL     1      -4.063 -10.096   4.555  1.00  0.00     0.034 C 
ENDROOT
BRANCH   1  10
ATOM     10  C   UNL     1      -0.093  -7.057   2.602  1.00  0.00     0.246 C 
ATOM     11  O   UNL     1       0.600  -6.665   3.547  1.00  0.00    -0.272 OA
BRANCH  10  12
ATOM     12  C   UNL     1       0.537  -7.381   1.216  1.00  0.00     0.174 C 
BRANCH  12  13
ATOM     13  N   UNL     1      -0.203  -6.693   0.159  1.00  0.00    -0.342 N 
ATOM     14  C   UNL     1       0.356  -6.169  -0.985  1.00  0.00     0.249 C 
ATOM     15  O   UNL     1       1.547  -6.246  -1.259  1.00  0.00    -0.272 OA
ATOM     16  H   UNL     1      -1.169  -6.416   0.318  1.00  0.00     0.164 HD
BRANCH  14  17
ATOM     17  C   UNL     1      -0.685  -5.489  -1.899  1.00  0.00     0.207 C 
BRANCH  17  18
ATOM     18  C   UNL     1      -1.062  -6.413  -3.062  1.00  0.00     0.077 C 
BRANCH  18  19
ATOM     19  C   UNL     1      -2.557  -6.615  -3.157  1.00  0.00    -0.043 A 
ATOM     20  C   UNL     1      -4.534  -7.094  -4.479  1.00  0.00     0.083 A 
ATOM     21  C   UNL     1      -3.149  -6.956  -4.384  1.00  0.00     0.028 A 
ATOM     22  C   UNL     1      -5.335  -6.891  -3.355  1.00  0.00     0.134 A 
ATOM     23  C   UNL     1      -4.762  -6.554  -2.134  1.00  0.00     0.048 A 
ATOM     24  C   UNL     1      -3.376  -6.413  -2.036  1.00  0.00     0.008 A 
ATOM     25  Cl  UNL     1      -5.243  -7.512  -5.995  1.00  0.00    -0.080 Cl
BRANCH  22  26
ATOM     26  O   UNL     1      -6.698  -7.005  -3.402  1.00  0.00    -0.506 OA
ATOM     27  H   UNL     1      -7.033  -6.187  -3.815  1.00  0.00     0.293 HD
ENDBRANCH  22  26
ENDBRANCH  18  19
ENDBRANCH  17  18
BRANCH  17  28
ATOM     28  O   UNL     1      -0.184  -4.247  -2.420  1.00  0.00    -0.383 OA
ATOM     29  H   UNL     1      -0.781  -4.003  -3.163  1.00  0.00     0.211 HD
ENDBRANCH  17  28
ENDBRANCH  14  17
ENDBRANCH  12  13
BRANCH  12  30
ATOM     30  C   UNL     1       0.663  -8.906   0.956  1.00  0.00     0.018 C 
ATOM     31  C   UNL     1       2.023  -9.242   0.325  1.00  0.00     0.010 C 
BRANCH  30  32
ATOM     32  C   UNL     1      -0.483  -9.485   0.090  1.00  0.00     0.002 C 
ATOM     33  C   UNL     1      -0.407 -10.984  -0.171  1.00  0.00     0.004 C 
ENDBRANCH  30  32
ENDBRANCH  12  30
ENDBRANCH  10  12
ENDBRANCH   1  10
BRANCH   5  34
ATOM     34  C   UNL     1      -2.674  -5.086   3.073  1.00  0.00     0.242 C 
ATOM     35  O   UNL     1      -1.854  -4.697   3.904  1.00  0.00    -0.273 OA
ATOM     36  N   UNL     1      -3.911  -4.501   2.925  1.00  0.00    -0.354 N 
ATOM     37  H   UNL     1      -4.593  -4.941   2.306  1.00  0.00     0.163 HD
BRANCH  36  38
ATOM     38  C   UNL     1      -4.243  -3.230   3.536  1.00  0.00     0.116 C 
BRANCH  38  39
ATOM     39  C   UNL     1      -5.500  -2.655   2.886  1.00  0.00     0.023 C 
BRANCH  39  40
ATOM     40  C   UNL     1      -6.687  -3.608   2.970  1.00  0.00     0.026 C 
BRANCH  40  41
ATOM     41  C   UNL     1      -7.009  -3.946   4.425  1.00  0.00     0.146 C 
BRANCH  41  42
ATOM     42  N   UNL     1      -7.564  -5.291   4.507  1.00  0.00    -0.254 NA
ATOM     43  C   UNL     1      -6.878  -6.228   5.045  1.00  0.00     0.185 C 
ATOM     44  N   UNL     1      -5.648  -6.196   5.590  1.00  0.00    -0.370 N 
ATOM     45  N   UNL     1      -7.406  -7.461   5.107  1.00  0.00    -0.370 N 
ATOM     46  H   UNL     1      -5.136  -7.047   5.752  1.00  0.00     0.159 HD
ATOM     47  H   UNL     1      -5.109  -5.337   5.639  1.00  0.00     0.159 HD
ATOM     48  H   UNL     1      -8.336  -7.570   4.725  1.00  0.00     0.159 HD
ATOM     49  H   UNL     1      -7.044  -8.178   5.710  1.00  0.00     0.159 HD
ENDBRANCH  41  42
ENDBRANCH  40  41
ENDBRANCH  39  40
ENDBRANCH  38  39
ENDBRANCH  36  38
ENDBRANCH   5  34
BRANCH   8  50
ATOM     50  O   UNL     1      -3.782  -8.421   6.266  1.00  0.00    -0.245 OA
BRANCH  50  51
ATOM     51  S   UNL     1      -4.720  -8.854   7.523  1.00  0.00     0.397 S 
ATOM     52  O   UNL     1      -4.024  -9.880   8.266  1.00  0.00    -0.169 OA
ATOM     53  O   UNL     1      -6.083  -9.036   7.071  1.00  0.00    -0.169 OA
BRANCH  51  54
ATOM     54  O   UNL     1      -4.674  -7.537   8.445  1.00  0.00    -0.264 OA
ATOM     55  H   UNL     1      -5.299  -7.671   9.187  1.00  0.00     0.236 HD
ENDBRANCH  51  54
ENDBRANCH  50  51
ENDBRANCH   8  50
TORSDOF 19
ENDMDL
MODEL 14
REMARK VINA RESULT:    -6.416      1.723      2.232
REMARK INTER + INTRA:         -17.827
REMARK INTER:                 -15.188
REMARK INTRA:                  -2.639
REMARK UNBOUND:                -4.846
REMARK SMILES CC[C@@H](C)[C@@H](NC(=O)[C@@H](O)Cc1ccc(O)c(Cl)c1)C(=O)N1[C@H](C(=O)NCCCCN=C(N)N)C[C@H]2CC[C@H](OS(=O)(=O)O)C[C@@H]21
REMARK SMILES IDX 22 1 36 2 46 3 35 4 23 5 45 6 37 7 39 8 38 9 20 10 21 11
REMARK SMILES IDX 5 12 6 13 7 14 8 15 9 17 11 18 12 19 17 20 19 21 15 22 14 23
REMARK SMILES IDX 13 24 18 25 16 26 10 28 3 30 4 31 2 32 1 33 24 34 25 35
REMARK SMILES IDX 26 36 27 38 28 39 29 40 30 41 31 42 32 43 33 44 34 45 40 50
REMARK SMILES IDX 41 51 42 52 43 53 44 54
REMARK H PARENT 6 16 16 27 10 29 26 37 33 46 33 47 34 48 34 49 44 55
ROOT
ATOM      1  N   UNL     1       6.587  -1.869   4.476  1.00  0.00    -0.326 N 
ATOM      2  C   UNL     1       4.543  -2.382   5.526  1.00  0.00     0.014 C 
ATOM      3  C   UNL     1       5.941  -2.939   5.242  1.00  0.00     0.091 C 
ATOM      4  C   UNL     1       4.241  -1.579   4.270  1.00  0.00     0.041 C 
ATOM      5  C   UNL     1       5.584  -0.847   4.086  1.00  0.00     0.175 C 
ATOM      6  C   UNL     1       6.570  -3.362   6.568  1.00  0.00     0.059 C 
ATOM      7  C   UNL     1       3.594  -3.488   5.946  1.00  0.00     0.008 C 
ATOM      8  C   UNL     1       5.547  -3.866   7.609  1.00  0.00     0.143 C 
ATOM      9  C   UNL     1       4.281  -4.444   6.944  1.00  0.00     0.034 C 
ENDROOT
BRANCH   1  10
ATOM     10  C   UNL     1       7.856  -1.812   3.928  1.00  0.00     0.246 C 
ATOM     11  O   UNL     1       8.104  -0.955   3.072  1.00  0.00    -0.272 OA
BRANCH  10  12
ATOM     12  C   UNL     1       8.953  -2.795   4.429  1.00  0.00     0.174 C 
BRANCH  12  13
ATOM     13  N   UNL     1      10.257  -2.132   4.426  1.00  0.00    -0.342 N 
ATOM     14  C   UNL     1      11.256  -2.358   3.505  1.00  0.00     0.249 C 
ATOM     15  O   UNL     1      11.150  -3.129   2.559  1.00  0.00    -0.272 OA
ATOM     16  H   UNL     1      10.547  -1.587   5.233  1.00  0.00     0.164 HD
BRANCH  14  17
ATOM     17  C   UNL     1      12.520  -1.517   3.780  1.00  0.00     0.207 C 
BRANCH  17  18
ATOM     18  C   UNL     1      12.910  -0.712   2.536  1.00  0.00     0.077 C 
BRANCH  18  19
ATOM     19  C   UNL     1      11.965   0.444   2.296  1.00  0.00    -0.043 A 
ATOM     20  C   UNL     1      10.996   2.550   3.010  1.00  0.00     0.083 A 
ATOM     21  C   UNL     1      11.904   1.509   3.208  1.00  0.00     0.028 A 
ATOM     22  C   UNL     1      10.146   2.534   1.904  1.00  0.00     0.134 A 
ATOM     23  C   UNL     1      10.197   1.485   0.992  1.00  0.00     0.048 A 
ATOM     24  C   UNL     1      11.103   0.441   1.189  1.00  0.00     0.008 A 
ATOM     25  Cl  UNL     1      10.935   3.849   4.142  1.00  0.00    -0.080 Cl
BRANCH  22  26
ATOM     26  O   UNL     1       9.232   3.526   1.673  1.00  0.00    -0.506 OA
ATOM     27  H   UNL     1       8.796   3.314   0.827  1.00  0.00     0.293 HD
ENDBRANCH  22  26
ENDBRANCH  18  19
ENDBRANCH  17  18
BRANCH  17  28
ATOM     28  O   UNL     1      13.622  -2.352   4.171  1.00  0.00    -0.383 OA
ATOM     29  H   UNL     1      14.042  -2.658   3.336  1.00  0.00     0.211 HD
ENDBRANCH  17  28
ENDBRANCH  14  17
ENDBRANCH  12  13
BRANCH  12  30
ATOM     30  C   UNL     1       8.966  -4.132   3.641  1.00  0.00     0.018 C 
ATOM     31  C   UNL     1       7.721  -4.252   2.748  1.00  0.00     0.010 C 
BRANCH  30  32
ATOM     32  C   UNL     1       9.097  -5.384   4.542  1.00  0.00     0.002 C 
ATOM     33  C   UNL     1      10.464  -5.585   5.183  1.00  0.00     0.004 C 
ENDBRANCH  30  32
ENDBRANCH  12  30
ENDBRANCH  10  12
ENDBRANCH   1  10
BRANCH   5  34
ATOM     34  C   UNL     1       5.685   0.402   5.001  1.00  0.00     0.242 C 
ATOM     35  O   UNL     1       4.911   0.595   5.939  1.00  0.00    -0.273 OA
ATOM     36  N   UNL     1       6.667   1.303   4.656  1.00  0.00    -0.354 N 
ATOM     37  H   UNL     1       7.198   1.147   3.798  1.00  0.00     0.163 HD
BRANCH  36  38
ATOM     38  C   UNL     1       7.042   2.405   5.517  1.00  0.00     0.116 C 
BRANCH  38  39
ATOM     39  C   UNL     1       8.458   2.191   6.047  1.00  0.00     0.023 C 
BRANCH  39  40
ATOM     40  C   UNL     1       8.840   0.716   6.107  1.00  0.00     0.026 C 
BRANCH  40  41
ATOM     41  C   UNL     1       8.245   0.051   7.349  1.00  0.00     0.146 C 
BRANCH  41  42
ATOM     42  N   UNL     1       8.144   1.025   8.428  1.00  0.00    -0.254 NA
ATOM     43  C   UNL     1       7.014   1.228   8.993  1.00  0.00     0.185 C 
ATOM     44  N   UNL     1       5.814   0.665   8.757  1.00  0.00    -0.370 N 
ATOM     45  N   UNL     1       6.940   2.133   9.983  1.00  0.00    -0.370 N 
ATOM     46  H   UNL     1       4.971   1.090   9.104  1.00  0.00     0.159 HD
ATOM     47  H   UNL     1       5.692  -0.051   8.049  1.00  0.00     0.159 HD
ATOM     48  H   UNL     1       7.803   2.599  10.230  1.00  0.00     0.159 HD
ATOM     49  H   UNL     1       6.167   2.178  10.623  1.00  0.00     0.159 HD
ENDBRANCH  41  42
ENDBRANCH  40  41
ENDBRANCH  39  40
ENDBRANCH  38  39
ENDBRANCH  36  38
ENDBRANCH   5  34
BRANCH   8  50
ATOM     50  O   UNL     1       5.158  -2.796   8.471  1.00  0.00    -0.245 OA
BRANCH  50  51
ATOM     51  S   UNL     1       5.506  -2.877  10.058  1.00  0.00     0.397 S 
ATOM     52  O   UNL     1       4.494  -3.688  10.696  1.00  0.00    -0.169 OA
ATOM     53  O   UNL     1       5.844  -1.557  10.549  1.00  0.00    -0.169 OA
BRANCH  51  54
ATOM     54  O   UNL     1       6.846  -3.766  10.063  1.00  0.00    -0.264 OA
ATOM     55  H   UNL     1       6.586  -4.698  10.207  1.00  0.00     0.236 HD
ENDBRANCH  51  54
ENDBRANCH  50  51
ENDBRANCH   8  50
TORSDOF 19
ENDMDL
MODEL 15
REMARK VINA RESULT:    -6.402     12.305     15.298
REMARK INTER + INTRA:         -17.798
REMARK INTER:                 -13.747
REMARK INTRA:                  -4.051
REMARK UNBOUND:                -4.846
REMARK SMILES CC[C@@H](C)[C@@H](NC(=O)[C@@H](O)Cc1ccc(O)c(Cl)c1)C(=O)N1[C@H](C(=O)NCCCCN=C(N)N)C[C@H]2CC[C@H](OS(=O)(=O)O)C[C@@H]21
REMARK SMILES IDX 22 1 36 2 46 3 35 4 23 5 45 6 37 7 39 8 38 9 20 10 21 11
REMARK SMILES IDX 5 12 6 13 7 14 8 15 9 17 11 18 12 19 17 20 19 21 15 22 14 23
REMARK SMILES IDX 13 24 18 25 16 26 10 28 3 30 4 31 2 32 1 33 24 34 25 35
REMARK SMILES IDX 26 36 27 38 28 39 29 40 30 41 31 42 32 43 33 44 34 45 40 50
REMARK SMILES IDX 41 51 42 52 43 53 44 54
REMARK H PARENT 6 16 16 27 10 29 26 37 33 46 33 47 34 48 34 49 44 55
ROOT
ATOM      1  N   UNL     1      -2.171  -5.977   1.262  1.00  0.00    -0.326 N 
ATOM      2  C   UNL     1      -2.528  -5.165   3.442  1.00  0.00     0.014 C 
ATOM      3  C   UNL     1      -2.619  -4.771   1.965  1.00  0.00     0.091 C 
ATOM      4  C   UNL     1      -1.314  -6.079   3.471  1.00  0.00     0.041 C 
ATOM      5  C   UNL     1      -1.594  -6.944   2.228  1.00  0.00     0.175 C 
ATOM      6  C   UNL     1      -4.030  -4.254   1.689  1.00  0.00     0.059 C 
ATOM      7  C   UNL     1      -2.557  -3.938   4.332  1.00  0.00     0.008 C 
ATOM      8  C   UNL     1      -4.678  -3.543   2.896  1.00  0.00     0.143 C 
ATOM      9  C   UNL     1      -3.626  -2.937   3.846  1.00  0.00     0.034 C 
ENDROOT
BRANCH   1  10
ATOM     10  C   UNL     1      -2.024  -6.210  -0.095  1.00  0.00     0.246 C 
ATOM     11  O   UNL     1      -0.915  -6.050  -0.616  1.00  0.00    -0.272 OA
BRANCH  10  12
ATOM     12  C   UNL     1      -3.244  -6.707  -0.924  1.00  0.00     0.174 C 
BRANCH  12  13
ATOM     13  N   UNL     1      -2.987  -8.055  -1.430  1.00  0.00    -0.342 N 
ATOM     14  C   UNL     1      -3.927  -9.056  -1.524  1.00  0.00     0.249 C 
ATOM     15  O   UNL     1      -5.104  -8.918  -1.216  1.00  0.00    -0.272 OA
ATOM     16  H   UNL     1      -2.029  -8.364  -1.576  1.00  0.00     0.164 HD
BRANCH  14  17
ATOM     17  C   UNL     1      -3.342 -10.372  -2.082  1.00  0.00     0.207 C 
BRANCH  17  18
ATOM     18  C   UNL     1      -3.959 -10.696  -3.447  1.00  0.00     0.077 C 
BRANCH  18  19
ATOM     19  C   UNL     1      -3.479  -9.746  -4.520  1.00  0.00    -0.043 A 
ATOM     20  C   UNL     1      -3.954  -8.248  -6.368  1.00  0.00     0.083 A 
ATOM     21  C   UNL     1      -4.402  -9.085  -5.346  1.00  0.00     0.028 A 
ATOM     22  C   UNL     1      -2.586  -8.066  -6.573  1.00  0.00     0.134 A 
ATOM     23  C   UNL     1      -1.661  -8.713  -5.762  1.00  0.00     0.048 A 
ATOM     24  C   UNL     1      -2.106  -9.554  -4.740  1.00  0.00     0.008 A 
ATOM     25  Cl  UNL     1      -5.104  -7.445  -7.372  1.00  0.00    -0.080 Cl
BRANCH  22  26
ATOM     26  O   UNL     1      -2.099  -7.262  -7.568  1.00  0.00    -0.506 OA
ATOM     27  H   UNL     1      -2.396  -7.652  -8.412  1.00  0.00     0.293 HD
ENDBRANCH  22  26
ENDBRANCH  18  19
ENDBRANCH  17  18
BRANCH  17  28
ATOM     28  O   UNL     1      -3.577 -11.465  -1.181  1.00  0.00    -0.383 OA
ATOM     29  H   UNL     1      -3.400 -11.116  -0.278  1.00  0.00     0.211 HD
ENDBRANCH  17  28
ENDBRANCH  14  17
ENDBRANCH  12  13
BRANCH  12  30
ATOM     30  C   UNL     1      -3.647  -5.718  -2.051  1.00  0.00     0.018 C 
ATOM     31  C   UNL     1      -5.175  -5.569  -2.126  1.00  0.00     0.010 C 
BRANCH  30  32
ATOM     32  C   UNL     1      -3.080  -6.095  -3.441  1.00  0.00     0.002 C 
ATOM     33  C   UNL     1      -1.886  -5.270  -3.903  1.00  0.00     0.004 C 
ENDBRANCH  30  32
ENDBRANCH  12  30
ENDBRANCH  10  12
ENDBRANCH   1  10
BRANCH   5  34
ATOM     34  C   UNL     1      -2.603  -8.081   2.537  1.00  0.00     0.242 C 
ATOM     35  O   UNL     1      -3.588  -8.297   1.831  1.00  0.00    -0.273 OA
ATOM     36  N   UNL     1      -2.347  -8.795   3.686  1.00  0.00    -0.354 N 
ATOM     37  H   UNL     1      -1.584  -8.492   4.293  1.00  0.00     0.163 HD
BRANCH  36  38
ATOM     38  C   UNL     1      -3.053 -10.017   4.011  1.00  0.00     0.116 C 
BRANCH  38  39
ATOM     39  C   UNL     1      -4.005  -9.771   5.179  1.00  0.00     0.023 C 
BRANCH  39  40
ATOM     40  C   UNL     1      -5.456  -9.637   4.729  1.00  0.00     0.026 C 
BRANCH  40  41
ATOM     41  C   UNL     1      -5.927  -8.187   4.845  1.00  0.00     0.146 C 
BRANCH  41  42
ATOM     42  N   UNL     1      -5.316  -7.562   6.010  1.00  0.00    -0.254 NA
ATOM     43  C   UNL     1      -6.038  -7.275   7.027  1.00  0.00     0.185 C 
ATOM     44  N   UNL     1      -7.355  -7.460   7.233  1.00  0.00    -0.370 N 
ATOM     45  N   UNL     1      -5.456  -6.695   8.089  1.00  0.00    -0.370 N 
ATOM     46  H   UNL     1      -7.833  -6.970   7.970  1.00  0.00     0.159 HD
ATOM     47  H   UNL     1      -7.947  -7.900   6.535  1.00  0.00     0.159 HD
ATOM     48  H   UNL     1      -4.462  -6.528   8.020  1.00  0.00     0.159 HD
ATOM     49  H   UNL     1      -5.890  -6.658   8.995  1.00  0.00     0.159 HD
ENDBRANCH  41  42
ENDBRANCH  40  41
ENDBRANCH  39  40
ENDBRANCH  38  39
ENDBRANCH  36  38
ENDBRANCH   5  34
BRANCH   8  50
ATOM     50  O   UNL     1      -5.478  -4.466   3.636  1.00  0.00    -0.245 OA
BRANCH  50  51
ATOM     51  S   UNL     1      -7.010  -4.074   4.019  1.00  0.00     0.397 S 
ATOM     52  O   UNL     1      -7.787  -4.068   2.801  1.00  0.00    -0.169 OA
ATOM     53  O   UNL     1      -7.010  -2.944   4.926  1.00  0.00    -0.169 OA
BRANCH  51  54
ATOM     54  O   UNL     1      -7.492  -5.369   4.841  1.00  0.00    -0.264 OA
ATOM     55  H   UNL     1      -7.687  -6.077   4.193  1.00  0.00     0.236 HD
ENDBRANCH  51  54
ENDBRANCH  50  51
ENDBRANCH   8  50
TORSDOF 19
ENDMDL
MODEL 16
REMARK VINA RESULT:    -6.338      2.867      4.912
REMARK INTER + INTRA:         -17.668
REMARK INTER:                 -13.420
REMARK INTRA:                  -4.248
REMARK UNBOUND:                -4.846
REMARK SMILES CC[C@@H](C)[C@@H](NC(=O)[C@@H](O)Cc1ccc(O)c(Cl)c1)C(=O)N1[C@H](C(=O)NCCCCN=C(N)N)C[C@H]2CC[C@H](OS(=O)(=O)O)C[C@@H]21
REMARK SMILES IDX 22 1 36 2 46 3 35 4 23 5 45 6 37 7 39 8 38 9 20 10 21 11
REMARK SMILES IDX 5 12 6 13 7 14 8 15 9 17 11 18 12 19 17 20 19 21 15 22 14 23
REMARK SMILES IDX 13 24 18 25 16 26 10 28 3 30 4 31 2 32 1 33 24 34 25 35
REMARK SMILES IDX 26 36 27 38 28 39 29 40 30 41 31 42 32 43 33 44 34 45 40 50
REMARK SMILES IDX 41 51 42 52 43 53 44 54
REMARK H PARENT 6 16 16 27 10 29 26 37 33 46 33 47 34 48 34 49 44 55
ROOT
ATOM      1  N   UNL     1       6.758  -4.224   4.706  1.00  0.00    -0.326 N 
ATOM      2  C   UNL     1       5.106  -2.771   5.545  1.00  0.00     0.014 C 
ATOM      3  C   UNL     1       5.677  -4.184   5.696  1.00  0.00     0.091 C 
ATOM      4  C   UNL     1       5.257  -2.505   4.055  1.00  0.00     0.041 C 
ATOM      5  C   UNL     1       6.687  -3.029   3.829  1.00  0.00     0.175 C 
ATOM      6  C   UNL     1       6.031  -4.408   7.165  1.00  0.00     0.059 C 
ATOM      7  C   UNL     1       3.735  -2.669   6.183  1.00  0.00     0.008 C 
ATOM      8  C   UNL     1       5.111  -3.651   8.148  1.00  0.00     0.143 C 
ATOM      9  C   UNL     1       3.715  -3.387   7.549  1.00  0.00     0.034 C 
ENDROOT
BRANCH   1  10
ATOM     10  C   UNL     1       7.619  -5.255   4.374  1.00  0.00     0.246 C 
ATOM     11  O   UNL     1       7.281  -6.063   3.503  1.00  0.00    -0.272 OA
BRANCH  10  12
ATOM     12  C   UNL     1       9.007  -5.351   5.072  1.00  0.00     0.174 C 
BRANCH  12  13
ATOM     13  N   UNL     1      10.020  -5.783   4.110  1.00  0.00    -0.342 N 
ATOM     14  C   UNL     1      10.666  -4.957   3.218  1.00  0.00     0.249 C 
ATOM     15  O   UNL     1      10.481  -3.748   3.150  1.00  0.00    -0.272 OA
ATOM     16  H   UNL     1      10.164  -6.775   3.942  1.00  0.00     0.164 HD
BRANCH  14  17
ATOM     17  C   UNL     1      11.669  -5.715   2.322  1.00  0.00     0.207 C 
BRANCH  17  18
ATOM     18  C   UNL     1      11.203  -5.698   0.863  1.00  0.00     0.077 C 
BRANCH  18  19
ATOM     19  C   UNL     1       9.853  -6.359   0.696  1.00  0.00    -0.043 A 
ATOM     20  C   UNL     1       8.488  -8.363   0.623  1.00  0.00     0.083 A 
ATOM     21  C   UNL     1       9.725  -7.751   0.826  1.00  0.00     0.028 A 
ATOM     22  C   UNL     1       7.374  -7.592   0.287  1.00  0.00     0.134 A 
ATOM     23  C   UNL     1       7.487  -6.213   0.155  1.00  0.00     0.048 A 
ATOM     24  C   UNL     1       8.725  -5.597   0.356  1.00  0.00     0.008 A 
ATOM     25  Cl  UNL     1       8.350 -10.074   0.787  1.00  0.00    -0.080 Cl
BRANCH  22  26
ATOM     26  O   UNL     1       6.143  -8.148   0.068  1.00  0.00    -0.506 OA
ATOM     27  H   UNL     1       6.110  -8.970   0.591  1.00  0.00     0.293 HD
ENDBRANCH  22  26
ENDBRANCH  18  19
ENDBRANCH  17  18
BRANCH  17  28
ATOM     28  O   UNL     1      11.824  -7.076   2.757  1.00  0.00    -0.383 OA
ATOM     29  H   UNL     1      12.684  -7.112   3.235  1.00  0.00     0.211 HD
ENDBRANCH  17  28
ENDBRANCH  14  17
ENDBRANCH  12  13
BRANCH  12  30
ATOM     30  C   UNL     1       8.979  -6.241   6.343  1.00  0.00     0.018 C 
ATOM     31  C   UNL     1      10.396  -6.703   6.717  1.00  0.00     0.010 C 
BRANCH  30  32
ATOM     32  C   UNL     1       8.035  -7.462   6.227  1.00  0.00     0.002 C 
ATOM     33  C   UNL     1       8.510  -8.723   6.936  1.00  0.00     0.004 C 
ENDBRANCH  30  32
ENDBRANCH  12  30
ENDBRANCH  10  12
ENDBRANCH   1  10
BRANCH   5  34
ATOM     34  C   UNL     1       7.753  -1.979   4.242  1.00  0.00     0.242 C 
ATOM     35  O   UNL     1       8.416  -2.086   5.274  1.00  0.00    -0.273 OA
ATOM     36  N   UNL     1       7.864  -0.895   3.400  1.00  0.00    -0.354 N 
ATOM     37  H   UNL     1       7.205  -0.804   2.627  1.00  0.00     0.163 HD
BRANCH  36  38
ATOM     38  C   UNL     1       8.945   0.063   3.512  1.00  0.00     0.116 C 
BRANCH  38  39
ATOM     39  C   UNL     1       8.392   1.482   3.405  1.00  0.00     0.023 C 
BRANCH  39  40
ATOM     40  C   UNL     1       6.879   1.533   3.588  1.00  0.00     0.026 C 
BRANCH  40  41
ATOM     41  C   UNL     1       6.519   1.935   5.018  1.00  0.00     0.146 C 
BRANCH  41  42
ATOM     42  N   UNL     1       7.350   1.198   5.961  1.00  0.00    -0.254 NA
ATOM     43  C   UNL     1       6.800   0.549   6.917  1.00  0.00     0.185 C 
ATOM     44  N   UNL     1       5.500   0.411   7.234  1.00  0.00    -0.370 N 
ATOM     45  N   UNL     1       7.585  -0.121   7.778  1.00  0.00    -0.370 N 
ATOM     46  H   UNL     1       5.226   0.080   8.143  1.00  0.00     0.159 HD
ATOM     47  H   UNL     1       4.767   0.841   6.678  1.00  0.00     0.159 HD
ATOM     48  H   UNL     1       8.580  -0.076   7.605  1.00  0.00     0.159 HD
ATOM     49  H   UNL     1       7.233  -0.831   8.394  1.00  0.00     0.159 HD
ENDBRANCH  41  42
ENDBRANCH  40  41
ENDBRANCH  39  40
ENDBRANCH  38  39
ENDBRANCH  36  38
ENDBRANCH   5  34
BRANCH   8  50
ATOM     50  O   UNL     1       5.697  -2.398   8.501  1.00  0.00    -0.245 OA
BRANCH  50  51
ATOM     51  S   UNL     1       6.139  -2.124  10.043  1.00  0.00     0.397 S 
ATOM     52  O   UNL     1       7.583  -2.169  10.107  1.00  0.00    -0.169 OA
ATOM     53  O   UNL     1       5.314  -2.915  10.932  1.00  0.00    -0.169 OA
BRANCH  51  54
ATOM     54  O   UNL     1       5.739  -0.579  10.237  1.00  0.00    -0.264 OA
ATOM     55  H   UNL     1       5.630  -0.185   9.348  1.00  0.00     0.236 HD
ENDBRANCH  51  54
ENDBRANCH  50  51
ENDBRANCH   8  50
TORSDOF 19
ENDMDL
MODEL 17
REMARK VINA RESULT:    -6.320      2.122      2.852
REMARK INTER + INTRA:         -17.631
REMARK INTER:                 -14.431
REMARK INTRA:                  -3.200
REMARK UNBOUND:                -4.846
REMARK SMILES CC[C@@H](C)[C@@H](NC(=O)[C@@H](O)Cc1ccc(O)c(Cl)c1)C(=O)N1[C@H](C(=O)NCCCCN=C(N)N)C[C@H]2CC[C@H](OS(=O)(=O)O)C[C@@H]21
REMARK SMILES IDX 22 1 36 2 46 3 35 4 23 5 45 6 37 7 39 8 38 9 20 10 21 11
REMARK SMILES IDX 5 12 6 13 7 14 8 15 9 17 11 18 12 19 17 20 19 21 15 22 14 23
REMARK SMILES IDX 13 24 18 25 16 26 10 28 3 30 4 31 2 32 1 33 24 34 25 35
REMARK SMILES IDX 26 36 27 38 28 39 29 40 30 41 31 42 32 43 33 44 34 45 40 50
REMARK SMILES IDX 41 51 42 52 43 53 44 54
REMARK H PARENT 6 16 16 27 10 29 26 37 33 46 33 47 34 48 34 49 44 55
ROOT
ATOM      1  N   UNL     1       6.189  -2.472   4.817  1.00  0.00    -0.326 N 
ATOM      2  C   UNL     1       4.484  -2.447   6.440  1.00  0.00     0.014 C 
ATOM      3  C   UNL     1       5.769  -3.174   6.033  1.00  0.00     0.091 C 
ATOM      4  C   UNL     1       3.866  -2.084   5.099  1.00  0.00     0.041 C 
ATOM      5  C   UNL     1       5.111  -1.562   4.357  1.00  0.00     0.175 C 
ATOM      6  C   UNL     1       6.719  -3.182   7.229  1.00  0.00     0.059 C 
ATOM      7  C   UNL     1       3.684  -3.272   7.428  1.00  0.00     0.008 C 
ATOM      8  C   UNL     1       5.999  -3.230   8.594  1.00  0.00     0.143 C 
ATOM      9  C   UNL     1       4.611  -3.895   8.494  1.00  0.00     0.034 C 
ENDROOT
BRANCH   1  10
ATOM     10  C   UNL     1       7.277  -2.700   3.991  1.00  0.00     0.246 C 
ATOM     11  O   UNL     1       7.601  -1.835   3.170  1.00  0.00    -0.272 OA
BRANCH  10  12
ATOM     12  C   UNL     1       8.093  -4.017   4.143  1.00  0.00     0.174 C 
BRANCH  12  13
ATOM     13  N   UNL     1       9.507  -3.761   3.875  1.00  0.00    -0.342 N 
ATOM     14  C   UNL     1      10.556  -4.309   4.579  1.00  0.00     0.249 C 
ATOM     15  O   UNL     1      10.418  -5.103   5.500  1.00  0.00    -0.272 OA
ATOM     16  H   UNL     1       9.773  -3.007   3.247  1.00  0.00     0.164 HD
BRANCH  14  17
ATOM     17  C   UNL     1      11.932  -3.831   4.066  1.00  0.00     0.207 C 
BRANCH  17  18
ATOM     18  C   UNL     1      11.955  -3.811   2.535  1.00  0.00     0.077 C 
BRANCH  18  19
ATOM     19  C   UNL     1      12.434  -2.481   1.997  1.00  0.00    -0.043 A 
ATOM     20  C   UNL     1      13.307  -0.250   2.378  1.00  0.00     0.083 A 
ATOM     21  C   UNL     1      12.913  -1.494   2.873  1.00  0.00     0.028 A 
ATOM     22  C   UNL     1      13.226   0.016   1.011  1.00  0.00     0.134 A 
ATOM     23  C   UNL     1      12.754  -0.953   0.133  1.00  0.00     0.048 A 
ATOM     24  C   UNL     1      12.357  -2.198   0.625  1.00  0.00     0.008 A 
ATOM     25  Cl  UNL     1      13.892   0.950   3.470  1.00  0.00    -0.080 Cl
BRANCH  22  26
ATOM     26  O   UNL     1      13.591   1.223   0.481  1.00  0.00    -0.506 OA
ATOM     27  H   UNL     1      13.740   1.078  -0.471  1.00  0.00     0.293 HD
ENDBRANCH  22  26
ENDBRANCH  18  19
ENDBRANCH  17  18
BRANCH  17  28
ATOM     28  O   UNL     1      12.987  -4.678   4.549  1.00  0.00    -0.383 OA
ATOM     29  H   UNL     1      12.565  -5.539   4.768  1.00  0.00     0.211 HD
ENDBRANCH  17  28
ENDBRANCH  14  17
ENDBRANCH  12  13
BRANCH  12  30
ATOM     30  C   UNL     1       7.526  -5.176   3.279  1.00  0.00     0.018 C 
ATOM     31  C   UNL     1       7.603  -6.510   4.037  1.00  0.00     0.010 C 
BRANCH  30  32
ATOM     32  C   UNL     1       8.209  -5.310   1.896  1.00  0.00     0.002 C 
ATOM     33  C   UNL     1       7.311  -5.816   0.774  1.00  0.00     0.004 C 
ENDBRANCH  30  32
ENDBRANCH  12  30
ENDBRANCH  10  12
ENDBRANCH   1  10
BRANCH   5  34
ATOM     34  C   UNL     1       5.431  -0.093   4.739  1.00  0.00     0.242 C 
ATOM     35  O   UNL     1       4.565   0.782   4.771  1.00  0.00    -0.273 OA
ATOM     36  N   UNL     1       6.759   0.172   4.987  1.00  0.00    -0.354 N 
ATOM     37  H   UNL     1       7.445  -0.566   4.828  1.00  0.00     0.163 HD
BRANCH  36  38
ATOM     38  C   UNL     1       7.203   1.425   5.562  1.00  0.00     0.116 C 
BRANCH  38  39
ATOM     39  C   UNL     1       8.689   1.340   5.905  1.00  0.00     0.023 C 
BRANCH  39  40
ATOM     40  C   UNL     1       9.395   0.212   5.161  1.00  0.00     0.026 C 
BRANCH  40  41
ATOM     41  C   UNL     1      10.137   0.750   3.938  1.00  0.00     0.146 C 
BRANCH  41  42
ATOM     42  N   UNL     1      10.474   2.152   4.144  1.00  0.00    -0.254 NA
ATOM     43  C   UNL     1      10.796   2.880   3.141  1.00  0.00     0.185 C 
ATOM     44  N   UNL     1      10.885   2.565   1.836  1.00  0.00    -0.370 N 
ATOM     45  N   UNL     1      11.108   4.169   3.353  1.00  0.00    -0.370 N 
ATOM     46  H   UNL     1      11.381   3.162   1.197  1.00  0.00     0.159 HD
ATOM     47  H   UNL     1      10.669   1.633   1.497  1.00  0.00     0.159 HD
ATOM     48  H   UNL     1      11.058   4.492   4.310  1.00  0.00     0.159 HD
ATOM     49  H   UNL     1      11.136   4.851   2.615  1.00  0.00     0.159 HD
ENDBRANCH  41  42
ENDBRANCH  40  41
ENDBRANCH  39  40
ENDBRANCH  38  39
ENDBRANCH  36  38
ENDBRANCH   5  34
BRANCH   8  50
ATOM     50  O   UNL     1       5.833  -1.908   9.108  1.00  0.00    -0.245 OA
BRANCH  50  51
ATOM     51  S   UNL     1       7.138  -1.061   9.582  1.00  0.00     0.397 S 
ATOM     52  O   UNL     1       6.701  -0.065  10.534  1.00  0.00    -0.169 OA
ATOM     53  O   UNL     1       7.936  -0.710   8.426  1.00  0.00    -0.169 OA
BRANCH  51  54
ATOM     54  O   UNL     1       7.955  -2.153  10.435  1.00  0.00    -0.264 OA
ATOM     55  H   UNL     1       8.708  -1.696  10.861  1.00  0.00     0.236 HD
ENDBRANCH  51  54
ENDBRANCH  50  51
ENDBRANCH   8  50
TORSDOF 19
ENDMDL
MODEL 18
REMARK VINA RESULT:    -6.295     11.234     14.401
REMARK INTER + INTRA:         -17.582
REMARK INTER:                 -14.869
REMARK INTRA:                  -2.714
REMARK UNBOUND:                -4.846
REMARK SMILES CC[C@@H](C)[C@@H](NC(=O)[C@@H](O)Cc1ccc(O)c(Cl)c1)C(=O)N1[C@H](C(=O)NCCCCN=C(N)N)C[C@H]2CC[C@H](OS(=O)(=O)O)C[C@@H]21
REMARK SMILES IDX 22 1 36 2 46 3 35 4 23 5 45 6 37 7 39 8 38 9 20 10 21 11
REMARK SMILES IDX 5 12 6 13 7 14 8 15 9 17 11 18 12 19 17 20 19 21 15 22 14 23
REMARK SMILES IDX 13 24 18 25 16 26 10 28 3 30 4 31 2 32 1 33 24 34 25 35
REMARK SMILES IDX 26 36 27 38 28 39 29 40 30 41 31 42 32 43 33 44 34 45 40 50
REMARK SMILES IDX 41 51 42 52 43 53 44 54
REMARK H PARENT 6 16 16 27 10 29 26 37 33 46 33 47 34 48 34 49 44 55
ROOT
ATOM      1  N   UNL     1      -1.520  -6.285   3.024  1.00  0.00    -0.326 N 
ATOM      2  C   UNL     1      -2.345  -4.299   3.981  1.00  0.00     0.014 C 
ATOM      3  C   UNL     1      -2.373  -5.138   2.701  1.00  0.00     0.091 C 
ATOM      4  C   UNL     1      -0.931  -4.521   4.496  1.00  0.00     0.041 C 
ATOM      5  C   UNL     1      -0.806  -6.043   4.302  1.00  0.00     0.175 C 
ATOM      6  C   UNL     1      -3.831  -5.401   2.328  1.00  0.00     0.059 C 
ATOM      7  C   UNL     1      -2.826  -2.886   3.715  1.00  0.00     0.008 C 
ATOM      8  C   UNL     1      -4.791  -4.261   2.731  1.00  0.00     0.143 C 
ATOM      9  C   UNL     1      -4.073  -2.899   2.806  1.00  0.00     0.034 C 
ENDROOT
BRANCH   1  10
ATOM     10  C   UNL     1      -1.158  -7.370   2.244  1.00  0.00     0.246 C 
ATOM     11  O   UNL     1      -1.381  -8.512   2.660  1.00  0.00    -0.272 OA
BRANCH  10  12
ATOM     12  C   UNL     1      -0.518  -7.129   0.845  1.00  0.00     0.174 C 
BRANCH  12  13
ATOM     13  N   UNL     1      -1.556  -7.138  -0.186  1.00  0.00    -0.342 N 
ATOM     14  C   UNL     1      -1.774  -6.129  -1.097  1.00  0.00     0.249 C 
ATOM     15  O   UNL     1      -1.096  -5.111  -1.162  1.00  0.00    -0.272 OA
ATOM     16  H   UNL     1      -2.290  -7.841  -0.154  1.00  0.00     0.164 HD
BRANCH  14  17
ATOM     17  C   UNL     1      -2.955  -6.428  -2.045  1.00  0.00     0.207 C 
BRANCH  17  18
ATOM     18  C   UNL     1      -2.904  -5.509  -3.270  1.00  0.00     0.077 C 
BRANCH  18  19
ATOM     19  C   UNL     1      -2.638  -6.283  -4.541  1.00  0.00    -0.043 A 
ATOM     20  C   UNL     1      -3.375  -7.847  -6.244  1.00  0.00     0.083 A 
ATOM     21  C   UNL     1      -3.639  -7.095  -5.098  1.00  0.00     0.028 A 
ATOM     22  C   UNL     1      -2.114  -7.793  -6.839  1.00  0.00     0.134 A 
ATOM     23  C   UNL     1      -1.114  -6.993  -6.298  1.00  0.00     0.048 A 
ATOM     24  C   UNL     1      -1.375  -6.241  -5.150  1.00  0.00     0.008 A 
ATOM     25  Cl  UNL     1      -4.617  -8.839  -6.912  1.00  0.00    -0.080 Cl
BRANCH  22  26
ATOM     26  O   UNL     1      -1.805  -8.520  -7.957  1.00  0.00    -0.506 OA
ATOM     27  H   UNL     1      -0.840  -8.448  -8.080  1.00  0.00     0.293 HD
ENDBRANCH  22  26
ENDBRANCH  18  19
ENDBRANCH  17  18
BRANCH  17  28
ATOM     28  O   UNL     1      -4.213  -6.256  -1.373  1.00  0.00    -0.383 OA
ATOM     29  H   UNL     1      -4.818  -5.843  -2.030  1.00  0.00     0.211 HD
ENDBRANCH  17  28
ENDBRANCH  14  17
ENDBRANCH  12  13
BRANCH  12  30
ATOM     30  C   UNL     1       0.635  -8.120   0.534  1.00  0.00     0.018 C 
ATOM     31  C   UNL     1       1.605  -7.522  -0.497  1.00  0.00     0.010 C 
BRANCH  30  32
ATOM     32  C   UNL     1       0.149  -9.512   0.063  1.00  0.00     0.002 C 
ATOM     33  C   UNL     1       1.003 -10.688   0.517  1.00  0.00     0.004 C 
ENDBRANCH  30  32
ENDBRANCH  12  30
ENDBRANCH  10  12
ENDBRANCH   1  10
BRANCH   5  34
ATOM     34  C   UNL     1      -1.476  -6.825   5.464  1.00  0.00     0.242 C 
ATOM     35  O   UNL     1      -2.290  -6.302   6.225  1.00  0.00    -0.273 OA
ATOM     36  N   UNL     1      -1.054  -8.126   5.614  1.00  0.00    -0.354 N 
ATOM     37  H   UNL     1      -0.290  -8.466   5.028  1.00  0.00     0.163 HD
BRANCH  36  38
ATOM     38  C   UNL     1      -1.722  -9.059   6.498  1.00  0.00     0.116 C 
BRANCH  38  39
ATOM     39  C   UNL     1      -3.004  -9.566   5.844  1.00  0.00     0.023 C 
BRANCH  39  40
ATOM     40  C   UNL     1      -3.828 -10.444   6.780  1.00  0.00     0.026 C 
BRANCH  40  41
ATOM     41  C   UNL     1      -5.162  -9.776   7.115  1.00  0.00     0.146 C 
BRANCH  41  42
ATOM     42  N   UNL     1      -5.812  -9.333   5.888  1.00  0.00    -0.254 NA
ATOM     43  C   UNL     1      -6.777  -8.494   5.951  1.00  0.00     0.185 C 
ATOM     44  N   UNL     1      -7.342  -7.903   7.020  1.00  0.00    -0.370 N 
ATOM     45  N   UNL     1      -7.366  -8.101   4.810  1.00  0.00    -0.370 N 
ATOM     46  H   UNL     1      -8.242  -7.460   6.945  1.00  0.00     0.159 HD
ATOM     47  H   UNL     1      -7.009  -8.077   7.963  1.00  0.00     0.159 HD
ATOM     48  H   UNL     1      -6.994  -8.493   3.955  1.00  0.00     0.159 HD
ATOM     49  H   UNL     1      -7.953  -7.288   4.752  1.00  0.00     0.159 HD
ENDBRANCH  41  42
ENDBRANCH  40  41
ENDBRANCH  39  40
ENDBRANCH  38  39
ENDBRANCH  36  38
ENDBRANCH   5  34
BRANCH   8  50
ATOM     50  O   UNL     1      -5.373  -4.538   4.005  1.00  0.00    -0.245 OA
BRANCH  50  51
ATOM     51  S   UNL     1      -6.937  -4.176   4.269  1.00  0.00     0.397 S 
ATOM     52  O   UNL     1      -6.995  -2.864   4.875  1.00  0.00    -0.169 OA
ATOM     53  O   UNL     1      -7.607  -5.316   4.860  1.00  0.00    -0.169 OA
BRANCH  51  54
ATOM     54  O   UNL     1      -7.496  -3.992   2.773  1.00  0.00    -0.264 OA
ATOM     55  H   UNL     1      -7.241  -3.098   2.466  1.00  0.00     0.236 HD
ENDBRANCH  51  54
ENDBRANCH  50  51
ENDBRANCH   8  50
TORSDOF 19
ENDMDL
MODEL 19
REMARK VINA RESULT:    -6.206      1.637      2.045
REMARK INTER + INTRA:         -17.401
REMARK INTER:                 -13.961
REMARK INTRA:                  -3.440
REMARK UNBOUND:                -4.846
REMARK SMILES CC[C@@H](C)[C@@H](NC(=O)[C@@H](O)Cc1ccc(O)c(Cl)c1)C(=O)N1[C@H](C(=O)NCCCCN=C(N)N)C[C@H]2CC[C@H](OS(=O)(=O)O)C[C@@H]21
REMARK SMILES IDX 22 1 36 2 46 3 35 4 23 5 45 6 37 7 39 8 38 9 20 10 21 11
REMARK SMILES IDX 5 12 6 13 7 14 8 15 9 17 11 18 12 19 17 20 19 21 15 22 14 23
REMARK SMILES IDX 13 24 18 25 16 26 10 28 3 30 4 31 2 32 1 33 24 34 25 35
REMARK SMILES IDX 26 36 27 38 28 39 29 40 30 41 31 42 32 43 33 44 34 45 40 50
REMARK SMILES IDX 41 51 42 52 43 53 44 54
REMARK H PARENT 6 16 16 27 10 29 26 37 33 46 33 47 34 48 34 49 44 55
ROOT
ATOM      1  N   UNL     1       6.508  -2.205   4.839  1.00  0.00    -0.326 N 
ATOM      2  C   UNL     1       4.860  -2.500   6.495  1.00  0.00     0.014 C 
ATOM      3  C   UNL     1       6.343  -2.738   6.195  1.00  0.00     0.091 C 
ATOM      4  C   UNL     1       4.207  -2.700   5.136  1.00  0.00     0.041 C 
ATOM      5  C   UNL     1       5.181  -1.907   4.245  1.00  0.00     0.175 C 
ATOM      6  C   UNL     1       7.169  -2.120   7.322  1.00  0.00     0.059 C 
ATOM      7  C   UNL     1       4.403  -3.340   7.671  1.00  0.00     0.008 C 
ATOM      8  C   UNL     1       6.467  -2.153   8.697  1.00  0.00     0.143 C 
ATOM      9  C   UNL     1       5.452  -3.310   8.802  1.00  0.00     0.034 C 
ENDROOT
BRANCH   1  10
ATOM     10  C   UNL     1       7.633  -2.161   4.034  1.00  0.00     0.246 C 
ATOM     11  O   UNL     1       7.898  -1.118   3.427  1.00  0.00    -0.272 OA
BRANCH  10  12
ATOM     12  C   UNL     1       8.560  -3.408   3.943  1.00  0.00     0.174 C 
BRANCH  12  13
ATOM     13  N   UNL     1       9.853  -3.028   3.375  1.00  0.00    -0.342 N 
ATOM     14  C   UNL     1      11.075  -3.475   3.825  1.00  0.00     0.249 C 
ATOM     15  O   UNL     1      11.214  -4.272   4.745  1.00  0.00    -0.272 OA
ATOM     16  H   UNL     1       9.906  -2.258   2.714  1.00  0.00     0.164 HD
BRANCH  14  17
ATOM     17  C   UNL     1      12.257  -2.878   3.031  1.00  0.00     0.207 C 
BRANCH  17  18
ATOM     18  C   UNL     1      11.767  -1.767   2.097  1.00  0.00     0.077 C 
BRANCH  18  19
ATOM     19  C   UNL     1      11.951  -0.397   2.710  1.00  0.00    -0.043 A 
ATOM     20  C   UNL     1      11.476   1.982   2.723  1.00  0.00     0.083 A 
ATOM     21  C   UNL     1      11.266   0.711   2.187  1.00  0.00     0.028 A 
ATOM     22  C   UNL     1      12.370   2.155   3.780  1.00  0.00     0.134 A 
ATOM     23  C   UNL     1      13.055   1.067   4.307  1.00  0.00     0.048 A 
ATOM     24  C   UNL     1      12.849  -0.206   3.772  1.00  0.00     0.008 A 
ATOM     25  Cl  UNL     1      10.625   3.331   2.066  1.00  0.00    -0.080 Cl
BRANCH  22  26
ATOM     26  O   UNL     1      12.617   3.383   4.331  1.00  0.00    -0.506 OA
ATOM     27  H   UNL     1      12.907   3.225   5.248  1.00  0.00     0.293 HD
ENDBRANCH  22  26
ENDBRANCH  18  19
ENDBRANCH  17  18
BRANCH  17  28
ATOM     28  O   UNL     1      12.924  -3.890   2.259  1.00  0.00    -0.383 OA
ATOM     29  H   UNL     1      12.306  -4.128   1.531  1.00  0.00     0.211 HD
ENDBRANCH  17  28
ENDBRANCH  14  17
ENDBRANCH  12  13
BRANCH  12  30
ATOM     30  C   UNL     1       7.902  -4.590   3.180  1.00  0.00     0.018 C 
ATOM     31  C   UNL     1       7.401  -5.662   4.160  1.00  0.00     0.010 C 
BRANCH  30  32
ATOM     32  C   UNL     1       8.825  -5.232   2.115  1.00  0.00     0.002 C 
ATOM     33  C   UNL     1       8.124  -5.715   0.852  1.00  0.00     0.004 C 
ENDBRANCH  30  32
ENDBRANCH  12  30
ENDBRANCH  10  12
ENDBRANCH   1  10
BRANCH   5  34
ATOM     34  C   UNL     1       4.887  -0.384   4.291  1.00  0.00     0.242 C 
ATOM     35  O   UNL     1       4.170   0.122   5.155  1.00  0.00    -0.273 OA
ATOM     36  N   UNL     1       5.441   0.351   3.267  1.00  0.00    -0.354 N 
ATOM     37  H   UNL     1       5.924  -0.141   2.515  1.00  0.00     0.163 HD
BRANCH  36  38
ATOM     38  C   UNL     1       5.450   1.799   3.271  1.00  0.00     0.116 C 
BRANCH  38  39
ATOM     39  C   UNL     1       6.334   2.309   4.407  1.00  0.00     0.023 C 
BRANCH  39  40
ATOM     40  C   UNL     1       7.796   2.438   3.994  1.00  0.00     0.026 C 
BRANCH  40  41
ATOM     41  C   UNL     1       8.630   3.027   5.131  1.00  0.00     0.146 C 
BRANCH  41  42
ATOM     42  N   UNL     1       8.446   2.235   6.340  1.00  0.00    -0.254 NA
ATOM     43  C   UNL     1       9.017   1.094   6.442  1.00  0.00     0.185 C 
ATOM     44  N   UNL     1       9.816   0.445   5.575  1.00  0.00    -0.370 N 
ATOM     45  N   UNL     1       8.830   0.377   7.562  1.00  0.00    -0.370 N 
ATOM     46  H   UNL     1       9.994  -0.539   5.679  1.00  0.00     0.159 HD
ATOM     47  H   UNL     1      10.073   0.852   4.681  1.00  0.00     0.159 HD
ATOM     48  H   UNL     1       8.247   0.798   8.272  1.00  0.00     0.159 HD
ATOM     49  H   UNL     1       9.418  -0.397   7.817  1.00  0.00     0.159 HD
ENDBRANCH  41  42
ENDBRANCH  40  41
ENDBRANCH  39  40
ENDBRANCH  38  39
ENDBRANCH  36  38
ENDBRANCH   5  34
BRANCH   8  50
ATOM     50  O   UNL     1       5.777  -0.923   8.924  1.00  0.00    -0.245 OA
BRANCH  50  51
ATOM     51  S   UNL     1       6.411   0.177   9.940  1.00  0.00     0.397 S 
ATOM     52  O   UNL     1       7.746  -0.256  10.290  1.00  0.00    -0.169 OA
ATOM     53  O   UNL     1       5.435   0.523  10.953  1.00  0.00    -0.169 OA
BRANCH  51  54
ATOM     54  O   UNL     1       6.602   1.451   8.979  1.00  0.00    -0.264 OA
ATOM     55  H   UNL     1       6.930   2.193   9.527  1.00  0.00     0.236 HD
ENDBRANCH  51  54
ENDBRANCH  50  51
ENDBRANCH   8  50
TORSDOF 19
ENDMDL
MODEL 20
REMARK VINA RESULT:    -6.194      3.419      6.550
REMARK INTER + INTRA:         -17.377
REMARK INTER:                 -13.433
REMARK INTRA:                  -3.944
REMARK UNBOUND:                -4.846
REMARK SMILES CC[C@@H](C)[C@@H](NC(=O)[C@@H](O)Cc1ccc(O)c(Cl)c1)C(=O)N1[C@H](C(=O)NCCCCN=C(N)N)C[C@H]2CC[C@H](OS(=O)(=O)O)C[C@@H]21
REMARK SMILES IDX 22 1 36 2 46 3 35 4 23 5 45 6 37 7 39 8 38 9 20 10 21 11
REMARK SMILES IDX 5 12 6 13 7 14 8 15 9 17 11 18 12 19 17 20 19 21 15 22 14 23
REMARK SMILES IDX 13 24 18 25 16 26 10 28 3 30 4 31 2 32 1 33 24 34 25 35
REMARK SMILES IDX 26 36 27 38 28 39 29 40 30 41 31 42 32 43 33 44 34 45 40 50
REMARK SMILES IDX 41 51 42 52 43 53 44 54
REMARK H PARENT 6 16 16 27 10 29 26 37 33 46 33 47 34 48 34 49 44 55
ROOT
ATOM      1  N   UNL     1       9.594  -4.520   3.651  1.00  0.00    -0.326 N 
ATOM      2  C   UNL     1       7.773  -5.244   2.346  1.00  0.00     0.014 C 
ATOM      3  C   UNL     1       9.300  -5.132   2.352  1.00  0.00     0.091 C 
ATOM      4  C   UNL     1       7.343  -4.001   3.109  1.00  0.00     0.041 C 
ATOM      5  C   UNL     1       8.338  -4.044   4.283  1.00  0.00     0.175 C 
ATOM      6  C   UNL     1       9.887  -6.511   2.052  1.00  0.00     0.059 C 
ATOM      7  C   UNL     1       7.252  -5.471   0.940  1.00  0.00     0.008 C 
ATOM      8  C   UNL     1       9.007  -7.371   1.118  1.00  0.00     0.143 C 
ATOM      9  C   UNL     1       8.123  -6.506   0.197  1.00  0.00     0.034 C 
ENDROOT
BRANCH   1  10
ATOM     10  C   UNL     1      10.809  -4.159   4.208  1.00  0.00     0.246 C 
ATOM     11  O   UNL     1      11.296  -4.866   5.096  1.00  0.00    -0.272 OA
BRANCH  10  12
ATOM     12  C   UNL     1      11.552  -2.899   3.676  1.00  0.00     0.174 C 
BRANCH  12  13
ATOM     13  N   UNL     1      10.594  -1.824   3.423  1.00  0.00    -0.342 N 
ATOM     14  C   UNL     1      10.826  -0.487   3.657  1.00  0.00     0.249 C 
ATOM     15  O   UNL     1      11.885  -0.043   4.082  1.00  0.00    -0.272 OA
ATOM     16  H   UNL     1       9.624  -2.052   3.219  1.00  0.00     0.164 HD
BRANCH  14  17
ATOM     17  C   UNL     1       9.612   0.399   3.305  1.00  0.00     0.207 C 
BRANCH  17  18
ATOM     18  C   UNL     1       8.355  -0.459   3.133  1.00  0.00     0.077 C 
BRANCH  18  19
ATOM     19  C   UNL     1       7.359  -0.227   4.247  1.00  0.00    -0.043 A 
ATOM     20  C   UNL     1       5.109  -0.424   5.131  1.00  0.00     0.083 A 
ATOM     21  C   UNL     1       6.038  -0.684   4.123  1.00  0.00     0.028 A 
ATOM     22  C   UNL     1       5.492   0.292   6.266  1.00  0.00     0.134 A 
ATOM     23  C   UNL     1       6.797   0.750   6.402  1.00  0.00     0.048 A 
ATOM     24  C   UNL     1       7.729   0.493   5.393  1.00  0.00     0.008 A 
ATOM     25  Cl  UNL     1       3.490  -0.993   4.960  1.00  0.00    -0.080 Cl
BRANCH  22  26
ATOM     26  O   UNL     1       4.614   0.580   7.276  1.00  0.00    -0.506 OA
ATOM     27  H   UNL     1       5.093   0.436   8.113  1.00  0.00     0.293 HD
ENDBRANCH  22  26
ENDBRANCH  18  19
ENDBRANCH  17  18
BRANCH  17  28
ATOM     28  O   UNL     1       9.848   1.145   2.100  1.00  0.00    -0.383 OA
ATOM     29  H   UNL     1      10.645   1.696   2.273  1.00  0.00     0.211 HD
ENDBRANCH  17  28
ENDBRANCH  14  17
ENDBRANCH  12  13
BRANCH  12  30
ATOM     30  C   UNL     1      12.440  -3.205   2.439  1.00  0.00     0.018 C 
ATOM     31  C   UNL     1      13.839  -2.591   2.606  1.00  0.00     0.010 C 
BRANCH  30  32
ATOM     32  C   UNL     1      11.815  -2.749   1.098  1.00  0.00     0.002 C 
ATOM     33  C   UNL     1      12.510  -1.574   0.422  1.00  0.00     0.004 C 
ENDBRANCH  30  32
ENDBRANCH  12  30
ENDBRANCH  10  12
ENDBRANCH   1  10
BRANCH   5  34
ATOM     34  C   UNL     1       7.874  -5.027   5.391  1.00  0.00     0.242 C 
ATOM     35  O   UNL     1       8.546  -6.001   5.731  1.00  0.00    -0.273 OA
ATOM     36  N   UNL     1       6.633  -4.762   5.926  1.00  0.00    -0.354 N 
ATOM     37  H   UNL     1       6.072  -4.013   5.519  1.00  0.00     0.163 HD
BRANCH  36  38
ATOM     38  C   UNL     1       6.139  -5.440   7.107  1.00  0.00     0.116 C 
BRANCH  38  39
ATOM     39  C   UNL     1       5.226  -4.506   7.897  1.00  0.00     0.023 C 
BRANCH  39  40
ATOM     40  C   UNL     1       5.708  -3.059   7.870  1.00  0.00     0.026 C 
BRANCH  40  41
ATOM     41  C   UNL     1       5.902  -2.526   9.289  1.00  0.00     0.146 C 
BRANCH  41  42
ATOM     42  N   UNL     1       7.141  -1.764   9.364  1.00  0.00    -0.254 NA
ATOM     43  C   UNL     1       7.108  -0.535   9.721  1.00  0.00     0.185 C 
ATOM     44  N   UNL     1       6.063   0.238  10.066  1.00  0.00    -0.370 N 
ATOM     45  N   UNL     1       8.261   0.152   9.779  1.00  0.00    -0.370 N 
ATOM     46  H   UNL     1       6.150   1.240  10.086  1.00  0.00     0.159 HD
ATOM     47  H   UNL     1       5.115  -0.126  10.090  1.00  0.00     0.159 HD
ATOM     48  H   UNL     1       9.100  -0.360   9.542  1.00  0.00     0.159 HD
ATOM     49  H   UNL     1       8.350   1.025  10.267  1.00  0.00     0.159 HD
ENDBRANCH  41  42
ENDBRANCH  40  41
ENDBRANCH  39  40
ENDBRANCH  38  39
ENDBRANCH  36  38
ENDBRANCH   5  34
BRANCH   8  50
ATOM     50  O   UNL     1       8.161  -8.223   1.891  1.00  0.00    -0.245 OA
BRANCH  50  51
ATOM     51  S   UNL     1       8.157  -9.824   1.604  1.00  0.00     0.397 S 
ATOM     52  O   UNL     1       7.405 -10.058   0.392  1.00  0.00    -0.169 OA
ATOM     53  O   UNL     1       7.863 -10.536   2.830  1.00  0.00    -0.169 OA
BRANCH  51  54
ATOM     54  O   UNL     1       9.695 -10.101   1.226  1.00  0.00    -0.264 OA
ATOM     55  H   UNL     1       9.747 -10.219   0.256  1.00  0.00     0.236 HD
ENDBRANCH  51  54
ENDBRANCH  50  51
ENDBRANCH   8  50
TORSDOF 19
ENDMDL
MODEL 21
REMARK VINA RESULT:    -6.171     11.260     15.400
REMARK INTER + INTRA:         -17.331
REMARK INTER:                 -13.900
REMARK INTRA:                  -3.431
REMARK UNBOUND:                -4.846
REMARK SMILES CC[C@@H](C)[C@@H](NC(=O)[C@@H](O)Cc1ccc(O)c(Cl)c1)C(=O)N1[C@H](C(=O)NCCCCN=C(N)N)C[C@H]2CC[C@H](OS(=O)(=O)O)C[C@@H]21
REMARK SMILES IDX 22 1 36 2 46 3 35 4 23 5 45 6 37 7 39 8 38 9 20 10 21 11
REMARK SMILES IDX 5 12 6 13 7 14 8 15 9 17 11 18 12 19 17 20 19 21 15 22 14 23
REMARK SMILES IDX 13 24 18 25 16 26 10 28 3 30 4 31 2 32 1 33 24 34 25 35
REMARK SMILES IDX 26 36 27 38 28 39 29 40 30 41 31 42 32 43 33 44 34 45 40 50
REMARK SMILES IDX 41 51 42 52 43 53 44 54
REMARK H PARENT 6 16 16 27 10 29 26 37 33 46 33 47 34 48 34 49 44 55
ROOT
ATOM      1  N   UNL     1      -1.589  -6.438   0.643  1.00  0.00    -0.326 N 
ATOM      2  C   UNL     1      -0.481  -8.367  -0.128  1.00  0.00     0.014 C 
ATOM      3  C   UNL     1      -1.772  -7.889   0.543  1.00  0.00     0.091 C 
ATOM      4  C   UNL     1       0.563  -7.416   0.437  1.00  0.00     0.041 C 
ATOM      5  C   UNL     1      -0.189  -6.079   0.308  1.00  0.00     0.175 C 
ATOM      6  C   UNL     1      -2.959  -8.416  -0.261  1.00  0.00     0.059 C 
ATOM      7  C   UNL     1      -0.299  -9.862   0.049  1.00  0.00     0.008 C 
ATOM      8  C   UNL     1      -2.695  -9.779  -0.937  1.00  0.00     0.143 C 
ATOM      9  C   UNL     1      -1.632 -10.603  -0.184  1.00  0.00     0.034 C 
ENDROOT
BRANCH   1  10
ATOM     10  C   UNL     1      -2.422  -5.473   1.183  1.00  0.00     0.246 C 
ATOM     11  O   UNL     1      -3.426  -5.125   0.551  1.00  0.00    -0.272 OA
BRANCH  10  12
ATOM     12  C   UNL     1      -2.104  -4.882   2.586  1.00  0.00     0.174 C 
BRANCH  12  13
ATOM     13  N   UNL     1      -2.111  -5.947   3.589  1.00  0.00    -0.342 N 
ATOM     14  C   UNL     1      -1.004  -6.394   4.275  1.00  0.00     0.249 C 
ATOM     15  O   UNL     1       0.119  -5.924   4.138  1.00  0.00    -0.272 OA
ATOM     16  H   UNL     1      -2.935  -6.533   3.695  1.00  0.00     0.164 HD
BRANCH  14  17
ATOM     17  C   UNL     1      -1.333  -7.541   5.254  1.00  0.00     0.207 C 
BRANCH  17  18
ATOM     18  C   UNL     1      -2.051  -6.998   6.493  1.00  0.00     0.077 C 
BRANCH  18  19
ATOM     19  C   UNL     1      -3.512  -7.387   6.512  1.00  0.00    -0.043 A 
ATOM     20  C   UNL     1      -5.839  -6.840   6.101  1.00  0.00     0.083 A 
ATOM     21  C   UNL     1      -4.488  -6.497   6.036  1.00  0.00     0.028 A 
ATOM     22  C   UNL     1      -6.223  -8.068   6.640  1.00  0.00     0.134 A 
ATOM     23  C   UNL     1      -5.267  -8.958   7.115  1.00  0.00     0.048 A 
ATOM     24  C   UNL     1      -3.914  -8.618   7.053  1.00  0.00     0.008 A 
ATOM     25  Cl  UNL     1      -7.023  -5.733   5.511  1.00  0.00    -0.080 Cl
BRANCH  22  26
ATOM     26  O   UNL     1      -7.536  -8.443   6.734  1.00  0.00    -0.506 OA
ATOM     27  H   UNL     1      -7.544  -9.341   7.113  1.00  0.00     0.293 HD
ENDBRANCH  22  26
ENDBRANCH  18  19
ENDBRANCH  17  18
BRANCH  17  28
ATOM     28  O   UNL     1      -0.141  -8.233   5.658  1.00  0.00    -0.383 OA
ATOM     29  H   UNL     1       0.390  -8.362   4.840  1.00  0.00     0.211 HD
ENDBRANCH  17  28
ENDBRANCH  14  17
ENDBRANCH  12  13
BRANCH  12  30
ATOM     30  C   UNL     1      -3.040  -3.703   2.967  1.00  0.00     0.018 C 
ATOM     31  C   UNL     1      -2.455  -2.899   4.139  1.00  0.00     0.010 C 
BRANCH  30  32
ATOM     32  C   UNL     1      -4.489  -4.140   3.292  1.00  0.00     0.002 C 
ATOM     33  C   UNL     1      -5.581  -3.232   2.743  1.00  0.00     0.004 C 
ENDBRANCH  30  32
ENDBRANCH  12  30
ENDBRANCH  10  12
ENDBRANCH   1  10
BRANCH   5  34
ATOM     34  C   UNL     1      -0.097  -5.508  -1.132  1.00  0.00     0.242 C 
ATOM     35  O   UNL     1       0.964  -5.118  -1.619  1.00  0.00    -0.273 OA
ATOM     36  N   UNL     1      -1.296  -5.419  -1.804  1.00  0.00    -0.354 N 
ATOM     37  H   UNL     1      -2.157  -5.645  -1.305  1.00  0.00     0.163 HD
BRANCH  36  38
ATOM     38  C   UNL     1      -1.368  -5.116  -3.219  1.00  0.00     0.116 C 
BRANCH  38  39
ATOM     39  C   UNL     1      -1.540  -6.406  -4.017  1.00  0.00     0.023 C 
BRANCH  39  40
ATOM     40  C   UNL     1      -2.338  -6.196  -5.300  1.00  0.00     0.026 C 
BRANCH  40  41
ATOM     41  C   UNL     1      -1.456  -6.416  -6.529  1.00  0.00     0.146 C 
BRANCH  41  42
ATOM     42  N   UNL     1      -1.361  -7.840  -6.819  1.00  0.00    -0.254 NA
ATOM     43  C   UNL     1      -2.018  -8.332  -7.801  1.00  0.00     0.185 C 
ATOM     44  N   UNL     1      -2.840  -7.729  -8.681  1.00  0.00    -0.370 N 
ATOM     45  N   UNL     1      -1.920  -9.648  -8.049  1.00  0.00    -0.370 N 
ATOM     46  H   UNL     1      -3.474  -8.270  -9.243  1.00  0.00     0.159 HD
ATOM     47  H   UNL     1      -3.017  -6.730  -8.646  1.00  0.00     0.159 HD
ATOM     48  H   UNL     1      -1.313 -10.176  -7.437  1.00  0.00     0.159 HD
ATOM     49  H   UNL     1      -2.204 -10.060  -8.921  1.00  0.00     0.159 HD
ENDBRANCH  41  42
ENDBRANCH  40  41
ENDBRANCH  39  40
ENDBRANCH  38  39
ENDBRANCH  36  38
ENDBRANCH   5  34
BRANCH   8  50
ATOM     50  O   UNL     1      -2.249  -9.582  -2.279  1.00  0.00    -0.245 OA
BRANCH  50  51
ATOM     51  S   UNL     1      -3.239  -9.948  -3.517  1.00  0.00     0.397 S 
ATOM     52  O   UNL     1      -4.148  -8.840  -3.704  1.00  0.00    -0.169 OA
ATOM     53  O   UNL     1      -3.718 -11.307  -3.370  1.00  0.00    -0.169 OA
BRANCH  51  54
ATOM     54  O   UNL     1      -2.236  -9.909  -4.773  1.00  0.00    -0.264 OA
ATOM     55  H   UNL     1      -2.728  -9.547  -5.537  1.00  0.00     0.236 HD
ENDBRANCH  51  54
ENDBRANCH  50  51
ENDBRANCH   8  50
TORSDOF 19
ENDMDL
MODEL 22
REMARK VINA RESULT:    -6.133     12.946     16.804
REMARK INTER + INTRA:         -17.253
REMARK INTER:                 -13.577
REMARK INTRA:                  -3.676
REMARK UNBOUND:                -4.846
REMARK SMILES CC[C@@H](C)[C@@H](NC(=O)[C@@H](O)Cc1ccc(O)c(Cl)c1)C(=O)N1[C@H](C(=O)NCCCCN=C(N)N)C[C@H]2CC[C@H](OS(=O)(=O)O)C[C@@H]21
REMARK SMILES IDX 22 1 36 2 46 3 35 4 23 5 45 6 37 7 39 8 38 9 20 10 21 11
REMARK SMILES IDX 5 12 6 13 7 14 8 15 9 17 11 18 12 19 17 20 19 21 15 22 14 23
REMARK SMILES IDX 13 24 18 25 16 26 10 28 3 30 4 31 2 32 1 33 24 34 25 35
REMARK SMILES IDX 26 36 27 38 28 39 29 40 30 41 31 42 32 43 33 44 34 45 40 50
REMARK SMILES IDX 41 51 42 52 43 53 44 54
REMARK H PARENT 6 16 16 27 10 29 26 37 33 46 33 47 34 48 34 49 44 55
ROOT
ATOM      1  N   UNL     1      -2.769  -7.587  -2.477  1.00  0.00    -0.326 N 
ATOM      2  C   UNL     1      -2.465  -6.320  -4.438  1.00  0.00     0.014 C 
ATOM      3  C   UNL     1      -1.930  -7.537  -3.678  1.00  0.00     0.091 C 
ATOM      4  C   UNL     1      -2.856  -5.370  -3.317  1.00  0.00     0.041 C 
ATOM      5  C   UNL     1      -3.577  -6.347  -2.370  1.00  0.00     0.175 C 
ATOM      6  C   UNL     1      -1.941  -8.739  -4.621  1.00  0.00     0.059 C 
ATOM      7  C   UNL     1      -1.476  -5.860  -5.491  1.00  0.00     0.008 C 
ATOM      8  C   UNL     1      -1.702  -8.370  -6.101  1.00  0.00     0.143 C 
ATOM      9  C   UNL     1      -0.887  -7.069  -6.249  1.00  0.00     0.034 C 
ENDROOT
BRANCH   1  10
ATOM     10  C   UNL     1      -2.737  -8.466  -1.408  1.00  0.00     0.246 C 
ATOM     11  O   UNL     1      -3.444  -9.478  -1.440  1.00  0.00    -0.272 OA
BRANCH  10  12
ATOM     12  C   UNL     1      -1.782  -8.183  -0.211  1.00  0.00     0.174 C 
BRANCH  12  13
ATOM     13  N   UNL     1      -2.550  -7.697   0.935  1.00  0.00    -0.342 N 
ATOM     14  C   UNL     1      -2.502  -8.232   2.202  1.00  0.00     0.249 C 
ATOM     15  O   UNL     1      -1.780  -9.169   2.520  1.00  0.00    -0.272 OA
ATOM     16  H   UNL     1      -3.304  -7.030   0.789  1.00  0.00     0.164 HD
BRANCH  14  17
ATOM     17  C   UNL     1      -3.442  -7.509   3.190  1.00  0.00     0.207 C 
BRANCH  17  18
ATOM     18  C   UNL     1      -2.916  -6.104   3.499  1.00  0.00     0.077 C 
BRANCH  18  19
ATOM     19  C   UNL     1      -4.016  -5.068   3.451  1.00  0.00    -0.043 A 
ATOM     20  C   UNL     1      -6.258  -4.353   4.042  1.00  0.00     0.083 A 
ATOM     21  C   UNL     1      -5.226  -5.288   4.129  1.00  0.00     0.028 A 
ATOM     22  C   UNL     1      -6.090  -3.197   3.278  1.00  0.00     0.134 A 
ATOM     23  C   UNL     1      -4.898  -2.967   2.602  1.00  0.00     0.048 A 
ATOM     24  C   UNL     1      -3.864  -3.901   2.686  1.00  0.00     0.008 A 
ATOM     25  Cl  UNL     1      -7.736  -4.641   4.881  1.00  0.00    -0.080 Cl
BRANCH  22  26
ATOM     26  O   UNL     1      -7.077  -2.257   3.155  1.00  0.00    -0.506 OA
ATOM     27  H   UNL     1      -7.805  -2.679   2.661  1.00  0.00     0.293 HD
ENDBRANCH  22  26
ENDBRANCH  18  19
ENDBRANCH  17  18
BRANCH  17  28
ATOM     28  O   UNL     1      -3.574  -8.248   4.415  1.00  0.00    -0.383 OA
ATOM     29  H   UNL     1      -2.665  -8.539   4.656  1.00  0.00     0.211 HD
ENDBRANCH  17  28
ENDBRANCH  14  17
ENDBRANCH  12  13
BRANCH  12  30
ATOM     30  C   UNL     1      -0.614  -7.234  -0.588  1.00  0.00     0.018 C 
ATOM     31  C   UNL     1       0.731  -7.809  -0.116  1.00  0.00     0.010 C 
BRANCH  30  32
ATOM     32  C   UNL     1      -0.790  -5.790  -0.057  1.00  0.00     0.002 C 
ATOM     33  C   UNL     1      -0.297  -4.689  -0.987  1.00  0.00     0.004 C 
ENDBRANCH  30  32
ENDBRANCH  12  30
ENDBRANCH  10  12
ENDBRANCH   1  10
BRANCH   5  34
ATOM     34  C   UNL     1      -5.040  -6.604  -2.820  1.00  0.00     0.242 C 
ATOM     35  O   UNL     1      -5.938  -5.782  -2.636  1.00  0.00    -0.273 OA
ATOM     36  N   UNL     1      -5.270  -7.836  -3.389  1.00  0.00    -0.354 N 
ATOM     37  H   UNL     1      -4.512  -8.520  -3.405  1.00  0.00     0.163 HD
BRANCH  36  38
ATOM     38  C   UNL     1      -6.515  -8.160  -4.056  1.00  0.00     0.116 C 
BRANCH  38  39
ATOM     39  C   UNL     1      -6.225  -8.823  -5.400  1.00  0.00     0.023 C 
BRANCH  39  40
ATOM     40  C   UNL     1      -5.420 -10.110  -5.253  1.00  0.00     0.026 C 
BRANCH  40  41
ATOM     41  C   UNL     1      -6.306 -11.250  -4.751  1.00  0.00     0.146 C 
BRANCH  41  42
ATOM     42  N   UNL     1      -5.512 -12.175  -3.954  1.00  0.00    -0.254 NA
ATOM     43  C   UNL     1      -5.455 -12.028  -2.683  1.00  0.00     0.185 C 
ATOM     44  N   UNL     1      -6.036 -11.109  -1.891  1.00  0.00    -0.370 N 
ATOM     45  N   UNL     1      -4.714 -12.889  -1.966  1.00  0.00    -0.370 N 
ATOM     46  H   UNL     1      -5.712 -10.963  -0.951  1.00  0.00     0.159 HD
ATOM     47  H   UNL     1      -6.643 -10.388  -2.269  1.00  0.00     0.159 HD
ATOM     48  H   UNL     1      -4.248 -13.621  -2.487  1.00  0.00     0.159 HD
ATOM     49  H   UNL     1      -4.805 -12.988  -0.971  1.00  0.00     0.159 HD
ENDBRANCH  41  42
ENDBRANCH  40  41
ENDBRANCH  39  40
ENDBRANCH  38  39
ENDBRANCH  36  38
ENDBRANCH   5  34
BRANCH   8  50
ATOM     50  O   UNL     1      -2.950  -8.202  -6.772  1.00  0.00    -0.245 OA
BRANCH  50  51
ATOM     51  S   UNL     1      -3.087  -8.636  -8.334  1.00  0.00     0.397 S 
ATOM     52  O   UNL     1      -2.807  -7.474  -9.147  1.00  0.00    -0.169 OA
ATOM     53  O   UNL     1      -4.291  -9.419  -8.517  1.00  0.00    -0.169 OA
BRANCH  51  54
ATOM     54  O   UNL     1      -1.825  -9.616  -8.521  1.00  0.00    -0.264 OA
ATOM     55  H   UNL     1      -2.057 -10.272  -9.210  1.00  0.00     0.236 HD
ENDBRANCH  51  54
ENDBRANCH  50  51
ENDBRANCH   8  50
TORSDOF 19
ENDMDL
MODEL 23
REMARK VINA RESULT:    -6.132      2.929      6.414
REMARK INTER + INTRA:         -17.250
REMARK INTER:                 -13.865
REMARK INTRA:                  -3.385
REMARK UNBOUND:                -4.846
REMARK SMILES CC[C@@H](C)[C@@H](NC(=O)[C@@H](O)Cc1ccc(O)c(Cl)c1)C(=O)N1[C@H](C(=O)NCCCCN=C(N)N)C[C@H]2CC[C@H](OS(=O)(=O)O)C[C@@H]21
REMARK SMILES IDX 22 1 36 2 46 3 35 4 23 5 45 6 37 7 39 8 38 9 20 10 21 11
REMARK SMILES IDX 5 12 6 13 7 14 8 15 9 17 11 18 12 19 17 20 19 21 15 22 14 23
REMARK SMILES IDX 13 24 18 25 16 26 10 28 3 30 4 31 2 32 1 33 24 34 25 35
REMARK SMILES IDX 26 36 27 38 28 39 29 40 30 41 31 42 32 43 33 44 34 45 40 50
REMARK SMILES IDX 41 51 42 52 43 53 44 54
REMARK H PARENT 6 16 16 27 10 29 26 37 33 46 33 47 34 48 34 49 44 55
ROOT
ATOM      1  N   UNL     1      11.653  -3.624   2.953  1.00  0.00    -0.326 N 
ATOM      2  C   UNL     1      12.531  -5.805   2.831  1.00  0.00     0.014 C 
ATOM      3  C   UNL     1      12.684  -4.469   3.564  1.00  0.00     0.091 C 
ATOM      4  C   UNL     1      12.138  -5.374   1.427  1.00  0.00     0.041 C 
ATOM      5  C   UNL     1      11.090  -4.295   1.756  1.00  0.00     0.175 C 
ATOM      6  C   UNL     1      12.608  -4.730   5.067  1.00  0.00     0.059 C 
ATOM      7  C   UNL     1      13.758  -6.673   3.027  1.00  0.00     0.008 C 
ATOM      8  C   UNL     1      13.169  -6.106   5.487  1.00  0.00     0.143 C 
ATOM      9  C   UNL     1      14.229  -6.627   4.496  1.00  0.00     0.034 C 
ENDROOT
BRANCH   1  10
ATOM     10  C   UNL     1      11.330  -2.300   3.199  1.00  0.00     0.246 C 
ATOM     11  O   UNL     1      10.367  -2.042   3.929  1.00  0.00    -0.272 OA
BRANCH  10  12
ATOM     12  C   UNL     1      12.208  -1.170   2.588  1.00  0.00     0.174 C 
BRANCH  12  13
ATOM     13  N   UNL     1      11.414   0.048   2.430  1.00  0.00    -0.342 N 
ATOM     14  C   UNL     1      11.770   1.291   2.904  1.00  0.00     0.249 C 
ATOM     15  O   UNL     1      12.819   1.521   3.494  1.00  0.00    -0.272 OA
ATOM     16  H   UNL     1      10.454  -0.016   2.101  1.00  0.00     0.164 HD
BRANCH  14  17
ATOM     17  C   UNL     1      10.714   2.372   2.593  1.00  0.00     0.207 C 
BRANCH  17  18
ATOM     18  C   UNL     1       9.466   1.738   1.969  1.00  0.00     0.077 C 
BRANCH  18  19
ATOM     19  C   UNL     1       8.296   1.741   2.927  1.00  0.00    -0.043 A 
ATOM     20  C   UNL     1       7.434   1.684   5.194  1.00  0.00     0.083 A 
ATOM     21  C   UNL     1       8.516   1.731   4.314  1.00  0.00     0.028 A 
ATOM     22  C   UNL     1       6.131   1.644   4.698  1.00  0.00     0.134 A 
ATOM     23  C   UNL     1       5.899   1.653   3.327  1.00  0.00     0.048 A 
ATOM     24  C   UNL     1       6.979   1.698   2.443  1.00  0.00     0.008 A 
ATOM     25  Cl  UNL     1       7.724   1.673   6.894  1.00  0.00    -0.080 Cl
BRANCH  22  26
ATOM     26  O   UNL     1       5.040   1.586   5.522  1.00  0.00    -0.506 OA
ATOM     27  H   UNL     1       5.311   1.083   6.312  1.00  0.00     0.293 HD
ENDBRANCH  22  26
ENDBRANCH  18  19
ENDBRANCH  17  18
BRANCH  17  28
ATOM     28  O   UNL     1      11.239   3.368   1.700  1.00  0.00    -0.383 OA
ATOM     29  H   UNL     1      11.695   4.029   2.268  1.00  0.00     0.211 HD
ENDBRANCH  17  28
ENDBRANCH  14  17
ENDBRANCH  12  13
BRANCH  12  30
ATOM     30  C   UNL     1      12.905  -1.598   1.268  1.00  0.00     0.018 C 
ATOM     31  C   UNL     1      14.428  -1.680   1.456  1.00  0.00     0.010 C 
BRANCH  30  32
ATOM     32  C   UNL     1      12.566  -0.688   0.063  1.00  0.00     0.002 C 
ATOM     33  C   UNL     1      13.726  -0.399  -0.881  1.00  0.00     0.004 C 
ENDBRANCH  30  32
ENDBRANCH  12  30
ENDBRANCH  10  12
ENDBRANCH   1  10
BRANCH   5  34
ATOM     34  C   UNL     1       9.706  -4.921   2.076  1.00  0.00     0.242 C 
ATOM     35  O   UNL     1       9.094  -5.614   1.264  1.00  0.00    -0.273 OA
ATOM     36  N   UNL     1       9.191  -4.601   3.312  1.00  0.00    -0.354 N 
ATOM     37  H   UNL     1       9.690  -3.926   3.893  1.00  0.00     0.163 HD
BRANCH  36  38
ATOM     38  C   UNL     1       8.024  -5.263   3.858  1.00  0.00     0.116 C 
BRANCH  38  39
ATOM     39  C   UNL     1       6.811  -4.342   3.759  1.00  0.00     0.023 C 
BRANCH  39  40
ATOM     40  C   UNL     1       6.385  -3.791   5.116  1.00  0.00     0.026 C 
BRANCH  40  41
ATOM     41  C   UNL     1       6.798  -2.326   5.260  1.00  0.00     0.146 C 
BRANCH  41  42
ATOM     42  N   UNL     1       6.921  -1.986   6.671  1.00  0.00    -0.254 NA
ATOM     43  C   UNL     1       5.943  -1.420   7.274  1.00  0.00     0.185 C 
ATOM     44  N   UNL     1       4.733  -1.057   6.809  1.00  0.00    -0.370 N 
ATOM     45  N   UNL     1       6.078  -1.111   8.574  1.00  0.00    -0.370 N 
ATOM     46  H   UNL     1       4.161  -0.408   7.321  1.00  0.00     0.159 HD
ATOM     47  H   UNL     1       4.458  -1.230   5.847  1.00  0.00     0.159 HD
ATOM     48  H   UNL     1       6.958  -1.359   9.004  1.00  0.00     0.159 HD
ATOM     49  H   UNL     1       5.296  -0.892   9.165  1.00  0.00     0.159 HD
ENDBRANCH  41  42
ENDBRANCH  40  41
ENDBRANCH  39  40
ENDBRANCH  38  39
ENDBRANCH  36  38
ENDBRANCH   5  34
BRANCH   8  50
ATOM     50  O   UNL     1      12.112  -7.063   5.564  1.00  0.00    -0.245 OA
BRANCH  50  51
ATOM     51  S   UNL     1      11.272  -7.221   6.948  1.00  0.00     0.397 S 
ATOM     52  O   UNL     1      10.144  -6.319   6.891  1.00  0.00    -0.169 OA
ATOM     53  O   UNL     1      12.184  -7.227   8.073  1.00  0.00    -0.169 OA
BRANCH  51  54
ATOM     54  O   UNL     1      10.657  -8.700   6.800  1.00  0.00    -0.264 OA
ATOM     55  H   UNL     1      11.398  -9.314   6.620  1.00  0.00     0.236 HD
ENDBRANCH  51  54
ENDBRANCH  50  51
ENDBRANCH   8  50
TORSDOF 19
ENDMDL
MODEL 24
REMARK VINA RESULT:    -6.111      2.827      5.546
REMARK INTER + INTRA:         -17.210
REMARK INTER:                 -13.303
REMARK INTRA:                  -3.906
REMARK UNBOUND:                -4.846
REMARK SMILES CC[C@@H](C)[C@@H](NC(=O)[C@@H](O)Cc1ccc(O)c(Cl)c1)C(=O)N1[C@H](C(=O)NCCCCN=C(N)N)C[C@H]2CC[C@H](OS(=O)(=O)O)C[C@@H]21
REMARK SMILES IDX 22 1 36 2 46 3 35 4 23 5 45 6 37 7 39 8 38 9 20 10 21 11
REMARK SMILES IDX 5 12 6 13 7 14 8 15 9 17 11 18 12 19 17 20 19 21 15 22 14 23
REMARK SMILES IDX 13 24 18 25 16 26 10 28 3 30 4 31 2 32 1 33 24 34 25 35
REMARK SMILES IDX 26 36 27 38 28 39 29 40 30 41 31 42 32 43 33 44 34 45 40 50
REMARK SMILES IDX 41 51 42 52 43 53 44 54
REMARK H PARENT 6 16 16 27 10 29 26 37 33 46 33 47 34 48 34 49 44 55
ROOT
ATOM      1  N   UNL     1       6.845  -3.361   4.443  1.00  0.00    -0.326 N 
ATOM      2  C   UNL     1       4.943  -2.546   5.567  1.00  0.00     0.014 C 
ATOM      3  C   UNL     1       5.947  -3.702   5.551  1.00  0.00     0.091 C 
ATOM      4  C   UNL     1       4.805  -2.202   4.092  1.00  0.00     0.041 C 
ATOM      5  C   UNL     1       6.284  -2.228   3.666  1.00  0.00     0.175 C 
ATOM      6  C   UNL     1       6.544  -3.843   6.950  1.00  0.00     0.059 C 
ATOM      7  C   UNL     1       3.707  -2.913   6.364  1.00  0.00     0.008 C 
ATOM      8  C   UNL     1       5.570  -3.455   8.083  1.00  0.00     0.143 C 
ATOM      9  C   UNL     1       4.096  -3.639   7.669  1.00  0.00     0.034 C 
ENDROOT
BRANCH   1  10
ATOM     10  C   UNL     1       7.937  -4.048   3.942  1.00  0.00     0.246 C 
ATOM     11  O   UNL     1       9.074  -3.626   4.180  1.00  0.00    -0.272 OA
BRANCH  10  12
ATOM     12  C   UNL     1       7.714  -5.356   3.129  1.00  0.00     0.174 C 
BRANCH  12  13
ATOM     13  N   UNL     1       8.320  -6.488   3.829  1.00  0.00    -0.342 N 
ATOM     14  C   UNL     1       7.693  -7.253   4.786  1.00  0.00     0.249 C 
ATOM     15  O   UNL     1       6.533  -7.084   5.142  1.00  0.00    -0.272 OA
ATOM     16  H   UNL     1       9.321  -6.649   3.753  1.00  0.00     0.164 HD
BRANCH  14  17
ATOM     17  C   UNL     1       8.603  -8.364   5.351  1.00  0.00     0.207 C 
BRANCH  17  18
ATOM     18  C   UNL     1       8.235  -9.720   4.741  1.00  0.00     0.077 C 
BRANCH  18  19
ATOM     19  C   UNL     1       8.211  -9.668   3.230  1.00  0.00    -0.043 A 
ATOM     20  C   UNL     1       9.370  -9.403   1.116  1.00  0.00     0.083 A 
ATOM     21  C   UNL     1       9.402  -9.500   2.507  1.00  0.00     0.028 A 
ATOM     22  C   UNL     1       8.152  -9.472   0.439  1.00  0.00     0.134 A 
ATOM     23  C   UNL     1       6.965  -9.638   1.142  1.00  0.00     0.048 A 
ATOM     24  C   UNL     1       6.993  -9.734   2.535  1.00  0.00     0.008 A 
ATOM     25  Cl  UNL     1      10.845  -9.197   0.246  1.00  0.00    -0.080 Cl
BRANCH  22  26
ATOM     26  O   UNL     1       8.070  -9.371  -0.924  1.00  0.00    -0.506 OA
ATOM     27  H   UNL     1       7.122  -9.305  -1.143  1.00  0.00     0.293 HD
ENDBRANCH  22  26
ENDBRANCH  18  19
ENDBRANCH  17  18
BRANCH  17  28
ATOM     28  O   UNL     1       8.499  -8.441   6.782  1.00  0.00    -0.383 OA
ATOM     29  H   UNL     1       7.538  -8.381   6.988  1.00  0.00     0.211 HD
ENDBRANCH  17  28
ENDBRANCH  14  17
ENDBRANCH  12  13
BRANCH  12  30
ATOM     30  C   UNL     1       8.199  -5.239   1.659  1.00  0.00     0.018 C 
ATOM     31  C   UNL     1       7.215  -5.929   0.702  1.00  0.00     0.010 C 
BRANCH  30  32
ATOM     32  C   UNL     1       9.631  -5.783   1.432  1.00  0.00     0.002 C 
ATOM     33  C   UNL     1      10.324  -5.285   0.171  1.00  0.00     0.004 C 
ENDBRANCH  30  32
ENDBRANCH  12  30
ENDBRANCH  10  12
ENDBRANCH   1  10
BRANCH   5  34
ATOM     34  C   UNL     1       7.007  -0.902   4.027  1.00  0.00     0.242 C 
ATOM     35  O   UNL     1       6.431   0.029   4.588  1.00  0.00    -0.273 OA
ATOM     36  N   UNL     1       8.322  -0.824   3.626  1.00  0.00    -0.354 N 
ATOM     37  H   UNL     1       8.709  -1.580   3.060  1.00  0.00     0.163 HD
BRANCH  36  38
ATOM     38  C   UNL     1       9.202   0.239   4.065  1.00  0.00     0.116 C 
BRANCH  38  39
ATOM     39  C   UNL     1       8.749   1.568   3.463  1.00  0.00     0.023 C 
BRANCH  39  40
ATOM     40  C   UNL     1       8.894   2.729   4.440  1.00  0.00     0.026 C 
BRANCH  40  41
ATOM     41  C   UNL     1       7.792   2.687   5.500  1.00  0.00     0.146 C 
BRANCH  41  42
ATOM     42  N   UNL     1       8.361   2.309   6.787  1.00  0.00    -0.254 NA
ATOM     43  C   UNL     1       7.749   1.461   7.525  1.00  0.00     0.185 C 
ATOM     44  N   UNL     1       6.592   0.807   7.315  1.00  0.00    -0.370 N 
ATOM     45  N   UNL     1       8.287   1.129   8.710  1.00  0.00    -0.370 N 
ATOM     46  H   UNL     1       6.108   0.363   8.077  1.00  0.00     0.159 HD
ATOM     47  H   UNL     1       6.057   0.931   6.460  1.00  0.00     0.159 HD
ATOM     48  H   UNL     1       9.166   1.571   8.943  1.00  0.00     0.159 HD
ATOM     49  H   UNL     1       8.004   0.316   9.228  1.00  0.00     0.159 HD
ENDBRANCH  41  42
ENDBRANCH  40  41
ENDBRANCH  39  40
ENDBRANCH  38  39
ENDBRANCH  36  38
ENDBRANCH   5  34
BRANCH   8  50
ATOM     50  O   UNL     1       5.770  -2.090   8.454  1.00  0.00    -0.245 OA
BRANCH  50  51
ATOM     51  S   UNL     1       6.250  -1.732   9.966  1.00  0.00     0.397 S 
ATOM     52  O   UNL     1       7.696  -1.736   9.988  1.00  0.00    -0.169 OA
ATOM     53  O   UNL     1       5.474  -2.499  10.918  1.00  0.00    -0.169 OA
BRANCH  51  54
ATOM     54  O   UNL     1       5.815  -0.189  10.100  1.00  0.00    -0.264 OA
ATOM     55  H   UNL     1       4.927  -0.094   9.700  1.00  0.00     0.236 HD
ENDBRANCH  51  54
ENDBRANCH  50  51
ENDBRANCH   8  50
TORSDOF 19
ENDMDL
MODEL 25
REMARK VINA RESULT:    -6.110      2.301      3.721
REMARK INTER + INTRA:         -17.207
REMARK INTER:                 -14.413
REMARK INTRA:                  -2.794
REMARK UNBOUND:                -4.846
REMARK SMILES CC[C@@H](C)[C@@H](NC(=O)[C@@H](O)Cc1ccc(O)c(Cl)c1)C(=O)N1[C@H](C(=O)NCCCCN=C(N)N)C[C@H]2CC[C@H](OS(=O)(=O)O)C[C@@H]21
REMARK SMILES IDX 22 1 36 2 46 3 35 4 23 5 45 6 37 7 39 8 38 9 20 10 21 11
REMARK SMILES IDX 5 12 6 13 7 14 8 15 9 17 11 18 12 19 17 20 19 21 15 22 14 23
REMARK SMILES IDX 13 24 18 25 16 26 10 28 3 30 4 31 2 32 1 33 24 34 25 35
REMARK SMILES IDX 26 36 27 38 28 39 29 40 30 41 31 42 32 43 33 44 34 45 40 50
REMARK SMILES IDX 41 51 42 52 43 53 44 54
REMARK H PARENT 6 16 16 27 10 29 26 37 33 46 33 47 34 48 34 49 44 55
ROOT
ATOM      1  N   UNL     1       6.507  -1.423   4.382  1.00  0.00    -0.326 N 
ATOM      2  C   UNL     1       4.664  -2.178   5.637  1.00  0.00     0.014 C 
ATOM      3  C   UNL     1       6.107  -2.526   5.260  1.00  0.00     0.091 C 
ATOM      4  C   UNL     1       4.137  -1.521   4.371  1.00  0.00     0.041 C 
ATOM      5  C   UNL     1       5.323  -0.602   4.027  1.00  0.00     0.175 C 
ATOM      6  C   UNL     1       6.901  -2.752   6.546  1.00  0.00     0.059 C 
ATOM      7  C   UNL     1       3.945  -3.387   6.202  1.00  0.00     0.008 C 
ATOM      8  C   UNL     1       6.060  -3.337   7.701  1.00  0.00     0.143 C 
ATOM      9  C   UNL     1       4.856  -4.152   7.186  1.00  0.00     0.034 C 
ENDROOT
BRANCH   1  10
ATOM     10  C   UNL     1       7.703  -1.205   3.719  1.00  0.00     0.246 C 
ATOM     11  O   UNL     1       7.750  -0.348   2.830  1.00  0.00    -0.272 OA
BRANCH  10  12
ATOM     12  C   UNL     1       8.968  -2.010   4.135  1.00  0.00     0.174 C 
BRANCH  12  13
ATOM     13  N   UNL     1      10.097  -1.640   3.283  1.00  0.00    -0.342 N 
ATOM     14  C   UNL     1      11.127  -0.804   3.654  1.00  0.00     0.249 C 
ATOM     15  O   UNL     1      11.226  -0.294   4.763  1.00  0.00    -0.272 OA
ATOM     16  H   UNL     1      10.072  -1.858   2.290  1.00  0.00     0.164 HD
BRANCH  14  17
ATOM     17  C   UNL     1      12.159  -0.594   2.525  1.00  0.00     0.207 C 
BRANCH  17  18
ATOM     18  C   UNL     1      13.361  -1.524   2.719  1.00  0.00     0.077 C 
BRANCH  18  19
ATOM     19  C   UNL     1      13.008  -2.966   2.432  1.00  0.00    -0.043 A 
ATOM     20  C   UNL     1      11.751  -4.611   1.168  1.00  0.00     0.083 A 
ATOM     21  C   UNL     1      12.113  -3.283   1.398  1.00  0.00     0.028 A 
ATOM     22  C   UNL     1      12.277  -5.627   1.967  1.00  0.00     0.134 A 
ATOM     23  C   UNL     1      13.164  -5.326   2.994  1.00  0.00     0.048 A 
ATOM     24  C   UNL     1      13.527  -3.998   3.228  1.00  0.00     0.008 A 
ATOM     25  Cl  UNL     1      10.650  -4.982  -0.107  1.00  0.00    -0.080 Cl
BRANCH  22  26
ATOM     26  O   UNL     1      11.943  -6.942   1.786  1.00  0.00    -0.506 OA
ATOM     27  H   UNL     1      12.211  -7.413   2.597  1.00  0.00     0.293 HD
ENDBRANCH  22  26
ENDBRANCH  18  19
ENDBRANCH  17  18
BRANCH  17  28
ATOM     28  O   UNL     1      12.613   0.769   2.487  1.00  0.00    -0.383 OA
ATOM     29  H   UNL     1      13.085   0.874   1.630  1.00  0.00     0.211 HD
ENDBRANCH  17  28
ENDBRANCH  14  17
ENDBRANCH  12  13
BRANCH  12  30
ATOM     30  C   UNL     1       8.723  -3.543   4.160  1.00  0.00     0.018 C 
ATOM     31  C   UNL     1       9.986  -4.291   4.615  1.00  0.00     0.010 C 
BRANCH  30  32
ATOM     32  C   UNL     1       8.223  -4.114   2.811  1.00  0.00     0.002 C 
ATOM     33  C   UNL     1       8.447  -5.608   2.614  1.00  0.00     0.004 C 
ENDBRANCH  30  32
ENDBRANCH  12  30
ENDBRANCH  10  12
ENDBRANCH   1  10
BRANCH   5  34
ATOM     34  C   UNL     1       5.293   0.708   4.859  1.00  0.00     0.242 C 
ATOM     35  O   UNL     1       4.652   0.808   5.905  1.00  0.00    -0.273 OA
ATOM     36  N   UNL     1       5.989   1.764   4.314  1.00  0.00    -0.354 N 
ATOM     37  H   UNL     1       6.400   1.655   3.386  1.00  0.00     0.163 HD
BRANCH  36  38
ATOM     38  C   UNL     1       6.246   2.983   5.052  1.00  0.00     0.116 C 
BRANCH  38  39
ATOM     39  C   UNL     1       7.732   3.084   5.386  1.00  0.00     0.023 C 
BRANCH  39  40
ATOM     40  C   UNL     1       8.451   1.745   5.256  1.00  0.00     0.026 C 
BRANCH  40  41
ATOM     41  C   UNL     1       8.663   1.109   6.630  1.00  0.00     0.146 C 
BRANCH  41  42
ATOM     42  N   UNL     1       7.786   1.740   7.606  1.00  0.00    -0.254 NA
ATOM     43  C   UNL     1       7.735   1.283   8.801  1.00  0.00     0.185 C 
ATOM     44  N   UNL     1       8.393   0.252   9.362  1.00  0.00    -0.370 N 
ATOM     45  N   UNL     1       6.916   1.876   9.685  1.00  0.00    -0.370 N 
ATOM     46  H   UNL     1       8.078  -0.146  10.230  1.00  0.00     0.159 HD
ATOM     47  H   UNL     1       9.064  -0.301   8.837  1.00  0.00     0.159 HD
ATOM     48  H   UNL     1       6.389   2.669   9.346  1.00  0.00     0.159 HD
ATOM     49  H   UNL     1       6.994   1.737  10.677  1.00  0.00     0.159 HD
ENDBRANCH  41  42
ENDBRANCH  40  41
ENDBRANCH  39  40
ENDBRANCH  38  39
ENDBRANCH  36  38
ENDBRANCH   5  34
BRANCH   8  50
ATOM     50  O   UNL     1       5.572  -2.285   8.534  1.00  0.00    -0.245 OA
BRANCH  50  51
ATOM     51  S   UNL     1       5.918  -2.294  10.123  1.00  0.00     0.397 S 
ATOM     52  O   UNL     1       7.335  -2.540  10.271  1.00  0.00    -0.169 OA
ATOM     53  O   UNL     1       4.932  -3.084  10.831  1.00  0.00    -0.169 OA
BRANCH  51  54
ATOM     54  O   UNL     1       5.697  -0.752  10.523  1.00  0.00    -0.264 OA
ATOM     55  H   UNL     1       5.716  -0.224   9.699  1.00  0.00     0.236 HD
ENDBRANCH  51  54
ENDBRANCH  50  51
ENDBRANCH   8  50
TORSDOF 19
ENDMDL
MODEL 26
REMARK VINA RESULT:    -6.028     13.358     17.195
REMARK INTER + INTRA:         -17.041
REMARK INTER:                 -14.052
REMARK INTRA:                  -2.989
REMARK UNBOUND:                -4.846
REMARK SMILES CC[C@@H](C)[C@@H](NC(=O)[C@@H](O)Cc1ccc(O)c(Cl)c1)C(=O)N1[C@H](C(=O)NCCCCN=C(N)N)C[C@H]2CC[C@H](OS(=O)(=O)O)C[C@@H]21
REMARK SMILES IDX 22 1 36 2 46 3 35 4 23 5 45 6 37 7 39 8 38 9 20 10 21 11
REMARK SMILES IDX 5 12 6 13 7 14 8 15 9 17 11 18 12 19 17 20 19 21 15 22 14 23
REMARK SMILES IDX 13 24 18 25 16 26 10 28 3 30 4 31 2 32 1 33 24 34 25 35
REMARK SMILES IDX 26 36 27 38 28 39 29 40 30 41 31 42 32 43 33 44 34 45 40 50
REMARK SMILES IDX 41 51 42 52 43 53 44 54
REMARK H PARENT 6 16 16 27 10 29 26 37 33 46 33 47 34 48 34 49 44 55
ROOT
ATOM      1  N   UNL     1      -2.639  -7.622  -2.238  1.00  0.00    -0.326 N 
ATOM      2  C   UNL     1      -2.515  -6.378  -4.233  1.00  0.00     0.014 C 
ATOM      3  C   UNL     1      -1.874  -7.551  -3.486  1.00  0.00     0.091 C 
ATOM      4  C   UNL     1      -2.890  -5.428  -3.106  1.00  0.00     0.041 C 
ATOM      5  C   UNL     1      -3.503  -6.424  -2.104  1.00  0.00     0.175 C 
ATOM      6  C   UNL     1      -1.876  -8.770  -4.408  1.00  0.00     0.059 C 
ATOM      7  C   UNL     1      -1.614  -5.888  -5.349  1.00  0.00     0.008 C 
ATOM      8  C   UNL     1      -1.742  -8.417  -5.905  1.00  0.00     0.143 C 
ATOM      9  C   UNL     1      -1.007  -7.079  -6.121  1.00  0.00     0.034 C 
ENDROOT
BRANCH   1  10
ATOM     10  C   UNL     1      -2.499  -8.478  -1.159  1.00  0.00     0.246 C 
ATOM     11  O   UNL     1      -3.049  -9.584  -1.193  1.00  0.00    -0.272 OA
BRANCH  10  12
ATOM     12  C   UNL     1      -1.620  -8.048   0.052  1.00  0.00     0.174 C 
BRANCH  12  13
ATOM     13  N   UNL     1      -2.473  -7.593   1.150  1.00  0.00    -0.342 N 
ATOM     14  C   UNL     1      -2.841  -8.358   2.234  1.00  0.00     0.249 C 
ATOM     15  O   UNL     1      -2.466  -9.510   2.414  1.00  0.00    -0.272 OA
ATOM     16  H   UNL     1      -2.983  -6.718   1.062  1.00  0.00     0.164 HD
BRANCH  14  17
ATOM     17  C   UNL     1      -3.761  -7.599   3.213  1.00  0.00     0.207 C 
BRANCH  17  18
ATOM     18  C   UNL     1      -3.105  -6.289   3.659  1.00  0.00     0.077 C 
BRANCH  18  19
ATOM     19  C   UNL     1      -4.052  -5.116   3.539  1.00  0.00    -0.043 A 
ATOM     20  C   UNL     1      -6.210  -4.102   3.984  1.00  0.00     0.083 A 
ATOM     21  C   UNL     1      -5.320  -5.165   4.139  1.00  0.00     0.028 A 
ATOM     22  C   UNL     1      -5.842  -2.987   3.231  1.00  0.00     0.134 A 
ATOM     23  C   UNL     1      -4.589  -2.925   2.631  1.00  0.00     0.048 A 
ATOM     24  C   UNL     1      -3.697  -3.988   2.783  1.00  0.00     0.008 A 
ATOM     25  Cl  UNL     1      -7.764  -4.181   4.729  1.00  0.00    -0.080 Cl
BRANCH  22  26
ATOM     26  O   UNL     1      -6.685  -1.925   3.042  1.00  0.00    -0.506 OA
ATOM     27  H   UNL     1      -7.526  -2.291   2.711  1.00  0.00     0.293 HD
ENDBRANCH  22  26
ENDBRANCH  18  19
ENDBRANCH  17  18
BRANCH  17  28
ATOM     28  O   UNL     1      -4.060  -8.400   4.368  1.00  0.00    -0.383 OA
ATOM     29  H   UNL     1      -4.969  -8.146   4.647  1.00  0.00     0.211 HD
ENDBRANCH  17  28
ENDBRANCH  14  17
ENDBRANCH  12  13
BRANCH  12  30
ATOM     30  C   UNL     1      -0.540  -7.002  -0.332  1.00  0.00     0.018 C 
ATOM     31  C   UNL     1       0.871  -7.553  -0.073  1.00  0.00     0.010 C 
BRANCH  30  32
ATOM     32  C   UNL     1      -0.716  -5.637   0.378  1.00  0.00     0.002 C 
ATOM     33  C   UNL     1      -0.645  -4.417  -0.531  1.00  0.00     0.004 C 
ENDBRANCH  30  32
ENDBRANCH  12  30
ENDBRANCH  10  12
ENDBRANCH   1  10
BRANCH   5  34
ATOM     34  C   UNL     1      -4.974  -6.764  -2.463  1.00  0.00     0.242 C 
ATOM     35  O   UNL     1      -5.835  -5.895  -2.604  1.00  0.00    -0.273 OA
ATOM     36  N   UNL     1      -5.258  -8.108  -2.558  1.00  0.00    -0.354 N 
ATOM     37  H   UNL     1      -4.533  -8.782  -2.312  1.00  0.00     0.163 HD
BRANCH  36  38
ATOM     38  C   UNL     1      -6.513  -8.597  -3.091  1.00  0.00     0.116 C 
BRANCH  38  39
ATOM     39  C   UNL     1      -6.265  -9.337  -4.404  1.00  0.00     0.023 C 
BRANCH  39  40
ATOM     40  C   UNL     1      -7.332 -10.387  -4.691  1.00  0.00     0.026 C 
BRANCH  40  41
ATOM     41  C   UNL     1      -7.885 -10.969  -3.389  1.00  0.00     0.146 C 
BRANCH  41  42
ATOM     42  N   UNL     1      -9.339 -10.882  -3.389  1.00  0.00    -0.254 NA
ATOM     43  C   UNL     1     -10.036 -11.924  -3.646  1.00  0.00     0.185 C 
ATOM     44  N   UNL     1      -9.643 -13.178  -3.936  1.00  0.00    -0.370 N 
ATOM     45  N   UNL     1     -11.375 -11.822  -3.645  1.00  0.00    -0.370 N 
ATOM     46  H   UNL     1     -10.283 -13.832  -4.353  1.00  0.00     0.159 HD
ATOM     47  H   UNL     1      -8.661 -13.435  -3.966  1.00  0.00     0.159 HD
ATOM     48  H   UNL     1     -11.755 -10.911  -3.427  1.00  0.00     0.159 HD
ATOM     49  H   UNL     1     -11.982 -12.621  -3.601  1.00  0.00     0.159 HD
ENDBRANCH  41  42
ENDBRANCH  40  41
ENDBRANCH  39  40
ENDBRANCH  38  39
ENDBRANCH  36  38
ENDBRANCH   5  34
BRANCH   8  50
ATOM     50  O   UNL     1      -3.035  -8.326  -6.505  1.00  0.00    -0.245 OA
BRANCH  50  51
ATOM     51  S   UNL     1      -3.243  -8.816  -8.042  1.00  0.00     0.397 S 
ATOM     52  O   UNL     1      -3.221  -7.646  -8.891  1.00  0.00    -0.169 OA
ATOM     53  O   UNL     1      -4.322  -9.780  -8.103  1.00  0.00    -0.169 OA
BRANCH  51  54
ATOM     54  O   UNL     1      -1.867  -9.595  -8.335  1.00  0.00    -0.264 OA
ATOM     55  H   UNL     1      -1.917 -10.467  -7.892  1.00  0.00     0.236 HD
ENDBRANCH  51  54
ENDBRANCH  50  51
ENDBRANCH   8  50
TORSDOF 19
ENDMDL
MODEL 27
REMARK VINA RESULT:    -6.025      3.899      6.869
REMARK INTER + INTRA:         -17.034
REMARK INTER:                 -14.431
REMARK INTRA:                  -2.604
REMARK UNBOUND:                -4.846
REMARK SMILES CC[C@@H](C)[C@@H](NC(=O)[C@@H](O)Cc1ccc(O)c(Cl)c1)C(=O)N1[C@H](C(=O)NCCCCN=C(N)N)C[C@H]2CC[C@H](OS(=O)(=O)O)C[C@@H]21
REMARK SMILES IDX 22 1 36 2 46 3 35 4 23 5 45 6 37 7 39 8 38 9 20 10 21 11
REMARK SMILES IDX 5 12 6 13 7 14 8 15 9 17 11 18 12 19 17 20 19 21 15 22 14 23
REMARK SMILES IDX 13 24 18 25 16 26 10 28 3 30 4 31 2 32 1 33 24 34 25 35
REMARK SMILES IDX 26 36 27 38 28 39 29 40 30 41 31 42 32 43 33 44 34 45 40 50
REMARK SMILES IDX 41 51 42 52 43 53 44 54
REMARK H PARENT 6 16 16 27 10 29 26 37 33 46 33 47 34 48 34 49 44 55
ROOT
ATOM      1  N   UNL     1       9.144  -4.419   3.638  1.00  0.00    -0.326 N 
ATOM      2  C   UNL     1       7.305  -5.090   2.331  1.00  0.00     0.014 C 
ATOM      3  C   UNL     1       8.835  -5.117   2.387  1.00  0.00     0.091 C 
ATOM      4  C   UNL     1       6.970  -3.749   2.966  1.00  0.00     0.041 C 
ATOM      5  C   UNL     1       7.920  -3.777   4.178  1.00  0.00     0.175 C 
ATOM      6  C   UNL     1       9.299  -6.564   2.230  1.00  0.00     0.059 C 
ATOM      7  C   UNL     1       6.808  -5.394   0.931  1.00  0.00     0.008 C 
ATOM      8  C   UNL     1       8.372  -7.421   1.341  1.00  0.00     0.143 C 
ATOM      9  C   UNL     1       7.601  -6.566   0.315  1.00  0.00     0.034 C 
ENDROOT
BRANCH   1  10
ATOM     10  C   UNL     1      10.370  -4.121   4.209  1.00  0.00     0.246 C 
ATOM     11  O   UNL     1      10.750  -4.770   5.190  1.00  0.00    -0.272 OA
BRANCH  10  12
ATOM     12  C   UNL     1      11.258  -3.009   3.580  1.00  0.00     0.174 C 
BRANCH  12  13
ATOM     13  N   UNL     1      10.465  -1.800   3.363  1.00  0.00    -0.342 N 
ATOM     14  C   UNL     1      10.771  -0.554   3.863  1.00  0.00     0.249 C 
ATOM     15  O   UNL     1      11.769  -0.313   4.530  1.00  0.00    -0.272 OA
ATOM     16  H   UNL     1       9.532  -1.874   2.964  1.00  0.00     0.164 HD
BRANCH  14  17
ATOM     17  C   UNL     1       9.729   0.516   3.474  1.00  0.00     0.207 C 
BRANCH  17  18
ATOM     18  C   UNL     1       8.371  -0.136   3.192  1.00  0.00     0.077 C 
BRANCH  18  19
ATOM     19  C   UNL     1       7.426   0.006   4.364  1.00  0.00    -0.043 A 
ATOM     20  C   UNL     1       5.167   0.129   5.241  1.00  0.00     0.083 A 
ATOM     21  C   UNL     1       6.037  -0.052   4.165  1.00  0.00     0.028 A 
ATOM     22  C   UNL     1       5.676   0.368   6.518  1.00  0.00     0.134 A 
ATOM     23  C   UNL     1       7.048   0.427   6.729  1.00  0.00     0.048 A 
ATOM     24  C   UNL     1       7.922   0.249   5.654  1.00  0.00     0.008 A 
ATOM     25  Cl  UNL     1       3.465   0.055   4.976  1.00  0.00    -0.080 Cl
BRANCH  22  26
ATOM     26  O   UNL     1       4.862   0.562   7.601  1.00  0.00    -0.506 OA
ATOM     27  H   UNL     1       3.993   0.184   7.369  1.00  0.00     0.293 HD
ENDBRANCH  22  26
ENDBRANCH  18  19
ENDBRANCH  17  18
BRANCH  17  28
ATOM     28  O   UNL     1      10.152   1.255   2.317  1.00  0.00    -0.383 OA
ATOM     29  H   UNL     1      11.113   1.425   2.440  1.00  0.00     0.211 HD
ENDBRANCH  17  28
ENDBRANCH  14  17
ENDBRANCH  12  13
BRANCH  12  30
ATOM     30  C   UNL     1      11.985  -3.479   2.292  1.00  0.00     0.018 C 
ATOM     31  C   UNL     1      12.874  -4.699   2.580  1.00  0.00     0.010 C 
BRANCH  30  32
ATOM     32  C   UNL     1      12.815  -2.367   1.605  1.00  0.00     0.002 C 
ATOM     33  C   UNL     1      14.102  -1.979   2.322  1.00  0.00     0.004 C 
ENDBRANCH  30  32
ENDBRANCH  12  30
ENDBRANCH  10  12
ENDBRANCH   1  10
BRANCH   5  34
ATOM     34  C   UNL     1       7.331  -4.610   5.347  1.00  0.00     0.242 C 
ATOM     35  O   UNL     1       7.493  -5.827   5.435  1.00  0.00    -0.273 OA
ATOM     36  N   UNL     1       6.571  -3.899   6.248  1.00  0.00    -0.354 N 
ATOM     37  H   UNL     1       6.373  -2.916   6.057  1.00  0.00     0.163 HD
BRANCH  36  38
ATOM     38  C   UNL     1       6.129  -4.467   7.505  1.00  0.00     0.116 C 
BRANCH  38  39
ATOM     39  C   UNL     1       5.872  -3.352   8.516  1.00  0.00     0.023 C 
BRANCH  39  40
ATOM     40  C   UNL     1       4.622  -3.601   9.354  1.00  0.00     0.026 C 
BRANCH  40  41
ATOM     41  C   UNL     1       4.903  -4.624  10.455  1.00  0.00     0.146 C 
BRANCH  41  42
ATOM     42  N   UNL     1       4.194  -4.246  11.670  1.00  0.00    -0.254 NA
ATOM     43  C   UNL     1       3.617  -5.147  12.373  1.00  0.00     0.185 C 
ATOM     44  N   UNL     1       3.541  -6.477  12.182  1.00  0.00    -0.370 N 
ATOM     45  N   UNL     1       2.965  -4.777  13.487  1.00  0.00    -0.370 N 
ATOM     46  H   UNL     1       2.857  -7.027  12.672  1.00  0.00     0.159 HD
ATOM     47  H   UNL     1       3.991  -6.928  11.391  1.00  0.00     0.159 HD
ATOM     48  H   UNL     1       2.981  -3.791  13.710  1.00  0.00     0.159 HD
ATOM     49  H   UNL     1       2.698  -5.430  14.203  1.00  0.00     0.159 HD
ENDBRANCH  41  42
ENDBRANCH  40  41
ENDBRANCH  39  40
ENDBRANCH  38  39
ENDBRANCH  36  38
ENDBRANCH   5  34
BRANCH   8  50
ATOM     50  O   UNL     1       7.426  -8.120   2.151  1.00  0.00    -0.245 OA
BRANCH  50  51
ATOM     51  S   UNL     1       6.801  -9.526   1.623  1.00  0.00     0.397 S 
ATOM     52  O   UNL     1       6.169 -10.183   2.745  1.00  0.00    -0.169 OA
ATOM     53  O   UNL     1       7.772 -10.208   0.792  1.00  0.00    -0.169 OA
BRANCH  51  54
ATOM     54  O   UNL     1       5.602  -9.026   0.675  1.00  0.00    -0.264 OA
ATOM     55  H   UNL     1       5.593  -9.597  -0.120  1.00  0.00     0.236 HD
ENDBRANCH  51  54
ENDBRANCH  50  51
ENDBRANCH   8  50
TORSDOF 19
ENDMDL
MODEL 28
REMARK VINA RESULT:    -6.009      2.381      3.214
REMARK INTER + INTRA:         -17.003
REMARK INTER:                 -13.794
REMARK INTRA:                  -3.209
REMARK UNBOUND:                -4.846
REMARK SMILES CC[C@@H](C)[C@@H](NC(=O)[C@@H](O)Cc1ccc(O)c(Cl)c1)C(=O)N1[C@H](C(=O)NCCCCN=C(N)N)C[C@H]2CC[C@H](OS(=O)(=O)O)C[C@@H]21
REMARK SMILES IDX 22 1 36 2 46 3 35 4 23 5 45 6 37 7 39 8 38 9 20 10 21 11
REMARK SMILES IDX 5 12 6 13 7 14 8 15 9 17 11 18 12 19 17 20 19 21 15 22 14 23
REMARK SMILES IDX 13 24 18 25 16 26 10 28 3 30 4 31 2 32 1 33 24 34 25 35
REMARK SMILES IDX 26 36 27 38 28 39 29 40 30 41 31 42 32 43 33 44 34 45 40 50
REMARK SMILES IDX 41 51 42 52 43 53 44 54
REMARK H PARENT 6 16 16 27 10 29 26 37 33 46 33 47 34 48 34 49 44 55
ROOT
ATOM      1  N   UNL     1       7.492  -4.205   4.885  1.00  0.00    -0.326 N 
ATOM      2  C   UNL     1       5.566  -2.853   4.929  1.00  0.00     0.014 C 
ATOM      3  C   UNL     1       6.197  -4.096   5.563  1.00  0.00     0.091 C 
ATOM      4  C   UNL     1       6.065  -2.919   3.494  1.00  0.00     0.041 C 
ATOM      5  C   UNL     1       7.545  -3.268   3.736  1.00  0.00     0.175 C 
ATOM      6  C   UNL     1       6.186  -3.923   7.080  1.00  0.00     0.059 C 
ATOM      7  C   UNL     1       4.074  -2.807   5.195  1.00  0.00     0.008 C 
ATOM      8  C   UNL     1       4.987  -3.102   7.603  1.00  0.00     0.143 C 
ATOM      9  C   UNL     1       3.770  -3.188   6.659  1.00  0.00     0.034 C 
ENDROOT
BRANCH   1  10
ATOM     10  C   UNL     1       8.494  -5.150   5.032  1.00  0.00     0.246 C 
ATOM     11  O   UNL     1       8.978  -5.343   6.152  1.00  0.00    -0.272 OA
BRANCH  10  12
ATOM     12  C   UNL     1       8.956  -5.976   3.797  1.00  0.00     0.174 C 
BRANCH  12  13
ATOM     13  N   UNL     1      10.146  -5.364   3.205  1.00  0.00    -0.342 N 
ATOM     14  C   UNL     1      11.272  -6.049   2.807  1.00  0.00     0.249 C 
ATOM     15  O   UNL     1      11.391  -7.266   2.881  1.00  0.00    -0.272 OA
ATOM     16  H   UNL     1      10.256  -4.353   3.225  1.00  0.00     0.164 HD
BRANCH  14  17
ATOM     17  C   UNL     1      12.364  -5.120   2.237  1.00  0.00     0.207 C 
BRANCH  17  18
ATOM     18  C   UNL     1      11.729  -3.949   1.480  1.00  0.00     0.077 C 
BRANCH  18  19
ATOM     19  C   UNL     1      12.337  -2.624   1.882  1.00  0.00    -0.043 A 
ATOM     20  C   UNL     1      12.993  -1.048   3.606  1.00  0.00     0.083 A 
ATOM     21  C   UNL     1      12.477  -2.292   3.239  1.00  0.00     0.028 A 
ATOM     22  C   UNL     1      13.370  -0.131   2.625  1.00  0.00     0.134 A 
ATOM     23  C   UNL     1      13.237  -0.447   1.278  1.00  0.00     0.048 A 
ATOM     24  C   UNL     1      12.719  -1.690   0.907  1.00  0.00     0.008 A 
ATOM     25  Cl  UNL     1      13.157  -0.658   5.278  1.00  0.00    -0.080 Cl
BRANCH  22  26
ATOM     26  O   UNL     1      13.870   1.104   2.936  1.00  0.00    -0.506 OA
ATOM     27  H   UNL     1      14.380   1.404   2.160  1.00  0.00     0.293 HD
ENDBRANCH  22  26
ENDBRANCH  18  19
ENDBRANCH  17  18
BRANCH  17  28
ATOM     28  O   UNL     1      13.244  -5.836   1.355  1.00  0.00    -0.383 OA
ATOM     29  H   UNL     1      14.156  -5.552   1.592  1.00  0.00     0.211 HD
ENDBRANCH  17  28
ENDBRANCH  14  17
ENDBRANCH  12  13
BRANCH  12  30
ATOM     30  C   UNL     1       7.822  -6.189   2.759  1.00  0.00     0.018 C 
ATOM     31  C   UNL     1       7.590  -7.687   2.503  1.00  0.00     0.010 C 
BRANCH  30  32
ATOM     32  C   UNL     1       8.058  -5.451   1.419  1.00  0.00     0.002 C 
ATOM     33  C   UNL     1       8.313  -6.350   0.216  1.00  0.00     0.004 C 
ENDBRANCH  30  32
ENDBRANCH  12  30
ENDBRANCH  10  12
ENDBRANCH   1  10
BRANCH   5  34
ATOM     34  C   UNL     1       8.379  -2.008   4.093  1.00  0.00     0.242 C 
ATOM     35  O   UNL     1       9.325  -2.046   4.880  1.00  0.00    -0.273 OA
ATOM     36  N   UNL     1       7.951  -0.838   3.507  1.00  0.00    -0.354 N 
ATOM     37  H   UNL     1       7.090  -0.848   2.960  1.00  0.00     0.163 HD
BRANCH  36  38
ATOM     38  C   UNL     1       8.732   0.381   3.555  1.00  0.00     0.116 C 
BRANCH  38  39
ATOM     39  C   UNL     1       9.862   0.314   2.531  1.00  0.00     0.023 C 
BRANCH  39  40
ATOM     40  C   UNL     1       9.656   1.283   1.371  1.00  0.00     0.026 C 
BRANCH  40  41
ATOM     41  C   UNL     1       9.962   2.717   1.803  1.00  0.00     0.146 C 
BRANCH  41  42
ATOM     42  N   UNL     1      11.181   2.742   2.600  1.00  0.00    -0.254 NA
ATOM     43  C   UNL     1      11.217   3.428   3.681  1.00  0.00     0.185 C 
ATOM     44  N   UNL     1      10.266   4.184   4.258  1.00  0.00    -0.370 N 
ATOM     45  N   UNL     1      12.352   3.441   4.399  1.00  0.00    -0.370 N 
ATOM     46  H   UNL     1      10.505   4.857   4.966  1.00  0.00     0.159 HD
ATOM     47  H   UNL     1       9.339   4.275   3.853  1.00  0.00     0.159 HD
ATOM     48  H   UNL     1      13.118   2.888   4.038  1.00  0.00     0.159 HD
ATOM     49  H   UNL     1      12.387   3.749   5.355  1.00  0.00     0.159 HD
ENDBRANCH  41  42
ENDBRANCH  40  41
ENDBRANCH  39  40
ENDBRANCH  38  39
ENDBRANCH  36  38
ENDBRANCH   5  34
BRANCH   8  50
ATOM     50  O   UNL     1       5.356  -1.730   7.743  1.00  0.00    -0.245 OA
BRANCH  50  51
ATOM     51  S   UNL     1       6.488  -1.310   8.833  1.00  0.00     0.397 S 
ATOM     52  O   UNL     1       7.734  -1.110   8.128  1.00  0.00    -0.169 OA
ATOM     53  O   UNL     1       6.399  -2.182   9.986  1.00  0.00    -0.169 OA
BRANCH  51  54
ATOM     54  O   UNL     1       5.997   0.155   9.280  1.00  0.00    -0.264 OA
ATOM     55  H   UNL     1       5.514   0.550   8.526  1.00  0.00     0.236 HD
ENDBRANCH  51  54
ENDBRANCH  50  51
ENDBRANCH   8  50
TORSDOF 19
ENDMDL
MODEL 29
REMARK VINA RESULT:    -5.961     11.168     14.267
REMARK INTER + INTRA:         -16.905
REMARK INTER:                 -12.958
REMARK INTRA:                  -3.946
REMARK UNBOUND:                -4.846
REMARK SMILES CC[C@@H](C)[C@@H](NC(=O)[C@@H](O)Cc1ccc(O)c(Cl)c1)C(=O)N1[C@H](C(=O)NCCCCN=C(N)N)C[C@H]2CC[C@H](OS(=O)(=O)O)C[C@@H]21
REMARK SMILES IDX 22 1 36 2 46 3 35 4 23 5 45 6 37 7 39 8 38 9 20 10 21 11
REMARK SMILES IDX 5 12 6 13 7 14 8 15 9 17 11 18 12 19 17 20 19 21 15 22 14 23
REMARK SMILES IDX 13 24 18 25 16 26 10 28 3 30 4 31 2 32 1 33 24 34 25 35
REMARK SMILES IDX 26 36 27 38 28 39 29 40 30 41 31 42 32 43 33 44 34 45 40 50
REMARK SMILES IDX 41 51 42 52 43 53 44 54
REMARK H PARENT 6 16 16 27 10 29 26 37 33 46 33 47 34 48 34 49 44 55
ROOT
ATOM      1  N   UNL     1      -2.455  -6.134   4.865  1.00  0.00    -0.326 N 
ATOM      2  C   UNL     1      -3.559  -7.112   6.701  1.00  0.00     0.014 C 
ATOM      3  C   UNL     1      -3.782  -6.207   5.485  1.00  0.00     0.091 C 
ATOM      4  C   UNL     1      -2.149  -6.746   7.137  1.00  0.00     0.041 C 
ATOM      5  C   UNL     1      -1.438  -6.723   5.771  1.00  0.00     0.175 C 
ATOM      6  C   UNL     1      -4.935  -6.779   4.663  1.00  0.00     0.059 C 
ATOM      7  C   UNL     1      -4.701  -6.982   7.690  1.00  0.00     0.008 C 
ATOM      8  C   UNL     1      -6.005  -7.501   5.510  1.00  0.00     0.143 C 
ATOM      9  C   UNL     1      -6.058  -6.965   6.955  1.00  0.00     0.034 C 
ENDROOT
BRANCH   1  10
ATOM     10  C   UNL     1      -2.038  -5.442   3.741  1.00  0.00     0.246 C 
ATOM     11  O   UNL     1      -0.828  -5.292   3.543  1.00  0.00    -0.272 OA
BRANCH  10  12
ATOM     12  C   UNL     1      -3.096  -4.907   2.733  1.00  0.00     0.174 C 
BRANCH  12  13
ATOM     13  N   UNL     1      -2.703  -5.253   1.368  1.00  0.00    -0.342 N 
ATOM     14  C   UNL     1      -2.745  -6.520   0.830  1.00  0.00     0.249 C 
ATOM     15  O   UNL     1      -3.146  -7.505   1.437  1.00  0.00    -0.272 OA
ATOM     16  H   UNL     1      -2.205  -4.573   0.799  1.00  0.00     0.164 HD
BRANCH  14  17
ATOM     17  C   UNL     1      -2.248  -6.564  -0.631  1.00  0.00     0.207 C 
BRANCH  17  18
ATOM     18  C   UNL     1      -3.337  -7.129  -1.549  1.00  0.00     0.077 C 
BRANCH  18  19
ATOM     19  C   UNL     1      -2.768  -7.611  -2.864  1.00  0.00    -0.043 A 
ATOM     20  C   UNL     1      -1.765  -7.136  -5.022  1.00  0.00     0.083 A 
ATOM     21  C   UNL     1      -2.244  -6.693  -3.788  1.00  0.00     0.028 A 
ATOM     22  C   UNL     1      -1.807  -8.493  -5.340  1.00  0.00     0.134 A 
ATOM     23  C   UNL     1      -2.323  -9.413  -4.435  1.00  0.00     0.048 A 
ATOM     24  C   UNL     1      -2.805  -8.973  -3.200  1.00  0.00     0.008 A 
ATOM     25  Cl  UNL     1      -1.126  -5.993  -6.144  1.00  0.00    -0.080 Cl
BRANCH  22  26
ATOM     26  O   UNL     1      -1.359  -8.974  -6.541  1.00  0.00    -0.506 OA
ATOM     27  H   UNL     1      -0.466  -9.333  -6.383  1.00  0.00     0.293 HD
ENDBRANCH  22  26
ENDBRANCH  18  19
ENDBRANCH  17  18
BRANCH  17  28
ATOM     28  O   UNL     1      -1.061  -7.364  -0.750  1.00  0.00    -0.383 OA
ATOM     29  H   UNL     1      -0.463  -6.874  -1.358  1.00  0.00     0.211 HD
ENDBRANCH  17  28
ENDBRANCH  14  17
ENDBRANCH  12  13
BRANCH  12  30
ATOM     30  C   UNL     1      -3.372  -3.389   2.904  1.00  0.00     0.018 C 
ATOM     31  C   UNL     1      -2.990  -2.919   4.316  1.00  0.00     0.010 C 
BRANCH  30  32
ATOM     32  C   UNL     1      -4.833  -2.984   2.586  1.00  0.00     0.002 C 
ATOM     33  C   UNL     1      -5.844  -3.275   3.687  1.00  0.00     0.004 C 
ENDBRANCH  30  32
ENDBRANCH  12  30
ENDBRANCH  10  12
ENDBRANCH   1  10
BRANCH   5  34
ATOM     34  C   UNL     1      -1.049  -8.152   5.306  1.00  0.00     0.242 C 
ATOM     35  O   UNL     1      -1.702  -8.771   4.466  1.00  0.00    -0.273 OA
ATOM     36  N   UNL     1       0.047  -8.695   5.938  1.00  0.00    -0.354 N 
ATOM     37  H   UNL     1       0.474  -8.182   6.710  1.00  0.00     0.163 HD
BRANCH  36  38
ATOM     38  C   UNL     1       0.675  -9.918   5.482  1.00  0.00     0.116 C 
BRANCH  38  39
ATOM     39  C   UNL     1       2.036  -9.603   4.866  1.00  0.00     0.023 C 
BRANCH  39  40
ATOM     40  C   UNL     1       2.419 -10.585   3.764  1.00  0.00     0.026 C 
BRANCH  40  41
ATOM     41  C   UNL     1       2.207  -9.961   2.385  1.00  0.00     0.146 C 
BRANCH  41  42
ATOM     42  N   UNL     1       0.873 -10.287   1.897  1.00  0.00    -0.254 NA
ATOM     43  C   UNL     1      -0.002  -9.360   1.779  1.00  0.00     0.185 C 
ATOM     44  N   UNL     1       0.092  -8.043   2.041  1.00  0.00    -0.370 N 
ATOM     45  N   UNL     1      -1.227  -9.681   1.331  1.00  0.00    -0.370 N 
ATOM     46  H   UNL     1      -0.735  -7.479   2.136  1.00  0.00     0.159 HD
ATOM     47  H   UNL     1       0.955  -7.626   2.375  1.00  0.00     0.159 HD
ATOM     48  H   UNL     1      -1.379 -10.654   1.101  1.00  0.00     0.159 HD
ATOM     49  H   UNL     1      -1.878  -8.997   0.990  1.00  0.00     0.159 HD
ENDBRANCH  41  42
ENDBRANCH  40  41
ENDBRANCH  39  40
ENDBRANCH  38  39
ENDBRANCH  36  38
ENDBRANCH   5  34
BRANCH   8  50
ATOM     50  O   UNL     1      -5.731  -8.902   5.556  1.00  0.00    -0.245 OA
BRANCH  50  51
ATOM     51  S   UNL     1      -6.516  -9.907   4.547  1.00  0.00     0.397 S 
ATOM     52  O   UNL     1      -7.111 -10.959   5.340  1.00  0.00    -0.169 OA
ATOM     53  O   UNL     1      -5.679 -10.199   3.402  1.00  0.00    -0.169 OA
BRANCH  51  54
ATOM     54  O   UNL     1      -7.739  -8.991   4.046  1.00  0.00    -0.264 OA
ATOM     55  H   UNL     1      -8.571  -9.463   4.256  1.00  0.00     0.236 HD
ENDBRANCH  51  54
ENDBRANCH  50  51
ENDBRANCH   8  50
TORSDOF 19
ENDMDL
MODEL 30
REMARK VINA RESULT:    -5.937     11.509     14.757
REMARK INTER + INTRA:         -16.856
REMARK INTER:                 -14.438
REMARK INTRA:                  -2.418
REMARK UNBOUND:                -4.846
REMARK SMILES CC[C@@H](C)[C@@H](NC(=O)[C@@H](O)Cc1ccc(O)c(Cl)c1)C(=O)N1[C@H](C(=O)NCCCCN=C(N)N)C[C@H]2CC[C@H](OS(=O)(=O)O)C[C@@H]21
REMARK SMILES IDX 22 1 36 2 46 3 35 4 23 5 45 6 37 7 39 8 38 9 20 10 21 11
REMARK SMILES IDX 5 12 6 13 7 14 8 15 9 17 11 18 12 19 17 20 19 21 15 22 14 23
REMARK SMILES IDX 13 24 18 25 16 26 10 28 3 30 4 31 2 32 1 33 24 34 25 35
REMARK SMILES IDX 26 36 27 38 28 39 29 40 30 41 31 42 32 43 33 44 34 45 40 50
REMARK SMILES IDX 41 51 42 52 43 53 44 54
REMARK H PARENT 6 16 16 27 10 29 26 37 33 46 33 47 34 48 34 49 44 55
ROOT
ATOM      1  N   UNL     1      -1.177  -6.846   0.475  1.00  0.00    -0.326 N 
ATOM      2  C   UNL     1      -1.637  -5.721  -1.541  1.00  0.00     0.014 C 
ATOM      3  C   UNL     1      -1.445  -7.116  -0.940  1.00  0.00     0.091 C 
ATOM      4  C   UNL     1      -0.662  -4.873  -0.738  1.00  0.00     0.041 C 
ATOM      5  C   UNL     1      -0.954  -5.393   0.682  1.00  0.00     0.175 C 
ATOM      6  C   UNL     1      -2.662  -7.968  -1.297  1.00  0.00     0.059 C 
ATOM      7  C   UNL     1      -1.519  -5.760  -3.052  1.00  0.00     0.008 C 
ATOM      8  C   UNL     1      -3.297  -7.605  -2.657  1.00  0.00     0.143 C 
ATOM      9  C   UNL     1      -2.274  -6.978  -3.625  1.00  0.00     0.034 C 
ENDROOT
BRANCH   1  10
ATOM     10  C   UNL     1      -0.905  -7.724   1.511  1.00  0.00     0.246 C 
ATOM     11  O   UNL     1       0.090  -8.452   1.437  1.00  0.00    -0.272 OA
BRANCH  10  12
ATOM     12  C   UNL     1      -1.832  -7.745   2.761  1.00  0.00     0.174 C 
BRANCH  12  13
ATOM     13  N   UNL     1      -1.271  -8.629   3.782  1.00  0.00    -0.342 N 
ATOM     14  C   UNL     1      -0.564  -8.212   4.887  1.00  0.00     0.249 C 
ATOM     15  O   UNL     1      -0.348  -7.036   5.155  1.00  0.00    -0.272 OA
ATOM     16  H   UNL     1      -1.235  -9.632   3.616  1.00  0.00     0.164 HD
BRANCH  14  17
ATOM     17  C   UNL     1      -0.089  -9.386   5.769  1.00  0.00     0.207 C 
BRANCH  17  18
ATOM     18  C   UNL     1      -0.724  -9.303   7.161  1.00  0.00     0.077 C 
BRANCH  18  19
ATOM     19  C   UNL     1      -2.233  -9.224   7.086  1.00  0.00    -0.043 A 
ATOM     20  C   UNL     1      -4.302  -8.047   7.548  1.00  0.00     0.083 A 
ATOM     21  C   UNL     1      -2.908  -8.095   7.573  1.00  0.00     0.028 A 
ATOM     22  C   UNL     1      -5.029  -9.124   7.039  1.00  0.00     0.134 A 
ATOM     23  C   UNL     1      -4.373 -10.249   6.553  1.00  0.00     0.048 A 
ATOM     24  C   UNL     1      -2.977 -10.300   6.579  1.00  0.00     0.008 A 
ATOM     25  Cl  UNL     1      -5.115  -6.651   8.152  1.00  0.00    -0.080 Cl
BRANCH  22  26
ATOM     26  O   UNL     1      -6.397  -9.127   7.003  1.00  0.00    -0.506 OA
ATOM     27  H   UNL     1      -6.681  -8.196   7.055  1.00  0.00     0.293 HD
ENDBRANCH  22  26
ENDBRANCH  18  19
ENDBRANCH  17  18
BRANCH  17  28
ATOM     28  O   UNL     1       1.342  -9.390   5.898  1.00  0.00    -0.383 OA
ATOM     29  H   UNL     1       1.682  -8.825   5.168  1.00  0.00     0.211 HD
ENDBRANCH  17  28
ENDBRANCH  14  17
ENDBRANCH  12  13
BRANCH  12  30
ATOM     30  C   UNL     1      -3.302  -8.101   2.412  1.00  0.00     0.018 C 
ATOM     31  C   UNL     1      -4.246  -7.714   3.562  1.00  0.00     0.010 C 
BRANCH  30  32
ATOM     32  C   UNL     1      -3.509  -9.587   2.032  1.00  0.00     0.002 C 
ATOM     33  C   UNL     1      -4.725  -9.874   1.161  1.00  0.00     0.004 C 
ENDBRANCH  30  32
ENDBRANCH  12  30
ENDBRANCH  10  12
ENDBRANCH   1  10
BRANCH   5  34
ATOM     34  C   UNL     1      -2.216  -4.724   1.288  1.00  0.00     0.242 C 
ATOM     35  O   UNL     1      -3.356  -5.105   1.021  1.00  0.00    -0.273 OA
ATOM     36  N   UNL     1      -1.971  -3.641   2.102  1.00  0.00    -0.354 N 
ATOM     37  H   UNL     1      -1.013  -3.299   2.190  1.00  0.00     0.163 HD
BRANCH  36  38
ATOM     38  C   UNL     1      -3.005  -3.036   2.916  1.00  0.00     0.116 C 
BRANCH  38  39
ATOM     39  C   UNL     1      -4.356  -3.671   2.595  1.00  0.00     0.023 C 
BRANCH  39  40
ATOM     40  C   UNL     1      -5.528  -2.827   3.084  1.00  0.00     0.026 C 
BRANCH  40  41
ATOM     41  C   UNL     1      -6.791  -3.677   3.214  1.00  0.00     0.146 C 
BRANCH  41  42
ATOM     42  N   UNL     1      -6.532  -4.815   4.086  1.00  0.00    -0.254 NA
ATOM     43  C   UNL     1      -7.489  -5.320   4.770  1.00  0.00     0.185 C 
ATOM     44  N   UNL     1      -8.785  -4.967   4.836  1.00  0.00    -0.370 N 
ATOM     45  N   UNL     1      -7.227  -6.367   5.570  1.00  0.00    -0.370 N 
ATOM     46  H   UNL     1      -9.367  -5.289   5.591  1.00  0.00     0.159 HD
ATOM     47  H   UNL     1      -9.158  -4.202   4.282  1.00  0.00     0.159 HD
ATOM     48  H   UNL     1      -6.274  -6.702   5.573  1.00  0.00     0.159 HD
ATOM     49  H   UNL     1      -7.948  -6.957   5.946  1.00  0.00     0.159 HD
ENDBRANCH  41  42
ENDBRANCH  40  41
ENDBRANCH  39  40
ENDBRANCH  38  39
ENDBRANCH  36  38
ENDBRANCH   5  34
BRANCH   8  50
ATOM     50  O   UNL     1      -4.367  -6.679  -2.466  1.00  0.00    -0.245 OA
BRANCH  50  51
ATOM     51  S   UNL     1      -5.867  -7.075  -2.956  1.00  0.00     0.397 S 
ATOM     52  O   UNL     1      -6.263  -8.276  -2.257  1.00  0.00    -0.169 OA
ATOM     53  O   UNL     1      -5.950  -6.972  -4.398  1.00  0.00    -0.169 OA
BRANCH  51  54
ATOM     54  O   UNL     1      -6.750  -5.889  -2.323  1.00  0.00    -0.264 OA
ATOM     55  H   UNL     1      -6.523  -5.063  -2.796  1.00  0.00     0.236 HD
ENDBRANCH  51  54
ENDBRANCH  50  51
ENDBRANCH   8  50
TORSDOF 19
ENDMDL
MODEL 31
REMARK VINA RESULT:    -5.900      2.780      5.401
REMARK INTER + INTRA:         -16.782
REMARK INTER:                 -12.768
REMARK INTRA:                  -4.014
REMARK UNBOUND:                -4.846
REMARK SMILES CC[C@@H](C)[C@@H](NC(=O)[C@@H](O)Cc1ccc(O)c(Cl)c1)C(=O)N1[C@H](C(=O)NCCCCN=C(N)N)C[C@H]2CC[C@H](OS(=O)(=O)O)C[C@@H]21
REMARK SMILES IDX 22 1 36 2 46 3 35 4 23 5 45 6 37 7 39 8 38 9 20 10 21 11
REMARK SMILES IDX 5 12 6 13 7 14 8 15 9 17 11 18 12 19 17 20 19 21 15 22 14 23
REMARK SMILES IDX 13 24 18 25 16 26 10 28 3 30 4 31 2 32 1 33 24 34 25 35
REMARK SMILES IDX 26 36 27 38 28 39 29 40 30 41 31 42 32 43 33 44 34 45 40 50
REMARK SMILES IDX 41 51 42 52 43 53 44 54
REMARK H PARENT 6 16 16 27 10 29 26 37 33 46 33 47 34 48 34 49 44 55
ROOT
ATOM      1  N   UNL     1       7.213  -2.441   4.383  1.00  0.00    -0.326 N 
ATOM      2  C   UNL     1       5.286  -1.590   5.433  1.00  0.00     0.014 C 
ATOM      3  C   UNL     1       6.148  -2.849   5.303  1.00  0.00     0.091 C 
ATOM      4  C   UNL     1       5.379  -0.976   4.045  1.00  0.00     0.041 C 
ATOM      5  C   UNL     1       6.888  -1.125   3.782  1.00  0.00     0.175 C 
ATOM      6  C   UNL     1       6.539  -3.313   6.705  1.00  0.00     0.059 C 
ATOM      7  C   UNL     1       3.924  -1.922   6.010  1.00  0.00     0.008 C 
ATOM      8  C   UNL     1       5.477  -3.003   7.782  1.00  0.00     0.143 C 
ATOM      9  C   UNL     1       4.057  -2.913   7.186  1.00  0.00     0.034 C 
ENDROOT
BRANCH   1  10
ATOM     10  C   UNL     1       8.277  -3.170   3.879  1.00  0.00     0.246 C 
ATOM     11  O   UNL     1       9.374  -2.617   3.745  1.00  0.00    -0.272 OA
BRANCH  10  12
ATOM     12  C   UNL     1       8.081  -4.674   3.533  1.00  0.00     0.174 C 
BRANCH  12  13
ATOM     13  N   UNL     1       8.729  -5.507   4.546  1.00  0.00    -0.342 N 
ATOM     14  C   UNL     1       8.097  -6.473   5.296  1.00  0.00     0.249 C 
ATOM     15  O   UNL     1       6.913  -6.764   5.176  1.00  0.00    -0.272 OA
ATOM     16  H   UNL     1       9.666  -5.275   4.865  1.00  0.00     0.164 HD
BRANCH  14  17
ATOM     17  C   UNL     1       9.047  -7.169   6.294  1.00  0.00     0.207 C 
BRANCH  17  18
ATOM     18  C   UNL     1       8.247  -7.863   7.401  1.00  0.00     0.077 C 
BRANCH  18  19
ATOM     19  C   UNL     1       8.010  -6.948   8.581  1.00  0.00    -0.043 A 
ATOM     20  C   UNL     1       8.812  -5.874  10.603  1.00  0.00     0.083 A 
ATOM     21  C   UNL     1       9.047  -6.679   9.488  1.00  0.00     0.028 A 
ATOM     22  C   UNL     1       7.543  -5.335  10.820  1.00  0.00     0.134 A 
ATOM     23  C   UNL     1       6.507  -5.593   9.930  1.00  0.00     0.048 A 
ATOM     24  C   UNL     1       6.739  -6.400   8.814  1.00  0.00     0.008 A 
ATOM     25  Cl  UNL     1      10.098  -5.556  11.707  1.00  0.00    -0.080 Cl
BRANCH  22  26
ATOM     26  O   UNL     1       7.262  -4.549  11.905  1.00  0.00    -0.506 OA
ATOM     27  H   UNL     1       6.531  -3.960  11.642  1.00  0.00     0.293 HD
ENDBRANCH  22  26
ENDBRANCH  18  19
ENDBRANCH  17  18
BRANCH  17  28
ATOM     28  O   UNL     1       9.958  -6.227   6.883  1.00  0.00    -0.383 OA
ATOM     29  H   UNL     1      10.681  -6.761   7.283  1.00  0.00     0.211 HD
ENDBRANCH  17  28
ENDBRANCH  14  17
ENDBRANCH  12  13
BRANCH  12  30
ATOM     30  C   UNL     1       8.545  -5.024   2.093  1.00  0.00     0.018 C 
ATOM     31  C   UNL     1       7.501  -5.896   1.379  1.00  0.00     0.010 C 
BRANCH  30  32
ATOM     32  C   UNL     1       9.935  -5.705   2.037  1.00  0.00     0.002 C 
ATOM     33  C   UNL     1      11.065  -4.835   1.505  1.00  0.00     0.004 C 
ENDBRANCH  30  32
ENDBRANCH  12  30
ENDBRANCH  10  12
ENDBRANCH   1  10
BRANCH   5  34
ATOM     34  C   UNL     1       7.702   0.008   4.463  1.00  0.00     0.242 C 
ATOM     35  O   UNL     1       8.364  -0.181   5.484  1.00  0.00    -0.273 OA
ATOM     36  N   UNL     1       7.587   1.247   3.876  1.00  0.00    -0.354 N 
ATOM     37  H   UNL     1       6.929   1.366   3.104  1.00  0.00     0.163 HD
BRANCH  36  38
ATOM     38  C   UNL     1       8.437   2.360   4.245  1.00  0.00     0.116 C 
BRANCH  38  39
ATOM     39  C   UNL     1       9.362   2.714   3.083  1.00  0.00     0.023 C 
BRANCH  39  40
ATOM     40  C   UNL     1      10.636   3.412   3.545  1.00  0.00     0.026 C 
BRANCH  40  41
ATOM     41  C   UNL     1      11.681   2.391   3.995  1.00  0.00     0.146 C 
BRANCH  41  42
ATOM     42  N   UNL     1      11.717   1.277   3.057  1.00  0.00    -0.254 NA
ATOM     43  C   UNL     1      11.526   0.085   3.483  1.00  0.00     0.185 C 
ATOM     44  N   UNL     1      11.280  -0.360   4.729  1.00  0.00    -0.370 N 
ATOM     45  N   UNL     1      11.567  -0.930   2.603  1.00  0.00    -0.370 N 
ATOM     46  H   UNL     1      11.394  -1.333   4.958  1.00  0.00     0.159 HD
ATOM     47  H   UNL     1      11.202   0.276   5.516  1.00  0.00     0.159 HD
ATOM     48  H   UNL     1      11.739  -0.680   1.639  1.00  0.00     0.159 HD
ATOM     49  H   UNL     1      11.200  -1.842   2.808  1.00  0.00     0.159 HD
ENDBRANCH  41  42
ENDBRANCH  40  41
ENDBRANCH  39  40
ENDBRANCH  38  39
ENDBRANCH  36  38
ENDBRANCH   5  34
BRANCH   8  50
ATOM     50  O   UNL     1       5.778  -1.765   8.426  1.00  0.00    -0.245 OA
BRANCH  50  51
ATOM     51  S   UNL     1       6.237  -1.762   9.986  1.00  0.00     0.397 S 
ATOM     52  O   UNL     1       7.662  -2.005  10.033  1.00  0.00    -0.169 OA
ATOM     53  O   UNL     1       5.307  -2.549  10.768  1.00  0.00    -0.169 OA
BRANCH  51  54
ATOM     54  O   UNL     1       6.043  -0.218  10.391  1.00  0.00    -0.264 OA
ATOM     55  H   UNL     1       6.365  -0.107  11.308  1.00  0.00     0.236 HD
ENDBRANCH  51  54
ENDBRANCH  50  51
ENDBRANCH   8  50
TORSDOF 19
ENDMDL
MODEL 32
REMARK VINA RESULT:    -5.900     12.222     15.590
REMARK INTER + INTRA:         -16.782
REMARK INTER:                 -14.142
REMARK INTRA:                  -2.640
REMARK UNBOUND:                -4.846
REMARK SMILES CC[C@@H](C)[C@@H](NC(=O)[C@@H](O)Cc1ccc(O)c(Cl)c1)C(=O)N1[C@H](C(=O)NCCCCN=C(N)N)C[C@H]2CC[C@H](OS(=O)(=O)O)C[C@@H]21
REMARK SMILES IDX 22 1 36 2 46 3 35 4 23 5 45 6 37 7 39 8 38 9 20 10 21 11
REMARK SMILES IDX 5 12 6 13 7 14 8 15 9 17 11 18 12 19 17 20 19 21 15 22 14 23
REMARK SMILES IDX 13 24 18 25 16 26 10 28 3 30 4 31 2 32 1 33 24 34 25 35
REMARK SMILES IDX 26 36 27 38 28 39 29 40 30 41 31 42 32 43 33 44 34 45 40 50
REMARK SMILES IDX 41 51 42 52 43 53 44 54
REMARK H PARENT 6 16 16 27 10 29 26 37 33 46 33 47 34 48 34 49 44 55
ROOT
ATOM      1  N   UNL     1      -2.776  -8.244  -0.049  1.00  0.00    -0.326 N 
ATOM      2  C   UNL     1      -3.028 -10.520   0.498  1.00  0.00     0.014 C 
ATOM      3  C   UNL     1      -2.725  -9.147   1.105  1.00  0.00     0.091 C 
ATOM      4  C   UNL     1      -2.374 -10.432  -0.872  1.00  0.00     0.041 C 
ATOM      5  C   UNL     1      -2.838  -9.029  -1.306  1.00  0.00     0.175 C 
ATOM      6  C   UNL     1      -3.697  -8.903   2.259  1.00  0.00     0.059 C 
ATOM      7  C   UNL     1      -2.624 -11.632   1.445  1.00  0.00     0.008 C 
ATOM      8  C   UNL     1      -4.116 -10.191   3.000  1.00  0.00     0.143 C 
ATOM      9  C   UNL     1      -3.046 -11.297   2.891  1.00  0.00     0.034 C 
ENDROOT
BRANCH   1  10
ATOM     10  C   UNL     1      -2.564  -6.877  -0.116  1.00  0.00     0.246 C 
ATOM     11  O   UNL     1      -3.396  -6.167  -0.692  1.00  0.00    -0.272 OA
BRANCH  10  12
ATOM     12  C   UNL     1      -1.309  -6.261   0.568  1.00  0.00     0.174 C 
BRANCH  12  13
ATOM     13  N   UNL     1      -1.712  -5.183   1.470  1.00  0.00    -0.342 N 
ATOM     14  C   UNL     1      -1.690  -5.253   2.845  1.00  0.00     0.249 C 
ATOM     15  O   UNL     1      -1.300  -6.230   3.472  1.00  0.00    -0.272 OA
ATOM     16  H   UNL     1      -2.203  -4.373   1.099  1.00  0.00     0.164 HD
BRANCH  14  17
ATOM     17  C   UNL     1      -2.192  -3.957   3.515  1.00  0.00     0.207 C 
BRANCH  17  18
ATOM     18  C   UNL     1      -3.354  -3.356   2.717  1.00  0.00     0.077 C 
BRANCH  18  19
ATOM     19  C   UNL     1      -4.695  -3.772   3.276  1.00  0.00    -0.043 A 
ATOM     20  C   UNL     1      -6.072  -5.378   4.464  1.00  0.00     0.083 A 
ATOM     21  C   UNL     1      -4.823  -4.973   3.991  1.00  0.00     0.028 A 
ATOM     22  C   UNL     1      -7.198  -4.590   4.225  1.00  0.00     0.134 A 
ATOM     23  C   UNL     1      -7.086  -3.399   3.518  1.00  0.00     0.048 A 
ATOM     24  C   UNL     1      -5.838  -2.991   3.042  1.00  0.00     0.008 A 
ATOM     25  Cl  UNL     1      -6.208  -6.857   5.340  1.00  0.00    -0.080 Cl
BRANCH  22  26
ATOM     26  O   UNL     1      -8.445  -4.952   4.659  1.00  0.00    -0.506 OA
ATOM     27  H   UNL     1      -8.477  -4.755   5.613  1.00  0.00     0.293 HD
ENDBRANCH  22  26
ENDBRANCH  18  19
ENDBRANCH  17  18
BRANCH  17  28
ATOM     28  O   UNL     1      -1.137  -2.988   3.624  1.00  0.00    -0.383 OA
ATOM     29  H   UNL     1      -0.318  -3.444   3.322  1.00  0.00     0.211 HD
ENDBRANCH  17  28
ENDBRANCH  14  17
ENDBRANCH  12  13
BRANCH  12  30
ATOM     30  C   UNL     1      -0.231  -5.808  -0.453  1.00  0.00     0.018 C 
ATOM     31  C   UNL     1      -0.577  -4.430  -1.038  1.00  0.00     0.010 C 
BRANCH  30  32
ATOM     32  C   UNL     1       0.011  -6.826  -1.595  1.00  0.00     0.002 C 
ATOM     33  C   UNL     1      -0.701  -6.515  -2.905  1.00  0.00     0.004 C 
ENDBRANCH  30  32
ENDBRANCH  12  30
ENDBRANCH  10  12
ENDBRANCH   1  10
BRANCH   5  34
ATOM     34  C   UNL     1      -4.284  -9.054  -1.869  1.00  0.00     0.242 C 
ATOM     35  O   UNL     1      -5.113  -9.892  -1.517  1.00  0.00    -0.273 OA
ATOM     36  N   UNL     1      -4.555  -8.104  -2.829  1.00  0.00    -0.354 N 
ATOM     37  H   UNL     1      -3.793  -7.515  -3.166  1.00  0.00     0.163 HD
BRANCH  36  38
ATOM     38  C   UNL     1      -5.899  -7.844  -3.302  1.00  0.00     0.116 C 
BRANCH  38  39
ATOM     39  C   UNL     1      -5.862  -7.445  -4.775  1.00  0.00     0.023 C 
BRANCH  39  40
ATOM     40  C   UNL     1      -4.762  -8.165  -5.546  1.00  0.00     0.026 C 
BRANCH  40  41
ATOM     41  C   UNL     1      -4.302  -7.330  -6.741  1.00  0.00     0.146 C 
BRANCH  41  42
ATOM     42  N   UNL     1      -3.030  -6.689  -6.433  1.00  0.00    -0.254 NA
ATOM     43  C   UNL     1      -1.944  -7.180  -6.900  1.00  0.00     0.185 C 
ATOM     44  N   UNL     1      -1.747  -8.258  -7.681  1.00  0.00    -0.370 N 
ATOM     45  N   UNL     1      -0.782  -6.576  -6.601  1.00  0.00    -0.370 N 
ATOM     46  H   UNL     1      -0.833  -8.667  -7.769  1.00  0.00     0.159 HD
ATOM     47  H   UNL     1      -2.521  -8.824  -8.013  1.00  0.00     0.159 HD
ATOM     48  H   UNL     1      -0.842  -5.749  -6.023  1.00  0.00     0.159 HD
ATOM     49  H   UNL     1       0.068  -6.750  -7.108  1.00  0.00     0.159 HD
ENDBRANCH  41  42
ENDBRANCH  40  41
ENDBRANCH  39  40
ENDBRANCH  38  39
ENDBRANCH  36  38
ENDBRANCH   5  34
BRANCH   8  50
ATOM     50  O   UNL     1      -5.340 -10.691   2.461  1.00  0.00    -0.245 OA
BRANCH  50  51
ATOM     51  S   UNL     1      -6.564 -11.069   3.464  1.00  0.00     0.397 S 
ATOM     52  O   UNL     1      -7.290  -9.855   3.761  1.00  0.00    -0.169 OA
ATOM     53  O   UNL     1      -6.079 -11.941   4.514  1.00  0.00    -0.169 OA
BRANCH  51  54
ATOM     54  O   UNL     1      -7.526 -11.932   2.508  1.00  0.00    -0.264 OA
ATOM     55  H   UNL     1      -7.981 -11.311   1.903  1.00  0.00     0.236 HD
ENDBRANCH  51  54
ENDBRANCH  50  51
ENDBRANCH   8  50
TORSDOF 19
ENDMDL
MODEL 33
REMARK VINA RESULT:    -5.881     10.765     14.564
REMARK INTER + INTRA:         -16.744
REMARK INTER:                 -12.455
REMARK INTRA:                  -4.289
REMARK UNBOUND:                -4.846
REMARK SMILES CC[C@@H](C)[C@@H](NC(=O)[C@@H](O)Cc1ccc(O)c(Cl)c1)C(=O)N1[C@H](C(=O)NCCCCN=C(N)N)C[C@H]2CC[C@H](OS(=O)(=O)O)C[C@@H]21
REMARK SMILES IDX 22 1 36 2 46 3 35 4 23 5 45 6 37 7 39 8 38 9 20 10 21 11
REMARK SMILES IDX 5 12 6 13 7 14 8 15 9 17 11 18 12 19 17 20 19 21 15 22 14 23
REMARK SMILES IDX 13 24 18 25 16 26 10 28 3 30 4 31 2 32 1 33 24 34 25 35
REMARK SMILES IDX 26 36 27 38 28 39 29 40 30 41 31 42 32 43 33 44 34 45 40 50
REMARK SMILES IDX 41 51 42 52 43 53 44 54
REMARK H PARENT 6 16 16 27 10 29 26 37 33 46 33 47 34 48 34 49 44 55
ROOT
ATOM      1  N   UNL     1      -2.434  -5.953   0.320  1.00  0.00    -0.326 N 
ATOM      2  C   UNL     1      -3.401  -7.691  -0.940  1.00  0.00     0.014 C 
ATOM      3  C   UNL     1      -3.402  -6.170  -0.759  1.00  0.00     0.091 C 
ATOM      4  C   UNL     1      -3.186  -8.197   0.478  1.00  0.00     0.041 C 
ATOM      5  C   UNL     1      -2.063  -7.250   0.939  1.00  0.00     0.175 C 
ATOM      6  C   UNL     1      -3.133  -5.521  -2.115  1.00  0.00     0.059 C 
ATOM      7  C   UNL     1      -4.621  -8.145  -1.716  1.00  0.00     0.008 C 
ATOM      8  C   UNL     1      -3.683  -6.330  -3.311  1.00  0.00     0.143 C 
ATOM      9  C   UNL     1      -4.887  -7.207  -2.912  1.00  0.00     0.034 C 
ENDROOT
BRANCH   1  10
ATOM     10  C   UNL     1      -2.031  -4.776   0.927  1.00  0.00     0.246 C 
ATOM     11  O   UNL     1      -1.221  -4.046   0.345  1.00  0.00    -0.272 OA
BRANCH  10  12
ATOM     12  C   UNL     1      -2.636  -4.377   2.304  1.00  0.00     0.174 C 
BRANCH  12  13
ATOM     13  N   UNL     1      -1.986  -5.136   3.373  1.00  0.00    -0.342 N 
ATOM     14  C   UNL     1      -0.841  -4.750   4.033  1.00  0.00     0.249 C 
ATOM     15  O   UNL     1      -0.248  -3.701   3.813  1.00  0.00    -0.272 OA
ATOM     16  H   UNL     1      -2.272  -6.095   3.555  1.00  0.00     0.164 HD
BRANCH  14  17
ATOM     17  C   UNL     1      -0.393  -5.773   5.098  1.00  0.00     0.207 C 
BRANCH  17  18
ATOM     18  C   UNL     1      -1.048  -5.463   6.447  1.00  0.00     0.077 C 
BRANCH  18  19
ATOM     19  C   UNL     1      -1.998  -6.559   6.876  1.00  0.00    -0.043 A 
ATOM     20  C   UNL     1      -4.259  -7.355   7.251  1.00  0.00     0.083 A 
ATOM     21  C   UNL     1      -3.386  -6.360   6.808  1.00  0.00     0.028 A 
ATOM     22  C   UNL     1      -3.753  -8.549   7.765  1.00  0.00     0.134 A 
ATOM     23  C   UNL     1      -2.381  -8.759   7.838  1.00  0.00     0.048 A 
ATOM     24  C   UNL     1      -1.505  -7.765   7.397  1.00  0.00     0.008 A 
ATOM     25  Cl  UNL     1      -5.961  -7.092   7.158  1.00  0.00    -0.080 Cl
BRANCH  22  26
ATOM     26  O   UNL     1      -4.569  -9.549   8.221  1.00  0.00    -0.506 OA
ATOM     27  H   UNL     1      -4.021 -10.353   8.280  1.00  0.00     0.293 HD
ENDBRANCH  22  26
ENDBRANCH  18  19
ENDBRANCH  17  18
BRANCH  17  28
ATOM     28  O   UNL     1       1.035  -5.771   5.249  1.00  0.00    -0.383 OA
ATOM     29  H   UNL     1       1.385  -5.209   4.521  1.00  0.00     0.211 HD
ENDBRANCH  17  28
ENDBRANCH  14  17
ENDBRANCH  12  13
BRANCH  12  30
ATOM     30  C   UNL     1      -4.182  -4.508   2.341  1.00  0.00     0.018 C 
ATOM     31  C   UNL     1      -4.845  -3.126   2.446  1.00  0.00     0.010 C 
BRANCH  30  32
ATOM     32  C   UNL     1      -4.701  -5.434   3.467  1.00  0.00     0.002 C 
ATOM     33  C   UNL     1      -5.926  -4.925   4.217  1.00  0.00     0.004 C 
ENDBRANCH  30  32
ENDBRANCH  12  30
ENDBRANCH  10  12
ENDBRANCH   1  10
BRANCH   5  34
ATOM     34  C   UNL     1      -0.674  -7.723   0.436  1.00  0.00     0.242 C 
ATOM     35  O   UNL     1       0.126  -6.958  -0.104  1.00  0.00    -0.273 OA
ATOM     36  N   UNL     1      -0.423  -9.068   0.587  1.00  0.00    -0.354 N 
ATOM     37  H   UNL     1      -1.171  -9.672   0.931  1.00  0.00     0.163 HD
BRANCH  36  38
ATOM     38  C   UNL     1       0.891  -9.638   0.374  1.00  0.00     0.116 C 
BRANCH  38  39
ATOM     39  C   UNL     1       1.467 -10.124   1.702  1.00  0.00     0.023 C 
BRANCH  39  40
ATOM     40  C   UNL     1       0.423 -10.814   2.573  1.00  0.00     0.026 C 
BRANCH  40  41
ATOM     41  C   UNL     1       0.230 -10.061   3.889  1.00  0.00     0.146 C 
BRANCH  41  42
ATOM     42  N   UNL     1      -0.903  -9.153   3.776  1.00  0.00    -0.254 NA
ATOM     43  C   UNL     1      -2.057  -9.525   4.187  1.00  0.00     0.185 C 
ATOM     44  N   UNL     1      -2.442 -10.687   4.747  1.00  0.00    -0.370 N 
ATOM     45  N   UNL     1      -3.090  -8.675   4.070  1.00  0.00    -0.370 N 
ATOM     46  H   UNL     1      -3.416 -10.934   4.796  1.00  0.00     0.159 HD
ATOM     47  H   UNL     1      -1.783 -11.439   4.922  1.00  0.00     0.159 HD
ATOM     48  H   UNL     1      -2.883  -7.772   3.665  1.00  0.00     0.159 HD
ATOM     49  H   UNL     1      -3.951  -8.793   4.573  1.00  0.00     0.159 HD
ENDBRANCH  41  42
ENDBRANCH  40  41
ENDBRANCH  39  40
ENDBRANCH  38  39
ENDBRANCH  36  38
ENDBRANCH   5  34
BRANCH   8  50
ATOM     50  O   UNL     1      -2.662  -7.176  -3.841  1.00  0.00    -0.245 OA
BRANCH  50  51
ATOM     51  S   UNL     1      -1.957  -6.793  -5.257  1.00  0.00     0.397 S 
ATOM     52  O   UNL     1      -1.216  -5.566  -5.069  1.00  0.00    -0.169 OA
ATOM     53  O   UNL     1      -2.915  -6.945  -6.333  1.00  0.00    -0.169 OA
BRANCH  51  54
ATOM     54  O   UNL     1      -0.854  -7.953  -5.407  1.00  0.00    -0.264 OA
ATOM     55  H   UNL     1      -1.175  -8.736  -4.915  1.00  0.00     0.236 HD
ENDBRANCH  51  54
ENDBRANCH  50  51
ENDBRANCH   8  50
TORSDOF 19
ENDMDL
MODEL 34
REMARK VINA RESULT:    -5.803      3.590      6.811
REMARK INTER + INTRA:         -16.586
REMARK INTER:                 -13.212
REMARK INTRA:                  -3.374
REMARK UNBOUND:                -4.846
REMARK SMILES CC[C@@H](C)[C@@H](NC(=O)[C@@H](O)Cc1ccc(O)c(Cl)c1)C(=O)N1[C@H](C(=O)NCCCCN=C(N)N)C[C@H]2CC[C@H](OS(=O)(=O)O)C[C@@H]21
REMARK SMILES IDX 22 1 36 2 46 3 35 4 23 5 45 6 37 7 39 8 38 9 20 10 21 11
REMARK SMILES IDX 5 12 6 13 7 14 8 15 9 17 11 18 12 19 17 20 19 21 15 22 14 23
REMARK SMILES IDX 13 24 18 25 16 26 10 28 3 30 4 31 2 32 1 33 24 34 25 35
REMARK SMILES IDX 26 36 27 38 28 39 29 40 30 41 31 42 32 43 33 44 34 45 40 50
REMARK SMILES IDX 41 51 42 52 43 53 44 54
REMARK H PARENT 6 16 16 27 10 29 26 37 33 46 33 47 34 48 34 49 44 55
ROOT
ATOM      1  N   UNL     1       9.331  -4.163   3.521  1.00  0.00    -0.326 N 
ATOM      2  C   UNL     1       7.450  -4.974   2.360  1.00  0.00     0.014 C 
ATOM      3  C   UNL     1       8.980  -5.033   2.395  1.00  0.00     0.091 C 
ATOM      4  C   UNL     1       7.161  -3.544   2.790  1.00  0.00     0.041 C 
ATOM      5  C   UNL     1       8.134  -3.414   3.976  1.00  0.00     0.175 C 
ATOM      6  C   UNL     1       9.405  -6.499   2.452  1.00  0.00     0.059 C 
ATOM      7  C   UNL     1       6.919  -5.472   1.030  1.00  0.00     0.008 C 
ATOM      8  C   UNL     1       8.440  -7.456   1.718  1.00  0.00     0.143 C 
ATOM      9  C   UNL     1       7.670  -6.745   0.587  1.00  0.00     0.034 C 
ENDROOT
BRANCH   1  10
ATOM     10  C   UNL     1      10.574  -3.816   4.020  1.00  0.00     0.246 C 
ATOM     11  O   UNL     1      11.024  -4.429   4.994  1.00  0.00    -0.272 OA
BRANCH  10  12
ATOM     12  C   UNL     1      11.395  -2.693   3.321  1.00  0.00     0.174 C 
BRANCH  12  13
ATOM     13  N   UNL     1      10.585  -1.481   3.207  1.00  0.00    -0.342 N 
ATOM     14  C   UNL     1      10.831  -0.301   3.873  1.00  0.00     0.249 C 
ATOM     15  O   UNL     1      11.783  -0.127   4.623  1.00  0.00    -0.272 OA
ATOM     16  H   UNL     1       9.680  -1.522   2.747  1.00  0.00     0.164 HD
BRANCH  14  17
ATOM     17  C   UNL     1       9.786   0.790   3.557  1.00  0.00     0.207 C 
BRANCH  17  18
ATOM     18  C   UNL     1       8.447   0.153   3.168  1.00  0.00     0.077 C 
BRANCH  18  19
ATOM     19  C   UNL     1       7.451   0.200   4.305  1.00  0.00    -0.043 A 
ATOM     20  C   UNL     1       5.157   0.196   5.091  1.00  0.00     0.083 A 
ATOM     21  C   UNL     1       6.075   0.103   4.045  1.00  0.00     0.028 A 
ATOM     22  C   UNL     1       5.605   0.387   6.399  1.00  0.00     0.134 A 
ATOM     23  C   UNL     1       6.964   0.485   6.670  1.00  0.00     0.048 A 
ATOM     24  C   UNL     1       7.886   0.394   5.625  1.00  0.00     0.008 A 
ATOM     25  Cl  UNL     1       3.470   0.074   4.753  1.00  0.00    -0.080 Cl
BRANCH  22  26
ATOM     26  O   UNL     1       4.741   0.495   7.456  1.00  0.00    -0.506 OA
ATOM     27  H   UNL     1       4.043  -0.170   7.315  1.00  0.00     0.293 HD
ENDBRANCH  22  26
ENDBRANCH  18  19
ENDBRANCH  17  18
BRANCH  17  28
ATOM     28  O   UNL     1      10.235   1.643   2.491  1.00  0.00    -0.383 OA
ATOM     29  H   UNL     1       9.433   1.870   1.968  1.00  0.00     0.211 HD
ENDBRANCH  17  28
ENDBRANCH  14  17
ENDBRANCH  12  13
BRANCH  12  30
ATOM     30  C   UNL     1      11.985  -3.142   1.958  1.00  0.00     0.018 C 
ATOM     31  C   UNL     1      12.682  -4.506   2.086  1.00  0.00     0.010 C 
BRANCH  30  32
ATOM     32  C   UNL     1      12.951  -2.109   1.328  1.00  0.00     0.002 C 
ATOM     33  C   UNL     1      12.386  -1.322   0.152  1.00  0.00     0.004 C 
ENDBRANCH  30  32
ENDBRANCH  12  30
ENDBRANCH  10  12
ENDBRANCH   1  10
BRANCH   5  34
ATOM     34  C   UNL     1       7.548  -4.045   5.268  1.00  0.00     0.242 C 
ATOM     35  O   UNL     1       8.054  -5.028   5.807  1.00  0.00    -0.273 OA
ATOM     36  N   UNL     1       6.393  -3.458   5.734  1.00  0.00    -0.354 N 
ATOM     37  H   UNL     1       5.956  -2.723   5.177  1.00  0.00     0.163 HD
BRANCH  36  38
ATOM     38  C   UNL     1       5.835  -3.774   7.033  1.00  0.00     0.116 C 
BRANCH  38  39
ATOM     39  C   UNL     1       4.480  -3.090   7.195  1.00  0.00     0.023 C 
BRANCH  39  40
ATOM     40  C   UNL     1       3.662  -3.104   5.909  1.00  0.00     0.026 C 
BRANCH  40  41
ATOM     41  C   UNL     1       2.746  -4.328   5.862  1.00  0.00     0.146 C 
BRANCH  41  42
ATOM     42  N   UNL     1       1.542  -4.013   5.105  1.00  0.00    -0.254 NA
ATOM     43  C   UNL     1       0.825  -4.963   4.633  1.00  0.00     0.185 C 
ATOM     44  N   UNL     1       0.991  -6.295   4.715  1.00  0.00    -0.370 N 
ATOM     45  N   UNL     1      -0.280  -4.651   3.935  1.00  0.00    -0.370 N 
ATOM     46  H   UNL     1       0.493  -6.913   4.096  1.00  0.00     0.159 HD
ATOM     47  H   UNL     1       1.770  -6.705   5.220  1.00  0.00     0.159 HD
ATOM     48  H   UNL     1      -0.483  -3.666   3.834  1.00  0.00     0.159 HD
ATOM     49  H   UNL     1      -1.007  -5.317   3.742  1.00  0.00     0.159 HD
ENDBRANCH  41  42
ENDBRANCH  40  41
ENDBRANCH  39  40
ENDBRANCH  38  39
ENDBRANCH  36  38
ENDBRANCH   5  34
BRANCH   8  50
ATOM     50  O   UNL     1       7.493  -7.998   2.639  1.00  0.00    -0.245 OA
BRANCH  50  51
ATOM     51  S   UNL     1       7.044  -9.556   2.505  1.00  0.00     0.397 S 
ATOM     52  O   UNL     1       6.390  -9.940   3.735  1.00  0.00    -0.169 OA
ATOM     53  O   UNL     1       8.136 -10.330   1.951  1.00  0.00    -0.169 OA
BRANCH  51  54
ATOM     54  O   UNL     1       5.881  -9.475   1.397  1.00  0.00    -0.264 OA
ATOM     55  H   UNL     1       5.244  -8.790   1.684  1.00  0.00     0.236 HD
ENDBRANCH  51  54
ENDBRANCH  50  51
ENDBRANCH   8  50
TORSDOF 19
ENDMDL
MODEL 35
REMARK VINA RESULT:    -5.767     10.828     14.159
REMARK INTER + INTRA:         -16.513
REMARK INTER:                 -11.566
REMARK INTRA:                  -4.947
REMARK UNBOUND:                -4.846
REMARK SMILES CC[C@@H](C)[C@@H](NC(=O)[C@@H](O)Cc1ccc(O)c(Cl)c1)C(=O)N1[C@H](C(=O)NCCCCN=C(N)N)C[C@H]2CC[C@H](OS(=O)(=O)O)C[C@@H]21
REMARK SMILES IDX 22 1 36 2 46 3 35 4 23 5 45 6 37 7 39 8 38 9 20 10 21 11
REMARK SMILES IDX 5 12 6 13 7 14 8 15 9 17 11 18 12 19 17 20 19 21 15 22 14 23
REMARK SMILES IDX 13 24 18 25 16 26 10 28 3 30 4 31 2 32 1 33 24 34 25 35
REMARK SMILES IDX 26 36 27 38 28 39 29 40 30 41 31 42 32 43 33 44 34 45 40 50
REMARK SMILES IDX 41 51 42 52 43 53 44 54
REMARK H PARENT 6 16 16 27 10 29 26 37 33 46 33 47 34 48 34 49 44 55
ROOT
ATOM      1  N   UNL     1      -2.844  -9.564   2.704  1.00  0.00    -0.326 N 
ATOM      2  C   UNL     1      -1.334  -7.836   2.179  1.00  0.00     0.014 C 
ATOM      3  C   UNL     1      -1.586  -8.974   3.171  1.00  0.00     0.091 C 
ATOM      4  C   UNL     1      -2.740  -7.347   1.866  1.00  0.00     0.041 C 
ATOM      5  C   UNL     1      -3.459  -8.695   1.671  1.00  0.00     0.175 C 
ATOM      6  C   UNL     1      -0.342  -9.861   3.216  1.00  0.00     0.059 C 
ATOM      7  C   UNL     1      -0.311  -6.858   2.724  1.00  0.00     0.008 C 
ATOM      8  C   UNL     1       0.976  -9.095   2.973  1.00  0.00     0.143 C 
ATOM      9  C   UNL     1       0.867  -7.611   3.378  1.00  0.00     0.034 C 
ENDROOT
BRANCH   1  10
ATOM     10  C   UNL     1      -3.576 -10.619   3.221  1.00  0.00     0.246 C 
ATOM     11  O   UNL     1      -3.643 -11.675   2.583  1.00  0.00    -0.272 OA
BRANCH  10  12
ATOM     12  C   UNL     1      -4.260 -10.469   4.611  1.00  0.00     0.174 C 
BRANCH  12  13
ATOM     13  N   UNL     1      -4.797  -9.117   4.759  1.00  0.00    -0.342 N 
ATOM     14  C   UNL     1      -6.117  -8.767   4.579  1.00  0.00     0.249 C 
ATOM     15  O   UNL     1      -7.002  -9.565   4.299  1.00  0.00    -0.272 OA
ATOM     16  H   UNL     1      -4.161  -8.328   4.835  1.00  0.00     0.164 HD
BRANCH  14  17
ATOM     17  C   UNL     1      -6.367  -7.258   4.790  1.00  0.00     0.207 C 
BRANCH  17  18
ATOM     18  C   UNL     1      -5.163  -6.607   5.478  1.00  0.00     0.077 C 
BRANCH  18  19
ATOM     19  C   UNL     1      -4.515  -5.558   4.602  1.00  0.00    -0.043 A 
ATOM     20  C   UNL     1      -2.573  -4.242   3.985  1.00  0.00     0.083 A 
ATOM     21  C   UNL     1      -3.156  -5.245   4.761  1.00  0.00     0.028 A 
ATOM     22  C   UNL     1      -3.341  -3.547   3.050  1.00  0.00     0.134 A 
ATOM     23  C   UNL     1      -4.688  -3.847   2.883  1.00  0.00     0.048 A 
ATOM     24  C   UNL     1      -5.275  -4.849   3.659  1.00  0.00     0.008 A 
ATOM     25  Cl  UNL     1      -0.902  -3.871   4.195  1.00  0.00    -0.080 Cl
BRANCH  22  26
ATOM     26  O   UNL     1      -2.816  -2.549   2.275  1.00  0.00    -0.506 OA
ATOM     27  H   UNL     1      -1.847  -2.597   2.373  1.00  0.00     0.293 HD
ENDBRANCH  22  26
ENDBRANCH  18  19
ENDBRANCH  17  18
BRANCH  17  28
ATOM     28  O   UNL     1      -7.546  -7.035   5.580  1.00  0.00    -0.383 OA
ATOM     29  H   UNL     1      -8.302  -7.350   5.035  1.00  0.00     0.211 HD
ENDBRANCH  17  28
ENDBRANCH  14  17
ENDBRANCH  12  13
BRANCH  12  30
ATOM     30  C   UNL     1      -3.326 -10.867   5.786  1.00  0.00     0.018 C 
ATOM     31  C   UNL     1      -4.018 -11.877   6.715  1.00  0.00     0.010 C 
BRANCH  30  32
ATOM     32  C   UNL     1      -2.807  -9.660   6.604  1.00  0.00     0.002 C 
ATOM     33  C   UNL     1      -1.362  -9.765   7.074  1.00  0.00     0.004 C 
ENDBRANCH  30  32
ENDBRANCH  12  30
ENDBRANCH  10  12
ENDBRANCH   1  10
BRANCH   5  34
ATOM     34  C   UNL     1      -3.218  -9.272   0.251  1.00  0.00     0.242 C 
ATOM     35  O   UNL     1      -2.505 -10.256   0.053  1.00  0.00    -0.273 OA
ATOM     36  N   UNL     1      -3.813  -8.573  -0.775  1.00  0.00    -0.354 N 
ATOM     37  H   UNL     1      -4.292  -7.697  -0.560  1.00  0.00     0.163 HD
BRANCH  36  38
ATOM     38  C   UNL     1      -3.873  -9.086  -2.128  1.00  0.00     0.116 C 
BRANCH  38  39
ATOM     39  C   UNL     1      -2.770  -8.451  -2.972  1.00  0.00     0.023 C 
BRANCH  39  40
ATOM     40  C   UNL     1      -3.001  -6.963  -3.209  1.00  0.00     0.026 C 
BRANCH  40  41
ATOM     41  C   UNL     1      -2.085  -6.124  -2.317  1.00  0.00     0.146 C 
BRANCH  41  42
ATOM     42  N   UNL     1      -1.057  -6.973  -1.729  1.00  0.00    -0.254 NA
ATOM     43  C   UNL     1       0.039  -6.452  -1.324  1.00  0.00     0.185 C 
ATOM     44  N   UNL     1       0.446  -5.169  -1.341  1.00  0.00    -0.370 N 
ATOM     45  N   UNL     1       0.976  -7.252  -0.789  1.00  0.00    -0.370 N 
ATOM     46  H   UNL     1       1.417  -4.938  -1.219  1.00  0.00     0.159 HD
ATOM     47  H   UNL     1      -0.146  -4.427  -1.701  1.00  0.00     0.159 HD
ATOM     48  H   UNL     1       0.745  -8.235  -0.730  1.00  0.00     0.159 HD
ATOM     49  H   UNL     1       1.742  -6.903  -0.242  1.00  0.00     0.159 HD
ENDBRANCH  41  42
ENDBRANCH  40  41
ENDBRANCH  39  40
ENDBRANCH  38  39
ENDBRANCH  36  38
ENDBRANCH   5  34
BRANCH   8  50
ATOM     50  O   UNL     1       1.335  -9.162   1.593  1.00  0.00    -0.245 OA
BRANCH  50  51
ATOM     51  S   UNL     1       2.619 -10.053   1.140  1.00  0.00     0.397 S 
ATOM     52  O   UNL     1       2.127 -11.274   0.544  1.00  0.00    -0.169 OA
ATOM     53  O   UNL     1       3.600 -10.068   2.206  1.00  0.00    -0.169 OA
BRANCH  51  54
ATOM     54  O   UNL     1       3.219  -9.184  -0.073  1.00  0.00    -0.264 OA
ATOM     55  H   UNL     1       4.152  -8.977   0.141  1.00  0.00     0.236 HD
ENDBRANCH  51  54
ENDBRANCH  50  51
ENDBRANCH   8  50
TORSDOF 19
ENDMDL
MODEL 36
REMARK VINA RESULT:    -5.740      3.696      8.279
REMARK INTER + INTRA:         -16.458
REMARK INTER:                 -14.226
REMARK INTRA:                  -2.232
REMARK UNBOUND:                -4.846
REMARK SMILES CC[C@@H](C)[C@@H](NC(=O)[C@@H](O)Cc1ccc(O)c(Cl)c1)C(=O)N1[C@H](C(=O)NCCCCN=C(N)N)C[C@H]2CC[C@H](OS(=O)(=O)O)C[C@@H]21
REMARK SMILES IDX 22 1 36 2 46 3 35 4 23 5 45 6 37 7 39 8 38 9 20 10 21 11
REMARK SMILES IDX 5 12 6 13 7 14 8 15 9 17 11 18 12 19 17 20 19 21 15 22 14 23
REMARK SMILES IDX 13 24 18 25 16 26 10 28 3 30 4 31 2 32 1 33 24 34 25 35
REMARK SMILES IDX 26 36 27 38 28 39 29 40 30 41 31 42 32 43 33 44 34 45 40 50
REMARK SMILES IDX 41 51 42 52 43 53 44 54
REMARK H PARENT 6 16 16 27 10 29 26 37 33 46 33 47 34 48 34 49 44 55
ROOT
ATOM      1  N   UNL     1       9.787   1.109   5.174  1.00  0.00    -0.326 N 
ATOM      2  C   UNL     1      11.510   1.535   3.627  1.00  0.00     0.014 C 
ATOM      3  C   UNL     1      11.116   0.623   4.792  1.00  0.00     0.091 C 
ATOM      4  C   UNL     1      10.884   2.865   4.016  1.00  0.00     0.041 C 
ATOM      5  C   UNL     1       9.495   2.388   4.480  1.00  0.00     0.175 C 
ATOM      6  C   UNL     1      11.254  -0.829   4.338  1.00  0.00     0.059 C 
ATOM      7  C   UNL     1      13.001   1.463   3.362  1.00  0.00     0.008 C 
ATOM      8  C   UNL     1      12.377  -1.052   3.302  1.00  0.00     0.143 C 
ATOM      9  C   UNL     1      13.495   0.003   3.424  1.00  0.00     0.034 C 
ENDROOT
BRANCH   1  10
ATOM     10  C   UNL     1       8.941   0.680   6.182  1.00  0.00     0.246 C 
ATOM     11  O   UNL     1       8.987   1.238   7.284  1.00  0.00    -0.272 OA
BRANCH  10  12
ATOM     12  C   UNL     1       7.923  -0.462   5.896  1.00  0.00     0.174 C 
BRANCH  12  13
ATOM     13  N   UNL     1       7.624  -1.185   7.132  1.00  0.00    -0.342 N 
ATOM     14  C   UNL     1       6.636  -0.842   8.028  1.00  0.00     0.249 C 
ATOM     15  O   UNL     1       5.872   0.103   7.872  1.00  0.00    -0.272 OA
ATOM     16  H   UNL     1       8.271  -1.892   7.471  1.00  0.00     0.164 HD
BRANCH  14  17
ATOM     17  C   UNL     1       6.580  -1.790   9.244  1.00  0.00     0.207 C 
BRANCH  17  18
ATOM     18  C   UNL     1       5.942  -3.127   8.852  1.00  0.00     0.077 C 
BRANCH  18  19
ATOM     19  C   UNL     1       5.956  -4.114   9.998  1.00  0.00    -0.043 A 
ATOM     20  C   UNL     1       4.781  -5.349  11.723  1.00  0.00     0.083 A 
ATOM     21  C   UNL     1       4.759  -4.476  10.635  1.00  0.00     0.028 A 
ATOM     22  C   UNL     1       5.994  -5.862  12.183  1.00  0.00     0.134 A 
ATOM     23  C   UNL     1       7.187  -5.511  11.562  1.00  0.00     0.048 A 
ATOM     24  C   UNL     1       7.169  -4.637  10.473  1.00  0.00     0.008 A 
ATOM     25  Cl  UNL     1       3.300  -5.783  12.493  1.00  0.00    -0.080 Cl
BRANCH  22  26
ATOM     26  O   UNL     1       6.067  -6.712  13.253  1.00  0.00    -0.506 OA
ATOM     27  H   UNL     1       6.223  -6.159  14.041  1.00  0.00     0.293 HD
ENDBRANCH  22  26
ENDBRANCH  18  19
ENDBRANCH  17  18
BRANCH  17  28
ATOM     28  O   UNL     1       5.835  -1.204  10.323  1.00  0.00    -0.383 OA
ATOM     29  H   UNL     1       4.952  -1.639  10.311  1.00  0.00     0.211 HD
ENDBRANCH  17  28
ENDBRANCH  14  17
ENDBRANCH  12  13
BRANCH  12  30
ATOM     30  C   UNL     1       8.388  -1.407   4.755  1.00  0.00     0.018 C 
ATOM     31  C   UNL     1       7.559  -1.176   3.482  1.00  0.00     0.010 C 
BRANCH  30  32
ATOM     32  C   UNL     1       8.363  -2.906   5.141  1.00  0.00     0.002 C 
ATOM     33  C   UNL     1       8.975  -3.852   4.116  1.00  0.00     0.004 C 
ENDBRANCH  30  32
ENDBRANCH  12  30
ENDBRANCH  10  12
ENDBRANCH   1  10
BRANCH   5  34
ATOM     34  C   UNL     1       8.539   2.157   3.280  1.00  0.00     0.242 C 
ATOM     35  O   UNL     1       8.921   1.658   2.221  1.00  0.00    -0.273 OA
ATOM     36  N   UNL     1       7.249   2.600   3.465  1.00  0.00    -0.354 N 
ATOM     37  H   UNL     1       7.023   3.113   4.318  1.00  0.00     0.163 HD
BRANCH  36  38
ATOM     38  C   UNL     1       6.180   2.275   2.544  1.00  0.00     0.116 C 
BRANCH  38  39
ATOM     39  C   UNL     1       5.246   1.245   3.175  1.00  0.00     0.023 C 
BRANCH  39  40
ATOM     40  C   UNL     1       4.997   1.514   4.655  1.00  0.00     0.026 C 
BRANCH  40  41
ATOM     41  C   UNL     1       4.025   0.488   5.237  1.00  0.00     0.146 C 
BRANCH  41  42
ATOM     42  N   UNL     1       4.410  -0.851   4.810  1.00  0.00    -0.254 NA
ATOM     43  C   UNL     1       4.131  -1.857   5.552  1.00  0.00     0.185 C 
ATOM     44  N   UNL     1       3.500  -1.907   6.740  1.00  0.00    -0.370 N 
ATOM     45  N   UNL     1       4.498  -3.082   5.143  1.00  0.00    -0.370 N 
ATOM     46  H   UNL     1       3.566  -2.726   7.321  1.00  0.00     0.159 HD
ATOM     47  H   UNL     1       3.143  -1.070   7.190  1.00  0.00     0.159 HD
ATOM     48  H   UNL     1       4.971  -3.134   4.251  1.00  0.00     0.159 HD
ATOM     49  H   UNL     1       4.116  -3.924   5.536  1.00  0.00     0.159 HD
ENDBRANCH  41  42
ENDBRANCH  40  41
ENDBRANCH  39  40
ENDBRANCH  38  39
ENDBRANCH  36  38
ENDBRANCH   5  34
BRANCH   8  50
ATOM     50  O   UNL     1      11.843  -0.996   1.980  1.00  0.00    -0.245 OA
BRANCH  50  51
ATOM     51  S   UNL     1      12.402  -2.017   0.844  1.00  0.00     0.397 S 
ATOM     52  O   UNL     1      12.433  -1.309  -0.417  1.00  0.00    -0.169 OA
ATOM     53  O   UNL     1      11.745  -3.301   0.978  1.00  0.00    -0.169 OA
BRANCH  51  54
ATOM     54  O   UNL     1      13.938  -2.198   1.282  1.00  0.00    -0.264 OA
ATOM     55  H   UNL     1      14.006  -3.028   1.796  1.00  0.00     0.236 HD
ENDBRANCH  51  54
ENDBRANCH  50  51
ENDBRANCH   8  50
TORSDOF 19
ENDMDL
MODEL 37
REMARK VINA RESULT:    -5.739     11.417     14.351
REMARK INTER + INTRA:         -16.456
REMARK INTER:                 -12.084
REMARK INTRA:                  -4.372
REMARK UNBOUND:                -4.846
REMARK SMILES CC[C@@H](C)[C@@H](NC(=O)[C@@H](O)Cc1ccc(O)c(Cl)c1)C(=O)N1[C@H](C(=O)NCCCCN=C(N)N)C[C@H]2CC[C@H](OS(=O)(=O)O)C[C@@H]21
REMARK SMILES IDX 22 1 36 2 46 3 35 4 23 5 45 6 37 7 39 8 38 9 20 10 21 11
REMARK SMILES IDX 5 12 6 13 7 14 8 15 9 17 11 18 12 19 17 20 19 21 15 22 14 23
REMARK SMILES IDX 13 24 18 25 16 26 10 28 3 30 4 31 2 32 1 33 24 34 25 35
REMARK SMILES IDX 26 36 27 38 28 39 29 40 30 41 31 42 32 43 33 44 34 45 40 50
REMARK SMILES IDX 41 51 42 52 43 53 44 54
REMARK H PARENT 6 16 16 27 10 29 26 37 33 46 33 47 34 48 34 49 44 55
ROOT
ATOM      1  N   UNL     1      -2.094  -6.360   5.219  1.00  0.00    -0.326 N 
ATOM      2  C   UNL     1      -3.188  -7.363   7.047  1.00  0.00     0.014 C 
ATOM      3  C   UNL     1      -3.418  -6.446   5.842  1.00  0.00     0.091 C 
ATOM      4  C   UNL     1      -1.777  -6.996   7.482  1.00  0.00     0.041 C 
ATOM      5  C   UNL     1      -1.072  -6.955   6.114  1.00  0.00     0.175 C 
ATOM      6  C   UNL     1      -4.572  -7.013   5.017  1.00  0.00     0.059 C 
ATOM      7  C   UNL     1      -4.326  -7.249   8.041  1.00  0.00     0.008 C 
ATOM      8  C   UNL     1      -5.636  -7.749   5.860  1.00  0.00     0.143 C 
ATOM      9  C   UNL     1      -5.686  -7.230   7.312  1.00  0.00     0.034 C 
ENDROOT
BRANCH   1  10
ATOM     10  C   UNL     1      -1.684  -5.654   4.101  1.00  0.00     0.246 C 
ATOM     11  O   UNL     1      -0.727  -4.877   4.198  1.00  0.00    -0.272 OA
BRANCH  10  12
ATOM     12  C   UNL     1      -2.405  -5.883   2.741  1.00  0.00     0.174 C 
BRANCH  12  13
ATOM     13  N   UNL     1      -1.790  -7.005   2.034  1.00  0.00    -0.342 N 
ATOM     14  C   UNL     1      -2.444  -8.159   1.662  1.00  0.00     0.249 C 
ATOM     15  O   UNL     1      -3.635  -8.362   1.861  1.00  0.00    -0.272 OA
ATOM     16  H   UNL     1      -0.779  -7.048   1.940  1.00  0.00     0.164 HD
BRANCH  14  17
ATOM     17  C   UNL     1      -1.517  -9.164   0.945  1.00  0.00     0.207 C 
BRANCH  17  18
ATOM     18  C   UNL     1      -2.122  -9.586  -0.398  1.00  0.00     0.077 C 
BRANCH  18  19
ATOM     19  C   UNL     1      -1.924  -8.528  -1.460  1.00  0.00    -0.043 A 
ATOM     20  C   UNL     1      -2.686  -7.392  -3.464  1.00  0.00     0.083 A 
ATOM     21  C   UNL     1      -2.894  -8.335  -2.457  1.00  0.00     0.028 A 
ATOM     22  C   UNL     1      -1.512  -6.638  -3.483  1.00  0.00     0.134 A 
ATOM     23  C   UNL     1      -0.543  -6.819  -2.502  1.00  0.00     0.048 A 
ATOM     24  C   UNL     1      -0.748  -7.763  -1.494  1.00  0.00     0.008 A 
ATOM     25  Cl  UNL     1      -3.889  -7.170  -4.680  1.00  0.00    -0.080 Cl
BRANCH  22  26
ATOM     26  O   UNL     1      -1.259  -5.710  -4.456  1.00  0.00    -0.506 OA
ATOM     27  H   UNL     1      -1.732  -6.005  -5.256  1.00  0.00     0.293 HD
ENDBRANCH  22  26
ENDBRANCH  18  19
ENDBRANCH  17  18
BRANCH  17  28
ATOM     28  O   UNL     1      -1.294 -10.330   1.754  1.00  0.00    -0.383 OA
ATOM     29  H   UNL     1      -0.409 -10.209   2.167  1.00  0.00     0.211 HD
ENDBRANCH  17  28
ENDBRANCH  14  17
ENDBRANCH  12  13
BRANCH  12  30
ATOM     30  C   UNL     1      -2.469  -4.598   1.872  1.00  0.00     0.018 C 
ATOM     31  C   UNL     1      -3.820  -3.887   2.047  1.00  0.00     0.010 C 
BRANCH  30  32
ATOM     32  C   UNL     1      -2.191  -4.849   0.370  1.00  0.00     0.002 C 
ATOM     33  C   UNL     1      -0.833  -4.371  -0.130  1.00  0.00     0.004 C 
ENDBRANCH  30  32
ENDBRANCH  12  30
ENDBRANCH  10  12
ENDBRANCH   1  10
BRANCH   5  34
ATOM     34  C   UNL     1      -0.678  -8.376   5.631  1.00  0.00     0.242 C 
ATOM     35  O   UNL     1      -0.938  -8.782   4.498  1.00  0.00    -0.273 OA
ATOM     36  N   UNL     1      -0.066  -9.168   6.577  1.00  0.00    -0.354 N 
ATOM     37  H   UNL     1       0.014  -8.818   7.533  1.00  0.00     0.163 HD
BRANCH  36  38
ATOM     38  C   UNL     1       0.558 -10.431   6.243  1.00  0.00     0.116 C 
BRANCH  38  39
ATOM     39  C   UNL     1      -0.463 -11.560   6.361  1.00  0.00     0.023 C 
BRANCH  39  40
ATOM     40  C   UNL     1      -1.338 -11.427   7.602  1.00  0.00     0.026 C 
BRANCH  40  41
ATOM     41  C   UNL     1      -2.787 -11.132   7.215  1.00  0.00     0.146 C 
BRANCH  41  42
ATOM     42  N   UNL     1      -3.657 -12.184   7.726  1.00  0.00    -0.254 NA
ATOM     43  C   UNL     1      -4.661 -11.875   8.459  1.00  0.00     0.185 C 
ATOM     44  N   UNL     1      -5.091 -10.670   8.873  1.00  0.00    -0.370 N 
ATOM     45  N   UNL     1      -5.448 -12.860   8.923  1.00  0.00    -0.370 N 
ATOM     46  H   UNL     1      -5.741 -10.592   9.637  1.00  0.00     0.159 HD
ATOM     47  H   UNL     1      -4.619  -9.813   8.602  1.00  0.00     0.159 HD
ATOM     48  H   UNL     1      -5.198 -13.801   8.649  1.00  0.00     0.159 HD
ATOM     49  H   UNL     1      -6.366 -12.693   9.294  1.00  0.00     0.159 HD
ENDBRANCH  41  42
ENDBRANCH  40  41
ENDBRANCH  39  40
ENDBRANCH  38  39
ENDBRANCH  36  38
ENDBRANCH   5  34
BRANCH   8  50
ATOM     50  O   UNL     1      -5.355  -9.149   5.889  1.00  0.00    -0.245 OA
BRANCH  50  51
ATOM     51  S   UNL     1      -6.508 -10.208   5.447  1.00  0.00     0.397 S 
ATOM     52  O   UNL     1      -7.037  -9.784   4.170  1.00  0.00    -0.169 OA
ATOM     53  O   UNL     1      -7.374 -10.483   6.575  1.00  0.00    -0.169 OA
BRANCH  51  54
ATOM     54  O   UNL     1      -5.648 -11.533   5.147  1.00  0.00    -0.264 OA
ATOM     55  H   UNL     1      -5.905 -12.211   5.805  1.00  0.00     0.236 HD
ENDBRANCH  51  54
ENDBRANCH  50  51
ENDBRANCH   8  50
TORSDOF 19
ENDMDL
MODEL 38
REMARK VINA RESULT:    -5.734     13.062     16.173
REMARK INTER + INTRA:         -16.446
REMARK INTER:                 -13.720
REMARK INTRA:                  -2.725
REMARK UNBOUND:                -4.846
REMARK SMILES CC[C@@H](C)[C@@H](NC(=O)[C@@H](O)Cc1ccc(O)c(Cl)c1)C(=O)N1[C@H](C(=O)NCCCCN=C(N)N)C[C@H]2CC[C@H](OS(=O)(=O)O)C[C@@H]21
REMARK SMILES IDX 22 1 36 2 46 3 35 4 23 5 45 6 37 7 39 8 38 9 20 10 21 11
REMARK SMILES IDX 5 12 6 13 7 14 8 15 9 17 11 18 12 19 17 20 19 21 15 22 14 23
REMARK SMILES IDX 13 24 18 25 16 26 10 28 3 30 4 31 2 32 1 33 24 34 25 35
REMARK SMILES IDX 26 36 27 38 28 39 29 40 30 41 31 42 32 43 33 44 34 45 40 50
REMARK SMILES IDX 41 51 42 52 43 53 44 54
REMARK H PARENT 6 16 16 27 10 29 26 37 33 46 33 47 34 48 34 49 44 55
ROOT
ATOM      1  N   UNL     1      -1.994  -8.261  -0.591  1.00  0.00    -0.326 N 
ATOM      2  C   UNL     1      -1.454  -7.566   1.593  1.00  0.00     0.014 C 
ATOM      3  C   UNL     1      -1.412  -7.124   0.127  1.00  0.00     0.091 C 
ATOM      4  C   UNL     1      -1.206  -9.064   1.498  1.00  0.00     0.041 C 
ATOM      5  C   UNL     1      -2.138  -9.420   0.324  1.00  0.00     0.175 C 
ATOM      6  C   UNL     1      -2.100  -5.765   0.013  1.00  0.00     0.059 C 
ATOM      7  C   UNL     1      -0.534  -6.713   2.443  1.00  0.00     0.008 C 
ATOM      8  C   UNL     1      -1.946  -4.882   1.270  1.00  0.00     0.143 C 
ATOM      9  C   UNL     1      -0.668  -5.223   2.064  1.00  0.00     0.034 C 
ENDROOT
BRANCH   1  10
ATOM     10  C   UNL     1      -2.198  -8.443  -1.948  1.00  0.00     0.246 C 
ATOM     11  O   UNL     1      -2.058  -9.572  -2.431  1.00  0.00    -0.272 OA
BRANCH  10  12
ATOM     12  C   UNL     1      -2.640  -7.237  -2.826  1.00  0.00     0.174 C 
BRANCH  12  13
ATOM     13  N   UNL     1      -3.763  -7.626  -3.679  1.00  0.00    -0.342 N 
ATOM     14  C   UNL     1      -5.082  -7.653  -3.286  1.00  0.00     0.249 C 
ATOM     15  O   UNL     1      -5.468  -7.323  -2.171  1.00  0.00    -0.272 OA
ATOM     16  H   UNL     1      -3.583  -8.071  -4.576  1.00  0.00     0.164 HD
BRANCH  14  17
ATOM     17  C   UNL     1      -6.029  -8.124  -4.410  1.00  0.00     0.207 C 
BRANCH  17  18
ATOM     18  C   UNL     1      -5.281  -9.025  -5.398  1.00  0.00     0.077 C 
BRANCH  18  19
ATOM     19  C   UNL     1      -5.313  -8.467  -6.803  1.00  0.00    -0.043 A 
ATOM     20  C   UNL     1      -6.357  -8.329  -8.987  1.00  0.00     0.083 A 
ATOM     21  C   UNL     1      -6.358  -8.806  -7.676  1.00  0.00     0.028 A 
ATOM     22  C   UNL     1      -5.317  -7.514  -9.434  1.00  0.00     0.134 A 
ATOM     23  C   UNL     1      -4.276  -7.170  -8.579  1.00  0.00     0.048 A 
ATOM     24  C   UNL     1      -4.272  -7.648  -7.267  1.00  0.00     0.008 A 
ATOM     25  Cl  UNL     1      -7.650  -8.757 -10.046  1.00  0.00    -0.080 Cl
BRANCH  22  26
ATOM     26  O   UNL     1      -5.268  -7.031 -10.713  1.00  0.00    -0.506 OA
ATOM     27  H   UNL     1      -5.031  -6.087 -10.648  1.00  0.00     0.293 HD
ENDBRANCH  22  26
ENDBRANCH  18  19
ENDBRANCH  17  18
BRANCH  17  28
ATOM     28  O   UNL     1      -6.591  -7.006  -5.116  1.00  0.00    -0.383 OA
ATOM     29  H   UNL     1      -6.183  -7.017  -6.012  1.00  0.00     0.211 HD
ENDBRANCH  17  28
ENDBRANCH  14  17
ENDBRANCH  12  13
BRANCH  12  30
ATOM     30  C   UNL     1      -1.466  -6.622  -3.635  1.00  0.00     0.018 C 
ATOM     31  C   UNL     1      -1.784  -5.176  -4.046  1.00  0.00     0.010 C 
BRANCH  30  32
ATOM     32  C   UNL     1      -1.067  -7.453  -4.880  1.00  0.00     0.002 C 
ATOM     33  C   UNL     1      -0.987  -6.672  -6.185  1.00  0.00     0.004 C 
ENDBRANCH  30  32
ENDBRANCH  12  30
ENDBRANCH  10  12
ENDBRANCH   1  10
BRANCH   5  34
ATOM     34  C   UNL     1      -3.610  -9.575   0.789  1.00  0.00     0.242 C 
ATOM     35  O   UNL     1      -4.563  -9.384   0.033  1.00  0.00    -0.273 OA
ATOM     36  N   UNL     1      -3.774  -9.890   2.120  1.00  0.00    -0.354 N 
ATOM     37  H   UNL     1      -2.951  -9.918   2.723  1.00  0.00     0.163 HD
BRANCH  36  38
ATOM     38  C   UNL     1      -5.055 -10.281   2.670  1.00  0.00     0.116 C 
BRANCH  38  39
ATOM     39  C   UNL     1      -5.039 -10.119   4.188  1.00  0.00     0.023 C 
BRANCH  39  40
ATOM     40  C   UNL     1      -4.293  -8.865   4.632  1.00  0.00     0.026 C 
BRANCH  40  41
ATOM     41  C   UNL     1      -5.188  -7.983   5.503  1.00  0.00     0.146 C 
BRANCH  41  42
ATOM     42  N   UNL     1      -5.668  -6.849   4.725  1.00  0.00    -0.254 NA
ATOM     43  C   UNL     1      -6.692  -6.194   5.126  1.00  0.00     0.185 C 
ATOM     44  N   UNL     1      -7.462  -6.373   6.215  1.00  0.00    -0.370 N 
ATOM     45  N   UNL     1      -7.122  -5.154   4.392  1.00  0.00    -0.370 N 
ATOM     46  H   UNL     1      -8.370  -5.945   6.277  1.00  0.00     0.159 HD
ATOM     47  H   UNL     1      -7.270  -7.108   6.888  1.00  0.00     0.159 HD
ATOM     48  H   UNL     1      -6.591  -4.945   3.557  1.00  0.00     0.159 HD
ATOM     49  H   UNL     1      -7.752  -4.459   4.750  1.00  0.00     0.159 HD
ENDBRANCH  41  42
ENDBRANCH  40  41
ENDBRANCH  39  40
ENDBRANCH  38  39
ENDBRANCH  36  38
ENDBRANCH   5  34
BRANCH   8  50
ATOM     50  O   UNL     1      -3.073  -5.052   2.130  1.00  0.00    -0.245 OA
BRANCH  50  51
ATOM     51  S   UNL     1      -3.651  -3.777   2.957  1.00  0.00     0.397 S 
ATOM     52  O   UNL     1      -3.098  -3.823   4.292  1.00  0.00    -0.169 OA
ATOM     53  O   UNL     1      -5.076  -3.656   2.729  1.00  0.00    -0.169 OA
BRANCH  51  54
ATOM     54  O   UNL     1      -2.925  -2.544   2.225  1.00  0.00    -0.264 OA
ATOM     55  H   UNL     1      -2.981  -2.696   1.259  1.00  0.00     0.236 HD
ENDBRANCH  51  54
ENDBRANCH  50  51
ENDBRANCH   8  50
TORSDOF 19
ENDMDL
MODEL 39
REMARK VINA RESULT:    -5.711     11.318     14.526
REMARK INTER + INTRA:         -16.399
REMARK INTER:                 -13.505
REMARK INTRA:                  -2.895
REMARK UNBOUND:                -4.846
REMARK SMILES CC[C@@H](C)[C@@H](NC(=O)[C@@H](O)Cc1ccc(O)c(Cl)c1)C(=O)N1[C@H](C(=O)NCCCCN=C(N)N)C[C@H]2CC[C@H](OS(=O)(=O)O)C[C@@H]21
REMARK SMILES IDX 22 1 36 2 46 3 35 4 23 5 45 6 37 7 39 8 38 9 20 10 21 11
REMARK SMILES IDX 5 12 6 13 7 14 8 15 9 17 11 18 12 19 17 20 19 21 15 22 14 23
REMARK SMILES IDX 13 24 18 25 16 26 10 28 3 30 4 31 2 32 1 33 24 34 25 35
REMARK SMILES IDX 26 36 27 38 28 39 29 40 30 41 31 42 32 43 33 44 34 45 40 50
REMARK SMILES IDX 41 51 42 52 43 53 44 54
REMARK H PARENT 6 16 16 27 10 29 26 37 33 46 33 47 34 48 34 49 44 55
ROOT
ATOM      1  N   UNL     1      -1.207  -6.710   0.575  1.00  0.00    -0.326 N 
ATOM      2  C   UNL     1      -1.588  -5.468  -1.388  1.00  0.00     0.014 C 
ATOM      3  C   UNL     1      -1.393  -6.895  -0.867  1.00  0.00     0.091 C 
ATOM      4  C   UNL     1      -0.679  -4.653  -0.482  1.00  0.00     0.041 C 
ATOM      5  C   UNL     1      -1.032  -5.270   0.884  1.00  0.00     0.175 C 
ATOM      6  C   UNL     1      -2.568  -7.748  -1.343  1.00  0.00     0.059 C 
ATOM      7  C   UNL     1      -1.389  -5.407  -2.890  1.00  0.00     0.008 C 
ATOM      8  C   UNL     1      -3.139  -7.311  -2.710  1.00  0.00     0.143 C 
ATOM      9  C   UNL     1      -2.082  -6.601  -3.580  1.00  0.00     0.034 C 
ENDROOT
BRANCH   1  10
ATOM     10  C   UNL     1      -0.969  -7.647   1.566  1.00  0.00     0.246 C 
ATOM     11  O   UNL     1       0.083  -8.294   1.541  1.00  0.00    -0.272 OA
BRANCH  10  12
ATOM     12  C   UNL     1      -2.007  -7.834   2.710  1.00  0.00     0.174 C 
BRANCH  12  13
ATOM     13  N   UNL     1      -1.456  -7.337   3.970  1.00  0.00    -0.342 N 
ATOM     14  C   UNL     1      -2.098  -6.469   4.825  1.00  0.00     0.249 C 
ATOM     15  O   UNL     1      -3.227  -6.035   4.636  1.00  0.00    -0.272 OA
ATOM     16  H   UNL     1      -0.473  -7.484   4.183  1.00  0.00     0.164 HD
BRANCH  14  17
ATOM     17  C   UNL     1      -1.248  -6.117   6.065  1.00  0.00     0.207 C 
BRANCH  17  18
ATOM     18  C   UNL     1      -1.998  -6.482   7.350  1.00  0.00     0.077 C 
BRANCH  18  19
ATOM     19  C   UNL     1      -2.324  -7.957   7.411  1.00  0.00    -0.043 A 
ATOM     20  C   UNL     1      -1.598 -10.271   7.467  1.00  0.00     0.083 A 
ATOM     21  C   UNL     1      -1.294  -8.909   7.461  1.00  0.00     0.028 A 
ATOM     22  C   UNL     1      -2.928 -10.690   7.422  1.00  0.00     0.134 A 
ATOM     23  C   UNL     1      -3.958  -9.758   7.373  1.00  0.00     0.048 A 
ATOM     24  C   UNL     1      -3.657  -8.394   7.364  1.00  0.00     0.008 A 
ATOM     25  Cl  UNL     1      -0.318 -11.425   7.528  1.00  0.00    -0.080 Cl
BRANCH  22  26
ATOM     26  O   UNL     1      -3.274 -12.014   7.415  1.00  0.00    -0.506 OA
ATOM     27  H   UNL     1      -2.476 -12.511   7.156  1.00  0.00     0.293 HD
ENDBRANCH  22  26
ENDBRANCH  18  19
ENDBRANCH  17  18
BRANCH  17  28
ATOM     28  O   UNL     1      -0.918  -4.719   6.086  1.00  0.00    -0.383 OA
ATOM     29  H   UNL     1      -1.720  -4.246   5.765  1.00  0.00     0.211 HD
ENDBRANCH  17  28
ENDBRANCH  14  17
ENDBRANCH  12  13
BRANCH  12  30
ATOM     30  C   UNL     1      -2.519  -9.296   2.823  1.00  0.00     0.018 C 
ATOM     31  C   UNL     1      -4.028  -9.326   3.108  1.00  0.00     0.010 C 
BRANCH  30  32
ATOM     32  C   UNL     1      -1.761 -10.139   3.877  1.00  0.00     0.002 C 
ATOM     33  C   UNL     1      -2.156 -11.609   3.941  1.00  0.00     0.004 C 
ENDBRANCH  30  32
ENDBRANCH  12  30
ENDBRANCH  10  12
ENDBRANCH   1  10
BRANCH   5  34
ATOM     34  C   UNL     1      -2.341  -4.668   1.462  1.00  0.00     0.242 C 
ATOM     35  O   UNL     1      -3.445  -5.169   1.250  1.00  0.00    -0.273 OA
ATOM     36  N   UNL     1      -2.182  -3.505   2.183  1.00  0.00    -0.354 N 
ATOM     37  H   UNL     1      -1.258  -3.074   2.223  1.00  0.00     0.163 HD
BRANCH  36  38
ATOM     38  C   UNL     1      -3.255  -2.930   2.968  1.00  0.00     0.116 C 
BRANCH  38  39
ATOM     39  C   UNL     1      -4.604  -3.379   2.410  1.00  0.00     0.023 C 
BRANCH  39  40
ATOM     40  C   UNL     1      -5.763  -2.550   2.952  1.00  0.00     0.026 C 
BRANCH  40  41
ATOM     41  C   UNL     1      -6.765  -3.438   3.690  1.00  0.00     0.146 C 
BRANCH  41  42
ATOM     42  N   UNL     1      -6.134  -4.702   4.048  1.00  0.00    -0.254 NA
ATOM     43  C   UNL     1      -6.801  -5.582   4.695  1.00  0.00     0.185 C 
ATOM     44  N   UNL     1      -8.071  -5.552   5.138  1.00  0.00    -0.370 N 
ATOM     45  N   UNL     1      -6.199  -6.738   5.019  1.00  0.00    -0.370 N 
ATOM     46  H   UNL     1      -8.385  -6.202   5.838  1.00  0.00     0.159 HD
ATOM     47  H   UNL     1      -8.676  -4.755   4.968  1.00  0.00     0.159 HD
ATOM     48  H   UNL     1      -5.241  -6.846   4.715  1.00  0.00     0.159 HD
ATOM     49  H   UNL     1      -6.709  -7.555   5.307  1.00  0.00     0.159 HD
ENDBRANCH  41  42
ENDBRANCH  40  41
ENDBRANCH  39  40
ENDBRANCH  38  39
ENDBRANCH  36  38
ENDBRANCH   5  34
BRANCH   8  50
ATOM     50  O   UNL     1      -4.241  -6.423  -2.520  1.00  0.00    -0.245 OA
BRANCH  50  51
ATOM     51  S   UNL     1      -5.760  -6.987  -2.660  1.00  0.00     0.397 S 
ATOM     52  O   UNL     1      -6.655  -6.003  -2.093  1.00  0.00    -0.169 OA
ATOM     53  O   UNL     1      -5.803  -8.376  -2.253  1.00  0.00    -0.169 OA
BRANCH  51  54
ATOM     54  O   UNL     1      -5.994  -6.928  -4.249  1.00  0.00    -0.264 OA
ATOM     55  H   UNL     1      -5.163  -6.618  -4.662  1.00  0.00     0.236 HD
ENDBRANCH  51  54
ENDBRANCH  50  51
ENDBRANCH   8  50
TORSDOF 19
ENDMDL
MODEL 40
REMARK VINA RESULT:    -5.702     10.955     14.668
REMARK INTER + INTRA:         -16.381
REMARK INTER:                 -12.901
REMARK INTRA:                  -3.480
REMARK UNBOUND:                -4.846
REMARK SMILES CC[C@@H](C)[C@@H](NC(=O)[C@@H](O)Cc1ccc(O)c(Cl)c1)C(=O)N1[C@H](C(=O)NCCCCN=C(N)N)C[C@H]2CC[C@H](OS(=O)(=O)O)C[C@@H]21
REMARK SMILES IDX 22 1 36 2 46 3 35 4 23 5 45 6 37 7 39 8 38 9 20 10 21 11
REMARK SMILES IDX 5 12 6 13 7 14 8 15 9 17 11 18 12 19 17 20 19 21 15 22 14 23
REMARK SMILES IDX 13 24 18 25 16 26 10 28 3 30 4 31 2 32 1 33 24 34 25 35
REMARK SMILES IDX 26 36 27 38 28 39 29 40 30 41 31 42 32 43 33 44 34 45 40 50
REMARK SMILES IDX 41 51 42 52 43 53 44 54
REMARK H PARENT 6 16 16 27 10 29 26 37 33 46 33 47 34 48 34 49 44 55
ROOT
ATOM      1  N   UNL     1      -1.617  -6.942   0.472  1.00  0.00    -0.326 N 
ATOM      2  C   UNL     1      -2.914  -7.288  -1.462  1.00  0.00     0.014 C 
ATOM      3  C   UNL     1      -2.065  -6.241  -0.735  1.00  0.00     0.091 C 
ATOM      4  C   UNL     1      -3.561  -8.050  -0.316  1.00  0.00     0.041 C 
ATOM      5  C   UNL     1      -2.346  -8.226   0.614  1.00  0.00     0.175 C 
ATOM      6  C   UNL     1      -1.007  -5.718  -1.704  1.00  0.00     0.059 C 
ATOM      7  C   UNL     1      -3.793  -6.638  -2.513  1.00  0.00     0.008 C 
ATOM      8  C   UNL     1      -1.469  -5.701  -3.178  1.00  0.00     0.143 C 
ATOM      9  C   UNL     1      -3.001  -5.575  -3.303  1.00  0.00     0.034 C 
ENDROOT
BRANCH   1  10
ATOM     10  C   UNL     1      -0.833  -6.492   1.520  1.00  0.00     0.246 C 
ATOM     11  O   UNL     1       0.390  -6.666   1.475  1.00  0.00    -0.272 OA
BRANCH  10  12
ATOM     12  C   UNL     1      -1.499  -5.740   2.709  1.00  0.00     0.174 C 
BRANCH  12  13
ATOM     13  N   UNL     1      -1.688  -6.655   3.834  1.00  0.00    -0.342 N 
ATOM     14  C   UNL     1      -0.855  -6.747   4.926  1.00  0.00     0.249 C 
ATOM     15  O   UNL     1       0.135  -6.044   5.090  1.00  0.00    -0.272 OA
ATOM     16  H   UNL     1      -2.373  -7.404   3.765  1.00  0.00     0.164 HD
BRANCH  14  17
ATOM     17  C   UNL     1      -1.313  -7.820   5.937  1.00  0.00     0.207 C 
BRANCH  17  18
ATOM     18  C   UNL     1      -2.205  -7.195   7.014  1.00  0.00     0.077 C 
BRANCH  18  19
ATOM     19  C   UNL     1      -3.651  -7.610   6.856  1.00  0.00    -0.043 A 
ATOM     20  C   UNL     1      -5.950  -7.056   6.319  1.00  0.00     0.083 A 
ATOM     21  C   UNL     1      -4.609  -6.684   6.416  1.00  0.00     0.028 A 
ATOM     22  C   UNL     1      -6.343  -8.350   6.661  1.00  0.00     0.134 A 
ATOM     23  C   UNL     1      -5.404  -9.278   7.099  1.00  0.00     0.048 A 
ATOM     24  C   UNL     1      -4.061  -8.908   7.199  1.00  0.00     0.008 A 
ATOM     25  Cl  UNL     1      -7.113  -5.904   5.775  1.00  0.00    -0.080 Cl
BRANCH  22  26
ATOM     26  O   UNL     1      -7.647  -8.758   6.592  1.00  0.00    -0.506 OA
ATOM     27  H   UNL     1      -7.769  -9.161   5.713  1.00  0.00     0.293 HD
ENDBRANCH  22  26
ENDBRANCH  18  19
ENDBRANCH  17  18
BRANCH  17  28
ATOM     28  O   UNL     1      -0.187  -8.457   6.561  1.00  0.00    -0.383 OA
ATOM     29  H   UNL     1       0.209  -9.042   5.876  1.00  0.00     0.211 HD
ENDBRANCH  17  28
ENDBRANCH  14  17
ENDBRANCH  12  13
BRANCH  12  30
ATOM     30  C   UNL     1      -2.814  -5.022   2.302  1.00  0.00     0.018 C 
ATOM     31  C   UNL     1      -2.575  -3.517   2.101  1.00  0.00     0.010 C 
BRANCH  30  32
ATOM     32  C   UNL     1      -3.979  -5.247   3.298  1.00  0.00     0.002 C 
ATOM     33  C   UNL     1      -4.916  -4.060   3.482  1.00  0.00     0.004 C 
ENDBRANCH  30  32
ENDBRANCH  12  30
ENDBRANCH  10  12
ENDBRANCH   1  10
BRANCH   5  34
ATOM     34  C   UNL     1      -1.456  -9.417   0.171  1.00  0.00     0.242 C 
ATOM     35  O   UNL     1      -1.796 -10.199  -0.717  1.00  0.00    -0.273 OA
ATOM     36  N   UNL     1      -0.284  -9.568   0.879  1.00  0.00    -0.354 N 
ATOM     37  H   UNL     1      -0.115  -8.962   1.683  1.00  0.00     0.163 HD
BRANCH  36  38
ATOM     38  C   UNL     1       0.758 -10.484   0.465  1.00  0.00     0.116 C 
BRANCH  38  39
ATOM     39  C   UNL     1       2.040  -9.710   0.168  1.00  0.00     0.023 C 
BRANCH  39  40
ATOM     40  C   UNL     1       3.132  -9.975   1.200  1.00  0.00     0.026 C 
BRANCH  40  41
ATOM     41  C   UNL     1       2.567 -10.723   2.407  1.00  0.00     0.146 C 
BRANCH  41  42
ATOM     42  N   UNL     1       3.020 -10.086   3.637  1.00  0.00    -0.254 NA
ATOM     43  C   UNL     1       2.266 -10.098   4.671  1.00  0.00     0.185 C 
ATOM     44  N   UNL     1       1.043 -10.630   4.844  1.00  0.00    -0.370 N 
ATOM     45  N   UNL     1       2.701  -9.502   5.794  1.00  0.00    -0.370 N 
ATOM     46  H   UNL     1       0.469 -10.355   5.624  1.00  0.00     0.159 HD
ATOM     47  H   UNL     1       0.569 -11.131   4.099  1.00  0.00     0.159 HD
ATOM     48  H   UNL     1       3.620  -9.082   5.752  1.00  0.00     0.159 HD
ATOM     49  H   UNL     1       2.287  -9.669   6.694  1.00  0.00     0.159 HD
ENDBRANCH  41  42
ENDBRANCH  40  41
ENDBRANCH  39  40
ENDBRANCH  38  39
ENDBRANCH  36  38
ENDBRANCH   5  34
BRANCH   8  50
ATOM     50  O   UNL     1      -1.057  -6.899  -3.835  1.00  0.00    -0.245 OA
BRANCH  50  51
ATOM     51  S   UNL     1      -1.172  -7.008  -5.454  1.00  0.00     0.397 S 
ATOM     52  O   UNL     1      -0.958  -5.689  -6.006  1.00  0.00    -0.169 OA
ATOM     53  O   UNL     1      -2.332  -7.800  -5.807  1.00  0.00    -0.169 OA
BRANCH  51  54
ATOM     54  O   UNL     1       0.141  -7.858  -5.827  1.00  0.00    -0.264 OA
ATOM     55  H   UNL     1       0.442  -8.314  -5.014  1.00  0.00     0.236 HD
ENDBRANCH  51  54
ENDBRANCH  50  51
ENDBRANCH   8  50
TORSDOF 19
ENDMDL
MODEL 41
REMARK VINA RESULT:    -5.688     11.487     15.804
REMARK INTER + INTRA:         -16.354
REMARK INTER:                 -12.603
REMARK INTRA:                  -3.751
REMARK UNBOUND:                -4.846
REMARK SMILES CC[C@@H](C)[C@@H](NC(=O)[C@@H](O)Cc1ccc(O)c(Cl)c1)C(=O)N1[C@H](C(=O)NCCCCN=C(N)N)C[C@H]2CC[C@H](OS(=O)(=O)O)C[C@@H]21
REMARK SMILES IDX 22 1 36 2 46 3 35 4 23 5 45 6 37 7 39 8 38 9 20 10 21 11
REMARK SMILES IDX 5 12 6 13 7 14 8 15 9 17 11 18 12 19 17 20 19 21 15 22 14 23
REMARK SMILES IDX 13 24 18 25 16 26 10 28 3 30 4 31 2 32 1 33 24 34 25 35
REMARK SMILES IDX 26 36 27 38 28 39 29 40 30 41 31 42 32 43 33 44 34 45 40 50
REMARK SMILES IDX 41 51 42 52 43 53 44 54
REMARK H PARENT 6 16 16 27 10 29 26 37 33 46 33 47 34 48 34 49 44 55
ROOT
ATOM      1  N   UNL     1      -1.535  -7.146   0.284  1.00  0.00    -0.326 N 
ATOM      2  C   UNL     1      -3.065  -7.215  -1.504  1.00  0.00     0.014 C 
ATOM      3  C   UNL     1      -2.015  -6.326  -0.832  1.00  0.00     0.091 C 
ATOM      4  C   UNL     1      -3.679  -7.956  -0.327  1.00  0.00     0.041 C 
ATOM      5  C   UNL     1      -2.406  -8.336   0.451  1.00  0.00     0.175 C 
ATOM      6  C   UNL     1      -1.007  -5.882  -1.891  1.00  0.00     0.059 C 
ATOM      7  C   UNL     1      -3.959  -6.401  -2.419  1.00  0.00     0.008 C 
ATOM      8  C   UNL     1      -1.618  -5.722  -3.300  1.00  0.00     0.143 C 
ATOM      9  C   UNL     1      -3.125  -5.400  -3.246  1.00  0.00     0.034 C 
ENDROOT
BRANCH   1  10
ATOM     10  C   UNL     1      -0.592  -6.859   1.256  1.00  0.00     0.246 C 
ATOM     11  O   UNL     1       0.595  -7.123   1.039  1.00  0.00    -0.272 OA
BRANCH  10  12
ATOM     12  C   UNL     1      -1.039  -6.172   2.579  1.00  0.00     0.174 C 
BRANCH  12  13
ATOM     13  N   UNL     1      -1.189  -7.174   3.634  1.00  0.00    -0.342 N 
ATOM     14  C   UNL     1      -0.807  -7.003   4.946  1.00  0.00     0.249 C 
ATOM     15  O   UNL     1      -0.318  -5.970   5.385  1.00  0.00    -0.272 OA
ATOM     16  H   UNL     1      -1.434  -8.130   3.390  1.00  0.00     0.164 HD
BRANCH  14  17
ATOM     17  C   UNL     1      -1.081  -8.250   5.813  1.00  0.00     0.207 C 
BRANCH  17  18
ATOM     18  C   UNL     1      -1.899  -7.872   7.052  1.00  0.00     0.077 C 
BRANCH  18  19
ATOM     19  C   UNL     1      -3.377  -7.787   6.745  1.00  0.00    -0.043 A 
ATOM     20  C   UNL     1      -5.271  -8.369   5.345  1.00  0.00     0.083 A 
ATOM     21  C   UNL     1      -3.916  -8.488   5.655  1.00  0.00     0.028 A 
ATOM     22  C   UNL     1      -6.094  -7.550   6.118  1.00  0.00     0.134 A 
ATOM     23  C   UNL     1      -5.575  -6.851   7.201  1.00  0.00     0.048 A 
ATOM     24  C   UNL     1      -4.218  -6.967   7.513  1.00  0.00     0.008 A 
ATOM     25  Cl  UNL     1      -5.913  -9.237   4.001  1.00  0.00    -0.080 Cl
BRANCH  22  26
ATOM     26  O   UNL     1      -7.427  -7.393   5.847  1.00  0.00    -0.506 OA
ATOM     27  H   UNL     1      -7.486  -6.856   5.035  1.00  0.00     0.293 HD
ENDBRANCH  22  26
ENDBRANCH  18  19
ENDBRANCH  17  18
BRANCH  17  28
ATOM     28  O   UNL     1       0.146  -8.874   6.224  1.00  0.00    -0.383 OA
ATOM     29  H   UNL     1      -0.108  -9.739   6.619  1.00  0.00     0.211 HD
ENDBRANCH  17  28
ENDBRANCH  14  17
ENDBRANCH  12  13
BRANCH  12  30
ATOM     30  C   UNL     1      -2.312  -5.302   2.403  1.00  0.00     0.018 C 
ATOM     31  C   UNL     1      -2.055  -3.858   2.862  1.00  0.00     0.010 C 
BRANCH  30  32
ATOM     32  C   UNL     1      -3.560  -5.874   3.119  1.00  0.00     0.002 C 
ATOM     33  C   UNL     1      -4.190  -4.959   4.161  1.00  0.00     0.004 C 
ENDBRANCH  30  32
ENDBRANCH  12  30
ENDBRANCH  10  12
ENDBRANCH   1  10
BRANCH   5  34
ATOM     34  C   UNL     1      -1.729  -9.601  -0.143  1.00  0.00     0.242 C 
ATOM     35  O   UNL     1      -0.671 -10.049   0.298  1.00  0.00    -0.273 OA
ATOM     36  N   UNL     1      -2.369 -10.152  -1.230  1.00  0.00    -0.354 N 
ATOM     37  H   UNL     1      -3.176  -9.666  -1.624  1.00  0.00     0.163 HD
BRANCH  36  38
ATOM     38  C   UNL     1      -2.002 -11.444  -1.770  1.00  0.00     0.116 C 
BRANCH  38  39
ATOM     39  C   UNL     1      -2.595 -11.610  -3.167  1.00  0.00     0.023 C 
BRANCH  39  40
ATOM     40  C   UNL     1      -2.548 -10.319  -3.977  1.00  0.00     0.026 C 
BRANCH  40  41
ATOM     41  C   UNL     1      -3.926  -9.986  -4.548  1.00  0.00     0.146 C 
BRANCH  41  42
ATOM     42  N   UNL     1      -4.845  -9.670  -3.463  1.00  0.00    -0.254 NA
ATOM     43  C   UNL     1      -6.106  -9.790  -3.646  1.00  0.00     0.185 C 
ATOM     44  N   UNL     1      -6.789 -10.185  -4.736  1.00  0.00    -0.370 N 
ATOM     45  N   UNL     1      -6.937  -9.489  -2.635  1.00  0.00    -0.370 N 
ATOM     46  H   UNL     1      -7.774 -10.000  -4.820  1.00  0.00     0.159 HD
ATOM     47  H   UNL     1      -6.315 -10.464  -5.590  1.00  0.00     0.159 HD
ATOM     48  H   UNL     1      -6.503  -9.190  -1.772  1.00  0.00     0.159 HD
ATOM     49  H   UNL     1      -7.899  -9.778  -2.616  1.00  0.00     0.159 HD
ENDBRANCH  41  42
ENDBRANCH  40  41
ENDBRANCH  39  40
ENDBRANCH  38  39
ENDBRANCH  36  38
ENDBRANCH   5  34
BRANCH   8  50
ATOM     50  O   UNL     1      -1.437  -6.922  -4.052  1.00  0.00    -0.245 OA
BRANCH  50  51
ATOM     51  S   UNL     1      -1.471  -6.864  -5.677  1.00  0.00     0.397 S 
ATOM     52  O   UNL     1      -0.777  -5.667  -6.096  1.00  0.00    -0.169 OA
ATOM     53  O   UNL     1      -2.806  -7.172  -6.147  1.00  0.00    -0.169 OA
BRANCH  51  54
ATOM     54  O   UNL     1      -0.510  -8.090  -6.077  1.00  0.00    -0.264 OA
ATOM     55  H   UNL     1       0.295  -8.031  -5.523  1.00  0.00     0.236 HD
ENDBRANCH  51  54
ENDBRANCH  50  51
ENDBRANCH   8  50
TORSDOF 19
ENDMDL
MODEL 42
REMARK VINA RESULT:    -5.677     11.239     13.951
REMARK INTER + INTRA:         -16.330
REMARK INTER:                 -13.566
REMARK INTRA:                  -2.764
REMARK UNBOUND:                -4.846
REMARK SMILES CC[C@@H](C)[C@@H](NC(=O)[C@@H](O)Cc1ccc(O)c(Cl)c1)C(=O)N1[C@H](C(=O)NCCCCN=C(N)N)C[C@H]2CC[C@H](OS(=O)(=O)O)C[C@@H]21
REMARK SMILES IDX 22 1 36 2 46 3 35 4 23 5 45 6 37 7 39 8 38 9 20 10 21 11
REMARK SMILES IDX 5 12 6 13 7 14 8 15 9 17 11 18 12 19 17 20 19 21 15 22 14 23
REMARK SMILES IDX 13 24 18 25 16 26 10 28 3 30 4 31 2 32 1 33 24 34 25 35
REMARK SMILES IDX 26 36 27 38 28 39 29 40 30 41 31 42 32 43 33 44 34 45 40 50
REMARK SMILES IDX 41 51 42 52 43 53 44 54
REMARK H PARENT 6 16 16 27 10 29 26 37 33 46 33 47 34 48 34 49 44 55
ROOT
ATOM      1  N   UNL     1      -1.978  -5.801   4.908  1.00  0.00    -0.326 N 
ATOM      2  C   UNL     1      -3.089  -7.094   6.532  1.00  0.00     0.014 C 
ATOM      3  C   UNL     1      -3.301  -5.966   5.518  1.00  0.00     0.091 C 
ATOM      4  C   UNL     1      -1.667  -6.848   7.014  1.00  0.00     0.041 C 
ATOM      5  C   UNL     1      -0.967  -6.575   5.671  1.00  0.00     0.175 C 
ATOM      6  C   UNL     1      -4.473  -6.344   4.614  1.00  0.00     0.059 C 
ATOM      7  C   UNL     1      -4.220  -7.135   7.541  1.00  0.00     0.008 C 
ATOM      8  C   UNL     1      -5.551  -7.195   5.318  1.00  0.00     0.143 C 
ATOM      9  C   UNL     1      -5.582  -6.949   6.840  1.00  0.00     0.034 C 
ENDROOT
BRANCH   1  10
ATOM     10  C   UNL     1      -1.554  -4.912   3.935  1.00  0.00     0.246 C 
ATOM     11  O   UNL     1      -0.469  -4.338   4.076  1.00  0.00    -0.272 OA
BRANCH  10  12
ATOM     12  C   UNL     1      -2.429  -4.688   2.668  1.00  0.00     0.174 C 
BRANCH  12  13
ATOM     13  N   UNL     1      -1.610  -4.834   1.464  1.00  0.00    -0.342 N 
ATOM     14  C   UNL     1      -1.129  -6.028   0.975  1.00  0.00     0.249 C 
ATOM     15  O   UNL     1      -1.361  -7.117   1.486  1.00  0.00    -0.272 OA
ATOM     16  H   UNL     1      -1.208  -4.009   1.026  1.00  0.00     0.164 HD
BRANCH  14  17
ATOM     17  C   UNL     1      -0.281  -5.850  -0.302  1.00  0.00     0.207 C 
BRANCH  17  18
ATOM     18  C   UNL     1      -0.897  -4.780  -1.209  1.00  0.00     0.077 C 
BRANCH  18  19
ATOM     19  C   UNL     1      -1.822  -5.383  -2.242  1.00  0.00    -0.043 A 
ATOM     20  C   UNL     1      -3.922  -6.453  -2.815  1.00  0.00     0.083 A 
ATOM     21  C   UNL     1      -3.091  -5.853  -1.869  1.00  0.00     0.028 A 
ATOM     22  C   UNL     1      -3.492  -6.589  -4.136  1.00  0.00     0.134 A 
ATOM     23  C   UNL     1      -2.238  -6.128  -4.519  1.00  0.00     0.048 A 
ATOM     24  C   UNL     1      -1.403  -5.528  -3.574  1.00  0.00     0.008 A 
ATOM     25  Cl  UNL     1      -5.477  -7.025  -2.337  1.00  0.00    -0.080 Cl
BRANCH  22  26
ATOM     26  O   UNL     1      -4.267  -7.181  -5.096  1.00  0.00    -0.506 OA
ATOM     27  H   UNL     1      -5.195  -6.982  -4.869  1.00  0.00     0.293 HD
ENDBRANCH  22  26
ENDBRANCH  18  19
ENDBRANCH  17  18
BRANCH  17  28
ATOM     28  O   UNL     1      -0.174  -7.086  -1.028  1.00  0.00    -0.383 OA
ATOM     29  H   UNL     1      -0.791  -7.714  -0.588  1.00  0.00     0.211 HD
ENDBRANCH  17  28
ENDBRANCH  14  17
ENDBRANCH  12  13
BRANCH  12  30
ATOM     30  C   UNL     1      -3.198  -3.341   2.701  1.00  0.00     0.018 C 
ATOM     31  C   UNL     1      -3.077  -2.676   4.081  1.00  0.00     0.010 C 
BRANCH  30  32
ATOM     32  C   UNL     1      -4.689  -3.466   2.300  1.00  0.00     0.002 C 
ATOM     33  C   UNL     1      -5.683  -2.902   3.306  1.00  0.00     0.004 C 
ENDBRANCH  30  32
ENDBRANCH  12  30
ENDBRANCH  10  12
ENDBRANCH   1  10
BRANCH   5  34
ATOM     34  C   UNL     1      -0.612  -7.893   4.932  1.00  0.00     0.242 C 
ATOM     35  O   UNL     1       0.537  -8.333   4.886  1.00  0.00    -0.273 OA
ATOM     36  N   UNL     1      -1.665  -8.506   4.289  1.00  0.00    -0.354 N 
ATOM     37  H   UNL     1      -2.568  -8.031   4.263  1.00  0.00     0.163 HD
BRANCH  36  38
ATOM     38  C   UNL     1      -1.563  -9.842   3.739  1.00  0.00     0.116 C 
BRANCH  38  39
ATOM     39  C   UNL     1      -2.689 -10.715   4.286  1.00  0.00     0.023 C 
BRANCH  39  40
ATOM     40  C   UNL     1      -2.668 -10.807   5.808  1.00  0.00     0.026 C 
BRANCH  40  41
ATOM     41  C   UNL     1      -1.295 -11.259   6.306  1.00  0.00     0.146 C 
BRANCH  41  42
ATOM     42  N   UNL     1      -1.047 -10.710   7.632  1.00  0.00    -0.254 NA
ATOM     43  C   UNL     1       0.105 -10.226   7.912  1.00  0.00     0.185 C 
ATOM     44  N   UNL     1       1.209 -10.123   7.149  1.00  0.00    -0.370 N 
ATOM     45  N   UNL     1       0.315  -9.729   9.142  1.00  0.00    -0.370 N 
ATOM     46  H   UNL     1       2.107  -9.950   7.568  1.00  0.00     0.159 HD
ATOM     47  H   UNL     1       1.221 -10.439   6.184  1.00  0.00     0.159 HD
ATOM     48  H   UNL     1      -0.470  -9.760   9.778  1.00  0.00     0.159 HD
ATOM     49  H   UNL     1       1.091  -9.130   9.361  1.00  0.00     0.159 HD
ENDBRANCH  41  42
ENDBRANCH  40  41
ENDBRANCH  39  40
ENDBRANCH  38  39
ENDBRANCH  36  38
ENDBRANCH   5  34
BRANCH   8  50
ATOM     50  O   UNL     1      -5.307  -8.583   5.088  1.00  0.00    -0.245 OA
BRANCH  50  51
ATOM     51  S   UNL     1      -6.563  -9.610   4.968  1.00  0.00     0.397 S 
ATOM     52  O   UNL     1      -7.529  -9.031   4.062  1.00  0.00    -0.169 OA
ATOM     53  O   UNL     1      -6.941 -10.072   6.288  1.00  0.00    -0.169 OA
BRANCH  51  54
ATOM     54  O   UNL     1      -5.910 -10.849   4.178  1.00  0.00    -0.264 OA
ATOM     55  H   UNL     1      -6.634 -11.456   3.923  1.00  0.00     0.236 HD
ENDBRANCH  51  54
ENDBRANCH  50  51
ENDBRANCH   8  50
TORSDOF 19
ENDMDL
MODEL 43
REMARK VINA RESULT:    -5.638     11.653     15.121
REMARK INTER + INTRA:         -16.252
REMARK INTER:                 -13.497
REMARK INTRA:                  -2.755
REMARK UNBOUND:                -4.846
REMARK SMILES CC[C@@H](C)[C@@H](NC(=O)[C@@H](O)Cc1ccc(O)c(Cl)c1)C(=O)N1[C@H](C(=O)NCCCCN=C(N)N)C[C@H]2CC[C@H](OS(=O)(=O)O)C[C@@H]21
REMARK SMILES IDX 22 1 36 2 46 3 35 4 23 5 45 6 37 7 39 8 38 9 20 10 21 11
REMARK SMILES IDX 5 12 6 13 7 14 8 15 9 17 11 18 12 19 17 20 19 21 15 22 14 23
REMARK SMILES IDX 13 24 18 25 16 26 10 28 3 30 4 31 2 32 1 33 24 34 25 35
REMARK SMILES IDX 26 36 27 38 28 39 29 40 30 41 31 42 32 43 33 44 34 45 40 50
REMARK SMILES IDX 41 51 42 52 43 53 44 54
REMARK H PARENT 6 16 16 27 10 29 26 37 33 46 33 47 34 48 34 49 44 55
ROOT
ATOM      1  N   UNL     1      -1.514  -7.503   3.067  1.00  0.00    -0.326 N 
ATOM      2  C   UNL     1      -2.680  -8.904   4.557  1.00  0.00     0.014 C 
ATOM      3  C   UNL     1      -2.054  -7.513   4.430  1.00  0.00     0.091 C 
ATOM      4  C   UNL     1      -1.744  -9.770   3.728  1.00  0.00     0.041 C 
ATOM      5  C   UNL     1      -1.563  -8.870   2.492  1.00  0.00     0.175 C 
ATOM      6  C   UNL     1      -3.110  -6.472   4.797  1.00  0.00     0.059 C 
ATOM      7  C   UNL     1      -2.928  -9.257   6.010  1.00  0.00     0.008 C 
ATOM      8  C   UNL     1      -4.119  -6.959   5.859  1.00  0.00     0.143 C 
ATOM      9  C   UNL     1      -3.521  -8.051   6.769  1.00  0.00     0.034 C 
ENDROOT
BRANCH   1  10
ATOM     10  C   UNL     1      -0.817  -6.513   2.395  1.00  0.00     0.246 C 
ATOM     11  O   UNL     1       0.417  -6.497   2.459  1.00  0.00    -0.272 OA
BRANCH  10  12
ATOM     12  C   UNL     1      -1.597  -5.472   1.541  1.00  0.00     0.174 C 
BRANCH  12  13
ATOM     13  N   UNL     1      -1.070  -5.451   0.177  1.00  0.00    -0.342 N 
ATOM     14  C   UNL     1      -1.831  -5.546  -0.967  1.00  0.00     0.249 C 
ATOM     15  O   UNL     1      -3.053  -5.632  -0.967  1.00  0.00    -0.272 OA
ATOM     16  H   UNL     1      -0.069  -5.541   0.022  1.00  0.00     0.164 HD
BRANCH  14  17
ATOM     17  C   UNL     1      -0.980  -5.511  -2.254  1.00  0.00     0.207 C 
BRANCH  17  18
ATOM     18  C   UNL     1      -0.957  -6.891  -2.918  1.00  0.00     0.077 C 
BRANCH  18  19
ATOM     19  C   UNL     1      -1.733  -6.902  -4.216  1.00  0.00    -0.043 A 
ATOM     20  C   UNL     1      -3.823  -7.188  -5.414  1.00  0.00     0.083 A 
ATOM     21  C   UNL     1      -3.119  -7.128  -4.211  1.00  0.00     0.028 A 
ATOM     22  C   UNL     1      -3.152  -7.023  -6.626  1.00  0.00     0.134 A 
ATOM     23  C   UNL     1      -1.780  -6.799  -6.645  1.00  0.00     0.048 A 
ATOM     24  C   UNL     1      -1.071  -6.741  -5.443  1.00  0.00     0.008 A 
ATOM     25  Cl  UNL     1      -5.525  -7.466  -5.387  1.00  0.00    -0.080 Cl
BRANCH  22  26
ATOM     26  O   UNL     1      -3.798  -7.084  -7.830  1.00  0.00    -0.506 OA
ATOM     27  H   UNL     1      -3.669  -7.988  -8.173  1.00  0.00     0.293 HD
ENDBRANCH  22  26
ENDBRANCH  18  19
ENDBRANCH  17  18
BRANCH  17  28
ATOM     28  O   UNL     1       0.366  -5.095  -1.972  1.00  0.00    -0.383 OA
ATOM     29  H   UNL     1       0.332  -4.117  -1.865  1.00  0.00     0.211 HD
ENDBRANCH  17  28
ENDBRANCH  14  17
ENDBRANCH  12  13
BRANCH  12  30
ATOM     30  C   UNL     1      -1.621  -4.062   2.189  1.00  0.00     0.018 C 
ATOM     31  C   UNL     1      -0.850  -4.058   3.518  1.00  0.00     0.010 C 
BRANCH  30  32
ATOM     32  C   UNL     1      -3.048  -3.499   2.400  1.00  0.00     0.002 C 
ATOM     33  C   UNL     1      -3.342  -2.978   3.800  1.00  0.00     0.004 C 
ENDBRANCH  30  32
ENDBRANCH  12  30
ENDBRANCH  10  12
ENDBRANCH   1  10
BRANCH   5  34
ATOM     34  C   UNL     1      -2.753  -9.009   1.505  1.00  0.00     0.242 C 
ATOM     35  O   UNL     1      -3.681  -8.201   1.475  1.00  0.00    -0.273 OA
ATOM     36  N   UNL     1      -2.722 -10.128   0.704  1.00  0.00    -0.354 N 
ATOM     37  H   UNL     1      -1.990 -10.823   0.858  1.00  0.00     0.163 HD
BRANCH  36  38
ATOM     38  C   UNL     1      -3.627 -10.305  -0.413  1.00  0.00     0.116 C 
BRANCH  38  39
ATOM     39  C   UNL     1      -2.868 -10.137  -1.727  1.00  0.00     0.023 C 
BRANCH  39  40
ATOM     40  C   UNL     1      -3.385 -11.064  -2.822  1.00  0.00     0.026 C 
BRANCH  40  41
ATOM     41  C   UNL     1      -2.853 -10.638  -4.190  1.00  0.00     0.146 C 
BRANCH  41  42
ATOM     42  N   UNL     1      -1.895 -11.623  -4.674  1.00  0.00    -0.254 NA
ATOM     43  C   UNL     1      -1.263 -11.408  -5.767  1.00  0.00     0.185 C 
ATOM     44  N   UNL     1      -1.326 -10.362  -6.611  1.00  0.00    -0.370 N 
ATOM     45  N   UNL     1      -0.388 -12.330  -6.199  1.00  0.00    -0.370 N 
ATOM     46  H   UNL     1      -0.962 -10.435  -7.546  1.00  0.00     0.159 HD
ATOM     47  H   UNL     1      -1.930  -9.566  -6.429  1.00  0.00     0.159 HD
ATOM     48  H   UNL     1      -0.273 -13.148  -5.615  1.00  0.00     0.159 HD
ATOM     49  H   UNL     1       0.306 -12.136  -6.899  1.00  0.00     0.159 HD
ENDBRANCH  41  42
ENDBRANCH  40  41
ENDBRANCH  39  40
ENDBRANCH  38  39
ENDBRANCH  36  38
ENDBRANCH   5  34
BRANCH   8  50
ATOM     50  O   UNL     1      -5.283  -7.487   5.223  1.00  0.00    -0.245 OA
BRANCH  50  51
ATOM     51  S   UNL     1      -6.709  -6.725   5.398  1.00  0.00     0.397 S 
ATOM     52  O   UNL     1      -6.712  -5.576   4.521  1.00  0.00    -0.169 OA
ATOM     53  O   UNL     1      -7.028  -6.608   6.806  1.00  0.00    -0.169 OA
BRANCH  51  54
ATOM     54  O   UNL     1      -7.735  -7.777   4.744  1.00  0.00    -0.264 OA
ATOM     55  H   UNL     1      -8.572  -7.731   5.249  1.00  0.00     0.236 HD
ENDBRANCH  51  54
ENDBRANCH  50  51
ENDBRANCH   8  50
TORSDOF 19
ENDMDL
MODEL 44
REMARK VINA RESULT:    -5.609     11.638     15.048
REMARK INTER + INTRA:         -16.193
REMARK INTER:                 -13.598
REMARK INTRA:                  -2.595
REMARK UNBOUND:                -4.846
REMARK SMILES CC[C@@H](C)[C@@H](NC(=O)[C@@H](O)Cc1ccc(O)c(Cl)c1)C(=O)N1[C@H](C(=O)NCCCCN=C(N)N)C[C@H]2CC[C@H](OS(=O)(=O)O)C[C@@H]21
REMARK SMILES IDX 22 1 36 2 46 3 35 4 23 5 45 6 37 7 39 8 38 9 20 10 21 11
REMARK SMILES IDX 5 12 6 13 7 14 8 15 9 17 11 18 12 19 17 20 19 21 15 22 14 23
REMARK SMILES IDX 13 24 18 25 16 26 10 28 3 30 4 31 2 32 1 33 24 34 25 35
REMARK SMILES IDX 26 36 27 38 28 39 29 40 30 41 31 42 32 43 33 44 34 45 40 50
REMARK SMILES IDX 41 51 42 52 43 53 44 54
REMARK H PARENT 6 16 16 27 10 29 26 37 33 46 33 47 34 48 34 49 44 55
ROOT
ATOM      1  N   UNL     1      -1.719  -7.640   3.339  1.00  0.00    -0.326 N 
ATOM      2  C   UNL     1      -2.264  -8.783   5.324  1.00  0.00     0.014 C 
ATOM      3  C   UNL     1      -2.059  -7.382   4.741  1.00  0.00     0.091 C 
ATOM      4  C   UNL     1      -1.241  -9.614   4.565  1.00  0.00     0.041 C 
ATOM      5  C   UNL     1      -1.470  -9.088   3.135  1.00  0.00     0.175 C 
ATOM      6  C   UNL     1      -3.302  -6.546   5.044  1.00  0.00     0.059 C 
ATOM      7  C   UNL     1      -2.220  -8.752   6.839  1.00  0.00     0.008 C 
ATOM      8  C   UNL     1      -3.998  -6.925   6.369  1.00  0.00     0.143 C 
ATOM      9  C   UNL     1      -3.016  -7.547   7.382  1.00  0.00     0.034 C 
ENDROOT
BRANCH   1  10
ATOM     10  C   UNL     1      -1.408  -6.752   2.323  1.00  0.00     0.246 C 
ATOM     11  O   UNL     1      -0.294  -6.812   1.793  1.00  0.00    -0.272 OA
BRANCH  10  12
ATOM     12  C   UNL     1      -2.479  -5.730   1.844  1.00  0.00     0.174 C 
BRANCH  12  13
ATOM     13  N   UNL     1      -2.845  -6.006   0.455  1.00  0.00    -0.342 N 
ATOM     14  C   UNL     1      -2.183  -5.518  -0.649  1.00  0.00     0.249 C 
ATOM     15  O   UNL     1      -1.184  -4.812  -0.588  1.00  0.00    -0.272 OA
ATOM     16  H   UNL     1      -3.739  -6.445   0.247  1.00  0.00     0.164 HD
BRANCH  14  17
ATOM     17  C   UNL     1      -2.823  -5.974  -1.977  1.00  0.00     0.207 C 
BRANCH  17  18
ATOM     18  C   UNL     1      -2.016  -5.448  -3.169  1.00  0.00     0.077 C 
BRANCH  18  19
ATOM     19  C   UNL     1      -1.930  -6.467  -4.283  1.00  0.00    -0.043 A 
ATOM     20  C   UNL     1      -1.914  -6.999  -6.650  1.00  0.00     0.083 A 
ATOM     21  C   UNL     1      -1.943  -6.053  -5.624  1.00  0.00     0.028 A 
ATOM     22  C   UNL     1      -1.874  -8.360  -6.344  1.00  0.00     0.134 A 
ATOM     23  C   UNL     1      -1.861  -8.784  -5.020  1.00  0.00     0.048 A 
ATOM     24  C   UNL     1      -1.891  -7.840  -3.991  1.00  0.00     0.008 A 
ATOM     25  Cl  UNL     1      -1.931  -6.471  -8.291  1.00  0.00    -0.080 Cl
BRANCH  22  26
ATOM     26  O   UNL     1      -1.855  -9.324  -7.315  1.00  0.00    -0.506 OA
ATOM     27  H   UNL     1      -2.388 -10.069  -6.980  1.00  0.00     0.293 HD
ENDBRANCH  22  26
ENDBRANCH  18  19
ENDBRANCH  17  18
BRANCH  17  28
ATOM     28  O   UNL     1      -4.180  -5.515  -2.082  1.00  0.00    -0.383 OA
ATOM     29  H   UNL     1      -4.222  -4.671  -1.578  1.00  0.00     0.211 HD
ENDBRANCH  17  28
ENDBRANCH  14  17
ENDBRANCH  12  13
BRANCH  12  30
ATOM     30  C   UNL     1      -2.040  -4.256   2.059  1.00  0.00     0.018 C 
ATOM     31  C   UNL     1      -1.013  -4.153   3.198  1.00  0.00     0.010 C 
BRANCH  30  32
ATOM     32  C   UNL     1      -3.220  -3.288   2.317  1.00  0.00     0.002 C 
ATOM     33  C   UNL     1      -3.507  -2.987   3.782  1.00  0.00     0.004 C 
ENDBRANCH  30  32
ENDBRANCH  12  30
ENDBRANCH  10  12
ENDBRANCH   1  10
BRANCH   5  34
ATOM     34  C   UNL     1      -2.693  -9.768   2.465  1.00  0.00     0.242 C 
ATOM     35  O   UNL     1      -3.810  -9.772   2.982  1.00  0.00    -0.273 OA
ATOM     36  N   UNL     1      -2.427 -10.412   1.277  1.00  0.00    -0.354 N 
ATOM     37  H   UNL     1      -1.459 -10.477   0.959  1.00  0.00     0.163 HD
BRANCH  36  38
ATOM     38  C   UNL     1      -3.479 -10.910   0.414  1.00  0.00     0.116 C 
BRANCH  38  39
ATOM     39  C   UNL     1      -3.339 -10.300  -0.978  1.00  0.00     0.023 C 
BRANCH  39  40
ATOM     40  C   UNL     1      -4.168  -9.031  -1.145  1.00  0.00     0.026 C 
BRANCH  40  41
ATOM     41  C   UNL     1      -5.415  -9.305  -1.985  1.00  0.00     0.146 C 
BRANCH  41  42
ATOM     42  N   UNL     1      -5.180  -8.895  -3.364  1.00  0.00    -0.254 NA
ATOM     43  C   UNL     1      -5.768  -7.855  -3.824  1.00  0.00     0.185 C 
ATOM     44  N   UNL     1      -6.625  -7.009  -3.225  1.00  0.00    -0.370 N 
ATOM     45  N   UNL     1      -5.541  -7.497  -5.099  1.00  0.00    -0.370 N 
ATOM     46  H   UNL     1      -7.195  -6.385  -3.770  1.00  0.00     0.159 HD
ATOM     47  H   UNL     1      -6.897  -7.125  -2.253  1.00  0.00     0.159 HD
ATOM     48  H   UNL     1      -4.899  -8.078  -5.620  1.00  0.00     0.159 HD
ATOM     49  H   UNL     1      -5.767  -6.586  -5.456  1.00  0.00     0.159 HD
ENDBRANCH  41  42
ENDBRANCH  40  41
ENDBRANCH  39  40
ENDBRANCH  38  39
ENDBRANCH  36  38
ENDBRANCH   5  34
BRANCH   8  50
ATOM     50  O   UNL     1      -5.047  -7.862   6.121  1.00  0.00    -0.245 OA
BRANCH  50  51
ATOM     51  S   UNL     1      -6.596  -7.381   6.237  1.00  0.00     0.397 S 
ATOM     52  O   UNL     1      -7.009  -6.890   4.941  1.00  0.00    -0.169 OA
ATOM     53  O   UNL     1      -6.772  -6.593   7.439  1.00  0.00    -0.169 OA
BRANCH  51  54
ATOM     54  O   UNL     1      -7.366  -8.777   6.442  1.00  0.00    -0.264 OA
ATOM     55  H   UNL     1      -6.692  -9.486   6.487  1.00  0.00     0.236 HD
ENDBRANCH  51  54
ENDBRANCH  50  51
ENDBRANCH   8  50
TORSDOF 19
ENDMDL
MODEL 45
REMARK VINA RESULT:    -5.566     11.106     14.214
REMARK INTER + INTRA:         -16.107
REMARK INTER:                 -13.778
REMARK INTRA:                  -2.329
REMARK UNBOUND:                -4.846
REMARK SMILES CC[C@@H](C)[C@@H](NC(=O)[C@@H](O)Cc1ccc(O)c(Cl)c1)C(=O)N1[C@H](C(=O)NCCCCN=C(N)N)C[C@H]2CC[C@H](OS(=O)(=O)O)C[C@@H]21
REMARK SMILES IDX 22 1 36 2 46 3 35 4 23 5 45 6 37 7 39 8 38 9 20 10 21 11
REMARK SMILES IDX 5 12 6 13 7 14 8 15 9 17 11 18 12 19 17 20 19 21 15 22 14 23
REMARK SMILES IDX 13 24 18 25 16 26 10 28 3 30 4 31 2 32 1 33 24 34 25 35
REMARK SMILES IDX 26 36 27 38 28 39 29 40 30 41 31 42 32 43 33 44 34 45 40 50
REMARK SMILES IDX 41 51 42 52 43 53 44 54
REMARK H PARENT 6 16 16 27 10 29 26 37 33 46 33 47 34 48 34 49 44 55
ROOT
ATOM      1  N   UNL     1      -2.239  -6.070   5.131  1.00  0.00    -0.326 N 
ATOM      2  C   UNL     1      -3.667  -7.081   6.707  1.00  0.00     0.014 C 
ATOM      3  C   UNL     1      -3.661  -6.180   5.468  1.00  0.00     0.091 C 
ATOM      4  C   UNL     1      -2.385  -6.678   7.419  1.00  0.00     0.041 C 
ATOM      5  C   UNL     1      -1.413  -6.634   6.226  1.00  0.00     0.175 C 
ATOM      6  C   UNL     1      -4.608  -6.780   4.430  1.00  0.00     0.059 C 
ATOM      7  C   UNL     1      -4.989  -6.982   7.443  1.00  0.00     0.008 C 
ATOM      8  C   UNL     1      -5.808  -7.532   5.045  1.00  0.00     0.143 C 
ATOM      9  C   UNL     1      -6.168  -7.000   6.447  1.00  0.00     0.034 C 
ENDROOT
BRANCH   1  10
ATOM     10  C   UNL     1      -1.620  -5.365   4.113  1.00  0.00     0.246 C 
ATOM     11  O   UNL     1      -0.408  -5.138   4.189  1.00  0.00    -0.272 OA
BRANCH  10  12
ATOM     12  C   UNL     1      -2.452  -4.913   2.878  1.00  0.00     0.174 C 
BRANCH  12  13
ATOM     13  N   UNL     1      -1.707  -5.184   1.648  1.00  0.00    -0.342 N 
ATOM     14  C   UNL     1      -1.872  -6.297   0.854  1.00  0.00     0.249 C 
ATOM     15  O   UNL     1      -2.690  -7.180   1.079  1.00  0.00    -0.272 OA
ATOM     16  H   UNL     1      -0.890  -4.623   1.420  1.00  0.00     0.164 HD
BRANCH  14  17
ATOM     17  C   UNL     1      -0.926  -6.303  -0.365  1.00  0.00     0.207 C 
BRANCH  17  18
ATOM     18  C   UNL     1      -1.312  -5.194  -1.349  1.00  0.00     0.077 C 
BRANCH  18  19
ATOM     19  C   UNL     1      -2.190  -5.713  -2.465  1.00  0.00    -0.043 A 
ATOM     20  C   UNL     1      -4.312  -6.605  -3.230  1.00  0.00     0.083 A 
ATOM     21  C   UNL     1      -3.520  -6.080  -2.208  1.00  0.00     0.028 A 
ATOM     22  C   UNL     1      -3.782  -6.768  -4.510  1.00  0.00     0.134 A 
ATOM     23  C   UNL     1      -2.466  -6.409  -4.779  1.00  0.00     0.048 A 
ATOM     24  C   UNL     1      -1.670  -5.885  -3.758  1.00  0.00     0.008 A 
ATOM     25  Cl  UNL     1      -5.944  -7.050  -2.895  1.00  0.00    -0.080 Cl
BRANCH  22  26
ATOM     26  O   UNL     1      -4.516  -7.289  -5.541  1.00  0.00    -0.506 OA
ATOM     27  H   UNL     1      -4.549  -6.605  -6.236  1.00  0.00     0.293 HD
ENDBRANCH  22  26
ENDBRANCH  18  19
ENDBRANCH  17  18
BRANCH  17  28
ATOM     28  O   UNL     1      -0.960  -7.571  -1.040  1.00  0.00    -0.383 OA
ATOM     29  H   UNL     1      -1.189  -8.238  -0.354  1.00  0.00     0.211 HD
ENDBRANCH  17  28
ENDBRANCH  14  17
ENDBRANCH  12  13
BRANCH  12  30
ATOM     30  C   UNL     1      -2.915  -3.434   2.975  1.00  0.00     0.018 C 
ATOM     31  C   UNL     1      -2.705  -2.889   4.397  1.00  0.00     0.010 C 
BRANCH  30  32
ATOM     32  C   UNL     1      -4.381  -3.212   2.531  1.00  0.00     0.002 C 
ATOM     33  C   UNL     1      -5.417  -3.284   3.646  1.00  0.00     0.004 C 
ENDBRANCH  30  32
ENDBRANCH  12  30
ENDBRANCH  10  12
ENDBRANCH   1  10
BRANCH   5  34
ATOM     34  C   UNL     1      -0.899  -8.051   5.855  1.00  0.00     0.242 C 
ATOM     35  O   UNL     1      -0.598  -8.886   6.707  1.00  0.00    -0.273 OA
ATOM     36  N   UNL     1      -0.753  -8.286   4.506  1.00  0.00    -0.354 N 
ATOM     37  H   UNL     1      -0.904  -7.515   3.854  1.00  0.00     0.163 HD
BRANCH  36  38
ATOM     38  C   UNL     1      -0.495  -9.608   3.975  1.00  0.00     0.116 C 
BRANCH  38  39
ATOM     39  C   UNL     1      -1.338  -9.838   2.723  1.00  0.00     0.023 C 
BRANCH  39  40
ATOM     40  C   UNL     1      -0.536 -10.463   1.586  1.00  0.00     0.026 C 
BRANCH  40  41
ATOM     41  C   UNL     1       0.707  -9.628   1.277  1.00  0.00     0.146 C 
BRANCH  41  42
ATOM     42  N   UNL     1       1.854 -10.506   1.082  1.00  0.00    -0.254 NA
ATOM     43  C   UNL     1       2.878 -10.077   0.445  1.00  0.00     0.185 C 
ATOM     44  N   UNL     1       3.107  -8.877  -0.119  1.00  0.00    -0.370 N 
ATOM     45  N   UNL     1       3.923 -10.903   0.272  1.00  0.00    -0.370 N 
ATOM     46  H   UNL     1       3.844  -8.759  -0.793  1.00  0.00     0.159 HD
ATOM     47  H   UNL     1       2.424  -8.127  -0.071  1.00  0.00     0.159 HD
ATOM     48  H   UNL     1       3.836 -11.827   0.675  1.00  0.00     0.159 HD
ATOM     49  H   UNL     1       4.834 -10.579   0.002  1.00  0.00     0.159 HD
ENDBRANCH  41  42
ENDBRANCH  40  41
ENDBRANCH  39  40
ENDBRANCH  38  39
ENDBRANCH  36  38
ENDBRANCH   5  34
BRANCH   8  50
ATOM     50  O   UNL     1      -5.512  -8.925   5.150  1.00  0.00    -0.245 OA
BRANCH  50  51
ATOM     51  S   UNL     1      -6.563 -10.016   4.558  1.00  0.00     0.397 S 
ATOM     52  O   UNL     1      -7.116 -10.753   5.672  1.00  0.00    -0.169 OA
ATOM     53  O   UNL     1      -5.975 -10.688   3.419  1.00  0.00    -0.169 OA
BRANCH  51  54
ATOM     54  O   UNL     1      -7.753  -9.078   4.020  1.00  0.00    -0.264 OA
ATOM     55  H   UNL     1      -8.558  -9.293   4.534  1.00  0.00     0.236 HD
ENDBRANCH  51  54
ENDBRANCH  50  51
ENDBRANCH   8  50
TORSDOF 19
ENDMDL
MODEL 46
REMARK VINA RESULT:    -5.540     11.154     15.216
REMARK INTER + INTRA:         -16.054
REMARK INTER:                 -12.545
REMARK INTRA:                  -3.509
REMARK UNBOUND:                -4.846
REMARK SMILES CC[C@@H](C)[C@@H](NC(=O)[C@@H](O)Cc1ccc(O)c(Cl)c1)C(=O)N1[C@H](C(=O)NCCCCN=C(N)N)C[C@H]2CC[C@H](OS(=O)(=O)O)C[C@@H]21
REMARK SMILES IDX 22 1 36 2 46 3 35 4 23 5 45 6 37 7 39 8 38 9 20 10 21 11
REMARK SMILES IDX 5 12 6 13 7 14 8 15 9 17 11 18 12 19 17 20 19 21 15 22 14 23
REMARK SMILES IDX 13 24 18 25 16 26 10 28 3 30 4 31 2 32 1 33 24 34 25 35
REMARK SMILES IDX 26 36 27 38 28 39 29 40 30 41 31 42 32 43 33 44 34 45 40 50
REMARK SMILES IDX 41 51 42 52 43 53 44 54
REMARK H PARENT 6 16 16 27 10 29 26 37 33 46 33 47 34 48 34 49 44 55
ROOT
ATOM      1  N   UNL     1      -1.511  -6.542   0.740  1.00  0.00    -0.326 N 
ATOM      2  C   UNL     1      -0.503  -8.478  -0.142  1.00  0.00     0.014 C 
ATOM      3  C   UNL     1      -1.720  -7.990   0.649  1.00  0.00     0.091 C 
ATOM      4  C   UNL     1       0.600  -7.543   0.329  1.00  0.00     0.041 C 
ATOM      5  C   UNL     1      -0.144  -6.196   0.278  1.00  0.00     0.175 C 
ATOM      6  C   UNL     1      -2.982  -8.498  -0.045  1.00  0.00     0.059 C 
ATOM      7  C   UNL     1      -0.323  -9.976   0.008  1.00  0.00     0.008 C 
ATOM      8  C   UNL     1      -2.799  -9.859  -0.750  1.00  0.00     0.143 C 
ATOM      9  C   UNL     1      -1.680 -10.701  -0.104  1.00  0.00     0.034 C 
ENDROOT
BRANCH   1  10
ATOM     10  C   UNL     1      -2.280  -5.572   1.360  1.00  0.00     0.246 C 
ATOM     11  O   UNL     1      -3.233  -5.078   0.748  1.00  0.00    -0.272 OA
BRANCH  10  12
ATOM     12  C   UNL     1      -1.956  -5.156   2.824  1.00  0.00     0.174 C 
BRANCH  12  13
ATOM     13  N   UNL     1      -1.672  -6.344   3.629  1.00  0.00    -0.342 N 
ATOM     14  C   UNL     1      -0.639  -6.458   4.533  1.00  0.00     0.249 C 
ATOM     15  O   UNL     1       0.148  -5.555   4.786  1.00  0.00    -0.272 OA
ATOM     16  H   UNL     1      -2.140  -7.221   3.415  1.00  0.00     0.164 HD
BRANCH  14  17
ATOM     17  C   UNL     1      -0.592  -7.844   5.211  1.00  0.00     0.207 C 
BRANCH  17  18
ATOM     18  C   UNL     1      -1.139  -7.759   6.640  1.00  0.00     0.077 C 
BRANCH  18  19
ATOM     19  C   UNL     1      -2.618  -8.067   6.695  1.00  0.00    -0.043 A 
ATOM     20  C   UNL     1      -4.865  -7.473   7.389  1.00  0.00     0.083 A 
ATOM     21  C   UNL     1      -3.508  -7.163   7.296  1.00  0.00     0.028 A 
ATOM     22  C   UNL     1      -5.341  -8.685   6.886  1.00  0.00     0.134 A 
ATOM     23  C   UNL     1      -4.471  -9.589   6.289  1.00  0.00     0.048 A 
ATOM     24  C   UNL     1      -3.111  -9.282   6.196  1.00  0.00     0.008 A 
ATOM     25  Cl  UNL     1      -5.943  -6.350   8.131  1.00  0.00    -0.080 Cl
BRANCH  22  26
ATOM     26  O   UNL     1      -6.661  -9.037   6.964  1.00  0.00    -0.506 OA
ATOM     27  H   UNL     1      -6.692  -9.917   7.383  1.00  0.00     0.293 HD
ENDBRANCH  22  26
ENDBRANCH  18  19
ENDBRANCH  17  18
BRANCH  17  28
ATOM     28  O   UNL     1       0.749  -8.359   5.243  1.00  0.00    -0.383 OA
ATOM     29  H   UNL     1       1.334  -7.584   5.402  1.00  0.00     0.211 HD
ENDBRANCH  17  28
ENDBRANCH  14  17
ENDBRANCH  12  13
BRANCH  12  30
ATOM     30  C   UNL     1      -3.061  -4.266   3.454  1.00  0.00     0.018 C 
ATOM     31  C   UNL     1      -2.441  -3.135   4.289  1.00  0.00     0.010 C 
BRANCH  30  32
ATOM     32  C   UNL     1      -4.086  -5.055   4.304  1.00  0.00     0.002 C 
ATOM     33  C   UNL     1      -4.456  -6.431   3.767  1.00  0.00     0.004 C 
ENDBRANCH  30  32
ENDBRANCH  12  30
ENDBRANCH  10  12
ENDBRANCH   1  10
BRANCH   5  34
ATOM     34  C   UNL     1      -0.180  -5.616  -1.161  1.00  0.00     0.242 C 
ATOM     35  O   UNL     1       0.821  -5.156  -1.710  1.00  0.00    -0.273 OA
ATOM     36  N   UNL     1      -1.421  -5.604  -1.757  1.00  0.00    -0.354 N 
ATOM     37  H   UNL     1      -2.233  -5.888  -1.207  1.00  0.00     0.163 HD
BRANCH  36  38
ATOM     38  C   UNL     1      -1.602  -5.303  -3.162  1.00  0.00     0.116 C 
BRANCH  38  39
ATOM     39  C   UNL     1      -2.951  -5.836  -3.637  1.00  0.00     0.023 C 
BRANCH  39  40
ATOM     40  C   UNL     1      -4.044  -5.679  -2.585  1.00  0.00     0.026 C 
BRANCH  40  41
ATOM     41  C   UNL     1      -5.070  -6.806  -2.697  1.00  0.00     0.146 C 
BRANCH  41  42
ATOM     42  N   UNL     1      -5.180  -7.236  -4.085  1.00  0.00    -0.254 NA
ATOM     43  C   UNL     1      -6.110  -8.048  -4.425  1.00  0.00     0.185 C 
ATOM     44  N   UNL     1      -7.076  -8.618  -3.681  1.00  0.00    -0.370 N 
ATOM     45  N   UNL     1      -6.191  -8.435  -5.708  1.00  0.00    -0.370 N 
ATOM     46  H   UNL     1      -7.581  -9.417  -4.023  1.00  0.00     0.159 HD
ATOM     47  H   UNL     1      -7.169  -8.423  -2.689  1.00  0.00     0.159 HD
ATOM     48  H   UNL     1      -5.505  -8.044  -6.339  1.00  0.00     0.159 HD
ATOM     49  H   UNL     1      -7.012  -8.868  -6.095  1.00  0.00     0.159 HD
ENDBRANCH  41  42
ENDBRANCH  40  41
ENDBRANCH  39  40
ENDBRANCH  38  39
ENDBRANCH  36  38
ENDBRANCH   5  34
BRANCH   8  50
ATOM     50  O   UNL     1      -2.477  -9.658  -2.127  1.00  0.00    -0.245 OA
BRANCH  50  51
ATOM     51  S   UNL     1      -3.263 -10.509  -3.268  1.00  0.00     0.397 S 
ATOM     52  O   UNL     1      -4.646 -10.629  -2.863  1.00  0.00    -0.169 OA
ATOM     53  O   UNL     1      -2.477 -11.668  -3.638  1.00  0.00    -0.169 OA
BRANCH  51  54
ATOM     54  O   UNL     1      -3.258  -9.489  -4.511  1.00  0.00    -0.264 OA
ATOM     55  H   UNL     1      -3.968  -8.832  -4.361  1.00  0.00     0.236 HD
ENDBRANCH  51  54
ENDBRANCH  50  51
ENDBRANCH   8  50
TORSDOF 19
ENDMDL
MODEL 47
REMARK VINA RESULT:    -5.532      3.615      6.591
REMARK INTER + INTRA:         -16.038
REMARK INTER:                 -13.018
REMARK INTRA:                  -3.019
REMARK UNBOUND:                -4.846
REMARK SMILES CC[C@@H](C)[C@@H](NC(=O)[C@@H](O)Cc1ccc(O)c(Cl)c1)C(=O)N1[C@H](C(=O)NCCCCN=C(N)N)C[C@H]2CC[C@H](OS(=O)(=O)O)C[C@@H]21
REMARK SMILES IDX 22 1 36 2 46 3 35 4 23 5 45 6 37 7 39 8 38 9 20 10 21 11
REMARK SMILES IDX 5 12 6 13 7 14 8 15 9 17 11 18 12 19 17 20 19 21 15 22 14 23
REMARK SMILES IDX 13 24 18 25 16 26 10 28 3 30 4 31 2 32 1 33 24 34 25 35
REMARK SMILES IDX 26 36 27 38 28 39 29 40 30 41 31 42 32 43 33 44 34 45 40 50
REMARK SMILES IDX 41 51 42 52 43 53 44 54
REMARK H PARENT 6 16 16 27 10 29 26 37 33 46 33 47 34 48 34 49 44 55
ROOT
ATOM      1  N   UNL     1       8.946  -4.633   3.819  1.00  0.00    -0.326 N 
ATOM      2  C   UNL     1       7.270  -5.142   2.246  1.00  0.00     0.014 C 
ATOM      3  C   UNL     1       8.776  -5.251   2.501  1.00  0.00     0.091 C 
ATOM      4  C   UNL     1       6.914  -3.818   2.905  1.00  0.00     0.041 C 
ATOM      5  C   UNL     1       7.691  -3.955   4.227  1.00  0.00     0.175 C 
ATOM      6  C   UNL     1       9.190  -6.711   2.327  1.00  0.00     0.059 C 
ATOM      7  C   UNL     1       6.952  -5.351   0.778  1.00  0.00     0.008 C 
ATOM      8  C   UNL     1       8.353  -7.474   1.278  1.00  0.00     0.143 C 
ATOM      9  C   UNL     1       7.766  -6.531   0.208  1.00  0.00     0.034 C 
ENDROOT
BRANCH   1  10
ATOM     10  C   UNL     1      10.096  -4.428   4.562  1.00  0.00     0.246 C 
ATOM     11  O   UNL     1      10.321  -5.154   5.535  1.00  0.00    -0.272 OA
BRANCH  10  12
ATOM     12  C   UNL     1      11.100  -3.319   4.131  1.00  0.00     0.174 C 
BRANCH  12  13
ATOM     13  N   UNL     1      10.372  -2.114   3.734  1.00  0.00    -0.342 N 
ATOM     14  C   UNL     1      10.795  -0.824   3.964  1.00  0.00     0.249 C 
ATOM     15  O   UNL     1      11.855  -0.541   4.507  1.00  0.00    -0.272 OA
ATOM     16  H   UNL     1       9.409  -2.189   3.416  1.00  0.00     0.164 HD
BRANCH  14  17
ATOM     17  C   UNL     1       9.797   0.231   3.442  1.00  0.00     0.207 C 
BRANCH  17  18
ATOM     18  C   UNL     1       8.463  -0.427   3.076  1.00  0.00     0.077 C 
BRANCH  18  19
ATOM     19  C   UNL     1       7.381  -0.100   4.081  1.00  0.00    -0.043 A 
ATOM     20  C   UNL     1       6.538  -0.154   6.355  1.00  0.00     0.083 A 
ATOM     21  C   UNL     1       7.558  -0.411   5.439  1.00  0.00     0.028 A 
ATOM     22  C   UNL     1       5.338   0.413   5.924  1.00  0.00     0.134 A 
ATOM     23  C   UNL     1       5.150   0.727   4.582  1.00  0.00     0.048 A 
ATOM     24  C   UNL     1       6.169   0.468   3.662  1.00  0.00     0.008 A 
ATOM     25  Cl  UNL     1       6.774  -0.543   8.018  1.00  0.00    -0.080 Cl
BRANCH  22  26
ATOM     26  O   UNL     1       4.306   0.675   6.783  1.00  0.00    -0.506 OA
ATOM     27  H   UNL     1       4.464   1.565   7.149  1.00  0.00     0.293 HD
ENDBRANCH  22  26
ENDBRANCH  18  19
ENDBRANCH  17  18
BRANCH  17  28
ATOM     28  O   UNL     1      10.322   0.915   2.292  1.00  0.00    -0.383 OA
ATOM     29  H   UNL     1      10.284   0.269   1.551  1.00  0.00     0.211 HD
ENDBRANCH  17  28
ENDBRANCH  14  17
ENDBRANCH  12  13
BRANCH  12  30
ATOM     30  C   UNL     1      12.091  -3.800   3.036  1.00  0.00     0.018 C 
ATOM     31  C   UNL     1      13.537  -3.441   3.413  1.00  0.00     0.010 C 
BRANCH  30  32
ATOM     32  C   UNL     1      11.761  -3.264   1.621  1.00  0.00     0.002 C 
ATOM     33  C   UNL     1      12.729  -2.221   1.078  1.00  0.00     0.004 C 
ENDBRANCH  30  32
ENDBRANCH  12  30
ENDBRANCH  10  12
ENDBRANCH   1  10
BRANCH   5  34
ATOM     34  C   UNL     1       6.914  -4.812   5.261  1.00  0.00     0.242 C 
ATOM     35  O   UNL     1       6.642  -5.996   5.063  1.00  0.00    -0.273 OA
ATOM     36  N   UNL     1       6.504  -4.138   6.390  1.00  0.00    -0.354 N 
ATOM     37  H   UNL     1       6.654  -3.130   6.443  1.00  0.00     0.163 HD
BRANCH  36  38
ATOM     38  C   UNL     1       5.961  -4.823   7.545  1.00  0.00     0.116 C 
BRANCH  38  39
ATOM     39  C   UNL     1       5.037  -3.885   8.318  1.00  0.00     0.023 C 
BRANCH  39  40
ATOM     40  C   UNL     1       5.652  -3.414   9.632  1.00  0.00     0.026 C 
BRANCH  40  41
ATOM     41  C   UNL     1       6.468  -4.532  10.280  1.00  0.00     0.146 C 
BRANCH  41  42
ATOM     42  N   UNL     1       7.827  -4.068  10.529  1.00  0.00    -0.254 NA
ATOM     43  C   UNL     1       8.430  -4.424  11.601  1.00  0.00     0.185 C 
ATOM     44  N   UNL     1       8.010  -5.205  12.613  1.00  0.00    -0.370 N 
ATOM     45  N   UNL     1       9.681  -3.982  11.814  1.00  0.00    -0.370 N 
ATOM     46  H   UNL     1       8.489  -5.201  13.497  1.00  0.00     0.159 HD
ATOM     47  H   UNL     1       7.090  -5.635  12.607  1.00  0.00     0.159 HD
ATOM     48  H   UNL     1      10.077  -3.393  11.095  1.00  0.00     0.159 HD
ATOM     49  H   UNL     1      10.295  -4.396  12.492  1.00  0.00     0.159 HD
ENDBRANCH  41  42
ENDBRANCH  40  41
ENDBRANCH  39  40
ENDBRANCH  38  39
ENDBRANCH  36  38
ENDBRANCH   5  34
BRANCH   8  50
ATOM     50  O   UNL     1       7.276  -8.162   1.916  1.00  0.00    -0.245 OA
BRANCH  50  51
ATOM     51  S   UNL     1       6.878  -9.661   1.426  1.00  0.00     0.397 S 
ATOM     52  O   UNL     1       6.809 -10.509   2.595  1.00  0.00    -0.169 OA
ATOM     53  O   UNL     1       7.673 -10.022   0.271  1.00  0.00    -0.169 OA
BRANCH  51  54
ATOM     54  O   UNL     1       5.358  -9.462   0.940  1.00  0.00    -0.264 OA
ATOM     55  H   UNL     1       5.193 -10.094   0.211  1.00  0.00     0.236 HD
ENDBRANCH  51  54
ENDBRANCH  50  51
ENDBRANCH   8  50
TORSDOF 19
ENDMDL
MODEL 48
REMARK VINA RESULT:    -5.457     12.621     16.542
REMARK INTER + INTRA:         -15.887
REMARK INTER:                 -12.116
REMARK INTRA:                  -3.771
REMARK UNBOUND:                -4.846
REMARK SMILES CC[C@@H](C)[C@@H](NC(=O)[C@@H](O)Cc1ccc(O)c(Cl)c1)C(=O)N1[C@H](C(=O)NCCCCN=C(N)N)C[C@H]2CC[C@H](OS(=O)(=O)O)C[C@@H]21
REMARK SMILES IDX 22 1 36 2 46 3 35 4 23 5 45 6 37 7 39 8 38 9 20 10 21 11
REMARK SMILES IDX 5 12 6 13 7 14 8 15 9 17 11 18 12 19 17 20 19 21 15 22 14 23
REMARK SMILES IDX 13 24 18 25 16 26 10 28 3 30 4 31 2 32 1 33 24 34 25 35
REMARK SMILES IDX 26 36 27 38 28 39 29 40 30 41 31 42 32 43 33 44 34 45 40 50
REMARK SMILES IDX 41 51 42 52 43 53 44 54
REMARK H PARENT 6 16 16 27 10 29 26 37 33 46 33 47 34 48 34 49 44 55
ROOT
ATOM      1  N   UNL     1      -2.821  -8.026  -1.436  1.00  0.00    -0.326 N 
ATOM      2  C   UNL     1      -3.391  -6.371  -3.011  1.00  0.00     0.014 C 
ATOM      3  C   UNL     1      -2.205  -7.154  -2.440  1.00  0.00     0.091 C 
ATOM      4  C   UNL     1      -4.295  -6.203  -1.799  1.00  0.00     0.041 C 
ATOM      5  C   UNL     1      -4.232  -7.625  -1.213  1.00  0.00     0.175 C 
ATOM      6  C   UNL     1      -1.452  -7.803  -3.599  1.00  0.00     0.059 C 
ATOM      7  C   UNL     1      -2.918  -5.142  -3.762  1.00  0.00     0.008 C 
ATOM      8  C   UNL     1      -1.501  -6.986  -4.908  1.00  0.00     0.143 C 
ATOM      9  C   UNL     1      -1.697  -5.479  -4.643  1.00  0.00     0.034 C 
ENDROOT
BRANCH   1  10
ATOM     10  C   UNL     1      -2.238  -8.947  -0.582  1.00  0.00     0.246 C 
ATOM     11  O   UNL     1      -2.080 -10.110  -0.970  1.00  0.00    -0.272 OA
BRANCH  10  12
ATOM     12  C   UNL     1      -1.757  -8.491   0.826  1.00  0.00     0.174 C 
BRANCH  12  13
ATOM     13  N   UNL     1      -2.908  -8.286   1.704  1.00  0.00    -0.342 N 
ATOM     14  C   UNL     1      -3.008  -8.750   2.997  1.00  0.00     0.249 C 
ATOM     15  O   UNL     1      -2.120  -9.369   3.570  1.00  0.00    -0.272 OA
ATOM     16  H   UNL     1      -3.779  -7.928   1.319  1.00  0.00     0.164 HD
BRANCH  14  17
ATOM     17  C   UNL     1      -4.355  -8.386   3.657  1.00  0.00     0.207 C 
BRANCH  17  18
ATOM     18  C   UNL     1      -4.122  -7.585   4.942  1.00  0.00     0.077 C 
BRANCH  18  19
ATOM     19  C   UNL     1      -3.589  -6.200   4.652  1.00  0.00    -0.043 A 
ATOM     20  C   UNL     1      -3.798  -4.059   3.531  1.00  0.00     0.083 A 
ATOM     21  C   UNL     1      -4.316  -5.318   3.837  1.00  0.00     0.028 A 
ATOM     22  C   UNL     1      -2.555  -3.674   4.034  1.00  0.00     0.134 A 
ATOM     23  C   UNL     1      -1.824  -4.538   4.842  1.00  0.00     0.048 A 
ATOM     24  C   UNL     1      -2.339  -5.799   5.149  1.00  0.00     0.008 A 
ATOM     25  Cl  UNL     1      -4.706  -2.989   2.528  1.00  0.00    -0.080 Cl
BRANCH  22  26
ATOM     26  O   UNL     1      -2.001  -2.454   3.753  1.00  0.00    -0.506 OA
ATOM     27  H   UNL     1      -1.189  -2.385   4.288  1.00  0.00     0.293 HD
ENDBRANCH  22  26
ENDBRANCH  18  19
ENDBRANCH  17  18
BRANCH  17  28
ATOM     28  O   UNL     1      -5.116  -9.566   3.962  1.00  0.00    -0.383 OA
ATOM     29  H   UNL     1      -6.028  -9.256   4.165  1.00  0.00     0.211 HD
ENDBRANCH  17  28
ENDBRANCH  14  17
ENDBRANCH  12  13
BRANCH  12  30
ATOM     30  C   UNL     1      -0.827  -7.249   0.768  1.00  0.00     0.018 C 
ATOM     31  C   UNL     1       0.522  -7.545   1.441  1.00  0.00     0.010 C 
BRANCH  30  32
ATOM     32  C   UNL     1      -1.457  -5.973   1.378  1.00  0.00     0.002 C 
ATOM     33  C   UNL     1      -1.646  -4.813   0.409  1.00  0.00     0.004 C 
ENDBRANCH  30  32
ENDBRANCH  12  30
ENDBRANCH  10  12
ENDBRANCH   1  10
BRANCH   5  34
ATOM     34  C   UNL     1      -5.201  -8.590  -1.948  1.00  0.00     0.242 C 
ATOM     35  O   UNL     1      -5.356  -9.760  -1.596  1.00  0.00    -0.273 OA
ATOM     36  N   UNL     1      -5.831  -8.060  -3.051  1.00  0.00    -0.354 N 
ATOM     37  H   UNL     1      -5.570  -7.124  -3.363  1.00  0.00     0.163 HD
BRANCH  36  38
ATOM     38  C   UNL     1      -6.919  -8.741  -3.722  1.00  0.00     0.116 C 
BRANCH  38  39
ATOM     39  C   UNL     1      -6.374  -9.577  -4.877  1.00  0.00     0.023 C 
BRANCH  39  40
ATOM     40  C   UNL     1      -6.149  -8.751  -6.139  1.00  0.00     0.026 C 
BRANCH  40  41
ATOM     41  C   UNL     1      -6.381  -9.598  -7.390  1.00  0.00     0.146 C 
BRANCH  41  42
ATOM     42  N   UNL     1      -5.289 -10.549  -7.550  1.00  0.00    -0.254 NA
ATOM     43  C   UNL     1      -4.480 -10.425  -8.534  1.00  0.00     0.185 C 
ATOM     44  N   UNL     1      -4.450  -9.509  -9.519  1.00  0.00    -0.370 N 
ATOM     45  N   UNL     1      -3.482 -11.314  -8.666  1.00  0.00    -0.370 N 
ATOM     46  H   UNL     1      -3.915  -9.672 -10.355  1.00  0.00     0.159 HD
ATOM     47  H   UNL     1      -5.126  -8.753  -9.565  1.00  0.00     0.159 HD
ATOM     48  H   UNL     1      -3.427 -12.034  -7.959  1.00  0.00     0.159 HD
ATOM     49  H   UNL     1      -2.684 -11.153  -9.254  1.00  0.00     0.159 HD
ENDBRANCH  41  42
ENDBRANCH  40  41
ENDBRANCH  39  40
ENDBRANCH  38  39
ENDBRANCH  36  38
ENDBRANCH   5  34
BRANCH   8  50
ATOM     50  O   UNL     1      -2.573  -7.444  -5.732  1.00  0.00    -0.245 OA
BRANCH  50  51
ATOM     51  S   UNL     1      -2.385  -7.481  -7.348  1.00  0.00     0.397 S 
ATOM     52  O   UNL     1      -3.604  -6.992  -7.950  1.00  0.00    -0.169 OA
ATOM     53  O   UNL     1      -1.797  -8.745  -7.740  1.00  0.00    -0.169 OA
BRANCH  51  54
ATOM     54  O   UNL     1      -1.288  -6.329  -7.584  1.00  0.00    -0.264 OA
ATOM     55  H   UNL     1      -0.403  -6.729  -7.456  1.00  0.00     0.236 HD
ENDBRANCH  51  54
ENDBRANCH  50  51
ENDBRANCH   8  50
TORSDOF 19
ENDMDL
MODEL 49
REMARK VINA RESULT:    -5.452     11.157     15.302
REMARK INTER + INTRA:         -15.876
REMARK INTER:                 -13.855
REMARK INTRA:                  -2.022
REMARK UNBOUND:                -4.846
REMARK SMILES CC[C@@H](C)[C@@H](NC(=O)[C@@H](O)Cc1ccc(O)c(Cl)c1)C(=O)N1[C@H](C(=O)NCCCCN=C(N)N)C[C@H]2CC[C@H](OS(=O)(=O)O)C[C@@H]21
REMARK SMILES IDX 22 1 36 2 46 3 35 4 23 5 45 6 37 7 39 8 38 9 20 10 21 11
REMARK SMILES IDX 5 12 6 13 7 14 8 15 9 17 11 18 12 19 17 20 19 21 15 22 14 23
REMARK SMILES IDX 13 24 18 25 16 26 10 28 3 30 4 31 2 32 1 33 24 34 25 35
REMARK SMILES IDX 26 36 27 38 28 39 29 40 30 41 31 42 32 43 33 44 34 45 40 50
REMARK SMILES IDX 41 51 42 52 43 53 44 54
REMARK H PARENT 6 16 16 27 10 29 26 37 33 46 33 47 34 48 34 49 44 55
ROOT
ATOM      1  N   UNL     1      -1.446  -5.784   0.241  1.00  0.00    -0.326 N 
ATOM      2  C   UNL     1       0.310  -7.024  -0.719  1.00  0.00     0.014 C 
ATOM      3  C   UNL     1      -0.527  -6.882   0.556  1.00  0.00     0.091 C 
ATOM      4  C   UNL     1       0.423  -5.588  -1.207  1.00  0.00     0.041 C 
ATOM      5  C   UNL     1      -1.033  -5.122  -1.020  1.00  0.00     0.175 C 
ATOM      6  C   UNL     1      -1.120  -8.248   0.898  1.00  0.00     0.059 C 
ATOM      7  C   UNL     1       1.573  -7.820  -0.452  1.00  0.00     0.008 C 
ATOM      8  C   UNL     1      -0.225  -9.436   0.484  1.00  0.00     0.143 C 
ATOM      9  C   UNL     1       1.266  -9.047   0.432  1.00  0.00     0.034 C 
ENDROOT
BRANCH   1  10
ATOM     10  C   UNL     1      -2.427  -5.197   1.022  1.00  0.00     0.246 C 
ATOM     11  O   UNL     1      -3.558  -5.042   0.549  1.00  0.00    -0.272 OA
BRANCH  10  12
ATOM     12  C   UNL     1      -2.099  -4.787   2.487  1.00  0.00     0.174 C 
BRANCH  12  13
ATOM     13  N   UNL     1      -2.297  -5.927   3.381  1.00  0.00    -0.342 N 
ATOM     14  C   UNL     1      -1.365  -6.398   4.279  1.00  0.00     0.249 C 
ATOM     15  O   UNL     1      -0.264  -5.889   4.449  1.00  0.00    -0.272 OA
ATOM     16  H   UNL     1      -3.095  -6.542   3.244  1.00  0.00     0.164 HD
BRANCH  14  17
ATOM     17  C   UNL     1      -1.866  -7.627   5.066  1.00  0.00     0.207 C 
BRANCH  17  18
ATOM     18  C   UNL     1      -3.024  -8.303   4.326  1.00  0.00     0.077 C 
BRANCH  18  19
ATOM     19  C   UNL     1      -4.319  -8.205   5.100  1.00  0.00    -0.043 A 
ATOM     20  C   UNL     1      -6.315  -6.970   5.714  1.00  0.00     0.083 A 
ATOM     21  C   UNL     1      -5.146  -7.079   4.960  1.00  0.00     0.028 A 
ATOM     22  C   UNL     1      -6.665  -7.981   6.610  1.00  0.00     0.134 A 
ATOM     23  C   UNL     1      -5.856  -9.101   6.758  1.00  0.00     0.048 A 
ATOM     24  C   UNL     1      -4.684  -9.213   6.007  1.00  0.00     0.008 A 
ATOM     25  Cl  UNL     1      -7.317  -5.579   5.528  1.00  0.00    -0.080 Cl
BRANCH  22  26
ATOM     26  O   UNL     1      -7.796  -7.913   7.377  1.00  0.00    -0.506 OA
ATOM     27  H   UNL     1      -7.740  -7.083   7.886  1.00  0.00     0.293 HD
ENDBRANCH  22  26
ENDBRANCH  18  19
ENDBRANCH  17  18
BRANCH  17  28
ATOM     28  O   UNL     1      -2.296  -7.256   6.386  1.00  0.00    -0.383 OA
ATOM     29  H   UNL     1      -3.224  -6.944   6.292  1.00  0.00     0.211 HD
ENDBRANCH  17  28
ENDBRANCH  14  17
ENDBRANCH  12  13
BRANCH  12  30
ATOM     30  C   UNL     1      -2.884  -3.529   2.947  1.00  0.00     0.018 C 
ATOM     31  C   UNL     1      -2.104  -2.763   4.027  1.00  0.00     0.010 C 
BRANCH  30  32
ATOM     32  C   UNL     1      -4.317  -3.840   3.446  1.00  0.00     0.002 C 
ATOM     33  C   UNL     1      -5.407  -2.923   2.906  1.00  0.00     0.004 C 
ENDBRANCH  30  32
ENDBRANCH  12  30
ENDBRANCH  10  12
ENDBRANCH   1  10
BRANCH   5  34
ATOM     34  C   UNL     1      -1.934  -5.575  -2.200  1.00  0.00     0.242 C 
ATOM     35  O   UNL     1      -3.033  -6.100  -2.024  1.00  0.00    -0.273 OA
ATOM     36  N   UNL     1      -1.391  -5.397  -3.453  1.00  0.00    -0.354 N 
ATOM     37  H   UNL     1      -0.428  -5.069  -3.529  1.00  0.00     0.163 HD
BRANCH  36  38
ATOM     38  C   UNL     1      -2.170  -5.561  -4.663  1.00  0.00     0.116 C 
BRANCH  38  39
ATOM     39  C   UNL     1      -2.213  -7.036  -5.056  1.00  0.00     0.023 C 
BRANCH  39  40
ATOM     40  C   UNL     1      -3.355  -7.350  -6.016  1.00  0.00     0.026 C 
BRANCH  40  41
ATOM     41  C   UNL     1      -4.489  -8.077  -5.292  1.00  0.00     0.146 C 
BRANCH  41  42
ATOM     42  N   UNL     1      -5.049  -7.212  -4.262  1.00  0.00    -0.254 NA
ATOM     43  C   UNL     1      -6.150  -7.534  -3.695  1.00  0.00     0.185 C 
ATOM     44  N   UNL     1      -6.943  -8.603  -3.889  1.00  0.00    -0.370 N 
ATOM     45  N   UNL     1      -6.652  -6.720  -2.751  1.00  0.00    -0.370 N 
ATOM     46  H   UNL     1      -7.892  -8.605  -3.556  1.00  0.00     0.159 HD
ATOM     47  H   UNL     1      -6.706  -9.328  -4.560  1.00  0.00     0.159 HD
ATOM     48  H   UNL     1      -6.111  -5.894  -2.537  1.00  0.00     0.159 HD
ATOM     49  H   UNL     1      -7.365  -7.011  -2.106  1.00  0.00     0.159 HD
ENDBRANCH  41  42
ENDBRANCH  40  41
ENDBRANCH  39  40
ENDBRANCH  38  39
ENDBRANCH  36  38
ENDBRANCH   5  34
BRANCH   8  50
ATOM     50  O   UNL     1      -0.613  -9.917  -0.803  1.00  0.00    -0.245 OA
BRANCH  50  51
ATOM     51  S   UNL     1      -2.121 -10.484  -1.028  1.00  0.00     0.397 S 
ATOM     52  O   UNL     1      -2.687 -10.773   0.271  1.00  0.00    -0.169 OA
ATOM     53  O   UNL     1      -2.117 -11.468  -2.090  1.00  0.00    -0.169 OA
BRANCH  51  54
ATOM     54  O   UNL     1      -2.894  -9.180  -1.562  1.00  0.00    -0.264 OA
ATOM     55  H   UNL     1      -2.223  -8.494  -1.758  1.00  0.00     0.236 HD
ENDBRANCH  51  54
ENDBRANCH  50  51
ENDBRANCH   8  50
TORSDOF 19
ENDMDL
MODEL 50
REMARK VINA RESULT:    -5.443      3.730      6.470
REMARK INTER + INTRA:         -15.857
REMARK INTER:                 -12.760
REMARK INTRA:                  -3.097
REMARK UNBOUND:                -4.846
REMARK SMILES CC[C@@H](C)[C@@H](NC(=O)[C@@H](O)Cc1ccc(O)c(Cl)c1)C(=O)N1[C@H](C(=O)NCCCCN=C(N)N)C[C@H]2CC[C@H](OS(=O)(=O)O)C[C@@H]21
REMARK SMILES IDX 22 1 36 2 46 3 35 4 23 5 45 6 37 7 39 8 38 9 20 10 21 11
REMARK SMILES IDX 5 12 6 13 7 14 8 15 9 17 11 18 12 19 17 20 19 21 15 22 14 23
REMARK SMILES IDX 13 24 18 25 16 26 10 28 3 30 4 31 2 32 1 33 24 34 25 35
REMARK SMILES IDX 26 36 27 38 28 39 29 40 30 41 31 42 32 43 33 44 34 45 40 50
REMARK SMILES IDX 41 51 42 52 43 53 44 54
REMARK H PARENT 6 16 16 27 10 29 26 37 33 46 33 47 34 48 34 49 44 55
ROOT
ATOM      1  N   UNL     1       9.595  -5.797   1.408  1.00  0.00    -0.326 N 
ATOM      2  C   UNL     1       8.198  -7.545   0.678  1.00  0.00     0.014 C 
ATOM      3  C   UNL     1       9.665  -7.116   0.772  1.00  0.00     0.091 C 
ATOM      4  C   UNL     1       7.479  -6.228   0.428  1.00  0.00     0.041 C 
ATOM      5  C   UNL     1       8.188  -5.330   1.458  1.00  0.00     0.175 C 
ATOM      6  C   UNL     1      10.447  -8.221   1.479  1.00  0.00     0.059 C 
ATOM      7  C   UNL     1       8.028  -8.684  -0.308  1.00  0.00     0.008 C 
ATOM      8  C   UNL     1       9.893  -9.638   1.219  1.00  0.00     0.143 C 
ATOM      9  C   UNL     1       9.147  -9.731  -0.128  1.00  0.00     0.034 C 
ENDROOT
BRANCH   1  10
ATOM     10  C   UNL     1      10.611  -4.914   1.733  1.00  0.00     0.246 C 
ATOM     11  O   UNL     1      11.209  -4.325   0.826  1.00  0.00    -0.272 OA
BRANCH  10  12
ATOM     12  C   UNL     1      10.948  -4.649   3.229  1.00  0.00     0.174 C 
BRANCH  12  13
ATOM     13  N   UNL     1      11.425  -3.277   3.398  1.00  0.00    -0.342 N 
ATOM     14  C   UNL     1      10.619  -2.183   3.622  1.00  0.00     0.249 C 
ATOM     15  O   UNL     1       9.401  -2.244   3.733  1.00  0.00    -0.272 OA
ATOM     16  H   UNL     1      12.390  -3.048   3.177  1.00  0.00     0.164 HD
BRANCH  14  17
ATOM     17  C   UNL     1      11.419  -0.868   3.739  1.00  0.00     0.207 C 
BRANCH  17  18
ATOM     18  C   UNL     1      10.790   0.222   2.866  1.00  0.00     0.077 C 
BRANCH  18  19
ATOM     19  C   UNL     1       9.606   0.873   3.547  1.00  0.00    -0.043 A 
ATOM     20  C   UNL     1       7.415   1.906   3.421  1.00  0.00     0.083 A 
ATOM     21  C   UNL     1       8.484   1.261   2.798  1.00  0.00     0.028 A 
ATOM     22  C   UNL     1       7.460   2.168   4.790  1.00  0.00     0.134 A 
ATOM     23  C   UNL     1       8.564   1.788   5.544  1.00  0.00     0.048 A 
ATOM     24  C   UNL     1       9.637   1.144   4.923  1.00  0.00     0.008 A 
ATOM     25  Cl  UNL     1       6.045   2.375   2.484  1.00  0.00    -0.080 Cl
BRANCH  22  26
ATOM     26  O   UNL     1       6.440   2.807   5.443  1.00  0.00    -0.506 OA
ATOM     27  H   UNL     1       6.561   2.627   6.394  1.00  0.00     0.293 HD
ENDBRANCH  22  26
ENDBRANCH  18  19
ENDBRANCH  17  18
BRANCH  17  28
ATOM     28  O   UNL     1      12.789  -1.060   3.349  1.00  0.00    -0.383 OA
ATOM     29  H   UNL     1      13.316  -0.426   3.886  1.00  0.00     0.211 HD
ENDBRANCH  17  28
ENDBRANCH  14  17
ENDBRANCH  12  13
BRANCH  12  30
ATOM     30  C   UNL     1      11.935  -5.695   3.815  1.00  0.00     0.018 C 
ATOM     31  C   UNL     1      11.968  -5.615   5.350  1.00  0.00     0.010 C 
BRANCH  30  32
ATOM     32  C   UNL     1      13.370  -5.584   3.245  1.00  0.00     0.002 C 
ATOM     33  C   UNL     1      13.810  -6.741   2.359  1.00  0.00     0.004 C 
ENDBRANCH  30  32
ENDBRANCH  12  30
ENDBRANCH  10  12
ENDBRANCH   1  10
BRANCH   5  34
ATOM     34  C   UNL     1       7.597  -5.516   2.881  1.00  0.00     0.242 C 
ATOM     35  O   UNL     1       7.326  -6.625   3.341  1.00  0.00    -0.273 OA
ATOM     36  N   UNL     1       7.348  -4.350   3.569  1.00  0.00    -0.354 N 
ATOM     37  H   UNL     1       7.481  -3.459   3.090  1.00  0.00     0.163 HD
BRANCH  36  38
ATOM     38  C   UNL     1       7.003  -4.340   4.976  1.00  0.00     0.116 C 
BRANCH  38  39
ATOM     39  C   UNL     1       5.627  -3.708   5.168  1.00  0.00     0.023 C 
BRANCH  39  40
ATOM     40  C   UNL     1       5.545  -2.863   6.435  1.00  0.00     0.026 C 
BRANCH  40  41
ATOM     41  C   UNL     1       4.136  -2.303   6.623  1.00  0.00     0.146 C 
BRANCH  41  42
ATOM     42  N   UNL     1       3.931  -1.173   5.726  1.00  0.00    -0.254 NA
ATOM     43  C   UNL     1       4.307  -0.003   6.085  1.00  0.00     0.185 C 
ATOM     44  N   UNL     1       4.901   0.404   7.222  1.00  0.00    -0.370 N 
ATOM     45  N   UNL     1       4.105   1.026   5.246  1.00  0.00    -0.370 N 
ATOM     46  H   UNL     1       4.917   1.378   7.472  1.00  0.00     0.159 HD
ATOM     47  H   UNL     1       5.139  -0.249   7.962  1.00  0.00     0.159 HD
ATOM     48  H   UNL     1       3.669   0.804   4.361  1.00  0.00     0.159 HD
ATOM     49  H   UNL     1       4.574   1.909   5.345  1.00  0.00     0.159 HD
ENDBRANCH  41  42
ENDBRANCH  40  41
ENDBRANCH  39  40
ENDBRANCH  38  39
ENDBRANCH  36  38
ENDBRANCH   5  34
BRANCH   8  50
ATOM     50  O   UNL     1       8.992 -10.012   2.262  1.00  0.00    -0.245 OA
BRANCH  50  51
ATOM     51  S   UNL     1       9.061 -11.514   2.883  1.00  0.00     0.397 S 
ATOM     52  O   UNL     1       7.988 -12.287   2.300  1.00  0.00    -0.169 OA
ATOM     53  O   UNL     1       9.253 -11.439   4.316  1.00  0.00    -0.169 OA
BRANCH  51  54
ATOM     54  O   UNL     1      10.416 -12.085   2.230  1.00  0.00    -0.264 OA
ATOM     55  H   UNL     1      10.460 -13.043   2.425  1.00  0.00     0.236 HD
ENDBRANCH  51  54
ENDBRANCH  50  51
ENDBRANCH   8  50
TORSDOF 19
ENDMDL
