MODEL 1
REMARK VINA RESULT:    -5.948      0.000      0.000
REMARK INTER + INTRA:         -24.226
REMARK INTER:                 -17.075
REMARK INTRA:                  -7.151
REMARK UNBOUND:                -7.151
REMARK SMILES CCCCCC(=O)N[C@H](CC(=O)O)C(=O)N[C@H]1C(=O)N[C@H](CCCN=C(N)N)C(=O)N[C@@H]2CC[C@H](O)N(C2=O)[C@@H](CC(C)C)C(=O)N(C)[C@@H](Cc2ccccc2)C(=O)N[C@H](C(C)C)C(=O)O[C@@H]1C
REMARK SMILES IDX 30 1 31 2 29 3 32 5 35 6 37 7 34 8 38 9 33 10 39 11 36 12
REMARK SMILES IDX 40 14 41 15 42 16 43 17 44 18 45 19 46 20 47 21 48 22 49 23
REMARK SMILES IDX 50 24 51 25 52 26 56 27 53 28 55 29 54 30 57 31 58 32 59 33
REMARK SMILES IDX 60 35 61 36 62 37 63 38 64 39 65 40 66 41 67 42 68 43 21 45
REMARK SMILES IDX 20 46 18 47 19 48 17 50 16 52 14 53 15 54 9 56 8 57 6 58
REMARK SMILES IDX 7 59 5 61 4 62 3 63 2 64 1 65 10 66 11 67 12 68 13 69 22 71
REMARK SMILES IDX 23 72 24 73 25 74 26 75 27 76 28 77
REMARK H PARENT 31 4 36 13 59 34 20 49 16 55 8 60 13 70 27 78 27 79 28 80
REMARK H PARENT 28 81
REMARK Flexibility Score:  259.900
ROOT
ATOM      1  O   UNL     1      -1.775   9.913  11.449  1.00  0.00    -0.273 OA
ATOM      2  N   UNL     1      -0.566  10.316   9.550  1.00  0.00    -0.343 N 
ATOM      3  C   UNL     1      -1.693  10.431  10.335  1.00  0.00     0.243 C 
ATOM      4  H   UNL     1      -0.528  10.769   8.645  1.00  0.00     0.164 HD
ENDROOT
BRANCH   2   5
ATOM      5  C   UNL     1       0.543   9.464   9.964  1.00  0.00     0.171 C 
ATOM      6  C   UNL     1       3.242   9.126   8.960  1.00  0.00     0.214 C 
ATOM      7  N   UNL     1       2.182   8.290   8.445  1.00  0.00    -0.303 N 
ATOM      8  C   UNL     1       3.018   9.563  10.399  1.00  0.00     0.057 C 
ATOM      9  C   UNL     1       0.863   8.433   8.844  1.00  0.00     0.247 C 
ATOM     10  C   UNL     1       1.700  10.298  10.512  1.00  0.00     0.040 C 
ATOM     11  O   UNL     1      -0.051   7.772   8.335  1.00  0.00    -0.272 OA
BRANCH   6  12
ATOM     12  O   UNL     1       3.353  10.249   8.116  1.00  0.00    -0.373 OA
ATOM     13  H   UNL     1       3.030  11.023   8.624  1.00  0.00     0.213 HD
ENDBRANCH   6  12
BRANCH   7  14
ATOM     14  C   UNL     1       2.534   7.359   7.353  1.00  0.00     0.177 C 
BRANCH  14  15
ATOM     15  C   UNL     1       2.160   5.885   7.601  1.00  0.00     0.038 C 
BRANCH  15  16
ATOM     16  C   UNL     1       1.555   5.049   6.452  1.00  0.00    -0.015 C 
ATOM     17  C   UNL     1       0.205   4.430   6.827  1.00  0.00     0.007 C 
ATOM     18  C   UNL     1       2.515   3.914   6.074  1.00  0.00     0.007 C 
ENDBRANCH  15  16
ENDBRANCH  14  15
BRANCH  14  19
ATOM     19  C   UNL     1       2.463   8.092   5.969  1.00  0.00     0.245 C 
ATOM     20  O   UNL     1       1.330   8.383   5.549  1.00  0.00    -0.272 OA
BRANCH  19  21
ATOM     21  N   UNL     1       3.561   8.322   5.160  1.00  0.00    -0.332 N 
ATOM     22  C   UNL     1       4.085   9.629   4.803  1.00  0.00     0.147 C 
BRANCH  21  23
ATOM     23  C   UNL     1       4.269   7.141   4.594  1.00  0.00     0.178 C 
BRANCH  23  24
ATOM     24  C   UNL     1       4.272   7.068   3.053  1.00  0.00     0.070 C 
BRANCH  24  25
ATOM     25  C   UNL     1       2.934   6.919   2.368  1.00  0.00    -0.045 A 
ATOM     26  C   UNL     1       2.615   7.685   1.240  1.00  0.00     0.004 A 
ATOM     27  C   UNL     1       1.985   6.009   2.860  1.00  0.00     0.004 A 
ATOM     28  C   UNL     1       1.370   7.553   0.623  1.00  0.00     0.000 A 
ATOM     29  C   UNL     1       0.741   5.878   2.241  1.00  0.00     0.000 A 
ATOM     30  C   UNL     1       0.433   6.652   1.125  1.00  0.00     0.000 A 
ENDBRANCH  24  25
ENDBRANCH  23  24
BRANCH  23  31
ATOM     31  C   UNL     1       5.641   6.881   5.261  1.00  0.00     0.243 C 
ATOM     32  O   UNL     1       5.853   7.006   6.465  1.00  0.00    -0.273 OA
ATOM     33  N   UNL     1       6.666   6.673   4.355  1.00  0.00    -0.341 N 
ATOM     34  H   UNL     1       6.427   6.583   3.364  1.00  0.00     0.164 HD
BRANCH  33  35
ATOM     35  C   UNL     1       8.068   6.524   4.755  1.00  0.00     0.194 C 
BRANCH  35  36
ATOM     36  C   UNL     1       9.085   7.102   3.731  1.00  0.00     0.017 C 
ATOM     37  C   UNL     1       9.611   8.476   4.181  1.00  0.00     0.010 C 
ATOM     38  C   UNL     1       8.497   7.273   2.326  1.00  0.00     0.010 C 
ENDBRANCH  35  36
BRANCH  35  39
ATOM     39  C   UNL     1       8.422   5.067   5.165  1.00  0.00     0.329 C 
ATOM     40  O   UNL     1       8.159   4.579   6.258  1.00  0.00    -0.250 OA
BRANCH  39  41
ATOM     41  O   UNL     1       8.982   4.359   4.138  1.00  0.00    -0.458 OA
BRANCH  41  42
ATOM     42  C   UNL     1      10.071   3.473   4.489  1.00  0.00     0.205 CG0
ATOM     43  C   UNL     1      11.333   4.018   3.825  1.00  0.00     0.056 C 
ATOM     44  G   UNL     1       9.721   2.050   4.011  1.00  0.00     0.000 G0
ENDBRANCH  41  42
ENDBRANCH  39  41
ENDBRANCH  35  39
ENDBRANCH  33  35
ENDBRANCH  23  31
ENDBRANCH  21  23
ENDBRANCH  19  21
ENDBRANCH  14  19
ENDBRANCH   7  14
ENDBRANCH   2   5
BRANCH   3  45
ATOM     45  C   UNL     1      -2.830  11.269   9.734  1.00  0.00     0.171 C 
BRANCH  45  46
ATOM     46  N   UNL     1      -3.986  11.034  10.589  1.00  0.00    -0.342 N 
ATOM     47  C   UNL     1      -4.854  12.036  10.944  1.00  0.00     0.247 C 
ATOM     48  O   UNL     1      -4.762  13.185  10.511  1.00  0.00    -0.273 OA
ATOM     49  H   UNL     1      -4.132  10.084  10.924  1.00  0.00     0.164 HD
BRANCH  47  50
ATOM     50  C   UNL     1      -5.940  11.628  11.950  1.00  0.00     0.212 CG0
ATOM     51  G   UNL     1      -7.256  11.446  11.167  1.00  0.00     0.000 G0
BRANCH  50  52
ATOM     52  N   UNL     1      -5.459  10.394  12.564  1.00  0.00    -0.339 N 
ATOM     53  C   UNL     1      -5.273  10.246  13.917  1.00  0.00     0.243 C 
ATOM     54  O   UNL     1      -5.448  11.164  14.714  1.00  0.00    -0.273 OA
ATOM     55  H   UNL     1      -5.190   9.631  11.946  1.00  0.00     0.164 HD
BRANCH  53  56
ATOM     56  C   UNL     1      -4.675   8.883  14.323  1.00  0.00     0.182 C 
BRANCH  56  57
ATOM     57  N   UNL     1      -4.538   8.001  13.160  1.00  0.00    -0.344 N 
ATOM     58  C   UNL     1      -3.402   7.267  12.922  1.00  0.00     0.220 C 
ATOM     59  O   UNL     1      -2.398   7.353  13.622  1.00  0.00    -0.275 OA
ATOM     60  H   UNL     1      -5.378   7.824  12.615  1.00  0.00     0.164 HD
BRANCH  58  61
ATOM     61  C   UNL     1      -3.504   6.380  11.695  1.00  0.00     0.100 C 
BRANCH  61  62
ATOM     62  C   UNL     1      -4.217   7.041  10.515  1.00  0.00     0.010 C 
BRANCH  62  63
ATOM     63  C   UNL     1      -3.324   7.265   9.288  1.00  0.00     0.000 C 
BRANCH  63  64
ATOM     64  C   UNL     1      -3.179   6.040   8.386  1.00  0.00    -0.003 C 
ATOM     65  C   UNL     1      -3.207   6.428   6.915  1.00  0.00     0.004 C 
ENDBRANCH  63  64
ENDBRANCH  62  63
ENDBRANCH  61  62
ENDBRANCH  58  61
ENDBRANCH  56  57
BRANCH  56  66
ATOM     66  C   UNL     1      -5.477   8.233  15.449  1.00  0.00     0.157 C 
BRANCH  66  67
ATOM     67  C   UNL     1      -6.376   7.151  14.922  1.00  0.00     0.305 C 
ATOM     68  O   UNL     1      -6.171   5.948  14.955  1.00  0.00    -0.252 OA
BRANCH  67  69
ATOM     69  O   UNL     1      -7.526   7.641  14.421  1.00  0.00    -0.481 OA
ATOM     70  H   UNL     1      -7.441   8.614  14.505  1.00  0.00     0.296 HD
ENDBRANCH  67  69
ENDBRANCH  66  67
ENDBRANCH  56  66
ENDBRANCH  53  56
ENDBRANCH  50  52
ENDBRANCH  47  50
ENDBRANCH  45  46
BRANCH  45  71
ATOM     71  C   UNL     1      -3.100  10.842   8.287  1.00  0.00     0.037 C 
BRANCH  71  72
ATOM     72  C   UNL     1      -3.216  12.043   7.345  1.00  0.00     0.026 C 
BRANCH  72  73
ATOM     73  C   UNL     1      -1.927  12.863   7.320  1.00  0.00     0.146 C 
BRANCH  73  74
ATOM     74  N   UNL     1      -0.844  11.979   6.900  1.00  0.00    -0.254 NA
ATOM     75  C   UNL     1      -0.378  12.125   5.715  1.00  0.00     0.185 C 
ATOM     76  N   UNL     1       0.621  11.328   5.300  1.00  0.00    -0.370 N 
ATOM     77  N   UNL     1      -0.748  12.999   4.763  1.00  0.00    -0.370 N 
ATOM     78  H   UNL     1       0.955  10.635   5.955  1.00  0.00     0.159 HD
ATOM     79  H   UNL     1       0.935  11.286   4.347  1.00  0.00     0.159 HD
ATOM     80  H   UNL     1      -1.486  13.665   4.936  1.00  0.00     0.159 HD
ATOM     81  H   UNL     1      -0.229  13.098   3.906  1.00  0.00     0.159 HD
ENDBRANCH  73  74
ENDBRANCH  72  73
ENDBRANCH  71  72
ENDBRANCH  45  71
ENDBRANCH   3  45
TORSDOF 20
ENDMDL
MODEL 2
REMARK VINA RESULT:    -5.853      5.609      9.278
REMARK INTER + INTRA:         -23.954
REMARK INTER:                 -18.190
REMARK INTRA:                  -5.764
REMARK UNBOUND:                -7.151
REMARK SMILES CCCCCC(=O)N[C@H](CC(=O)O)C(=O)N[C@H]1C(=O)N[C@H](CCCN=C(N)N)C(=O)N[C@@H]2CC[C@H](O)N(C2=O)[C@@H](CC(C)C)C(=O)N(C)[C@@H](Cc2ccccc2)C(=O)N[C@H](C(C)C)C(=O)O[C@@H]1C
REMARK SMILES IDX 30 1 31 2 29 3 32 5 35 6 37 7 34 8 38 9 33 10 39 11 36 12
REMARK SMILES IDX 40 14 41 15 42 16 43 17 44 18 45 19 46 20 47 21 48 22 49 23
REMARK SMILES IDX 50 24 51 25 52 26 56 27 53 28 55 29 54 30 57 31 58 32 59 33
REMARK SMILES IDX 60 35 61 36 62 37 63 38 64 39 65 40 66 41 67 42 68 43 21 45
REMARK SMILES IDX 20 46 18 47 19 48 17 50 16 52 14 53 15 54 9 56 8 57 6 58
REMARK SMILES IDX 7 59 5 61 4 62 3 63 2 64 1 65 10 66 11 67 12 68 13 69 22 71
REMARK SMILES IDX 23 72 24 73 25 74 26 75 27 76 28 77
REMARK H PARENT 31 4 36 13 59 34 20 49 16 55 8 60 13 70 27 78 27 79 28 80
REMARK H PARENT 28 81
REMARK Flexibility Score:  259.900
ROOT
ATOM      1  O   UNL     1      -3.478   8.639  11.433  1.00  0.00    -0.273 OA
ATOM      2  N   UNL     1      -4.546   6.617  11.397  1.00  0.00    -0.343 N 
ATOM      3  C   UNL     1      -4.368   7.903  11.860  1.00  0.00     0.243 C 
ATOM      4  H   UNL     1      -5.298   6.045  11.761  1.00  0.00     0.164 HD
ENDROOT
BRANCH   2   5
ATOM      5  C   UNL     1      -3.599   6.029  10.456  1.00  0.00     0.171 C 
ATOM      6  C   UNL     1      -3.570   3.515   9.011  1.00  0.00     0.214 C 
ATOM      7  N   UNL     1      -2.943   3.596  10.310  1.00  0.00    -0.303 N 
ATOM      8  C   UNL     1      -3.540   4.829   8.247  1.00  0.00     0.057 C 
ATOM      9  C   UNL     1      -2.965   4.750  11.075  1.00  0.00     0.247 C 
ATOM     10  C   UNL     1      -4.213   5.912   9.062  1.00  0.00     0.040 C 
ATOM     11  O   UNL     1      -2.501   4.786  12.222  1.00  0.00    -0.272 OA
BRANCH   6  12
ATOM     12  O   UNL     1      -4.898   3.086   9.201  1.00  0.00    -0.373 OA
ATOM     13  H   UNL     1      -4.857   2.216   9.654  1.00  0.00     0.213 HD
ENDBRANCH   6  12
BRANCH   7  14
ATOM     14  C   UNL     1      -2.394   2.342  10.868  1.00  0.00     0.177 C 
BRANCH  14  15
ATOM     15  C   UNL     1      -3.441   1.355  11.419  1.00  0.00     0.038 C 
BRANCH  15  16
ATOM     16  C   UNL     1      -4.091   1.624  12.794  1.00  0.00    -0.015 C 
ATOM     17  C   UNL     1      -3.093   1.490  13.948  1.00  0.00     0.007 C 
ATOM     18  C   UNL     1      -5.235   0.629  13.031  1.00  0.00     0.007 C 
ENDBRANCH  15  16
ENDBRANCH  14  15
BRANCH  14  19
ATOM     19  C   UNL     1      -1.078   1.942  10.114  1.00  0.00     0.245 C 
ATOM     20  O   UNL     1      -0.303   2.865   9.814  1.00  0.00    -0.272 OA
BRANCH  19  21
ATOM     21  N   UNL     1      -0.800   0.659   9.678  1.00  0.00    -0.332 N 
ATOM     22  C   UNL     1      -0.950   0.181   8.315  1.00  0.00     0.147 C 
BRANCH  21  23
ATOM     23  C   UNL     1      -0.315  -0.328  10.682  1.00  0.00     0.178 C 
BRANCH  23  24
ATOM     24  C   UNL     1      -1.241  -1.544  10.890  1.00  0.00     0.070 C 
BRANCH  24  25
ATOM     25  C   UNL     1      -1.745  -1.793  12.293  1.00  0.00    -0.045 A 
ATOM     26  C   UNL     1      -0.940  -1.515  13.405  1.00  0.00     0.004 A 
ATOM     27  C   UNL     1      -3.032  -2.312  12.500  1.00  0.00     0.004 A 
ATOM     28  C   UNL     1      -1.407  -1.763  14.697  1.00  0.00     0.000 A 
ATOM     29  C   UNL     1      -3.498  -2.559  13.793  1.00  0.00     0.000 A 
ATOM     30  C   UNL     1      -2.684  -2.287  14.890  1.00  0.00     0.000 A 
ENDBRANCH  24  25
ENDBRANCH  23  24
BRANCH  23  31
ATOM     31  C   UNL     1       1.185  -0.672  10.516  1.00  0.00     0.243 C 
ATOM     32  O   UNL     1       2.069   0.168  10.370  1.00  0.00    -0.273 OA
ATOM     33  N   UNL     1       1.428  -2.026  10.358  1.00  0.00    -0.341 N 
ATOM     34  H   UNL     1       0.649  -2.677  10.484  1.00  0.00     0.164 HD
BRANCH  33  35
ATOM     35  C   UNL     1       2.757  -2.570  10.068  1.00  0.00     0.194 C 
BRANCH  35  36
ATOM     36  C   UNL     1       2.739  -4.009   9.478  1.00  0.00     0.017 C 
ATOM     37  C   UNL     1       3.884  -4.214   8.471  1.00  0.00     0.010 C 
ATOM     38  C   UNL     1       1.429  -4.351   8.759  1.00  0.00     0.010 C 
ENDBRANCH  35  36
BRANCH  35  39
ATOM     39  C   UNL     1       3.729  -2.450  11.275  1.00  0.00     0.329 C 
ATOM     40  O   UNL     1       3.461  -2.825  12.411  1.00  0.00    -0.250 OA
BRANCH  39  41
ATOM     41  O   UNL     1       4.951  -1.958  10.911  1.00  0.00    -0.458 OA
BRANCH  41  42
ATOM     42  C   UNL     1       6.096  -2.501  11.612  1.00  0.00     0.205 CG0
ATOM     43  C   UNL     1       6.657  -1.389  12.496  1.00  0.00     0.056 C 
ATOM     44  G   UNL     1       7.118  -3.001  10.572  1.00  0.00     0.000 G0
ENDBRANCH  41  42
ENDBRANCH  39  41
ENDBRANCH  35  39
ENDBRANCH  33  35
ENDBRANCH  23  31
ENDBRANCH  21  23
ENDBRANCH  19  21
ENDBRANCH  14  19
ENDBRANCH   7  14
ENDBRANCH   2   5
BRANCH   3  45
ATOM     45  C   UNL     1      -5.370   8.361  12.928  1.00  0.00     0.171 C 
BRANCH  45  46
ATOM     46  N   UNL     1      -5.735   9.724  12.566  1.00  0.00    -0.342 N 
ATOM     47  C   UNL     1      -7.031  10.174  12.602  1.00  0.00     0.247 C 
ATOM     48  O   UNL     1      -7.967   9.484  13.010  1.00  0.00    -0.273 OA
ATOM     49  H   UNL     1      -4.983  10.347  12.276  1.00  0.00     0.164 HD
BRANCH  47  50
ATOM     50  C   UNL     1      -7.241  11.598  12.068  1.00  0.00     0.212 CG0
ATOM     51  G   UNL     1      -7.794  12.454  13.225  1.00  0.00     0.000 G0
BRANCH  50  52
ATOM     52  N   UNL     1      -5.928  12.036  11.603  1.00  0.00    -0.339 N 
ATOM     53  C   UNL     1      -5.747  12.859  10.517  1.00  0.00     0.243 C 
ATOM     54  O   UNL     1      -6.679  13.248   9.819  1.00  0.00    -0.273 OA
ATOM     55  H   UNL     1      -5.108  11.657  12.073  1.00  0.00     0.164 HD
BRANCH  53  56
ATOM     56  C   UNL     1      -4.268  13.115  10.164  1.00  0.00     0.182 C 
BRANCH  56  57
ATOM     57  N   UNL     1      -4.087  13.237   8.714  1.00  0.00    -0.344 N 
ATOM     58  C   UNL     1      -3.786  12.160   7.916  1.00  0.00     0.220 C 
ATOM     59  O   UNL     1      -3.577  11.038   8.367  1.00  0.00    -0.275 OA
ATOM     60  H   UNL     1      -4.350  14.122   8.290  1.00  0.00     0.164 HD
BRANCH  58  61
ATOM     61  C   UNL     1      -3.703  12.508   6.441  1.00  0.00     0.100 C 
BRANCH  61  62
ATOM     62  C   UNL     1      -2.279  12.770   5.950  1.00  0.00     0.010 C 
BRANCH  62  63
ATOM     63  C   UNL     1      -1.235  12.862   7.070  1.00  0.00     0.000 C 
BRANCH  63  64
ATOM     64  C   UNL     1      -0.195  11.743   7.051  1.00  0.00    -0.003 C 
ATOM     65  C   UNL     1       0.500  11.654   5.700  1.00  0.00     0.004 C 
ENDBRANCH  63  64
ENDBRANCH  62  63
ENDBRANCH  61  62
ENDBRANCH  58  61
ENDBRANCH  56  57
BRANCH  56  66
ATOM     66  C   UNL     1      -3.354  12.051  10.771  1.00  0.00     0.157 C 
BRANCH  66  67
ATOM     67  C   UNL     1      -2.496  12.629  11.859  1.00  0.00     0.305 C 
ATOM     68  O   UNL     1      -1.320  12.379  12.075  1.00  0.00    -0.252 OA
BRANCH  67  69
ATOM     69  O   UNL     1      -3.152  13.544  12.598  1.00  0.00    -0.481 OA
ATOM     70  H   UNL     1      -3.607  13.023  13.294  1.00  0.00     0.296 HD
ENDBRANCH  67  69
ENDBRANCH  66  67
ENDBRANCH  56  66
ENDBRANCH  53  56
ENDBRANCH  50  52
ENDBRANCH  47  50
ENDBRANCH  45  46
BRANCH  45  71
ATOM     71  C   UNL     1      -4.732   8.297  14.320  1.00  0.00     0.037 C 
BRANCH  71  72
ATOM     72  C   UNL     1      -4.102   6.931  14.602  1.00  0.00     0.026 C 
BRANCH  72  73
ATOM     73  C   UNL     1      -2.675   7.070  15.128  1.00  0.00     0.146 C 
BRANCH  73  74
ATOM     74  N   UNL     1      -2.165   8.369  14.699  1.00  0.00    -0.254 NA
ATOM     75  C   UNL     1      -1.404   8.402  13.668  1.00  0.00     0.185 C 
ATOM     76  N   UNL     1      -0.920   9.582  13.247  1.00  0.00    -0.370 N 
ATOM     77  N   UNL     1      -0.987   7.386  12.892  1.00  0.00    -0.370 N 
ATOM     78  H   UNL     1      -1.180  10.399  13.781  1.00  0.00     0.159 HD
ATOM     79  H   UNL     1      -0.209   9.670  12.543  1.00  0.00     0.159 HD
ATOM     80  H   UNL     1      -1.275   6.439  13.087  1.00  0.00     0.159 HD
ATOM     81  H   UNL     1      -0.482   7.548  12.037  1.00  0.00     0.159 HD
ENDBRANCH  73  74
ENDBRANCH  72  73
ENDBRANCH  71  72
ENDBRANCH  45  71
ENDBRANCH   3  45
TORSDOF 20
ENDMDL
MODEL 3
REMARK VINA RESULT:    -5.812      3.362      5.967
REMARK INTER + INTRA:         -23.834
REMARK INTER:                 -16.641
REMARK INTRA:                  -7.193
REMARK UNBOUND:                -7.151
REMARK SMILES CCCCCC(=O)N[C@H](CC(=O)O)C(=O)N[C@H]1C(=O)N[C@H](CCCN=C(N)N)C(=O)N[C@@H]2CC[C@H](O)N(C2=O)[C@@H](CC(C)C)C(=O)N(C)[C@@H](Cc2ccccc2)C(=O)N[C@H](C(C)C)C(=O)O[C@@H]1C
REMARK SMILES IDX 30 1 31 2 29 3 32 5 35 6 37 7 34 8 38 9 33 10 39 11 36 12
REMARK SMILES IDX 40 14 41 15 42 16 43 17 44 18 45 19 46 20 47 21 48 22 49 23
REMARK SMILES IDX 50 24 51 25 52 26 56 27 53 28 55 29 54 30 57 31 58 32 59 33
REMARK SMILES IDX 60 35 61 36 62 37 63 38 64 39 65 40 66 41 67 42 68 43 21 45
REMARK SMILES IDX 20 46 18 47 19 48 17 50 16 52 14 53 15 54 9 56 8 57 6 58
REMARK SMILES IDX 7 59 5 61 4 62 3 63 2 64 1 65 10 66 11 67 12 68 13 69 22 71
REMARK SMILES IDX 23 72 24 73 25 74 26 75 27 76 28 77
REMARK H PARENT 31 4 36 13 59 34 20 49 16 55 8 60 13 70 27 78 27 79 28 80
REMARK H PARENT 28 81
REMARK Flexibility Score:  259.900
ROOT
ATOM      1  O   UNL     1       0.110   6.838   9.407  1.00  0.00    -0.273 OA
ATOM      2  N   UNL     1      -0.430   7.659   7.341  1.00  0.00    -0.343 N 
ATOM      3  C   UNL     1      -0.681   6.902   8.465  1.00  0.00     0.243 C 
ATOM      4  H   UNL     1      -1.110   7.700   6.593  1.00  0.00     0.164 HD
ENDROOT
BRANCH   2   5
ATOM      5  C   UNL     1       0.855   8.329   7.169  1.00  0.00     0.171 C 
ATOM      6  C   UNL     1       2.065   9.710   4.926  1.00  0.00     0.214 C 
ATOM      7  N   UNL     1       2.300   8.296   5.100  1.00  0.00    -0.303 N 
ATOM      8  C   UNL     1       1.837  10.447   6.236  1.00  0.00     0.057 C 
ATOM      9  C   UNL     1       1.712   7.565   6.119  1.00  0.00     0.247 C 
ATOM     10  C   UNL     1       0.667   9.833   6.973  1.00  0.00     0.040 C 
ATOM     11  O   UNL     1       1.848   6.338   6.210  1.00  0.00    -0.272 OA
BRANCH   6  12
ATOM     12  O   UNL     1       0.952   9.861   4.076  1.00  0.00    -0.373 OA
ATOM     13  H   UNL     1       0.803  10.824   3.966  1.00  0.00     0.213 HD
ENDBRANCH   6  12
BRANCH   7  14
ATOM     14  C   UNL     1       3.085   7.613   4.050  1.00  0.00     0.177 C 
BRANCH  14  15
ATOM     15  C   UNL     1       2.253   6.856   2.996  1.00  0.00     0.038 C 
BRANCH  15  16
ATOM     16  C   UNL     1       2.678   5.433   2.571  1.00  0.00    -0.015 C 
ATOM     17  C   UNL     1       3.282   4.633   3.728  1.00  0.00     0.007 C 
ATOM     18  C   UNL     1       3.720   5.516   1.448  1.00  0.00     0.007 C 
ENDBRANCH  15  16
ENDBRANCH  14  15
BRANCH  14  19
ATOM     19  C   UNL     1       4.411   8.399   3.765  1.00  0.00     0.245 C 
ATOM     20  O   UNL     1       4.473   9.021   2.692  1.00  0.00    -0.272 OA
BRANCH  19  21
ATOM     21  N   UNL     1       5.531   8.342   4.576  1.00  0.00    -0.332 N 
ATOM     22  C   UNL     1       5.601   8.811   5.949  1.00  0.00     0.147 C 
BRANCH  21  23
ATOM     23  C   UNL     1       6.777   7.765   4.002  1.00  0.00     0.178 C 
BRANCH  23  24
ATOM     24  C   UNL     1       6.693   6.264   3.655  1.00  0.00     0.070 C 
BRANCH  24  25
ATOM     25  C   UNL     1       7.096   5.284   4.733  1.00  0.00    -0.045 A 
ATOM     26  C   UNL     1       6.222   4.973   5.782  1.00  0.00     0.004 A 
ATOM     27  C   UNL     1       8.359   4.675   4.699  1.00  0.00     0.004 A 
ATOM     28  C   UNL     1       6.608   4.079   6.783  1.00  0.00     0.000 A 
ATOM     29  C   UNL     1       8.743   3.781   5.700  1.00  0.00     0.000 A 
ATOM     30  C   UNL     1       7.868   3.486   6.743  1.00  0.00     0.000 A 
ENDBRANCH  24  25
ENDBRANCH  23  24
BRANCH  23  31
ATOM     31  C   UNL     1       7.404   8.654   2.902  1.00  0.00     0.243 C 
ATOM     32  O   UNL     1       7.848   9.782   3.101  1.00  0.00    -0.273 OA
ATOM     33  N   UNL     1       7.254   8.141   1.625  1.00  0.00    -0.341 N 
ATOM     34  H   UNL     1       6.872   7.198   1.522  1.00  0.00     0.164 HD
BRANCH  33  35
ATOM     35  C   UNL     1       7.664   8.867   0.420  1.00  0.00     0.194 C 
BRANCH  35  36
ATOM     36  C   UNL     1       6.522   9.080  -0.613  1.00  0.00     0.017 C 
ATOM     37  C   UNL     1       5.911  10.486  -0.490  1.00  0.00     0.010 C 
ATOM     38  C   UNL     1       5.379   8.068  -0.466  1.00  0.00     0.010 C 
ENDBRANCH  35  36
BRANCH  35  39
ATOM     39  C   UNL     1       8.937   8.263  -0.238  1.00  0.00     0.329 C 
ATOM     40  O   UNL     1       9.960   7.983   0.376  1.00  0.00    -0.250 OA
BRANCH  39  41
ATOM     41  O   UNL     1       8.758   7.997  -1.568  1.00  0.00    -0.458 OA
BRANCH  41  42
ATOM     42  C   UNL     1       9.778   8.497  -2.465  1.00  0.00     0.205 CG0
ATOM     43  C   UNL     1       9.523   9.991  -2.656  1.00  0.00     0.056 C 
ATOM     44  G   UNL     1       9.698   7.711  -3.788  1.00  0.00     0.000 G0
ENDBRANCH  41  42
ENDBRANCH  39  41
ENDBRANCH  35  39
ENDBRANCH  33  35
ENDBRANCH  23  31
ENDBRANCH  21  23
ENDBRANCH  19  21
ENDBRANCH  14  19
ENDBRANCH   7  14
ENDBRANCH   2   5
BRANCH   3  45
ATOM     45  C   UNL     1      -2.025   6.162   8.472  1.00  0.00     0.171 C 
BRANCH  45  46
ATOM     46  N   UNL     1      -2.691   6.564   9.704  1.00  0.00    -0.342 N 
ATOM     47  C   UNL     1      -3.940   7.132   9.715  1.00  0.00     0.247 C 
ATOM     48  O   UNL     1      -4.617   7.276   8.697  1.00  0.00    -0.273 OA
ATOM     49  H   UNL     1      -2.188   6.411  10.576  1.00  0.00     0.164 HD
BRANCH  47  50
ATOM     50  C   UNL     1      -4.427   7.605  11.092  1.00  0.00     0.212 CG0
ATOM     51  G   UNL     1      -5.006   6.381  11.828  1.00  0.00     0.000 G0
BRANCH  50  52
ATOM     52  N   UNL     1      -3.251   8.171  11.748  1.00  0.00    -0.339 N 
ATOM     53  C   UNL     1      -3.050   9.520  11.907  1.00  0.00     0.243 C 
ATOM     54  O   UNL     1      -3.824  10.362  11.459  1.00  0.00    -0.273 OA
ATOM     55  H   UNL     1      -2.519   7.527  12.043  1.00  0.00     0.164 HD
BRANCH  53  56
ATOM     56  C   UNL     1      -1.696   9.881  12.551  1.00  0.00     0.182 C 
BRANCH  56  57
ATOM     57  N   UNL     1      -0.707  10.244  11.531  1.00  0.00    -0.344 N 
ATOM     58  C   UNL     1      -0.426  11.550  11.210  1.00  0.00     0.220 C 
ATOM     59  O   UNL     1      -1.031  12.498  11.699  1.00  0.00    -0.275 OA
ATOM     60  H   UNL     1      -0.115   9.497  11.178  1.00  0.00     0.164 HD
BRANCH  58  61
ATOM     61  C   UNL     1       0.671  11.691  10.171  1.00  0.00     0.100 C 
BRANCH  61  62
ATOM     62  C   UNL     1       2.045  11.234  10.660  1.00  0.00     0.010 C 
BRANCH  62  63
ATOM     63  C   UNL     1       2.486   9.871  10.111  1.00  0.00     0.000 C 
BRANCH  63  64
ATOM     64  C   UNL     1       3.921   9.486  10.467  1.00  0.00    -0.003 C 
ATOM     65  C   UNL     1       4.407  10.236  11.699  1.00  0.00     0.004 C 
ENDBRANCH  63  64
ENDBRANCH  62  63
ENDBRANCH  61  62
ENDBRANCH  58  61
ENDBRANCH  56  57
BRANCH  56  66
ATOM     66  C   UNL     1      -1.197   8.765  13.467  1.00  0.00     0.157 C 
BRANCH  66  67
ATOM     67  C   UNL     1      -0.181   7.905  12.772  1.00  0.00     0.305 C 
ATOM     68  O   UNL     1       1.034   8.018  12.824  1.00  0.00    -0.252 OA
BRANCH  67  69
ATOM     69  O   UNL     1      -0.751   6.900  12.079  1.00  0.00    -0.481 OA
ATOM     70  H   UNL     1      -0.952   7.285  11.200  1.00  0.00     0.296 HD
ENDBRANCH  67  69
ENDBRANCH  66  67
ENDBRANCH  56  66
ENDBRANCH  53  56
ENDBRANCH  50  52
ENDBRANCH  47  50
ENDBRANCH  45  46
BRANCH  45  71
ATOM     71  C   UNL     1      -1.801   4.647   8.419  1.00  0.00     0.037 C 
BRANCH  71  72
ATOM     72  C   UNL     1      -1.915   4.097   6.995  1.00  0.00     0.026 C 
BRANCH  72  73
ATOM     73  C   UNL     1      -3.242   3.372   6.780  1.00  0.00     0.146 C 
BRANCH  73  74
ATOM     74  N   UNL     1      -4.317   4.340   6.974  1.00  0.00    -0.254 NA
ATOM     75  C   UNL     1      -4.865   4.844   5.930  1.00  0.00     0.185 C 
ATOM     76  N   UNL     1      -5.858   5.736   6.076  1.00  0.00    -0.370 N 
ATOM     77  N   UNL     1      -4.591   4.608   4.635  1.00  0.00    -0.370 N 
ATOM     78  H   UNL     1      -6.122   5.976   7.021  1.00  0.00     0.159 HD
ATOM     79  H   UNL     1      -6.233   6.276   5.316  1.00  0.00     0.159 HD
ATOM     80  H   UNL     1      -3.869   3.955   4.373  1.00  0.00     0.159 HD
ATOM     81  H   UNL     1      -5.169   4.977   3.897  1.00  0.00     0.159 HD
ENDBRANCH  73  74
ENDBRANCH  72  73
ENDBRANCH  71  72
ENDBRANCH  45  71
ENDBRANCH   3  45
TORSDOF 20
ENDMDL
MODEL 4
REMARK VINA RESULT:    -5.810      7.519     10.634
REMARK INTER + INTRA:         -23.831
REMARK INTER:                 -16.562
REMARK INTRA:                  -7.269
REMARK UNBOUND:                -7.151
REMARK SMILES CCCCCC(=O)N[C@H](CC(=O)O)C(=O)N[C@H]1C(=O)N[C@H](CCCN=C(N)N)C(=O)N[C@@H]2CC[C@H](O)N(C2=O)[C@@H](CC(C)C)C(=O)N(C)[C@@H](Cc2ccccc2)C(=O)N[C@H](C(C)C)C(=O)O[C@@H]1C
REMARK SMILES IDX 30 1 31 2 29 3 32 5 35 6 37 7 34 8 38 9 33 10 39 11 36 12
REMARK SMILES IDX 40 14 41 15 42 16 43 17 44 18 45 19 46 20 47 21 48 22 49 23
REMARK SMILES IDX 50 24 51 25 52 26 56 27 53 28 55 29 54 30 57 31 58 32 59 33
REMARK SMILES IDX 60 35 61 36 62 37 63 38 64 39 65 40 66 41 67 42 68 43 21 45
REMARK SMILES IDX 20 46 18 47 19 48 17 50 16 52 14 53 15 54 9 56 8 57 6 58
REMARK SMILES IDX 7 59 5 61 4 62 3 63 2 64 1 65 10 66 11 67 12 68 13 69 22 71
REMARK SMILES IDX 23 72 24 73 25 74 26 75 27 76 28 77
REMARK H PARENT 31 4 36 13 59 34 20 49 16 55 8 60 13 70 27 78 27 79 28 80
REMARK H PARENT 28 81
REMARK Flexibility Score:  259.900
ROOT
ATOM      1  O   UNL     1      -4.583   3.945  11.636  1.00  0.00    -0.273 OA
ATOM      2  N   UNL     1      -2.769   3.011  12.668  1.00  0.00    -0.343 N 
ATOM      3  C   UNL     1      -3.489   4.081  12.184  1.00  0.00     0.243 C 
ATOM      4  H   UNL     1      -1.879   3.162  13.127  1.00  0.00     0.164 HD
ENDROOT
BRANCH   2   5
ATOM      5  C   UNL     1      -3.227   1.644  12.442  1.00  0.00     0.171 C 
ATOM      6  C   UNL     1      -1.907  -0.929  12.644  1.00  0.00     0.214 C 
ATOM      7  N   UNL     1      -1.904  -0.226  11.382  1.00  0.00    -0.303 N 
ATOM      8  C   UNL     1      -3.136  -0.639  13.492  1.00  0.00     0.057 C 
ATOM      9  C   UNL     1      -2.472   1.029  11.230  1.00  0.00     0.247 C 
ATOM     10  C   UNL     1      -3.243   0.849  13.746  1.00  0.00     0.040 C 
ATOM     11  O   UNL     1      -2.390   1.661  10.169  1.00  0.00    -0.272 OA
BRANCH   6  12
ATOM     12  O   UNL     1      -0.735  -0.571  13.338  1.00  0.00    -0.373 OA
ATOM     13  H   UNL     1      -0.029  -0.451  12.668  1.00  0.00     0.213 HD
ENDBRANCH   6  12
BRANCH   7  14
ATOM     14  C   UNL     1      -1.136  -0.836  10.277  1.00  0.00     0.177 C 
BRANCH  14  15
ATOM     15  C   UNL     1       0.385  -0.595  10.323  1.00  0.00     0.038 C 
BRANCH  15  16
ATOM     16  C   UNL     1       1.105  -0.028   9.080  1.00  0.00    -0.015 C 
ATOM     17  C   UNL     1       1.219  -1.057   7.951  1.00  0.00     0.007 C 
ATOM     18  C   UNL     1       2.519   0.427   9.461  1.00  0.00     0.007 C 
ENDBRANCH  15  16
ENDBRANCH  14  15
BRANCH  14  19
ATOM     19  C   UNL     1      -1.830  -2.157   9.796  1.00  0.00     0.245 C 
ATOM     20  O   UNL     1      -2.818  -2.032   9.054  1.00  0.00    -0.272 OA
BRANCH  19  21
ATOM     21  N   UNL     1      -1.476  -3.420  10.238  1.00  0.00    -0.332 N 
ATOM     22  C   UNL     1      -2.277  -4.264  11.106  1.00  0.00     0.147 C 
BRANCH  21  23
ATOM     23  C   UNL     1      -0.160  -3.965   9.804  1.00  0.00     0.178 C 
BRANCH  23  24
ATOM     24  C   UNL     1       0.813  -4.296  10.954  1.00  0.00     0.070 C 
BRANCH  24  25
ATOM     25  C   UNL     1       2.152  -3.595  10.946  1.00  0.00    -0.045 A 
ATOM     26  C   UNL     1       2.599  -2.889  12.070  1.00  0.00     0.004 A 
ATOM     27  C   UNL     1       2.966  -3.639   9.805  1.00  0.00     0.004 A 
ATOM     28  C   UNL     1       3.830  -2.230  12.049  1.00  0.00     0.000 A 
ATOM     29  C   UNL     1       4.197  -2.981   9.785  1.00  0.00     0.000 A 
ATOM     30  C   UNL     1       4.626  -2.274  10.907  1.00  0.00     0.000 A 
ENDBRANCH  24  25
ENDBRANCH  23  24
BRANCH  23  31
ATOM     31  C   UNL     1      -0.290  -5.065   8.723  1.00  0.00     0.243 C 
ATOM     32  O   UNL     1      -1.125  -5.048   7.823  1.00  0.00    -0.273 OA
ATOM     33  N   UNL     1       0.503  -6.174   8.966  1.00  0.00    -0.341 N 
ATOM     34  H   UNL     1       1.176  -6.131   9.735  1.00  0.00     0.164 HD
BRANCH  33  35
ATOM     35  C   UNL     1       0.456  -7.385   8.141  1.00  0.00     0.194 C 
BRANCH  35  36
ATOM     36  C   UNL     1      -0.354  -8.552   8.773  1.00  0.00     0.017 C 
ATOM     37  C   UNL     1       0.578  -9.616   9.378  1.00  0.00     0.010 C 
ATOM     38  C   UNL     1      -1.272  -9.263   7.770  1.00  0.00     0.010 C 
ENDBRANCH  35  36
BRANCH  35  39
ATOM     39  C   UNL     1       1.865  -7.844   7.672  1.00  0.00     0.329 C 
ATOM     40  O   UNL     1       2.904  -7.589   8.270  1.00  0.00    -0.250 OA
BRANCH  39  41
ATOM     41  O   UNL     1       1.809  -8.639   6.561  1.00  0.00    -0.458 OA
BRANCH  41  42
ATOM     42  C   UNL     1       2.908  -8.514   5.627  1.00  0.00     0.205 CG0
ATOM     43  C   UNL     1       2.616  -7.304   4.742  1.00  0.00     0.056 C 
ATOM     44  G   UNL     1       3.018  -9.822   4.819  1.00  0.00     0.000 G0
ENDBRANCH  41  42
ENDBRANCH  39  41
ENDBRANCH  35  39
ENDBRANCH  33  35
ENDBRANCH  23  31
ENDBRANCH  21  23
ENDBRANCH  19  21
ENDBRANCH  14  19
ENDBRANCH   7  14
ENDBRANCH   2   5
BRANCH   3  45
ATOM     45  C   UNL     1      -2.842   5.457  12.393  1.00  0.00     0.171 C 
BRANCH  45  46
ATOM     46  N   UNL     1      -3.943   6.373  12.660  1.00  0.00    -0.342 N 
ATOM     47  C   UNL     1      -4.118   6.979  13.878  1.00  0.00     0.247 C 
ATOM     48  O   UNL     1      -3.322   6.851  14.809  1.00  0.00    -0.273 OA
ATOM     49  H   UNL     1      -4.595   6.552  11.898  1.00  0.00     0.164 HD
BRANCH  47  50
ATOM     50  C   UNL     1      -5.401   7.812  14.012  1.00  0.00     0.212 CG0
ATOM     51  G   UNL     1      -5.797   7.825  15.502  1.00  0.00     0.000 G0
BRANCH  50  52
ATOM     52  N   UNL     1      -5.062   9.135  13.493  1.00  0.00    -0.339 N 
ATOM     53  C   UNL     1      -5.264   9.508  12.187  1.00  0.00     0.243 C 
ATOM     54  O   UNL     1      -5.699   8.736  11.337  1.00  0.00    -0.273 OA
ATOM     55  H   UNL     1      -4.595   9.784  14.123  1.00  0.00     0.164 HD
BRANCH  53  56
ATOM     56  C   UNL     1      -4.749  10.923  11.852  1.00  0.00     0.182 C 
BRANCH  56  57
ATOM     57  N   UNL     1      -3.689  10.871  10.840  1.00  0.00    -0.344 N 
ATOM     58  C   UNL     1      -3.709  11.656   9.713  1.00  0.00     0.220 C 
ATOM     59  O   UNL     1      -4.645  12.397   9.437  1.00  0.00    -0.275 OA
ATOM     60  H   UNL     1      -2.850  10.349  11.078  1.00  0.00     0.164 HD
BRANCH  58  61
ATOM     61  C   UNL     1      -2.483  11.480   8.836  1.00  0.00     0.100 C 
BRANCH  61  62
ATOM     62  C   UNL     1      -1.272  12.291   9.299  1.00  0.00     0.010 C 
BRANCH  62  63
ATOM     63  C   UNL     1       0.066  11.801   8.731  1.00  0.00     0.000 C 
BRANCH  63  64
ATOM     64  C   UNL     1       0.953  11.083   9.748  1.00  0.00    -0.003 C 
ATOM     65  C   UNL     1       1.252  11.970  10.947  1.00  0.00     0.004 C 
ENDBRANCH  63  64
ENDBRANCH  62  63
ENDBRANCH  61  62
ENDBRANCH  58  61
ENDBRANCH  56  57
BRANCH  56  66
ATOM     66  C   UNL     1      -4.310  11.671  13.109  1.00  0.00     0.157 C 
BRANCH  66  67
ATOM     67  C   UNL     1      -3.059  12.463  12.862  1.00  0.00     0.305 C 
ATOM     68  O   UNL     1      -2.988  13.611  12.450  1.00  0.00    -0.252 OA
BRANCH  67  69
ATOM     69  O   UNL     1      -1.947  11.782  13.198  1.00  0.00    -0.481 OA
ATOM     70  H   UNL     1      -1.948  10.996  12.611  1.00  0.00     0.296 HD
ENDBRANCH  67  69
ENDBRANCH  66  67
ENDBRANCH  56  66
ENDBRANCH  53  56
ENDBRANCH  50  52
ENDBRANCH  47  50
ENDBRANCH  45  46
BRANCH  45  71
ATOM     71  C   UNL     1      -2.051   5.871  11.147  1.00  0.00     0.037 C 
BRANCH  71  72
ATOM     72  C   UNL     1      -2.534   7.206  10.576  1.00  0.00     0.026 C 
BRANCH  72  73
ATOM     73  C   UNL     1      -1.528   8.325  10.841  1.00  0.00     0.146 C 
BRANCH  73  74
ATOM     74  N   UNL     1      -1.782   8.846  12.181  1.00  0.00    -0.254 NA
ATOM     75  C   UNL     1      -0.895   8.637  13.082  1.00  0.00     0.185 C 
ATOM     76  N   UNL     1      -1.099   9.104  14.324  1.00  0.00    -0.370 N 
ATOM     77  N   UNL     1       0.277   7.986  12.979  1.00  0.00    -0.370 N 
ATOM     78  H   UNL     1      -1.962   9.601  14.490  1.00  0.00     0.159 HD
ATOM     79  H   UNL     1      -0.524   8.857  15.110  1.00  0.00     0.159 HD
ATOM     80  H   UNL     1       0.566   7.583  12.101  1.00  0.00     0.159 HD
ATOM     81  H   UNL     1       0.948   7.985  13.730  1.00  0.00     0.159 HD
ENDBRANCH  73  74
ENDBRANCH  72  73
ENDBRANCH  71  72
ENDBRANCH  45  71
ENDBRANCH   3  45
TORSDOF 20
ENDMDL
MODEL 5
REMARK VINA RESULT:    -5.799      3.499      5.762
REMARK INTER + INTRA:         -23.797
REMARK INTER:                 -17.885
REMARK INTRA:                  -5.912
REMARK UNBOUND:                -7.151
REMARK SMILES CCCCCC(=O)N[C@H](CC(=O)O)C(=O)N[C@H]1C(=O)N[C@H](CCCN=C(N)N)C(=O)N[C@@H]2CC[C@H](O)N(C2=O)[C@@H](CC(C)C)C(=O)N(C)[C@@H](Cc2ccccc2)C(=O)N[C@H](C(C)C)C(=O)O[C@@H]1C
REMARK SMILES IDX 30 1 31 2 29 3 32 5 35 6 37 7 34 8 38 9 33 10 39 11 36 12
REMARK SMILES IDX 40 14 41 15 42 16 43 17 44 18 45 19 46 20 47 21 48 22 49 23
REMARK SMILES IDX 50 24 51 25 52 26 56 27 53 28 55 29 54 30 57 31 58 32 59 33
REMARK SMILES IDX 60 35 61 36 62 37 63 38 64 39 65 40 66 41 67 42 68 43 21 45
REMARK SMILES IDX 20 46 18 47 19 48 17 50 16 52 14 53 15 54 9 56 8 57 6 58
REMARK SMILES IDX 7 59 5 61 4 62 3 63 2 64 1 65 10 66 11 67 12 68 13 69 22 71
REMARK SMILES IDX 23 72 24 73 25 74 26 75 27 76 28 77
REMARK H PARENT 31 4 36 13 59 34 20 49 16 55 8 60 13 70 27 78 27 79 28 80
REMARK H PARENT 28 81
REMARK Flexibility Score:  259.900
ROOT
ATOM      1  O   UNL     1      -0.846   6.455  11.794  1.00  0.00    -0.273 OA
ATOM      2  N   UNL     1      -1.163   8.625  11.145  1.00  0.00    -0.343 N 
ATOM      3  C   UNL     1      -1.587   7.434  11.693  1.00  0.00     0.243 C 
ATOM      4  H   UNL     1      -1.795   9.414  11.092  1.00  0.00     0.164 HD
ENDROOT
BRANCH   2   5
ATOM      5  C   UNL     1       0.164   8.737  10.548  1.00  0.00     0.171 C 
ATOM      6  C   UNL     1       1.697  10.999   9.580  1.00  0.00     0.214 C 
ATOM      7  N   UNL     1       0.837  10.282   8.668  1.00  0.00    -0.303 N 
ATOM      8  C   UNL     1       2.254  10.127  10.694  1.00  0.00     0.057 C 
ATOM      9  C   UNL     1       0.039   9.225   9.076  1.00  0.00     0.247 C 
ATOM     10  C   UNL     1       1.117   9.497  11.469  1.00  0.00     0.040 C 
ATOM     11  O   UNL     1      -0.759   8.672   8.308  1.00  0.00    -0.272 OA
BRANCH   6  12
ATOM     12  O   UNL     1       0.957  12.070  10.118  1.00  0.00    -0.373 OA
ATOM     13  H   UNL     1       1.165  12.112  11.075  1.00  0.00     0.213 HD
ENDBRANCH   6  12
BRANCH   7  14
ATOM     14  C   UNL     1       0.725  10.814   7.294  1.00  0.00     0.177 C 
BRANCH  14  15
ATOM     15  C   UNL     1      -0.300  11.951   7.112  1.00  0.00     0.038 C 
BRANCH  15  16
ATOM     16  C   UNL     1      -1.130  12.026   5.812  1.00  0.00    -0.015 C 
ATOM     17  C   UNL     1      -0.756  13.236   4.949  1.00  0.00     0.007 C 
ATOM     18  C   UNL     1      -2.622  12.123   6.154  1.00  0.00     0.007 C 
ENDBRANCH  15  16
ENDBRANCH  14  15
BRANCH  14  19
ATOM     19  C   UNL     1       2.104  10.710   6.556  1.00  0.00     0.245 C 
ATOM     20  O   UNL     1       2.491  11.722   5.948  1.00  0.00    -0.272 OA
BRANCH  19  21
ATOM     21  N   UNL     1       2.839   9.542   6.456  1.00  0.00    -0.332 N 
ATOM     22  C   UNL     1       3.655   8.967   7.510  1.00  0.00     0.147 C 
BRANCH  21  23
ATOM     23  C   UNL     1       2.809   8.810   5.160  1.00  0.00     0.178 C 
BRANCH  23  24
ATOM     24  C   UNL     1       1.600   9.141   4.260  1.00  0.00     0.070 C 
BRANCH  24  25
ATOM     25  C   UNL     1       1.377   8.256   3.055  1.00  0.00    -0.045 A 
ATOM     26  C   UNL     1       1.615   8.735   1.760  1.00  0.00     0.004 A 
ATOM     27  C   UNL     1       0.921   6.940   3.218  1.00  0.00     0.004 A 
ATOM     28  C   UNL     1       1.390   7.917   0.651  1.00  0.00     0.000 A 
ATOM     29  C   UNL     1       0.698   6.123   2.109  1.00  0.00     0.000 A 
ATOM     30  C   UNL     1       0.930   6.613   0.825  1.00  0.00     0.000 A 
ENDBRANCH  24  25
ENDBRANCH  23  24
BRANCH  23  31
ATOM     31  C   UNL     1       4.177   8.804   4.437  1.00  0.00     0.243 C 
ATOM     32  O   UNL     1       4.917   7.826   4.376  1.00  0.00    -0.273 OA
ATOM     33  N   UNL     1       4.586  10.059   4.019  1.00  0.00    -0.341 N 
ATOM     34  H   UNL     1       3.928  10.837   4.101  1.00  0.00     0.164 HD
BRANCH  33  35
ATOM     35  C   UNL     1       5.899  10.311   3.418  1.00  0.00     0.194 C 
BRANCH  35  36
ATOM     36  C   UNL     1       6.519  11.684   3.801  1.00  0.00     0.017 C 
ATOM     37  C   UNL     1       7.778  11.508   4.668  1.00  0.00     0.010 C 
ATOM     38  C   UNL     1       5.552  12.589   4.574  1.00  0.00     0.010 C 
ENDBRANCH  35  36
BRANCH  35  39
ATOM     39  C   UNL     1       5.908  10.079   1.881  1.00  0.00     0.329 C 
ATOM     40  O   UNL     1       4.978   9.583   1.257  1.00  0.00    -0.250 OA
BRANCH  39  41
ATOM     41  O   UNL     1       7.038  10.570   1.288  1.00  0.00    -0.458 OA
BRANCH  41  42
ATOM     42  C   UNL     1       6.908  10.987  -0.092  1.00  0.00     0.205 CG0
ATOM     43  C   UNL     1       7.779  10.056  -0.933  1.00  0.00     0.056 C 
ATOM     44  G   UNL     1       7.344  12.462  -0.203  1.00  0.00     0.000 G0
ENDBRANCH  41  42
ENDBRANCH  39  41
ENDBRANCH  35  39
ENDBRANCH  33  35
ENDBRANCH  23  31
ENDBRANCH  21  23
ENDBRANCH  19  21
ENDBRANCH  14  19
ENDBRANCH   7  14
ENDBRANCH   2   5
BRANCH   3  45
ATOM     45  C   UNL     1      -3.039   7.418  12.187  1.00  0.00     0.171 C 
BRANCH  45  46
ATOM     46  N   UNL     1      -3.209   6.143  12.871  1.00  0.00    -0.342 N 
ATOM     47  C   UNL     1      -3.468   6.057  14.215  1.00  0.00     0.247 C 
ATOM     48  O   UNL     1      -3.648   7.046  14.926  1.00  0.00    -0.273 OA
ATOM     49  H   UNL     1      -3.124   5.298  12.308  1.00  0.00     0.164 HD
BRANCH  47  50
ATOM     50  C   UNL     1      -3.492   4.630  14.783  1.00  0.00     0.212 CG0
ATOM     51  G   UNL     1      -4.409   4.635  16.022  1.00  0.00     0.000 G0
BRANCH  50  52
ATOM     52  N   UNL     1      -3.989   3.788  13.699  1.00  0.00    -0.339 N 
ATOM     53  C   UNL     1      -3.445   2.568  13.379  1.00  0.00     0.243 C 
ATOM     54  O   UNL     1      -2.457   2.114  13.950  1.00  0.00    -0.273 OA
ATOM     55  H   UNL     1      -4.737   4.159  13.116  1.00  0.00     0.164 HD
BRANCH  53  56
ATOM     56  C   UNL     1      -4.082   1.901  12.143  1.00  0.00     0.182 C 
BRANCH  56  57
ATOM     57  N   UNL     1      -4.399   2.896  11.113  1.00  0.00    -0.344 N 
ATOM     58  C   UNL     1      -3.544   3.180  10.076  1.00  0.00     0.220 C 
ATOM     59  O   UNL     1      -2.429   2.678   9.979  1.00  0.00    -0.275 OA
ATOM     60  H   UNL     1      -5.349   3.257  11.099  1.00  0.00     0.164 HD
BRANCH  58  61
ATOM     61  C   UNL     1      -4.102   4.197   9.098  1.00  0.00     0.100 C 
BRANCH  61  62
ATOM     62  C   UNL     1      -3.073   5.221   8.619  1.00  0.00     0.010 C 
BRANCH  62  63
ATOM     63  C   UNL     1      -3.365   5.801   7.230  1.00  0.00     0.000 C 
BRANCH  63  64
ATOM     64  C   UNL     1      -2.689   5.052   6.082  1.00  0.00    -0.003 C 
ATOM     65  C   UNL     1      -1.391   5.730   5.666  1.00  0.00     0.004 C 
ENDBRANCH  63  64
ENDBRANCH  62  63
ENDBRANCH  61  62
ENDBRANCH  58  61
ENDBRANCH  56  57
BRANCH  56  66
ATOM     66  C   UNL     1      -5.297   1.059  12.525  1.00  0.00     0.157 C 
BRANCH  66  67
ATOM     67  C   UNL     1      -6.577   1.790  12.238  1.00  0.00     0.305 C 
ATOM     68  O   UNL     1      -7.357   1.570  11.324  1.00  0.00    -0.252 OA
BRANCH  67  69
ATOM     69  O   UNL     1      -6.842   2.739  13.156  1.00  0.00    -0.481 OA
ATOM     70  H   UNL     1      -6.073   3.346  13.116  1.00  0.00     0.296 HD
ENDBRANCH  67  69
ENDBRANCH  66  67
ENDBRANCH  56  66
ENDBRANCH  53  56
ENDBRANCH  50  52
ENDBRANCH  47  50
ENDBRANCH  45  46
BRANCH  45  71
ATOM     71  C   UNL     1      -4.007   7.560  11.007  1.00  0.00     0.037 C 
BRANCH  71  72
ATOM     72  C   UNL     1      -4.817   8.857  11.079  1.00  0.00     0.026 C 
BRANCH  72  73
ATOM     73  C   UNL     1      -4.879   9.400  12.505  1.00  0.00     0.146 C 
BRANCH  73  74
ATOM     74  N   UNL     1      -5.639  10.646  12.477  1.00  0.00    -0.254 NA
ATOM     75  C   UNL     1      -6.868  10.606  12.839  1.00  0.00     0.185 C 
ATOM     76  N   UNL     1      -7.593  11.737  12.825  1.00  0.00    -0.370 N 
ATOM     77  N   UNL     1      -7.592   9.554  13.257  1.00  0.00    -0.370 N 
ATOM     78  H   UNL     1      -7.125  12.576  12.515  1.00  0.00     0.159 HD
ATOM     79  H   UNL     1      -8.589  11.757  12.954  1.00  0.00     0.159 HD
ATOM     80  H   UNL     1      -7.175   8.637  13.323  1.00  0.00     0.159 HD
ATOM     81  H   UNL     1      -8.521   9.665  13.627  1.00  0.00     0.159 HD
ENDBRANCH  73  74
ENDBRANCH  72  73
ENDBRANCH  71  72
ENDBRANCH  45  71
ENDBRANCH   3  45
TORSDOF 20
ENDMDL
MODEL 6
REMARK VINA RESULT:    -5.713     11.520     14.167
REMARK INTER + INTRA:         -23.550
REMARK INTER:                 -16.614
REMARK INTRA:                  -6.936
REMARK UNBOUND:                -7.151
REMARK SMILES CCCCCC(=O)N[C@H](CC(=O)O)C(=O)N[C@H]1C(=O)N[C@H](CCCN=C(N)N)C(=O)N[C@@H]2CC[C@H](O)N(C2=O)[C@@H](CC(C)C)C(=O)N(C)[C@@H](Cc2ccccc2)C(=O)N[C@H](C(C)C)C(=O)O[C@@H]1C
REMARK SMILES IDX 30 1 31 2 29 3 32 5 35 6 37 7 34 8 38 9 33 10 39 11 36 12
REMARK SMILES IDX 40 14 41 15 42 16 43 17 44 18 45 19 46 20 47 21 48 22 49 23
REMARK SMILES IDX 50 24 51 25 52 26 56 27 53 28 55 29 54 30 57 31 58 32 59 33
REMARK SMILES IDX 60 35 61 36 62 37 63 38 64 39 65 40 66 41 67 42 68 43 21 45
REMARK SMILES IDX 20 46 18 47 19 48 17 50 16 52 14 53 15 54 9 56 8 57 6 58
REMARK SMILES IDX 7 59 5 61 4 62 3 63 2 64 1 65 10 66 11 67 12 68 13 69 22 71
REMARK SMILES IDX 23 72 24 73 25 74 26 75 27 76 28 77
REMARK H PARENT 31 4 36 13 59 34 20 49 16 55 8 60 13 70 27 78 27 79 28 80
REMARK H PARENT 28 81
REMARK Flexibility Score:  259.900
ROOT
ATOM      1  O   UNL     1      -3.469   0.171   6.962  1.00  0.00    -0.273 OA
ATOM      2  N   UNL     1      -2.889  -0.084   4.764  1.00  0.00    -0.343 N 
ATOM      3  C   UNL     1      -3.082   0.668   5.904  1.00  0.00     0.243 C 
ATOM      4  H   UNL     1      -2.556   0.357   3.915  1.00  0.00     0.164 HD
ENDROOT
BRANCH   2   5
ATOM      5  C   UNL     1      -3.254  -1.496   4.735  1.00  0.00     0.171 C 
ATOM      6  C   UNL     1      -2.144  -3.783   3.341  1.00  0.00     0.214 C 
ATOM      7  N   UNL     1      -3.202  -3.018   2.722  1.00  0.00    -0.303 N 
ATOM      8  C   UNL     1      -2.209  -3.780   4.860  1.00  0.00     0.057 C 
ATOM      9  C   UNL     1      -3.741  -1.886   3.311  1.00  0.00     0.247 C 
ATOM     10  C   UNL     1      -2.164  -2.357   5.372  1.00  0.00     0.040 C 
ATOM     11  O   UNL     1      -4.586  -1.187   2.736  1.00  0.00    -0.272 OA
BRANCH   6  12
ATOM     12  O   UNL     1      -0.916  -3.253   2.899  1.00  0.00    -0.373 OA
ATOM     13  H   UNL     1      -0.969  -2.279   3.003  1.00  0.00     0.213 HD
ENDBRANCH   6  12
BRANCH   7  14
ATOM     14  C   UNL     1      -3.597  -3.406   1.352  1.00  0.00     0.177 C 
BRANCH  14  15
ATOM     15  C   UNL     1      -2.508  -3.219   0.277  1.00  0.00     0.038 C 
BRANCH  15  16
ATOM     16  C   UNL     1      -2.871  -2.548  -1.066  1.00  0.00    -0.015 C 
ATOM     17  C   UNL     1      -1.641  -2.010  -1.802  1.00  0.00     0.007 C 
ATOM     18  C   UNL     1      -3.833  -1.379  -0.818  1.00  0.00     0.007 C 
ENDBRANCH  15  16
ENDBRANCH  14  15
BRANCH  14  19
ATOM     19  C   UNL     1      -4.634  -4.581   1.397  1.00  0.00     0.245 C 
ATOM     20  O   UNL     1      -5.717  -4.350   1.959  1.00  0.00    -0.272 OA
BRANCH  19  21
ATOM     21  N   UNL     1      -4.366  -5.864   0.954  1.00  0.00    -0.332 N 
ATOM     22  C   UNL     1      -3.299  -6.719   1.443  1.00  0.00     0.147 C 
BRANCH  21  23
ATOM     23  C   UNL     1      -5.229  -6.423  -0.123  1.00  0.00     0.178 C 
BRANCH  23  24
ATOM     24  C   UNL     1      -4.491  -6.752  -1.437  1.00  0.00     0.070 C 
BRANCH  24  25
ATOM     25  C   UNL     1      -4.414  -5.658  -2.476  1.00  0.00    -0.045 A 
ATOM     26  C   UNL     1      -3.279  -5.513  -3.283  1.00  0.00     0.004 A 
ATOM     27  C   UNL     1      -5.483  -4.765  -2.643  1.00  0.00     0.004 A 
ATOM     28  C   UNL     1      -3.208  -4.488  -4.229  1.00  0.00     0.000 A 
ATOM     29  C   UNL     1      -5.412  -3.742  -3.590  1.00  0.00     0.000 A 
ATOM     30  C   UNL     1      -4.273  -3.602  -4.380  1.00  0.00     0.000 A 
ENDBRANCH  24  25
ENDBRANCH  23  24
BRANCH  23  31
ATOM     31  C   UNL     1      -6.183  -7.531   0.383  1.00  0.00     0.243 C 
ATOM     32  O   UNL     1      -7.092  -7.340   1.187  1.00  0.00    -0.273 OA
ATOM     33  N   UNL     1      -5.809  -8.805  -0.008  1.00  0.00    -0.341 N 
ATOM     34  H   UNL     1      -5.040  -8.901  -0.676  1.00  0.00     0.164 HD
BRANCH  33  35
ATOM     35  C   UNL     1      -6.495 -10.016   0.450  1.00  0.00     0.194 C 
BRANCH  35  36
ATOM     36  C   UNL     1      -5.813 -10.713   1.661  1.00  0.00     0.017 C 
ATOM     37  C   UNL     1      -6.514 -10.352   2.982  1.00  0.00     0.010 C 
ATOM     38  C   UNL     1      -4.332 -10.346   1.813  1.00  0.00     0.010 C 
ENDBRANCH  35  36
BRANCH  35  39
ATOM     39  C   UNL     1      -6.785 -11.014  -0.706  1.00  0.00     0.329 C 
ATOM     40  O   UNL     1      -6.995 -10.678  -1.865  1.00  0.00    -0.250 OA
BRANCH  39  41
ATOM     41  O   UNL     1      -6.692 -12.317  -0.303  1.00  0.00    -0.458 OA
BRANCH  41  42
ATOM     42  C   UNL     1      -7.932 -12.960   0.077  1.00  0.00     0.205 CG0
ATOM     43  C   UNL     1      -7.596 -14.004   1.140  1.00  0.00     0.056 C 
ATOM     44  G   UNL     1      -8.568 -13.585  -1.182  1.00  0.00     0.000 G0
ENDBRANCH  41  42
ENDBRANCH  39  41
ENDBRANCH  35  39
ENDBRANCH  33  35
ENDBRANCH  23  31
ENDBRANCH  21  23
ENDBRANCH  19  21
ENDBRANCH  14  19
ENDBRANCH   7  14
ENDBRANCH   2   5
BRANCH   3  45
ATOM     45  C   UNL     1      -2.761   2.162   5.768  1.00  0.00     0.171 C 
BRANCH  45  46
ATOM     46  N   UNL     1      -2.346   2.598   7.094  1.00  0.00    -0.342 N 
ATOM     47  C   UNL     1      -1.105   3.128   7.340  1.00  0.00     0.247 C 
ATOM     48  O   UNL     1      -0.281   3.341   6.450  1.00  0.00    -0.273 OA
ATOM     49  H   UNL     1      -3.019   2.492   7.851  1.00  0.00     0.164 HD
BRANCH  47  50
ATOM     50  C   UNL     1      -0.801   3.414   8.818  1.00  0.00     0.212 CG0
ATOM     51  G   UNL     1      -0.002   4.731   8.884  1.00  0.00     0.000 G0
BRANCH  50  52
ATOM     52  N   UNL     1      -2.103   3.495   9.474  1.00  0.00    -0.339 N 
ATOM     53  C   UNL     1      -2.454   4.507  10.335  1.00  0.00     0.243 C 
ATOM     54  O   UNL     1      -1.675   5.399  10.661  1.00  0.00    -0.273 OA
ATOM     55  H   UNL     1      -2.753   2.725   9.331  1.00  0.00     0.164 HD
BRANCH  53  56
ATOM     56  C   UNL     1      -3.847   4.333  10.973  1.00  0.00     0.182 C 
BRANCH  56  57
ATOM     57  N   UNL     1      -3.767   3.542  12.205  1.00  0.00    -0.344 N 
ATOM     58  C   UNL     1      -3.917   4.102  13.450  1.00  0.00     0.220 C 
ATOM     59  O   UNL     1      -4.054   5.308  13.623  1.00  0.00    -0.275 OA
ATOM     60  H   UNL     1      -3.756   2.531  12.103  1.00  0.00     0.164 HD
BRANCH  58  61
ATOM     61  C   UNL     1      -3.855   3.087  14.577  1.00  0.00     0.100 C 
BRANCH  61  62
ATOM     62  C   UNL     1      -3.397   1.699  14.131  1.00  0.00     0.010 C 
BRANCH  62  63
ATOM     63  C   UNL     1      -4.334   0.562  14.557  1.00  0.00     0.000 C 
BRANCH  63  64
ATOM     64  C   UNL     1      -5.706   0.597  13.886  1.00  0.00    -0.003 C 
ATOM     65  C   UNL     1      -5.901  -0.593  12.957  1.00  0.00     0.004 C 
ENDBRANCH  63  64
ENDBRANCH  62  63
ENDBRANCH  61  62
ENDBRANCH  58  61
ENDBRANCH  56  57
BRANCH  56  66
ATOM     66  C   UNL     1      -4.850   3.752   9.978  1.00  0.00     0.157 C 
BRANCH  66  67
ATOM     67  C   UNL     1      -5.256   2.359  10.367  1.00  0.00     0.305 C 
ATOM     68  O   UNL     1      -4.591   1.342  10.246  1.00  0.00    -0.252 OA
BRANCH  67  69
ATOM     69  O   UNL     1      -6.473   2.323  10.942  1.00  0.00    -0.481 OA
ATOM     70  H   UNL     1      -7.105   2.328  10.192  1.00  0.00     0.296 HD
ENDBRANCH  67  69
ENDBRANCH  66  67
ENDBRANCH  56  66
ENDBRANCH  53  56
ENDBRANCH  50  52
ENDBRANCH  47  50
ENDBRANCH  45  46
BRANCH  45  71
ATOM     71  C   UNL     1      -3.995   2.930   5.280  1.00  0.00     0.037 C 
BRANCH  71  72
ATOM     72  C   UNL     1      -4.668   3.715   6.409  1.00  0.00     0.026 C 
BRANCH  72  73
ATOM     73  C   UNL     1      -4.673   5.216   6.122  1.00  0.00     0.146 C 
BRANCH  73  74
ATOM     74  N   UNL     1      -3.354   5.740   6.462  1.00  0.00    -0.254 NA
ATOM     75  C   UNL     1      -3.259   6.502   7.488  1.00  0.00     0.185 C 
ATOM     76  N   UNL     1      -2.058   6.999   7.827  1.00  0.00    -0.370 N 
ATOM     77  N   UNL     1      -4.224   6.909   8.332  1.00  0.00    -0.370 N 
ATOM     78  H   UNL     1      -1.276   6.748   7.239  1.00  0.00     0.159 HD
ATOM     79  H   UNL     1      -1.931   7.712   8.524  1.00  0.00     0.159 HD
ATOM     80  H   UNL     1      -5.178   6.609   8.202  1.00  0.00     0.159 HD
ATOM     81  H   UNL     1      -4.010   7.416   9.174  1.00  0.00     0.159 HD
ENDBRANCH  73  74
ENDBRANCH  72  73
ENDBRANCH  71  72
ENDBRANCH  45  71
ENDBRANCH   3  45
TORSDOF 20
ENDMDL
MODEL 7
REMARK VINA RESULT:    -5.707      3.046      5.502
REMARK INTER + INTRA:         -23.535
REMARK INTER:                 -16.740
REMARK INTRA:                  -6.795
REMARK UNBOUND:                -7.151
REMARK SMILES CCCCCC(=O)N[C@H](CC(=O)O)C(=O)N[C@H]1C(=O)N[C@H](CCCN=C(N)N)C(=O)N[C@@H]2CC[C@H](O)N(C2=O)[C@@H](CC(C)C)C(=O)N(C)[C@@H](Cc2ccccc2)C(=O)N[C@H](C(C)C)C(=O)O[C@@H]1C
REMARK SMILES IDX 30 1 31 2 29 3 32 5 35 6 37 7 34 8 38 9 33 10 39 11 36 12
REMARK SMILES IDX 40 14 41 15 42 16 43 17 44 18 45 19 46 20 47 21 48 22 49 23
REMARK SMILES IDX 50 24 51 25 52 26 56 27 53 28 55 29 54 30 57 31 58 32 59 33
REMARK SMILES IDX 60 35 61 36 62 37 63 38 64 39 65 40 66 41 67 42 68 43 21 45
REMARK SMILES IDX 20 46 18 47 19 48 17 50 16 52 14 53 15 54 9 56 8 57 6 58
REMARK SMILES IDX 7 59 5 61 4 62 3 63 2 64 1 65 10 66 11 67 12 68 13 69 22 71
REMARK SMILES IDX 23 72 24 73 25 74 26 75 27 76 28 77
REMARK H PARENT 31 4 36 13 59 34 20 49 16 55 8 60 13 70 27 78 27 79 28 80
REMARK H PARENT 28 81
REMARK Flexibility Score:  259.900
ROOT
ATOM      1  O   UNL     1       0.165   6.893   9.415  1.00  0.00    -0.273 OA
ATOM      2  N   UNL     1      -0.368   7.772   7.372  1.00  0.00    -0.343 N 
ATOM      3  C   UNL     1      -0.622   6.980   8.471  1.00  0.00     0.243 C 
ATOM      4  H   UNL     1      -1.045   7.830   6.621  1.00  0.00     0.164 HD
ENDROOT
BRANCH   2   5
ATOM      5  C   UNL     1       0.913   8.453   7.227  1.00  0.00     0.171 C 
ATOM      6  C   UNL     1       2.097   9.970   5.058  1.00  0.00     0.214 C 
ATOM      7  N   UNL     1       2.336   8.548   5.143  1.00  0.00    -0.303 N 
ATOM      8  C   UNL     1       1.882  10.626   6.412  1.00  0.00     0.057 C 
ATOM      9  C   UNL     1       1.760   7.756   6.123  1.00  0.00     0.247 C 
ATOM     10  C   UNL     1       0.721   9.966   7.124  1.00  0.00     0.040 C 
ATOM     11  O   UNL     1       1.899   6.526   6.139  1.00  0.00    -0.272 OA
BRANCH   6  12
ATOM     12  O   UNL     1       0.974  10.169   4.230  1.00  0.00    -0.373 OA
ATOM     13  H   UNL     1       0.277   9.551   4.538  1.00  0.00     0.213 HD
ENDBRANCH   6  12
BRANCH   7  14
ATOM     14  C   UNL     1       3.111   7.931   4.046  1.00  0.00     0.177 C 
BRANCH  14  15
ATOM     15  C   UNL     1       2.350   7.769   2.716  1.00  0.00     0.038 C 
BRANCH  15  16
ATOM     16  C   UNL     1       2.373   6.407   1.987  1.00  0.00    -0.015 C 
ATOM     17  C   UNL     1       1.077   6.135   1.216  1.00  0.00     0.007 C 
ATOM     18  C   UNL     1       2.572   5.277   3.005  1.00  0.00     0.007 C 
ENDBRANCH  15  16
ENDBRANCH  14  15
BRANCH  14  19
ATOM     19  C   UNL     1       4.630   8.292   4.184  1.00  0.00     0.245 C 
ATOM     20  O   UNL     1       5.193   8.737   3.169  1.00  0.00    -0.272 OA
BRANCH  19  21
ATOM     21  N   UNL     1       5.383   8.040   5.317  1.00  0.00    -0.332 N 
ATOM     22  C   UNL     1       5.249   8.729   6.588  1.00  0.00     0.147 C 
BRANCH  21  23
ATOM     23  C   UNL     1       6.429   6.984   5.236  1.00  0.00     0.178 C 
BRANCH  23  24
ATOM     24  C   UNL     1       6.130   5.854   4.230  1.00  0.00     0.070 C 
BRANCH  24  25
ATOM     25  C   UNL     1       6.176   4.437   4.753  1.00  0.00    -0.045 A 
ATOM     26  C   UNL     1       6.788   4.144   5.979  1.00  0.00     0.004 A 
ATOM     27  C   UNL     1       5.609   3.390   4.012  1.00  0.00     0.004 A 
ATOM     28  C   UNL     1       6.842   2.830   6.447  1.00  0.00     0.000 A 
ATOM     29  C   UNL     1       5.662   2.077   4.482  1.00  0.00     0.000 A 
ATOM     30  C   UNL     1       6.282   1.798   5.698  1.00  0.00     0.000 A 
ENDBRANCH  24  25
ENDBRANCH  23  24
BRANCH  23  31
ATOM     31  C   UNL     1       7.864   7.560   5.160  1.00  0.00     0.243 C 
ATOM     32  O   UNL     1       8.579   7.752   6.140  1.00  0.00    -0.273 OA
ATOM     33  N   UNL     1       8.210   8.019   3.901  1.00  0.00    -0.341 N 
ATOM     34  H   UNL     1       7.569   7.835   3.124  1.00  0.00     0.164 HD
BRANCH  33  35
ATOM     35  C   UNL     1       9.471   8.710   3.621  1.00  0.00     0.194 C 
BRANCH  35  36
ATOM     36  C   UNL     1       9.325   9.947   2.690  1.00  0.00     0.017 C 
ATOM     37  C   UNL     1       9.180  11.245   3.503  1.00  0.00     0.010 C 
ATOM     38  C   UNL     1       8.117   9.857   1.751  1.00  0.00     0.010 C 
ENDBRANCH  35  36
BRANCH  35  39
ATOM     39  C   UNL     1      10.587   7.744   3.132  1.00  0.00     0.329 C 
ATOM     40  O   UNL     1      10.659   6.563   3.449  1.00  0.00    -0.250 OA
BRANCH  39  41
ATOM     41  O   UNL     1      11.432   8.338   2.236  1.00  0.00    -0.458 OA
BRANCH  41  42
ATOM     42  C   UNL     1      12.841   8.042   2.392  1.00  0.00     0.205 CG0
ATOM     43  C   UNL     1      13.516   9.308   2.916  1.00  0.00     0.056 C 
ATOM     44  G   UNL     1      13.404   7.596   1.028  1.00  0.00     0.000 G0
ENDBRANCH  41  42
ENDBRANCH  39  41
ENDBRANCH  35  39
ENDBRANCH  33  35
ENDBRANCH  23  31
ENDBRANCH  21  23
ENDBRANCH  19  21
ENDBRANCH  14  19
ENDBRANCH   7  14
ENDBRANCH   2   5
BRANCH   3  45
ATOM     45  C   UNL     1      -1.961   6.233   8.449  1.00  0.00     0.171 C 
BRANCH  45  46
ATOM     46  N   UNL     1      -2.646   6.614   9.677  1.00  0.00    -0.342 N 
ATOM     47  C   UNL     1      -3.914   7.137   9.681  1.00  0.00     0.247 C 
ATOM     48  O   UNL     1      -4.592   7.254   8.660  1.00  0.00    -0.273 OA
ATOM     49  H   UNL     1      -2.141   6.480  10.552  1.00  0.00     0.164 HD
BRANCH  47  50
ATOM     50  C   UNL     1      -4.424   7.595  11.055  1.00  0.00     0.212 CG0
ATOM     51  G   UNL     1      -5.025   6.365  11.765  1.00  0.00     0.000 G0
BRANCH  50  52
ATOM     52  N   UNL     1      -3.257   8.143  11.741  1.00  0.00    -0.339 N 
ATOM     53  C   UNL     1      -3.085   9.484  11.985  1.00  0.00     0.243 C 
ATOM     54  O   UNL     1      -3.880  10.335  11.596  1.00  0.00    -0.273 OA
ATOM     55  H   UNL     1      -2.509   7.499  11.990  1.00  0.00     0.164 HD
BRANCH  53  56
ATOM     56  C   UNL     1      -1.735   9.834  12.645  1.00  0.00     0.182 C 
BRANCH  56  57
ATOM     57  N   UNL     1      -0.753  10.256  11.641  1.00  0.00    -0.344 N 
ATOM     58  C   UNL     1      -0.546  11.576  11.324  1.00  0.00     0.220 C 
ATOM     59  O   UNL     1      -1.216  12.486  11.800  1.00  0.00    -0.275 OA
ATOM     60  H   UNL     1      -0.110   9.547  11.300  1.00  0.00     0.164 HD
BRANCH  58  61
ATOM     61  C   UNL     1       0.558  11.784  10.304  1.00  0.00     0.100 C 
BRANCH  61  62
ATOM     62  C   UNL     1       1.963  11.557  10.862  1.00  0.00     0.010 C 
BRANCH  62  63
ATOM     63  C   UNL     1       2.614  10.244  10.408  1.00  0.00     0.000 C 
BRANCH  63  64
ATOM     64  C   UNL     1       3.867   9.862  11.194  1.00  0.00    -0.003 C 
ATOM     65  C   UNL     1       4.864   9.114  10.320  1.00  0.00     0.004 C 
ENDBRANCH  63  64
ENDBRANCH  62  63
ENDBRANCH  61  62
ENDBRANCH  58  61
ENDBRANCH  56  57
BRANCH  56  66
ATOM     66  C   UNL     1      -1.220   8.684  13.509  1.00  0.00     0.157 C 
BRANCH  66  67
ATOM     67  C   UNL     1      -0.177   7.884  12.783  1.00  0.00     0.305 C 
ATOM     68  O   UNL     1       1.033   8.050  12.824  1.00  0.00    -0.252 OA
BRANCH  67  69
ATOM     69  O   UNL     1      -0.710   6.871  12.075  1.00  0.00    -0.481 OA
ATOM     70  H   UNL     1      -1.053   6.247  12.749  1.00  0.00     0.296 HD
ENDBRANCH  67  69
ENDBRANCH  66  67
ENDBRANCH  56  66
ENDBRANCH  53  56
ENDBRANCH  50  52
ENDBRANCH  47  50
ENDBRANCH  45  46
BRANCH  45  71
ATOM     71  C   UNL     1      -1.727   4.720   8.377  1.00  0.00     0.037 C 
BRANCH  71  72
ATOM     72  C   UNL     1      -1.885   4.179   6.954  1.00  0.00     0.026 C 
BRANCH  72  73
ATOM     73  C   UNL     1      -3.202   3.425   6.784  1.00  0.00     0.146 C 
BRANCH  73  74
ATOM     74  N   UNL     1      -4.291   4.377   6.976  1.00  0.00    -0.254 NA
ATOM     75  C   UNL     1      -4.857   4.858   5.931  1.00  0.00     0.185 C 
ATOM     76  N   UNL     1      -5.863   5.736   6.075  1.00  0.00    -0.370 N 
ATOM     77  N   UNL     1      -4.592   4.610   4.637  1.00  0.00    -0.370 N 
ATOM     78  H   UNL     1      -6.122   5.984   7.019  1.00  0.00     0.159 HD
ATOM     79  H   UNL     1      -6.254   6.260   5.312  1.00  0.00     0.159 HD
ATOM     80  H   UNL     1      -3.861   3.965   4.376  1.00  0.00     0.159 HD
ATOM     81  H   UNL     1      -5.182   4.960   3.900  1.00  0.00     0.159 HD
ENDBRANCH  73  74
ENDBRANCH  72  73
ENDBRANCH  71  72
ENDBRANCH  45  71
ENDBRANCH   3  45
TORSDOF 20
ENDMDL
MODEL 8
REMARK VINA RESULT:    -5.701      3.091      5.196
REMARK INTER + INTRA:         -23.516
REMARK INTER:                 -17.182
REMARK INTRA:                  -6.334
REMARK UNBOUND:                -7.151
REMARK SMILES CCCCCC(=O)N[C@H](CC(=O)O)C(=O)N[C@H]1C(=O)N[C@H](CCCN=C(N)N)C(=O)N[C@@H]2CC[C@H](O)N(C2=O)[C@@H](CC(C)C)C(=O)N(C)[C@@H](Cc2ccccc2)C(=O)N[C@H](C(C)C)C(=O)O[C@@H]1C
REMARK SMILES IDX 30 1 31 2 29 3 32 5 35 6 37 7 34 8 38 9 33 10 39 11 36 12
REMARK SMILES IDX 40 14 41 15 42 16 43 17 44 18 45 19 46 20 47 21 48 22 49 23
REMARK SMILES IDX 50 24 51 25 52 26 56 27 53 28 55 29 54 30 57 31 58 32 59 33
REMARK SMILES IDX 60 35 61 36 62 37 63 38 64 39 65 40 66 41 67 42 68 43 21 45
REMARK SMILES IDX 20 46 18 47 19 48 17 50 16 52 14 53 15 54 9 56 8 57 6 58
REMARK SMILES IDX 7 59 5 61 4 62 3 63 2 64 1 65 10 66 11 67 12 68 13 69 22 71
REMARK SMILES IDX 23 72 24 73 25 74 26 75 27 76 28 77
REMARK H PARENT 31 4 36 13 59 34 20 49 16 55 8 60 13 70 27 78 27 79 28 80
REMARK H PARENT 28 81
REMARK Flexibility Score:  259.900
ROOT
ATOM      1  O   UNL     1       0.121   8.502   6.668  1.00  0.00    -0.273 OA
ATOM      2  N   UNL     1       0.656   9.687   8.550  1.00  0.00    -0.343 N 
ATOM      3  C   UNL     1      -0.141   8.826   7.827  1.00  0.00     0.243 C 
ATOM      4  H   UNL     1       0.417   9.919   9.506  1.00  0.00     0.164 HD
ENDROOT
BRANCH   2   5
ATOM      5  C   UNL     1       1.793  10.350   7.922  1.00  0.00     0.171 C 
ATOM      6  C   UNL     1       3.162   9.934   5.400  1.00  0.00     0.214 C 
ATOM      7  N   UNL     1       3.624   9.243   6.581  1.00  0.00    -0.303 N 
ATOM      8  C   UNL     1       2.523  11.280   5.702  1.00  0.00     0.057 C 
ATOM      9  C   UNL     1       2.985   9.357   7.806  1.00  0.00     0.247 C 
ATOM     10  C   UNL     1       1.364  11.094   6.658  1.00  0.00     0.040 C 
ATOM     11  O   UNL     1       3.334   8.695   8.792  1.00  0.00    -0.272 OA
BRANCH   6  12
ATOM     12  O   UNL     1       2.248   9.092   4.738  1.00  0.00    -0.373 OA
ATOM     13  H   UNL     1       2.632   8.885   3.860  1.00  0.00     0.213 HD
ENDBRANCH   6  12
BRANCH   7  14
ATOM     14  C   UNL     1       4.731   8.280   6.405  1.00  0.00     0.177 C 
BRANCH  14  15
ATOM     15  C   UNL     1       4.389   7.032   5.567  1.00  0.00     0.038 C 
BRANCH  15  16
ATOM     16  C   UNL     1       4.011   5.716   6.282  1.00  0.00    -0.015 C 
ATOM     17  C   UNL     1       4.142   4.496   5.366  1.00  0.00     0.007 C 
ATOM     18  C   UNL     1       2.561   5.792   6.777  1.00  0.00     0.007 C 
ENDBRANCH  15  16
ENDBRANCH  14  15
BRANCH  14  19
ATOM     19  C   UNL     1       6.107   9.030   6.393  1.00  0.00     0.245 C 
ATOM     20  O   UNL     1       6.225   9.970   5.589  1.00  0.00    -0.272 OA
BRANCH  19  21
ATOM     21  N   UNL     1       7.207   8.636   7.134  1.00  0.00    -0.332 N 
ATOM     22  C   UNL     1       7.332   8.737   8.577  1.00  0.00     0.147 C 
BRANCH  21  23
ATOM     23  C   UNL     1       8.373   8.068   6.401  1.00  0.00     0.178 C 
BRANCH  23  24
ATOM     24  C   UNL     1       8.008   7.068   5.284  1.00  0.00     0.070 C 
BRANCH  24  25
ATOM     25  C   UNL     1       7.826   5.623   5.687  1.00  0.00    -0.045 A 
ATOM     26  C   UNL     1       7.877   4.600   4.732  1.00  0.00     0.004 A 
ATOM     27  C   UNL     1       7.597   5.287   7.030  1.00  0.00     0.004 A 
ATOM     28  C   UNL     1       7.691   3.269   5.110  1.00  0.00     0.000 A 
ATOM     29  C   UNL     1       7.412   3.955   7.406  1.00  0.00     0.000 A 
ATOM     30  C   UNL     1       7.457   2.948   6.445  1.00  0.00     0.000 A 
ENDBRANCH  24  25
ENDBRANCH  23  24
BRANCH  23  31
ATOM     31  C   UNL     1       9.414   9.140   6.000  1.00  0.00     0.243 C 
ATOM     32  O   UNL     1       9.425  10.286   6.442  1.00  0.00    -0.273 OA
ATOM     33  N   UNL     1      10.233   8.752   4.953  1.00  0.00    -0.341 N 
ATOM     34  H   UNL     1      10.174   7.785   4.624  1.00  0.00     0.164 HD
BRANCH  33  35
ATOM     35  C   UNL     1      11.212   9.647   4.330  1.00  0.00     0.194 C 
BRANCH  35  36
ATOM     36  C   UNL     1      10.854  10.067   2.877  1.00  0.00     0.017 C 
ATOM     37  C   UNL     1      10.340  11.516   2.823  1.00  0.00     0.010 C 
ATOM     38  C   UNL     1       9.781   9.176   2.237  1.00  0.00     0.010 C 
ENDBRANCH  35  36
BRANCH  35  39
ATOM     39  C   UNL     1      12.666   9.110   4.437  1.00  0.00     0.329 C 
ATOM     40  O   UNL     1      12.990   7.952   4.198  1.00  0.00    -0.250 OA
BRANCH  39  41
ATOM     41  O   UNL     1      13.563  10.095   4.745  1.00  0.00    -0.458 OA
BRANCH  41  42
ATOM     42  C   UNL     1      14.903   9.661   5.080  1.00  0.00     0.205 CG0
ATOM     43  C   UNL     1      15.244  10.253   6.445  1.00  0.00     0.056 C 
ATOM     44  G   UNL     1      15.865  10.138   3.973  1.00  0.00     0.000 G0
ENDBRANCH  41  42
ENDBRANCH  39  41
ENDBRANCH  35  39
ENDBRANCH  33  35
ENDBRANCH  23  31
ENDBRANCH  21  23
ENDBRANCH  19  21
ENDBRANCH  14  19
ENDBRANCH   7  14
ENDBRANCH   2   5
BRANCH   3  45
ATOM     45  C   UNL     1      -1.366   8.282   8.573  1.00  0.00     0.171 C 
BRANCH  45  46
ATOM     46  N   UNL     1      -2.138   9.452   8.970  1.00  0.00    -0.342 N 
ATOM     47  C   UNL     1      -2.931  10.145   8.090  1.00  0.00     0.247 C 
ATOM     48  O   UNL     1      -3.105   9.787   6.924  1.00  0.00    -0.273 OA
ATOM     49  H   UNL     1      -2.066   9.750   9.941  1.00  0.00     0.164 HD
BRANCH  47  50
ATOM     50  C   UNL     1      -3.568  11.422   8.655  1.00  0.00     0.212 CG0
ATOM     51  G   UNL     1      -4.948  11.590   7.987  1.00  0.00     0.000 G0
BRANCH  50  52
ATOM     52  N   UNL     1      -3.648  11.212  10.098  1.00  0.00    -0.339 N 
ATOM     53  C   UNL     1      -4.471  11.939  10.923  1.00  0.00     0.243 C 
ATOM     54  O   UNL     1      -5.168  12.864  10.515  1.00  0.00    -0.273 OA
ATOM     55  H   UNL     1      -3.012  10.534  10.513  1.00  0.00     0.164 HD
BRANCH  53  56
ATOM     56  C   UNL     1      -4.319  11.598  12.420  1.00  0.00     0.182 C 
BRANCH  56  57
ATOM     57  N   UNL     1      -3.406  10.466  12.612  1.00  0.00    -0.344 N 
ATOM     58  C   UNL     1      -2.103  10.632  13.015  1.00  0.00     0.220 C 
ATOM     59  O   UNL     1      -1.593  11.736  13.172  1.00  0.00    -0.275 OA
ATOM     60  H   UNL     1      -3.815   9.536  12.592  1.00  0.00     0.164 HD
BRANCH  58  61
ATOM     61  C   UNL     1      -1.361   9.322  13.206  1.00  0.00     0.100 C 
BRANCH  61  62
ATOM     62  C   UNL     1      -2.072   8.341  14.137  1.00  0.00     0.010 C 
BRANCH  62  63
ATOM     63  C   UNL     1      -2.434   7.003  13.481  1.00  0.00     0.000 C 
BRANCH  63  64
ATOM     64  C   UNL     1      -3.876   6.557  13.720  1.00  0.00    -0.003 C 
ATOM     65  C   UNL     1      -3.942   5.100  14.154  1.00  0.00     0.004 C 
ENDBRANCH  63  64
ENDBRANCH  62  63
ENDBRANCH  61  62
ENDBRANCH  58  61
ENDBRANCH  56  57
BRANCH  56  66
ATOM     66  C   UNL     1      -5.676  11.362  13.081  1.00  0.00     0.157 C 
BRANCH  66  67
ATOM     67  C   UNL     1      -5.706  10.047  13.806  1.00  0.00     0.305 C 
ATOM     68  O   UNL     1      -5.333   9.832  14.949  1.00  0.00    -0.252 OA
BRANCH  67  69
ATOM     69  O   UNL     1      -6.260   9.067  13.067  1.00  0.00    -0.481 OA
ATOM     70  H   UNL     1      -6.548   8.394  13.719  1.00  0.00     0.296 HD
ENDBRANCH  67  69
ENDBRANCH  66  67
ENDBRANCH  56  66
ENDBRANCH  53  56
ENDBRANCH  50  52
ENDBRANCH  47  50
ENDBRANCH  45  46
BRANCH  45  71
ATOM     71  C   UNL     1      -0.928   7.455   9.787  1.00  0.00     0.037 C 
BRANCH  71  72
ATOM     72  C   UNL     1      -1.571   6.066   9.801  1.00  0.00     0.026 C 
BRANCH  72  73
ATOM     73  C   UNL     1      -1.855   5.566   8.386  1.00  0.00     0.146 C 
BRANCH  73  74
ATOM     74  N   UNL     1      -3.237   5.100   8.345  1.00  0.00    -0.254 NA
ATOM     75  C   UNL     1      -4.063   5.738   7.600  1.00  0.00     0.185 C 
ATOM     76  N   UNL     1      -5.342   5.333   7.541  1.00  0.00    -0.370 N 
ATOM     77  N   UNL     1      -3.843   6.812   6.822  1.00  0.00    -0.370 N 
ATOM     78  H   UNL     1      -5.595   4.533   8.104  1.00  0.00     0.159 HD
ATOM     79  H   UNL     1      -6.071   5.864   7.098  1.00  0.00     0.159 HD
ATOM     80  H   UNL     1      -2.924   7.225   6.764  1.00  0.00     0.159 HD
ATOM     81  H   UNL     1      -4.545   7.159   6.189  1.00  0.00     0.159 HD
ENDBRANCH  73  74
ENDBRANCH  72  73
ENDBRANCH  71  72
ENDBRANCH  45  71
ENDBRANCH   3  45
TORSDOF 20
ENDMDL
MODEL 9
REMARK VINA RESULT:    -5.684      3.169      6.314
REMARK INTER + INTRA:         -23.469
REMARK INTER:                 -16.798
REMARK INTRA:                  -6.671
REMARK UNBOUND:                -7.151
REMARK SMILES CCCCCC(=O)N[C@H](CC(=O)O)C(=O)N[C@H]1C(=O)N[C@H](CCCN=C(N)N)C(=O)N[C@@H]2CC[C@H](O)N(C2=O)[C@@H](CC(C)C)C(=O)N(C)[C@@H](Cc2ccccc2)C(=O)N[C@H](C(C)C)C(=O)O[C@@H]1C
REMARK SMILES IDX 30 1 31 2 29 3 32 5 35 6 37 7 34 8 38 9 33 10 39 11 36 12
REMARK SMILES IDX 40 14 41 15 42 16 43 17 44 18 45 19 46 20 47 21 48 22 49 23
REMARK SMILES IDX 50 24 51 25 52 26 56 27 53 28 55 29 54 30 57 31 58 32 59 33
REMARK SMILES IDX 60 35 61 36 62 37 63 38 64 39 65 40 66 41 67 42 68 43 21 45
REMARK SMILES IDX 20 46 18 47 19 48 17 50 16 52 14 53 15 54 9 56 8 57 6 58
REMARK SMILES IDX 7 59 5 61 4 62 3 63 2 64 1 65 10 66 11 67 12 68 13 69 22 71
REMARK SMILES IDX 23 72 24 73 25 74 26 75 27 76 28 77
REMARK H PARENT 31 4 36 13 59 34 20 49 16 55 8 60 13 70 27 78 27 79 28 80
REMARK H PARENT 28 81
REMARK Flexibility Score:  259.900
ROOT
ATOM      1  O   UNL     1       0.855   4.611   8.776  1.00  0.00    -0.273 OA
ATOM      2  N   UNL     1       1.031   6.094   7.044  1.00  0.00    -0.343 N 
ATOM      3  C   UNL     1       0.318   5.258   7.876  1.00  0.00     0.243 C 
ATOM      4  H   UNL     1       0.553   6.622   6.324  1.00  0.00     0.164 HD
ENDROOT
BRANCH   2   5
ATOM      5  C   UNL     1       2.486   6.156   7.123  1.00  0.00     0.171 C 
ATOM      6  C   UNL     1       4.431   8.039   6.086  1.00  0.00     0.214 C 
ATOM      7  N   UNL     1       4.058   6.893   5.290  1.00  0.00    -0.303 N 
ATOM      8  C   UNL     1       4.344   7.787   7.583  1.00  0.00     0.057 C 
ATOM      9  C   UNL     1       3.099   5.983   5.703  1.00  0.00     0.247 C 
ATOM     10  C   UNL     1       2.940   7.358   7.949  1.00  0.00     0.040 C 
ATOM     11  O   UNL     1       2.722   5.052   4.979  1.00  0.00    -0.272 OA
BRANCH   6  12
ATOM     12  O   UNL     1       3.593   9.110   5.718  1.00  0.00    -0.373 OA
ATOM     13  H   UNL     1       3.870   9.397   4.822  1.00  0.00     0.213 HD
ENDBRANCH   6  12
BRANCH   7  14
ATOM     14  C   UNL     1       4.638   6.801   3.933  1.00  0.00     0.177 C 
BRANCH  14  15
ATOM     15  C   UNL     1       4.276   7.961   2.986  1.00  0.00     0.038 C 
BRANCH  15  16
ATOM     16  C   UNL     1       3.037   7.838   2.071  1.00  0.00    -0.015 C 
ATOM     17  C   UNL     1       3.179   8.653   0.782  1.00  0.00     0.007 C 
ATOM     18  C   UNL     1       1.791   8.333   2.817  1.00  0.00     0.007 C 
ENDBRANCH  15  16
ENDBRANCH  14  15
BRANCH  14  19
ATOM     19  C   UNL     1       6.023   6.069   3.983  1.00  0.00     0.245 C 
ATOM     20  O   UNL     1       7.018   6.769   4.233  1.00  0.00    -0.272 OA
BRANCH  19  21
ATOM     21  N   UNL     1       6.202   4.736   3.657  1.00  0.00    -0.332 N 
ATOM     22  C   UNL     1       5.311   3.943   2.829  1.00  0.00     0.147 C 
BRANCH  21  23
ATOM     23  C   UNL     1       7.400   4.041   4.205  1.00  0.00     0.178 C 
BRANCH  23  24
ATOM     24  C   UNL     1       7.086   2.847   5.131  1.00  0.00     0.070 C 
BRANCH  24  25
ATOM     25  C   UNL     1       6.093   3.083   6.245  1.00  0.00    -0.045 A 
ATOM     26  C   UNL     1       6.364   4.004   7.265  1.00  0.00     0.004 A 
ATOM     27  C   UNL     1       4.883   2.374   6.276  1.00  0.00     0.004 A 
ATOM     28  C   UNL     1       5.449   4.204   8.300  1.00  0.00     0.000 A 
ATOM     29  C   UNL     1       3.969   2.575   7.311  1.00  0.00     0.000 A 
ATOM     30  C   UNL     1       4.254   3.488   8.324  1.00  0.00     0.000 A 
ENDBRANCH  24  25
ENDBRANCH  23  24
BRANCH  23  31
ATOM     31  C   UNL     1       8.482   3.768   3.134  1.00  0.00     0.243 C 
ATOM     32  O   UNL     1       8.736   4.529   2.204  1.00  0.00    -0.273 OA
ATOM     33  N   UNL     1       9.021   2.495   3.205  1.00  0.00    -0.341 N 
ATOM     34  H   UNL     1       8.768   1.903   4.000  1.00  0.00     0.164 HD
BRANCH  33  35
ATOM     35  C   UNL     1       9.976   1.975   2.221  1.00  0.00     0.194 C 
BRANCH  35  36
ATOM     36  C   UNL     1       9.615   0.568   1.668  1.00  0.00     0.017 C 
ATOM     37  C   UNL     1       9.190   0.639   0.191  1.00  0.00     0.010 C 
ATOM     38  C   UNL     1       8.478  -0.112   2.440  1.00  0.00     0.010 C 
ENDBRANCH  35  36
BRANCH  35  39
ATOM     39  C   UNL     1      11.446   2.043   2.721  1.00  0.00     0.329 C 
ATOM     40  O   UNL     1      11.882   2.925   3.452  1.00  0.00    -0.250 OA
BRANCH  39  41
ATOM     41  O   UNL     1      12.181   0.960   2.324  1.00  0.00    -0.458 OA
BRANCH  41  42
ATOM     42  C   UNL     1      13.323   1.236   1.478  1.00  0.00     0.205 CG0
ATOM     43  C   UNL     1      12.967   0.767   0.068  1.00  0.00     0.056 C 
ATOM     44  G   UNL     1      14.549   0.499   2.052  1.00  0.00     0.000 G0
ENDBRANCH  41  42
ENDBRANCH  39  41
ENDBRANCH  35  39
ENDBRANCH  33  35
ENDBRANCH  23  31
ENDBRANCH  21  23
ENDBRANCH  19  21
ENDBRANCH  14  19
ENDBRANCH   7  14
ENDBRANCH   2   5
BRANCH   3  45
ATOM     45  C   UNL     1      -1.193   5.205   7.617  1.00  0.00     0.171 C 
BRANCH  45  46
ATOM     46  N   UNL     1      -1.738   6.416   8.217  1.00  0.00    -0.342 N 
ATOM     47  C   UNL     1      -2.441   7.345   7.491  1.00  0.00     0.247 C 
ATOM     48  O   UNL     1      -2.725   7.189   6.303  1.00  0.00    -0.273 OA
ATOM     49  H   UNL     1      -1.575   6.557   9.212  1.00  0.00     0.164 HD
BRANCH  47  50
ATOM     50  C   UNL     1      -2.829   8.614   8.263  1.00  0.00     0.212 CG0
ATOM     51  G   UNL     1      -4.289   8.449   8.730  1.00  0.00     0.000 G0
BRANCH  50  52
ATOM     52  N   UNL     1      -1.877   8.705   9.367  1.00  0.00    -0.339 N 
ATOM     53  C   UNL     1      -1.300   9.884   9.771  1.00  0.00     0.243 C 
ATOM     54  O   UNL     1      -1.500  10.951   9.197  1.00  0.00    -0.273 OA
ATOM     55  H   UNL     1      -1.585   7.837   9.812  1.00  0.00     0.164 HD
BRANCH  53  56
ATOM     56  C   UNL     1      -0.261   9.719  10.899  1.00  0.00     0.182 C 
BRANCH  56  57
ATOM     57  N   UNL     1      -0.918   9.475  12.187  1.00  0.00    -0.344 N 
ATOM     58  C   UNL     1      -0.553   8.442  13.016  1.00  0.00     0.220 C 
ATOM     59  O   UNL     1       0.294   7.611  12.706  1.00  0.00    -0.275 OA
ATOM     60  H   UNL     1      -1.551  10.195  12.526  1.00  0.00     0.164 HD
BRANCH  58  61
ATOM     61  C   UNL     1      -1.326   8.415  14.321  1.00  0.00     0.100 C 
BRANCH  61  62
ATOM     62  C   UNL     1      -2.784   7.982  14.164  1.00  0.00     0.010 C 
BRANCH  62  63
ATOM     63  C   UNL     1      -2.973   6.695  13.352  1.00  0.00     0.000 C 
BRANCH  63  64
ATOM     64  C   UNL     1      -3.843   6.861  12.107  1.00  0.00    -0.003 C 
ATOM     65  C   UNL     1      -4.360   8.287  11.977  1.00  0.00     0.004 C 
ENDBRANCH  63  64
ENDBRANCH  62  63
ENDBRANCH  61  62
ENDBRANCH  58  61
ENDBRANCH  56  57
BRANCH  56  66
ATOM     66  C   UNL     1       0.697  10.908  10.957  1.00  0.00     0.157 C 
BRANCH  66  67
ATOM     67  C   UNL     1       2.126  10.452  11.016  1.00  0.00     0.305 C 
ATOM     68  O   UNL     1       3.121  11.161  11.045  1.00  0.00    -0.252 OA
BRANCH  67  69
ATOM     69  O   UNL     1       2.233   9.112  11.088  1.00  0.00    -0.481 OA
ATOM     70  H   UNL     1       3.006   8.892  10.525  1.00  0.00     0.296 HD
ENDBRANCH  67  69
ENDBRANCH  66  67
ENDBRANCH  56  66
ENDBRANCH  53  56
ENDBRANCH  50  52
ENDBRANCH  47  50
ENDBRANCH  45  46
BRANCH  45  71
ATOM     71  C   UNL     1      -1.798   3.943   8.242  1.00  0.00     0.037 C 
BRANCH  71  72
ATOM     72  C   UNL     1      -3.244   4.161   8.696  1.00  0.00     0.026 C 
BRANCH  72  73
ATOM     73  C   UNL     1      -4.232   3.425   7.795  1.00  0.00     0.146 C 
BRANCH  73  74
ATOM     74  N   UNL     1      -5.341   4.331   7.513  1.00  0.00    -0.254 NA
ATOM     75  C   UNL     1      -5.374   4.897   6.363  1.00  0.00     0.185 C 
ATOM     76  N   UNL     1      -6.382   5.736   6.074  1.00  0.00    -0.370 N 
ATOM     77  N   UNL     1      -4.511   4.781   5.339  1.00  0.00    -0.370 N 
ATOM     78  H   UNL     1      -7.074   5.886   6.795  1.00  0.00     0.159 HD
ATOM     79  H   UNL     1      -6.398   6.322   5.258  1.00  0.00     0.159 HD
ATOM     80  H   UNL     1      -3.705   4.180   5.413  1.00  0.00     0.159 HD
ATOM     81  H   UNL     1      -4.703   5.187   4.438  1.00  0.00     0.159 HD
ENDBRANCH  73  74
ENDBRANCH  72  73
ENDBRANCH  71  72
ENDBRANCH  45  71
ENDBRANCH   3  45
TORSDOF 20
ENDMDL
MODEL 10
REMARK VINA RESULT:    -5.610      3.707     12.359
REMARK INTER + INTRA:         -23.254
REMARK INTER:                 -17.418
REMARK INTRA:                  -5.836
REMARK UNBOUND:                -7.151
REMARK SMILES CCCCCC(=O)N[C@H](CC(=O)O)C(=O)N[C@H]1C(=O)N[C@H](CCCN=C(N)N)C(=O)N[C@@H]2CC[C@H](O)N(C2=O)[C@@H](CC(C)C)C(=O)N(C)[C@@H](Cc2ccccc2)C(=O)N[C@H](C(C)C)C(=O)O[C@@H]1C
REMARK SMILES IDX 30 1 31 2 29 3 32 5 35 6 37 7 34 8 38 9 33 10 39 11 36 12
REMARK SMILES IDX 40 14 41 15 42 16 43 17 44 18 45 19 46 20 47 21 48 22 49 23
REMARK SMILES IDX 50 24 51 25 52 26 56 27 53 28 55 29 54 30 57 31 58 32 59 33
REMARK SMILES IDX 60 35 61 36 62 37 63 38 64 39 65 40 66 41 67 42 68 43 21 45
REMARK SMILES IDX 20 46 18 47 19 48 17 50 16 52 14 53 15 54 9 56 8 57 6 58
REMARK SMILES IDX 7 59 5 61 4 62 3 63 2 64 1 65 10 66 11 67 12 68 13 69 22 71
REMARK SMILES IDX 23 72 24 73 25 74 26 75 27 76 28 77
REMARK H PARENT 31 4 36 13 59 34 20 49 16 55 8 60 13 70 27 78 27 79 28 80
REMARK H PARENT 28 81
REMARK Flexibility Score:  259.900
ROOT
ATOM      1  O   UNL     1       2.979  11.569   5.466  1.00  0.00    -0.273 OA
ATOM      2  N   UNL     1       2.863   9.702   6.782  1.00  0.00    -0.343 N 
ATOM      3  C   UNL     1       3.478  10.511   5.851  1.00  0.00     0.243 C 
ATOM      4  H   UNL     1       3.310   8.846   7.086  1.00  0.00     0.164 HD
ENDROOT
BRANCH   2   5
ATOM      5  C   UNL     1       1.522  10.013   7.265  1.00  0.00     0.171 C 
ATOM      6  C   UNL     1      -0.286   8.636   9.065  1.00  0.00     0.214 C 
ATOM      7  N   UNL     1      -0.355   8.369   7.648  1.00  0.00    -0.303 N 
ATOM      8  C   UNL     1       0.177  10.048   9.390  1.00  0.00     0.057 C 
ATOM      9  C   UNL     1       0.512   8.953   6.739  1.00  0.00     0.247 C 
ATOM     10  C   UNL     1       1.533  10.298   8.766  1.00  0.00     0.040 C 
ATOM     11  O   UNL     1       0.503   8.654   5.538  1.00  0.00    -0.272 OA
BRANCH   6  12
ATOM     12  O   UNL     1       0.584   7.688   9.640  1.00  0.00    -0.373 OA
ATOM     13  H   UNL     1       1.405   7.689   9.103  1.00  0.00     0.213 HD
ENDBRANCH   6  12
BRANCH   7  14
ATOM     14  C   UNL     1      -1.302   7.322   7.208  1.00  0.00     0.177 C 
BRANCH  14  15
ATOM     15  C   UNL     1      -0.710   5.904   7.101  1.00  0.00     0.038 C 
BRANCH  15  16
ATOM     16  C   UNL     1       0.821   5.710   7.183  1.00  0.00    -0.015 C 
ATOM     17  C   UNL     1       1.441   5.377   5.823  1.00  0.00     0.007 C 
ATOM     18  C   UNL     1       1.148   4.568   8.154  1.00  0.00     0.007 C 
ENDBRANCH  15  16
ENDBRANCH  14  15
BRANCH  14  19
ATOM     19  C   UNL     1      -2.753   7.665   7.691  1.00  0.00     0.245 C 
ATOM     20  O   UNL     1      -3.245   8.728   7.277  1.00  0.00    -0.272 OA
BRANCH  19  21
ATOM     21  N   UNL     1      -3.452   6.918   8.623  1.00  0.00    -0.332 N 
ATOM     22  C   UNL     1      -4.309   5.785   8.323  1.00  0.00     0.147 C 
BRANCH  21  23
ATOM     23  C   UNL     1      -3.334   7.305  10.056  1.00  0.00     0.178 C 
BRANCH  23  24
ATOM     24  C   UNL     1      -4.588   7.980  10.649  1.00  0.00     0.070 C 
BRANCH  24  25
ATOM     25  C   UNL     1      -4.396   9.321  11.318  1.00  0.00    -0.045 A 
ATOM     26  C   UNL     1      -3.735  10.365  10.658  1.00  0.00     0.004 A 
ATOM     27  C   UNL     1      -4.876   9.538  12.619  1.00  0.00     0.004 A 
ATOM     28  C   UNL     1      -3.547  11.596  11.290  1.00  0.00     0.000 A 
ATOM     29  C   UNL     1      -4.688  10.769  13.248  1.00  0.00     0.000 A 
ATOM     30  C   UNL     1      -4.021  11.796  12.584  1.00  0.00     0.000 A 
ENDBRANCH  24  25
ENDBRANCH  23  24
BRANCH  23  31
ATOM     31  C   UNL     1      -2.718   6.189  10.934  1.00  0.00     0.243 C 
ATOM     32  O   UNL     1      -1.557   5.800  10.835  1.00  0.00    -0.273 OA
ATOM     33  N   UNL     1      -3.646   5.531  11.722  1.00  0.00    -0.341 N 
ATOM     34  H   UNL     1      -4.600   5.898  11.759  1.00  0.00     0.164 HD
BRANCH  33  35
ATOM     35  C   UNL     1      -3.311   4.365  12.544  1.00  0.00     0.194 C 
BRANCH  35  36
ATOM     36  C   UNL     1      -3.617   3.000  11.865  1.00  0.00     0.017 C 
ATOM     37  C   UNL     1      -2.356   2.403  11.217  1.00  0.00     0.010 C 
ATOM     38  C   UNL     1      -4.691   3.095  10.774  1.00  0.00     0.010 C 
ENDBRANCH  35  36
BRANCH  35  39
ATOM     39  C   UNL     1      -3.914   4.449  13.975  1.00  0.00     0.329 C 
ATOM     40  O   UNL     1      -3.549   5.250  14.827  1.00  0.00    -0.250 OA
BRANCH  39  41
ATOM     41  O   UNL     1      -4.960   3.585  14.150  1.00  0.00    -0.458 OA
BRANCH  41  42
ATOM     42  C   UNL     1      -5.060   2.954  15.449  1.00  0.00     0.205 CG0
ATOM     43  C   UNL     1      -5.268   1.460  15.214  1.00  0.00     0.056 C 
ATOM     44  G   UNL     1      -6.230   3.599  16.219  1.00  0.00     0.000 G0
ENDBRANCH  41  42
ENDBRANCH  39  41
ENDBRANCH  35  39
ENDBRANCH  33  35
ENDBRANCH  23  31
ENDBRANCH  21  23
ENDBRANCH  19  21
ENDBRANCH  14  19
ENDBRANCH   7  14
ENDBRANCH   2   5
BRANCH   3  45
ATOM     45  C   UNL     1       4.838  10.013   5.344  1.00  0.00     0.171 C 
BRANCH  45  46
ATOM     46  N   UNL     1       5.090  10.744   4.109  1.00  0.00    -0.342 N 
ATOM     47  C   UNL     1       6.269  11.407   3.874  1.00  0.00     0.247 C 
ATOM     48  O   UNL     1       7.222  11.371   4.652  1.00  0.00    -0.273 OA
ATOM     49  H   UNL     1       4.347  10.752   3.413  1.00  0.00     0.164 HD
BRANCH  47  50
ATOM     50  C   UNL     1       6.306  12.224   2.575  1.00  0.00     0.212 CG0
ATOM     51  G   UNL     1       7.785  12.408   2.181  1.00  0.00     0.000 G0
BRANCH  50  52
ATOM     52  N   UNL     1       5.543  11.446   1.603  1.00  0.00    -0.339 N 
ATOM     53  C   UNL     1       5.984  11.187   0.328  1.00  0.00     0.243 C 
ATOM     54  O   UNL     1       7.038  11.639  -0.112  1.00  0.00    -0.273 OA
ATOM     55  H   UNL     1       4.611  11.137   1.871  1.00  0.00     0.164 HD
BRANCH  53  56
ATOM     56  C   UNL     1       4.969  10.420  -0.544  1.00  0.00     0.182 C 
BRANCH  56  57
ATOM     57  N   UNL     1       4.222   9.443   0.254  1.00  0.00    -0.344 N 
ATOM     58  C   UNL     1       2.849   9.410   0.280  1.00  0.00     0.220 C 
ATOM     59  O   UNL     1       2.155  10.236  -0.301  1.00  0.00    -0.275 OA
ATOM     60  H   UNL     1       4.755   8.682   0.667  1.00  0.00     0.164 HD
BRANCH  58  61
ATOM     61  C   UNL     1       2.291   8.280   1.126  1.00  0.00     0.100 C 
BRANCH  61  62
ATOM     62  C   UNL     1       3.365   7.425   1.798  1.00  0.00     0.010 C 
BRANCH  62  63
ATOM     63  C   UNL     1       3.514   6.020   1.201  1.00  0.00     0.000 C 
BRANCH  63  64
ATOM     64  C   UNL     1       2.613   4.967   1.845  1.00  0.00    -0.003 C 
ATOM     65  C   UNL     1       2.395   3.780   0.917  1.00  0.00     0.004 C 
ENDBRANCH  63  64
ENDBRANCH  62  63
ENDBRANCH  61  62
ENDBRANCH  58  61
ENDBRANCH  56  57
BRANCH  56  66
ATOM     66  C   UNL     1       5.644   9.780  -1.756  1.00  0.00     0.157 C 
BRANCH  66  67
ATOM     67  C   UNL     1       5.646   8.282  -1.649  1.00  0.00     0.305 C 
ATOM     68  O   UNL     1       6.346   7.601  -0.914  1.00  0.00    -0.252 OA
BRANCH  67  69
ATOM     69  O   UNL     1       4.722   7.710  -2.443  1.00  0.00    -0.481 OA
ATOM     70  H   UNL     1       5.237   7.159  -3.070  1.00  0.00     0.296 HD
ENDBRANCH  67  69
ENDBRANCH  66  67
ENDBRANCH  56  66
ENDBRANCH  53  56
ENDBRANCH  50  52
ENDBRANCH  47  50
ENDBRANCH  45  46
BRANCH  45  71
ATOM     71  C   UNL     1       4.797   8.499   5.107  1.00  0.00     0.037 C 
BRANCH  71  72
ATOM     72  C   UNL     1       5.677   7.736   6.101  1.00  0.00     0.026 C 
BRANCH  72  73
ATOM     73  C   UNL     1       4.844   6.828   7.003  1.00  0.00     0.146 C 
BRANCH  73  74
ATOM     74  N   UNL     1       5.763   5.954   7.727  1.00  0.00    -0.254 NA
ATOM     75  C   UNL     1       5.557   4.690   7.669  1.00  0.00     0.185 C 
ATOM     76  N   UNL     1       6.386   3.860   8.324  1.00  0.00    -0.370 N 
ATOM     77  N   UNL     1       4.589   4.020   7.020  1.00  0.00    -0.370 N 
ATOM     78  H   UNL     1       7.140   4.284   8.846  1.00  0.00     0.159 HD
ATOM     79  H   UNL     1       6.206   2.879   8.444  1.00  0.00     0.159 HD
ATOM     80  H   UNL     1       3.895   4.514   6.481  1.00  0.00     0.159 HD
ATOM     81  H   UNL     1       4.597   3.015   6.953  1.00  0.00     0.159 HD
ENDBRANCH  73  74
ENDBRANCH  72  73
ENDBRANCH  71  72
ENDBRANCH  45  71
ENDBRANCH   3  45
TORSDOF 20
ENDMDL
MODEL 11
REMARK VINA RESULT:    -5.601      3.666      5.927
REMARK INTER + INTRA:         -23.231
REMARK INTER:                 -17.068
REMARK INTRA:                  -6.163
REMARK UNBOUND:                -7.151
REMARK SMILES CCCCCC(=O)N[C@H](CC(=O)O)C(=O)N[C@H]1C(=O)N[C@H](CCCN=C(N)N)C(=O)N[C@@H]2CC[C@H](O)N(C2=O)[C@@H](CC(C)C)C(=O)N(C)[C@@H](Cc2ccccc2)C(=O)N[C@H](C(C)C)C(=O)O[C@@H]1C
REMARK SMILES IDX 30 1 31 2 29 3 32 5 35 6 37 7 34 8 38 9 33 10 39 11 36 12
REMARK SMILES IDX 40 14 41 15 42 16 43 17 44 18 45 19 46 20 47 21 48 22 49 23
REMARK SMILES IDX 50 24 51 25 52 26 56 27 53 28 55 29 54 30 57 31 58 32 59 33
REMARK SMILES IDX 60 35 61 36 62 37 63 38 64 39 65 40 66 41 67 42 68 43 21 45
REMARK SMILES IDX 20 46 18 47 19 48 17 50 16 52 14 53 15 54 9 56 8 57 6 58
REMARK SMILES IDX 7 59 5 61 4 62 3 63 2 64 1 65 10 66 11 67 12 68 13 69 22 71
REMARK SMILES IDX 23 72 24 73 25 74 26 75 27 76 28 77
REMARK H PARENT 31 4 36 13 59 34 20 49 16 55 8 60 13 70 27 78 27 79 28 80
REMARK H PARENT 28 81
REMARK Flexibility Score:  259.900
ROOT
ATOM      1  O   UNL     1      -1.965   8.381  13.007  1.00  0.00    -0.273 OA
ATOM      2  N   UNL     1      -2.285   9.274  10.926  1.00  0.00    -0.343 N 
ATOM      3  C   UNL     1      -2.698   8.569  12.036  1.00  0.00     0.243 C 
ATOM      4  H   UNL     1      -2.921   9.421  10.152  1.00  0.00     0.164 HD
ENDROOT
BRANCH   2   5
ATOM      5  C   UNL     1      -0.905   9.731  10.808  1.00  0.00     0.171 C 
ATOM      6  C   UNL     1       0.571  10.984   8.651  1.00  0.00     0.214 C 
ATOM      7  N   UNL     1       0.568   9.545   8.767  1.00  0.00    -0.303 N 
ATOM      8  C   UNL     1       0.433  11.696   9.988  1.00  0.00     0.057 C 
ATOM      9  C   UNL     1      -0.157   8.880   9.742  1.00  0.00     0.247 C 
ATOM     10  C   UNL     1      -0.840  11.252  10.675  1.00  0.00     0.040 C 
ATOM     11  O   UNL     1      -0.225   7.644   9.782  1.00  0.00    -0.272 OA
BRANCH   6  12
ATOM     12  O   UNL     1      -0.480  11.349   7.787  1.00  0.00    -0.373 OA
ATOM     13  H   UNL     1      -0.201  12.168   7.324  1.00  0.00     0.213 HD
ENDBRANCH   6  12
BRANCH   7  14
ATOM     14  C   UNL     1       1.258   8.785   7.703  1.00  0.00     0.177 C 
BRANCH  14  15
ATOM     15  C   UNL     1       2.581   8.117   8.127  1.00  0.00     0.038 C 
BRANCH  15  16
ATOM     16  C   UNL     1       3.901   8.913   8.032  1.00  0.00    -0.015 C 
ATOM     17  C   UNL     1       4.315   9.188   6.584  1.00  0.00     0.007 C 
ATOM     18  C   UNL     1       5.029   8.129   8.714  1.00  0.00     0.007 C 
ENDBRANCH  15  16
ENDBRANCH  14  15
BRANCH  14  19
ATOM     19  C   UNL     1       0.214   8.178   6.704  1.00  0.00     0.245 C 
ATOM     20  O   UNL     1      -0.956   8.583   6.802  1.00  0.00    -0.272 OA
BRANCH  19  21
ATOM     21  N   UNL     1       0.501   7.155   5.816  1.00  0.00    -0.332 N 
ATOM     22  C   UNL     1      -0.403   6.079   5.450  1.00  0.00     0.147 C 
BRANCH  21  23
ATOM     23  C   UNL     1       1.849   7.139   5.185  1.00  0.00     0.178 C 
BRANCH  23  24
ATOM     24  C   UNL     1       2.451   5.733   4.985  1.00  0.00     0.070 C 
BRANCH  24  25
ATOM     25  C   UNL     1       3.572   5.326   5.913  1.00  0.00    -0.045 A 
ATOM     26  C   UNL     1       3.308   4.602   7.083  1.00  0.00     0.004 A 
ATOM     27  C   UNL     1       4.898   5.675   5.616  1.00  0.00     0.004 A 
ATOM     28  C   UNL     1       4.348   4.245   7.944  1.00  0.00     0.000 A 
ATOM     29  C   UNL     1       5.937   5.316   6.477  1.00  0.00     0.000 A 
ATOM     30  C   UNL     1       5.660   4.604   7.642  1.00  0.00     0.000 A 
ENDBRANCH  24  25
ENDBRANCH  23  24
BRANCH  23  31
ATOM     31  C   UNL     1       1.951   8.073   3.955  1.00  0.00     0.243 C 
ATOM     32  O   UNL     1       1.281   9.091   3.809  1.00  0.00    -0.273 OA
ATOM     33  N   UNL     1       2.736   7.561   2.936  1.00  0.00    -0.341 N 
ATOM     34  H   UNL     1       3.267   6.705   3.115  1.00  0.00     0.164 HD
BRANCH  33  35
ATOM     35  C   UNL     1       2.881   8.216   1.633  1.00  0.00     0.194 C 
BRANCH  35  36
ATOM     36  C   UNL     1       1.557   8.317   0.823  1.00  0.00     0.017 C 
ATOM     37  C   UNL     1       0.808   6.973   0.806  1.00  0.00     0.010 C 
ATOM     38  C   UNL     1       1.772   8.740  -0.635  1.00  0.00     0.010 C 
ENDBRANCH  35  36
BRANCH  35  39
ATOM     39  C   UNL     1       4.035   7.612   0.785  1.00  0.00     0.329 C 
ATOM     40  O   UNL     1       4.096   6.436   0.447  1.00  0.00    -0.250 OA
BRANCH  39  41
ATOM     41  O   UNL     1       4.935   8.560   0.383  1.00  0.00    -0.458 OA
BRANCH  41  42
ATOM     42  C   UNL     1       5.653   8.283  -0.843  1.00  0.00     0.205 CG0
ATOM     43  C   UNL     1       7.131   8.560  -0.576  1.00  0.00     0.056 C 
ATOM     44  G   UNL     1       5.079   9.174  -1.962  1.00  0.00     0.000 G0
ENDBRANCH  41  42
ENDBRANCH  39  41
ENDBRANCH  35  39
ENDBRANCH  33  35
ENDBRANCH  23  31
ENDBRANCH  21  23
ENDBRANCH  19  21
ENDBRANCH  14  19
ENDBRANCH   7  14
ENDBRANCH   2   5
BRANCH   3  45
ATOM     45  C   UNL     1      -4.142   8.052  11.986  1.00  0.00     0.171 C 
BRANCH  45  46
ATOM     46  N   UNL     1      -4.212   6.981  12.972  1.00  0.00    -0.342 N 
ATOM     47  C   UNL     1      -5.108   6.994  14.011  1.00  0.00     0.247 C 
ATOM     48  O   UNL     1      -5.964   7.870  14.144  1.00  0.00    -0.273 OA
ATOM     49  H   UNL     1      -3.558   6.208  12.867  1.00  0.00     0.164 HD
BRANCH  47  50
ATOM     50  C   UNL     1      -4.951   5.847  15.019  1.00  0.00     0.212 CG0
ATOM     51  G   UNL     1      -6.052   6.009  16.086  1.00  0.00     0.000 G0
BRANCH  50  52
ATOM     52  N   UNL     1      -5.081   4.621  14.238  1.00  0.00    -0.339 N 
ATOM     53  C   UNL     1      -4.134   3.626  14.230  1.00  0.00     0.243 C 
ATOM     54  O   UNL     1      -3.074   3.716  14.842  1.00  0.00    -0.273 OA
ATOM     55  H   UNL     1      -5.887   4.536  13.622  1.00  0.00     0.164 HD
BRANCH  53  56
ATOM     56  C   UNL     1      -4.450   2.467  13.262  1.00  0.00     0.182 C 
BRANCH  56  57
ATOM     57  N   UNL     1      -3.264   2.092  12.485  1.00  0.00    -0.344 N 
ATOM     58  C   UNL     1      -2.796   0.802  12.431  1.00  0.00     0.220 C 
ATOM     59  O   UNL     1      -3.290  -0.110  13.085  1.00  0.00    -0.275 OA
ATOM     60  H   UNL     1      -2.888   2.794  11.852  1.00  0.00     0.164 HD
BRANCH  58  61
ATOM     61  C   UNL     1      -1.594   0.635  11.520  1.00  0.00     0.100 C 
BRANCH  61  62
ATOM     62  C   UNL     1      -1.680   1.452  10.231  1.00  0.00     0.010 C 
BRANCH  62  63
ATOM     63  C   UNL     1      -0.339   1.623   9.506  1.00  0.00     0.000 C 
BRANCH  63  64
ATOM     64  C   UNL     1       0.131   3.072   9.391  1.00  0.00    -0.003 C 
ATOM     65  C   UNL     1      -0.725   4.002  10.238  1.00  0.00     0.004 C 
ENDBRANCH  63  64
ENDBRANCH  62  63
ENDBRANCH  61  62
ENDBRANCH  58  61
ENDBRANCH  56  57
BRANCH  56  66
ATOM     66  C   UNL     1      -5.645   2.793  12.369  1.00  0.00     0.157 C 
BRANCH  66  67
ATOM     67  C   UNL     1      -6.485   1.573  12.118  1.00  0.00     0.305 C 
ATOM     68  O   UNL     1      -7.399   1.466  11.315  1.00  0.00    -0.252 OA
BRANCH  67  69
ATOM     69  O   UNL     1      -6.094   0.521  12.861  1.00  0.00    -0.481 OA
ATOM     70  H   UNL     1      -5.318   0.153  12.387  1.00  0.00     0.296 HD
ENDBRANCH  67  69
ENDBRANCH  66  67
ENDBRANCH  56  66
ENDBRANCH  53  56
ENDBRANCH  50  52
ENDBRANCH  47  50
ENDBRANCH  45  46
BRANCH  45  71
ATOM     71  C   UNL     1      -4.480   7.547  10.579  1.00  0.00     0.037 C 
BRANCH  71  72
ATOM     72  C   UNL     1      -3.823   6.198  10.278  1.00  0.00     0.026 C 
BRANCH  72  73
ATOM     73  C   UNL     1      -3.344   6.119   8.830  1.00  0.00     0.146 C 
BRANCH  73  74
ATOM     74  N   UNL     1      -4.504   6.312   7.964  1.00  0.00    -0.254 NA
ATOM     75  C   UNL     1      -4.590   5.590   6.909  1.00  0.00     0.185 C 
ATOM     76  N   UNL     1      -5.646   5.744   6.093  1.00  0.00    -0.370 N 
ATOM     77  N   UNL     1      -3.745   4.647   6.459  1.00  0.00    -0.370 N 
ATOM     78  H   UNL     1      -6.329   6.442   6.355  1.00  0.00     0.159 HD
ATOM     79  H   UNL     1      -5.710   5.323   5.184  1.00  0.00     0.159 HD
ATOM     80  H   UNL     1      -2.908   4.420   6.973  1.00  0.00     0.159 HD
ATOM     81  H   UNL     1      -3.977   4.061   5.673  1.00  0.00     0.159 HD
ENDBRANCH  73  74
ENDBRANCH  72  73
ENDBRANCH  71  72
ENDBRANCH  45  71
ENDBRANCH   3  45
TORSDOF 20
ENDMDL
MODEL 12
REMARK VINA RESULT:    -5.599     11.205     13.869
REMARK INTER + INTRA:         -23.224
REMARK INTER:                 -17.017
REMARK INTRA:                  -6.207
REMARK UNBOUND:                -7.151
REMARK SMILES CCCCCC(=O)N[C@H](CC(=O)O)C(=O)N[C@H]1C(=O)N[C@H](CCCN=C(N)N)C(=O)N[C@@H]2CC[C@H](O)N(C2=O)[C@@H](CC(C)C)C(=O)N(C)[C@@H](Cc2ccccc2)C(=O)N[C@H](C(C)C)C(=O)O[C@@H]1C
REMARK SMILES IDX 30 1 31 2 29 3 32 5 35 6 37 7 34 8 38 9 33 10 39 11 36 12
REMARK SMILES IDX 40 14 41 15 42 16 43 17 44 18 45 19 46 20 47 21 48 22 49 23
REMARK SMILES IDX 50 24 51 25 52 26 56 27 53 28 55 29 54 30 57 31 58 32 59 33
REMARK SMILES IDX 60 35 61 36 62 37 63 38 64 39 65 40 66 41 67 42 68 43 21 45
REMARK SMILES IDX 20 46 18 47 19 48 17 50 16 52 14 53 15 54 9 56 8 57 6 58
REMARK SMILES IDX 7 59 5 61 4 62 3 63 2 64 1 65 10 66 11 67 12 68 13 69 22 71
REMARK SMILES IDX 23 72 24 73 25 74 26 75 27 76 28 77
REMARK H PARENT 31 4 36 13 59 34 20 49 16 55 8 60 13 70 27 78 27 79 28 80
REMARK H PARENT 28 81
REMARK Flexibility Score:  259.900
ROOT
ATOM      1  O   UNL     1      -3.614  -0.193   7.257  1.00  0.00    -0.273 OA
ATOM      2  N   UNL     1      -2.812  -0.440   5.130  1.00  0.00    -0.343 N 
ATOM      3  C   UNL     1      -3.082   0.299   6.262  1.00  0.00     0.243 C 
ATOM      4  H   UNL     1      -2.360  -0.005   4.335  1.00  0.00     0.164 HD
ENDROOT
BRANCH   2   5
ATOM      5  C   UNL     1      -3.260  -1.824   5.022  1.00  0.00     0.171 C 
ATOM      6  C   UNL     1      -2.200  -4.128   3.618  1.00  0.00     0.214 C 
ATOM      7  N   UNL     1      -3.163  -3.276   2.960  1.00  0.00    -0.303 N 
ATOM      8  C   UNL     1      -2.369  -4.173   5.128  1.00  0.00     0.057 C 
ATOM      9  C   UNL     1      -3.671  -2.132   3.554  1.00  0.00     0.247 C 
ATOM     10  C   UNL     1      -2.272  -2.774   5.697  1.00  0.00     0.040 C 
ATOM     11  O   UNL     1      -4.430  -1.362   2.951  1.00  0.00    -0.272 OA
BRANCH   6  12
ATOM     12  O   UNL     1      -0.914  -3.663   3.280  1.00  0.00    -0.373 OA
ATOM     13  H   UNL     1      -1.029  -2.968   2.598  1.00  0.00     0.213 HD
ENDBRANCH   6  12
BRANCH   7  14
ATOM     14  C   UNL     1      -3.485  -3.591   1.552  1.00  0.00     0.177 C 
BRANCH  14  15
ATOM     15  C   UNL     1      -2.312  -3.450   0.563  1.00  0.00     0.038 C 
BRANCH  15  16
ATOM     16  C   UNL     1      -2.138  -2.135  -0.229  1.00  0.00    -0.015 C 
ATOM     17  C   UNL     1      -1.540  -1.013   0.625  1.00  0.00     0.007 C 
ATOM     18  C   UNL     1      -3.499  -1.664  -0.757  1.00  0.00     0.007 C 
ENDBRANCH  15  16
ENDBRANCH  14  15
BRANCH  14  19
ATOM     19  C   UNL     1      -4.603  -4.688   1.482  1.00  0.00     0.245 C 
ATOM     20  O   UNL     1      -5.714  -4.385   1.949  1.00  0.00    -0.272 OA
BRANCH  19  21
ATOM     21  N   UNL     1      -4.388  -5.981   1.041  1.00  0.00    -0.332 N 
ATOM     22  C   UNL     1      -3.472  -6.935   1.640  1.00  0.00     0.147 C 
BRANCH  21  23
ATOM     23  C   UNL     1      -5.146  -6.444  -0.155  1.00  0.00     0.178 C 
BRANCH  23  24
ATOM     24  C   UNL     1      -4.292  -6.636  -1.425  1.00  0.00     0.070 C 
BRANCH  24  25
ATOM     25  C   UNL     1      -4.226  -5.476  -2.392  1.00  0.00    -0.045 A 
ATOM     26  C   UNL     1      -3.018  -5.120  -3.004  1.00  0.00     0.004 A 
ATOM     27  C   UNL     1      -5.380  -4.734  -2.686  1.00  0.00     0.004 A 
ATOM     28  C   UNL     1      -2.962  -4.036  -3.883  1.00  0.00     0.000 A 
ATOM     29  C   UNL     1      -5.323  -3.652  -3.566  1.00  0.00     0.000 A 
ATOM     30  C   UNL     1      -4.113  -3.302  -4.162  1.00  0.00     0.000 A 
ENDBRANCH  24  25
ENDBRANCH  23  24
BRANCH  23  31
ATOM     31  C   UNL     1      -6.117  -7.606   0.158  1.00  0.00     0.243 C 
ATOM     32  O   UNL     1      -7.085  -7.509   0.910  1.00  0.00    -0.273 OA
ATOM     33  N   UNL     1      -5.697  -8.828  -0.338  1.00  0.00    -0.341 N 
ATOM     34  H   UNL     1      -4.880  -8.847  -0.954  1.00  0.00     0.164 HD
BRANCH  33  35
ATOM     35  C   UNL     1      -6.397 -10.086  -0.063  1.00  0.00     0.194 C 
BRANCH  35  36
ATOM     36  C   UNL     1      -5.640 -11.034   0.910  1.00  0.00     0.017 C 
ATOM     37  C   UNL     1      -6.556 -11.511   2.051  1.00  0.00     0.010 C 
ATOM     38  C   UNL     1      -4.409 -10.383   1.552  1.00  0.00     0.010 C 
ENDBRANCH  35  36
BRANCH  35  39
ATOM     39  C   UNL     1      -6.840 -10.820  -1.360  1.00  0.00     0.329 C 
ATOM     40  O   UNL     1      -7.800 -11.578  -1.425  1.00  0.00    -0.250 OA
BRANCH  39  41
ATOM     41  O   UNL     1      -6.089 -10.458  -2.444  1.00  0.00    -0.458 OA
BRANCH  41  42
ATOM     42  C   UNL     1      -5.052 -11.385  -2.845  1.00  0.00     0.205 CG0
ATOM     43  C   UNL     1      -3.736 -10.611  -2.873  1.00  0.00     0.056 C 
ATOM     44  G   UNL     1      -5.422 -11.970  -4.223  1.00  0.00     0.000 G0
ENDBRANCH  41  42
ENDBRANCH  39  41
ENDBRANCH  35  39
ENDBRANCH  33  35
ENDBRANCH  23  31
ENDBRANCH  21  23
ENDBRANCH  19  21
ENDBRANCH  14  19
ENDBRANCH   7  14
ENDBRANCH   2   5
BRANCH   3  45
ATOM     45  C   UNL     1      -2.654   1.771   6.203  1.00  0.00     0.171 C 
BRANCH  45  46
ATOM     46  N   UNL     1      -2.167   2.093   7.538  1.00  0.00    -0.342 N 
ATOM     47  C   UNL     1      -0.985   2.758   7.749  1.00  0.00     0.247 C 
ATOM     48  O   UNL     1      -0.289   3.193   6.831  1.00  0.00    -0.273 OA
ATOM     49  H   UNL     1      -2.741   1.801   8.326  1.00  0.00     0.164 HD
BRANCH  47  50
ATOM     50  C   UNL     1      -0.573   2.898   9.222  1.00  0.00     0.212 CG0
ATOM     51  G   UNL     1       0.698   3.770   9.270  1.00  0.00     0.000 G0
BRANCH  50  52
ATOM     52  N   UNL     1      -1.718   3.509   9.890  1.00  0.00    -0.339 N 
ATOM     53  C   UNL     1      -1.621   4.622  10.691  1.00  0.00     0.243 C 
ATOM     54  O   UNL     1      -0.548   5.159  10.949  1.00  0.00    -0.273 OA
ATOM     55  H   UNL     1      -2.619   3.044   9.805  1.00  0.00     0.164 HD
BRANCH  53  56
ATOM     56  C   UNL     1      -2.949   5.033  11.358  1.00  0.00     0.182 C 
BRANCH  56  57
ATOM     57  N   UNL     1      -2.717   5.981  12.452  1.00  0.00    -0.344 N 
ATOM     58  C   UNL     1      -3.055   7.309  12.360  1.00  0.00     0.220 C 
ATOM     59  O   UNL     1      -3.504   7.809  11.334  1.00  0.00    -0.275 OA
ATOM     60  H   UNL     1      -2.443   5.590  13.350  1.00  0.00     0.164 HD
BRANCH  58  61
ATOM     61  C   UNL     1      -2.779   8.090  13.631  1.00  0.00     0.100 C 
BRANCH  61  62
ATOM     62  C   UNL     1      -3.858   7.925  14.702  1.00  0.00     0.010 C 
BRANCH  62  63
ATOM     63  C   UNL     1      -5.289   7.881  14.149  1.00  0.00     0.000 C 
BRANCH  63  64
ATOM     64  C   UNL     1      -6.057   9.194  14.291  1.00  0.00    -0.003 C 
ATOM     65  C   UNL     1      -7.422   9.113  13.623  1.00  0.00     0.004 C 
ENDBRANCH  63  64
ENDBRANCH  62  63
ENDBRANCH  61  62
ENDBRANCH  58  61
ENDBRANCH  56  57
BRANCH  56  66
ATOM     66  C   UNL     1      -3.749   3.813  11.811  1.00  0.00     0.157 C 
BRANCH  66  67
ATOM     67  C   UNL     1      -3.752   3.690  13.308  1.00  0.00     0.305 C 
ATOM     68  O   UNL     1      -2.944   3.084  13.995  1.00  0.00    -0.252 OA
BRANCH  67  69
ATOM     69  O   UNL     1      -4.754   4.386  13.877  1.00  0.00    -0.481 OA
ATOM     70  H   UNL     1      -4.353   5.246  14.123  1.00  0.00     0.296 HD
ENDBRANCH  67  69
ENDBRANCH  66  67
ENDBRANCH  56  66
ENDBRANCH  53  56
ENDBRANCH  50  52
ENDBRANCH  47  50
ENDBRANCH  45  46
BRANCH  45  71
ATOM     71  C   UNL     1      -3.841   2.657   5.806  1.00  0.00     0.037 C 
BRANCH  71  72
ATOM     72  C   UNL     1      -4.225   3.638   6.916  1.00  0.00     0.026 C 
BRANCH  72  73
ATOM     73  C   UNL     1      -4.330   5.067   6.389  1.00  0.00     0.146 C 
BRANCH  73  74
ATOM     74  N   UNL     1      -3.217   5.832   6.945  1.00  0.00    -0.254 NA
ATOM     75  C   UNL     1      -3.443   6.549   7.983  1.00  0.00     0.185 C 
ATOM     76  N   UNL     1      -2.439   7.263   8.518  1.00  0.00    -0.370 N 
ATOM     77  N   UNL     1      -4.591   6.713   8.664  1.00  0.00    -0.370 N 
ATOM     78  H   UNL     1      -1.540   7.202   8.061  1.00  0.00     0.159 HD
ATOM     79  H   UNL     1      -2.572   7.953   9.236  1.00  0.00     0.159 HD
ATOM     80  H   UNL     1      -5.430   6.233   8.378  1.00  0.00     0.159 HD
ATOM     81  H   UNL     1      -4.620   7.214   9.537  1.00  0.00     0.159 HD
ENDBRANCH  73  74
ENDBRANCH  72  73
ENDBRANCH  71  72
ENDBRANCH  45  71
ENDBRANCH   3  45
TORSDOF 20
ENDMDL
MODEL 13
REMARK VINA RESULT:    -5.583      2.392      3.919
REMARK INTER + INTRA:         -23.178
REMARK INTER:                 -15.979
REMARK INTRA:                  -7.198
REMARK UNBOUND:                -7.151
REMARK SMILES CCCCCC(=O)N[C@H](CC(=O)O)C(=O)N[C@H]1C(=O)N[C@H](CCCN=C(N)N)C(=O)N[C@@H]2CC[C@H](O)N(C2=O)[C@@H](CC(C)C)C(=O)N(C)[C@@H](Cc2ccccc2)C(=O)N[C@H](C(C)C)C(=O)O[C@@H]1C
REMARK SMILES IDX 30 1 31 2 29 3 32 5 35 6 37 7 34 8 38 9 33 10 39 11 36 12
REMARK SMILES IDX 40 14 41 15 42 16 43 17 44 18 45 19 46 20 47 21 48 22 49 23
REMARK SMILES IDX 50 24 51 25 52 26 56 27 53 28 55 29 54 30 57 31 58 32 59 33
REMARK SMILES IDX 60 35 61 36 62 37 63 38 64 39 65 40 66 41 67 42 68 43 21 45
REMARK SMILES IDX 20 46 18 47 19 48 17 50 16 52 14 53 15 54 9 56 8 57 6 58
REMARK SMILES IDX 7 59 5 61 4 62 3 63 2 64 1 65 10 66 11 67 12 68 13 69 22 71
REMARK SMILES IDX 23 72 24 73 25 74 26 75 27 76 28 77
REMARK H PARENT 31 4 36 13 59 34 20 49 16 55 8 60 13 70 27 78 27 79 28 80
REMARK H PARENT 28 81
REMARK Flexibility Score:  259.900
ROOT
ATOM      1  O   UNL     1      -1.117  10.426  11.998  1.00  0.00    -0.273 OA
ATOM      2  N   UNL     1      -0.254  10.747   9.904  1.00  0.00    -0.343 N 
ATOM      3  C   UNL     1      -1.219  10.918  10.873  1.00  0.00     0.243 C 
ATOM      4  H   UNL     1      -0.364  11.179   8.995  1.00  0.00     0.164 HD
ENDROOT
BRANCH   2   5
ATOM      5  C   UNL     1       0.886   9.866  10.138  1.00  0.00     0.171 C 
ATOM      6  C   UNL     1       3.228   9.223   8.556  1.00  0.00     0.214 C 
ATOM      7  N   UNL     1       2.037   8.415   8.423  1.00  0.00    -0.303 N 
ATOM      8  C   UNL     1       3.392   9.830   9.940  1.00  0.00     0.057 C 
ATOM      9  C   UNL     1       0.868   8.698   9.111  1.00  0.00     0.247 C 
ATOM     10  C   UNL     1       2.179  10.668  10.279  1.00  0.00     0.040 C 
ATOM     11  O   UNL     1      -0.173   8.054   8.927  1.00  0.00    -0.272 OA
BRANCH   6  12
ATOM     12  O   UNL     1       3.173  10.235   7.577  1.00  0.00    -0.373 OA
ATOM     13  H   UNL     1       3.649   9.898   6.788  1.00  0.00     0.213 HD
ENDBRANCH   6  12
BRANCH   7  14
ATOM     14  C   UNL     1       2.062   7.346   7.403  1.00  0.00     0.177 C 
BRANCH  14  15
ATOM     15  C   UNL     1       1.909   5.914   7.950  1.00  0.00     0.038 C 
BRANCH  15  16
ATOM     16  C   UNL     1       1.007   4.906   7.203  1.00  0.00    -0.015 C 
ATOM     17  C   UNL     1      -0.303   4.630   7.948  1.00  0.00     0.007 C 
ATOM     18  C   UNL     1       1.749   3.576   7.027  1.00  0.00     0.007 C 
ENDBRANCH  15  16
ENDBRANCH  14  15
BRANCH  14  19
ATOM     19  C   UNL     1       1.465   7.870   6.052  1.00  0.00     0.245 C 
ATOM     20  O   UNL     1       0.226   7.876   5.953  1.00  0.00    -0.272 OA
BRANCH  19  21
ATOM     21  N   UNL     1       2.230   8.210   4.950  1.00  0.00    -0.332 N 
ATOM     22  C   UNL     1       1.783   9.018   3.830  1.00  0.00     0.147 C 
BRANCH  21  23
ATOM     23  C   UNL     1       3.629   7.702   4.891  1.00  0.00     0.178 C 
BRANCH  23  24
ATOM     24  C   UNL     1       3.757   6.201   4.561  1.00  0.00     0.070 C 
BRANCH  24  25
ATOM     25  C   UNL     1       4.649   5.373   5.457  1.00  0.00    -0.045 A 
ATOM     26  C   UNL     1       5.278   5.945   6.570  1.00  0.00     0.004 A 
ATOM     27  C   UNL     1       4.864   4.014   5.181  1.00  0.00     0.004 A 
ATOM     28  C   UNL     1       6.115   5.178   7.383  1.00  0.00     0.000 A 
ATOM     29  C   UNL     1       5.699   3.248   5.995  1.00  0.00     0.000 A 
ATOM     30  C   UNL     1       6.327   3.831   7.094  1.00  0.00     0.000 A 
ENDBRANCH  24  25
ENDBRANCH  23  24
BRANCH  23  31
ATOM     31  C   UNL     1       4.574   8.628   4.089  1.00  0.00     0.243 C 
ATOM     32  O   UNL     1       4.971   9.719   4.492  1.00  0.00    -0.273 OA
ATOM     33  N   UNL     1       4.790   8.205   2.789  1.00  0.00    -0.341 N 
ATOM     34  H   UNL     1       4.429   7.290   2.510  1.00  0.00     0.164 HD
BRANCH  33  35
ATOM     35  C   UNL     1       5.555   8.986   1.812  1.00  0.00     0.194 C 
BRANCH  35  36
ATOM     36  C   UNL     1       4.851   9.143   0.434  1.00  0.00     0.017 C 
ATOM     37  C   UNL     1       4.853  10.610  -0.030  1.00  0.00     0.010 C 
ATOM     38  C   UNL     1       3.393   8.667   0.443  1.00  0.00     0.010 C 
ENDBRANCH  35  36
BRANCH  35  39
ATOM     39  C   UNL     1       7.019   8.486   1.661  1.00  0.00     0.329 C 
ATOM     40  O   UNL     1       7.840   8.484   2.571  1.00  0.00    -0.250 OA
BRANCH  39  41
ATOM     41  O   UNL     1       7.266   7.966   0.421  1.00  0.00    -0.458 OA
BRANCH  41  42
ATOM     42  C   UNL     1       8.518   8.349  -0.197  1.00  0.00     0.205 CG0
ATOM     43  C   UNL     1       8.406   9.825  -0.572  1.00  0.00     0.056 C 
ATOM     44  G   UNL     1       8.758   7.446  -1.423  1.00  0.00     0.000 G0
ENDBRANCH  41  42
ENDBRANCH  39  41
ENDBRANCH  35  39
ENDBRANCH  33  35
ENDBRANCH  23  31
ENDBRANCH  21  23
ENDBRANCH  19  21
ENDBRANCH  14  19
ENDBRANCH   7  14
ENDBRANCH   2   5
BRANCH   3  45
ATOM     45  C   UNL     1      -2.418  11.781  10.461  1.00  0.00     0.171 C 
BRANCH  45  46
ATOM     46  N   UNL     1      -3.503  11.402  11.357  1.00  0.00    -0.342 N 
ATOM     47  C   UNL     1      -3.801  12.110  12.494  1.00  0.00     0.247 C 
ATOM     48  O   UNL     1      -3.224  13.154  12.801  1.00  0.00    -0.273 OA
ATOM     49  H   UNL     1      -4.043  10.575  11.110  1.00  0.00     0.164 HD
BRANCH  47  50
ATOM     50  C   UNL     1      -4.892  11.492  13.378  1.00  0.00     0.212 CG0
ATOM     51  G   UNL     1      -6.195  12.278  13.131  1.00  0.00     0.000 G0
BRANCH  50  52
ATOM     52  N   UNL     1      -4.977  10.092  12.971  1.00  0.00    -0.339 N 
ATOM     53  C   UNL     1      -4.218   9.094  13.533  1.00  0.00     0.243 C 
ATOM     54  O   UNL     1      -3.367   9.313  14.391  1.00  0.00    -0.273 OA
ATOM     55  H   UNL     1      -5.585   9.863  12.187  1.00  0.00     0.164 HD
BRANCH  53  56
ATOM     56  C   UNL     1      -4.418   7.711  12.881  1.00  0.00     0.182 C 
BRANCH  56  57
ATOM     57  N   UNL     1      -3.730   6.665  13.644  1.00  0.00    -0.344 N 
ATOM     58  C   UNL     1      -4.359   5.932  14.621  1.00  0.00     0.220 C 
ATOM     59  O   UNL     1      -5.514   6.148  14.972  1.00  0.00    -0.275 OA
ATOM     60  H   UNL     1      -2.809   6.385  13.316  1.00  0.00     0.164 HD
BRANCH  58  61
ATOM     61  C   UNL     1      -3.473   4.865  15.237  1.00  0.00     0.100 C 
BRANCH  61  62
ATOM     62  C   UNL     1      -4.013   3.444  15.073  1.00  0.00     0.010 C 
BRANCH  62  63
ATOM     63  C   UNL     1      -3.593   2.761  13.765  1.00  0.00     0.000 C 
BRANCH  63  64
ATOM     64  C   UNL     1      -4.761   2.328  12.881  1.00  0.00    -0.003 C 
ATOM     65  C   UNL     1      -6.097   2.734  13.487  1.00  0.00     0.004 C 
ENDBRANCH  63  64
ENDBRANCH  62  63
ENDBRANCH  61  62
ENDBRANCH  58  61
ENDBRANCH  56  57
BRANCH  56  66
ATOM     66  C   UNL     1      -4.002   7.720  11.411  1.00  0.00     0.157 C 
BRANCH  66  67
ATOM     67  C   UNL     1      -2.769   6.891  11.189  1.00  0.00     0.305 C 
ATOM     68  O   UNL     1      -2.719   5.760  10.732  1.00  0.00    -0.252 OA
BRANCH  67  69
ATOM     69  O   UNL     1      -1.642   7.555  11.510  1.00  0.00    -0.481 OA
ATOM     70  H   UNL     1      -0.990   7.284  10.830  1.00  0.00     0.296 HD
ENDBRANCH  67  69
ENDBRANCH  66  67
ENDBRANCH  56  66
ENDBRANCH  53  56
ENDBRANCH  50  52
ENDBRANCH  47  50
ENDBRANCH  45  46
BRANCH  45  71
ATOM     71  C   UNL     1      -2.781  11.525   8.994  1.00  0.00     0.037 C 
BRANCH  71  72
ATOM     72  C   UNL     1      -3.136  12.818   8.255  1.00  0.00     0.026 C 
BRANCH  72  73
ATOM     73  C   UNL     1      -2.245  13.026   7.032  1.00  0.00     0.146 C 
BRANCH  73  74
ATOM     74  N   UNL     1      -0.999  12.300   7.258  1.00  0.00    -0.254 NA
ATOM     75  C   UNL     1      -0.262  12.043   6.241  1.00  0.00     0.185 C 
ATOM     76  N   UNL     1       0.891  11.378   6.417  1.00  0.00    -0.370 N 
ATOM     77  N   UNL     1      -0.469  12.351   4.948  1.00  0.00    -0.370 N 
ATOM     78  H   UNL     1       1.120  11.101   7.361  1.00  0.00     0.159 HD
ATOM     79  H   UNL     1       1.443  11.017   5.659  1.00  0.00     0.159 HD
ATOM     80  H   UNL     1      -1.295  12.856   4.667  1.00  0.00     0.159 HD
ATOM     81  H   UNL     1       0.239  12.198   4.249  1.00  0.00     0.159 HD
ENDBRANCH  73  74
ENDBRANCH  72  73
ENDBRANCH  71  72
ENDBRANCH  45  71
ENDBRANCH   3  45
TORSDOF 20
ENDMDL
MODEL 14
REMARK VINA RESULT:    -5.536      8.751     13.904
REMARK INTER + INTRA:         -23.045
REMARK INTER:                 -15.457
REMARK INTRA:                  -7.587
REMARK UNBOUND:                -7.151
REMARK SMILES CCCCCC(=O)N[C@H](CC(=O)O)C(=O)N[C@H]1C(=O)N[C@H](CCCN=C(N)N)C(=O)N[C@@H]2CC[C@H](O)N(C2=O)[C@@H](CC(C)C)C(=O)N(C)[C@@H](Cc2ccccc2)C(=O)N[C@H](C(C)C)C(=O)O[C@@H]1C
REMARK SMILES IDX 30 1 31 2 29 3 32 5 35 6 37 7 34 8 38 9 33 10 39 11 36 12
REMARK SMILES IDX 40 14 41 15 42 16 43 17 44 18 45 19 46 20 47 21 48 22 49 23
REMARK SMILES IDX 50 24 51 25 52 26 56 27 53 28 55 29 54 30 57 31 58 32 59 33
REMARK SMILES IDX 60 35 61 36 62 37 63 38 64 39 65 40 66 41 67 42 68 43 21 45
REMARK SMILES IDX 20 46 18 47 19 48 17 50 16 52 14 53 15 54 9 56 8 57 6 58
REMARK SMILES IDX 7 59 5 61 4 62 3 63 2 64 1 65 10 66 11 67 12 68 13 69 22 71
REMARK SMILES IDX 23 72 24 73 25 74 26 75 27 76 28 77
REMARK H PARENT 31 4 36 13 59 34 20 49 16 55 8 60 13 70 27 78 27 79 28 80
REMARK H PARENT 28 81
REMARK Flexibility Score:  259.900
ROOT
ATOM      1  O   UNL     1      -5.137  -3.059   9.780  1.00  0.00    -0.273 OA
ATOM      2  N   UNL     1      -3.405  -2.059  10.890  1.00  0.00    -0.343 N 
ATOM      3  C   UNL     1      -4.404  -3.001  10.768  1.00  0.00     0.243 C 
ATOM      4  H   UNL     1      -2.811  -2.051  11.710  1.00  0.00     0.164 HD
ENDROOT
BRANCH   2   5
ATOM      5  C   UNL     1      -3.254  -1.004   9.894  1.00  0.00     0.171 C 
ATOM      6  C   UNL     1      -1.712   1.451   9.851  1.00  0.00     0.214 C 
ATOM      7  N   UNL     1      -3.069   1.473  10.347  1.00  0.00    -0.303 N 
ATOM      8  C   UNL     1      -1.477   0.390   8.788  1.00  0.00     0.057 C 
ATOM      9  C   UNL     1      -3.843   0.328  10.442  1.00  0.00     0.247 C 
ATOM     10  C   UNL     1      -1.831  -0.974   9.338  1.00  0.00     0.040 C 
ATOM     11  O   UNL     1      -4.973   0.340  10.948  1.00  0.00    -0.272 OA
BRANCH   6  12
ATOM     12  O   UNL     1      -0.855   1.245  10.950  1.00  0.00    -0.373 OA
ATOM     13  H   UNL     1       0.054   1.159  10.593  1.00  0.00     0.213 HD
ENDBRANCH   6  12
BRANCH   7  14
ATOM     14  C   UNL     1      -3.562   2.754  10.895  1.00  0.00     0.177 C 
BRANCH  14  15
ATOM     15  C   UNL     1      -3.092   3.080  12.326  1.00  0.00     0.038 C 
BRANCH  15  16
ATOM     16  C   UNL     1      -4.121   3.557  13.375  1.00  0.00    -0.015 C 
ATOM     17  C   UNL     1      -3.465   3.942  14.704  1.00  0.00     0.007 C 
ATOM     18  C   UNL     1      -5.139   2.441  13.647  1.00  0.00     0.007 C 
ENDBRANCH  15  16
ENDBRANCH  14  15
BRANCH  14  19
ATOM     19  C   UNL     1      -3.753   3.800   9.743  1.00  0.00     0.245 C 
ATOM     20  O   UNL     1      -4.737   3.641   9.001  1.00  0.00    -0.272 OA
BRANCH  19  21
ATOM     21  N   UNL     1      -2.843   4.799   9.449  1.00  0.00    -0.332 N 
ATOM     22  C   UNL     1      -1.705   4.666   8.557  1.00  0.00     0.147 C 
BRANCH  21  23
ATOM     23  C   UNL     1      -3.027   6.123  10.105  1.00  0.00     0.178 C 
BRANCH  23  24
ATOM     24  C   UNL     1      -2.126   6.366  11.333  1.00  0.00     0.070 C 
BRANCH  24  25
ATOM     25  C   UNL     1      -2.781   6.955  12.561  1.00  0.00    -0.045 A 
ATOM     26  C   UNL     1      -4.175   7.045  12.657  1.00  0.00     0.004 A 
ATOM     27  C   UNL     1      -1.996   7.426  13.624  1.00  0.00     0.004 A 
ATOM     28  C   UNL     1      -4.772   7.606  13.788  1.00  0.00     0.000 A 
ATOM     29  C   UNL     1      -2.594   7.986  14.754  1.00  0.00     0.000 A 
ATOM     30  C   UNL     1      -3.982   8.078  14.834  1.00  0.00     0.000 A 
ENDBRANCH  24  25
ENDBRANCH  23  24
BRANCH  23  31
ATOM     31  C   UNL     1      -3.081   7.294   9.095  1.00  0.00     0.243 C 
ATOM     32  O   UNL     1      -3.842   7.336   8.131  1.00  0.00    -0.273 OA
ATOM     33  N   UNL     1      -2.063   8.218   9.264  1.00  0.00    -0.341 N 
ATOM     34  H   UNL     1      -1.457   8.128  10.083  1.00  0.00     0.164 HD
BRANCH  33  35
ATOM     35  C   UNL     1      -1.847   9.344   8.351  1.00  0.00     0.194 C 
BRANCH  35  36
ATOM     36  C   UNL     1      -0.388   9.466   7.827  1.00  0.00     0.017 C 
ATOM     37  C   UNL     1      -0.250  10.624   6.824  1.00  0.00     0.010 C 
ATOM     38  C   UNL     1       0.112   8.194   7.132  1.00  0.00     0.010 C 
ENDBRANCH  35  36
BRANCH  35  39
ATOM     39  C   UNL     1      -2.371  10.689   8.927  1.00  0.00     0.329 C 
ATOM     40  O   UNL     1      -1.822  11.309   9.831  1.00  0.00    -0.250 OA
BRANCH  39  41
ATOM     41  O   UNL     1      -3.467  11.152   8.254  1.00  0.00    -0.458 OA
BRANCH  41  42
ATOM     42  C   UNL     1      -3.482  12.566   7.947  1.00  0.00     0.205 CG0
ATOM     43  C   UNL     1      -3.332  12.704   6.433  1.00  0.00     0.056 C 
ATOM     44  G   UNL     1      -2.334  13.248   8.717  1.00  0.00     0.000 G0
ENDBRANCH  41  42
ENDBRANCH  39  41
ENDBRANCH  35  39
ENDBRANCH  33  35
ENDBRANCH  23  31
ENDBRANCH  21  23
ENDBRANCH  19  21
ENDBRANCH  14  19
ENDBRANCH   7  14
ENDBRANCH   2   5
BRANCH   3  45
ATOM     45  C   UNL     1      -4.523  -3.987  11.937  1.00  0.00     0.171 C 
BRANCH  45  46
ATOM     46  N   UNL     1      -4.474  -5.315  11.339  1.00  0.00    -0.342 N 
ATOM     47  C   UNL     1      -3.905  -6.389  11.977  1.00  0.00     0.247 C 
ATOM     48  O   UNL     1      -3.461  -6.327  13.124  1.00  0.00    -0.273 OA
ATOM     49  H   UNL     1      -4.881  -5.424  10.412  1.00  0.00     0.164 HD
BRANCH  47  50
ATOM     50  C   UNL     1      -3.833  -7.676  11.143  1.00  0.00     0.212 CG0
ATOM     51  G   UNL     1      -5.029  -7.671  10.171  1.00  0.00     0.000 G0
BRANCH  50  52
ATOM     52  N   UNL     1      -2.539  -7.631  10.467  1.00  0.00    -0.339 N 
ATOM     53  C   UNL     1      -2.188  -8.484   9.449  1.00  0.00     0.243 C 
ATOM     54  O   UNL     1      -2.921  -9.391   9.064  1.00  0.00    -0.273 OA
ATOM     55  H   UNL     1      -1.846  -6.973  10.816  1.00  0.00     0.164 HD
BRANCH  53  56
ATOM     56  C   UNL     1      -0.741  -8.303   8.950  1.00  0.00     0.182 C 
BRANCH  56  57
ATOM     57  N   UNL     1      -0.678  -7.323   7.861  1.00  0.00    -0.344 N 
ATOM     58  C   UNL     1      -0.453  -5.987   8.085  1.00  0.00     0.220 C 
ATOM     59  O   UNL     1      -0.362  -5.510   9.211  1.00  0.00    -0.275 OA
ATOM     60  H   UNL     1      -0.647  -7.689   6.913  1.00  0.00     0.164 HD
BRANCH  58  61
ATOM     61  C   UNL     1      -0.370  -5.168   6.810  1.00  0.00     0.100 C 
BRANCH  61  62
ATOM     62  C   UNL     1      -1.177  -3.870   6.858  1.00  0.00     0.010 C 
BRANCH  62  63
ATOM     63  C   UNL     1      -2.693  -4.077   6.965  1.00  0.00     0.000 C 
BRANCH  63  64
ATOM     64  C   UNL     1      -3.520  -2.837   6.632  1.00  0.00    -0.003 C 
ATOM     65  C   UNL     1      -2.737  -1.865   5.761  1.00  0.00     0.004 C 
ENDBRANCH  63  64
ENDBRANCH  62  63
ENDBRANCH  61  62
ENDBRANCH  58  61
ENDBRANCH  56  57
BRANCH  56  66
ATOM     66  C   UNL     1      -0.112  -9.640   8.559  1.00  0.00     0.157 C 
BRANCH  66  67
ATOM     67  C   UNL     1      -0.092  -9.817   7.068  1.00  0.00     0.305 C 
ATOM     68  O   UNL     1       0.859  -9.639   6.322  1.00  0.00    -0.252 OA
BRANCH  67  69
ATOM     69  O   UNL     1      -1.269 -10.263   6.590  1.00  0.00    -0.481 OA
ATOM     70  H   UNL     1      -1.533  -9.601   5.917  1.00  0.00     0.296 HD
ENDBRANCH  67  69
ENDBRANCH  66  67
ENDBRANCH  56  66
ENDBRANCH  53  56
ENDBRANCH  50  52
ENDBRANCH  47  50
ENDBRANCH  45  46
BRANCH  45  71
ATOM     71  C   UNL     1      -5.835  -3.757  12.697  1.00  0.00     0.037 C 
BRANCH  71  72
ATOM     72  C   UNL     1      -5.879  -2.381  13.365  1.00  0.00     0.026 C 
BRANCH  72  73
ATOM     73  C   UNL     1      -4.707  -2.186  14.325  1.00  0.00     0.146 C 
BRANCH  73  74
ATOM     74  N   UNL     1      -3.956  -1.015  13.881  1.00  0.00    -0.254 NA
ATOM     75  C   UNL     1      -2.685  -1.020  14.049  1.00  0.00     0.185 C 
ATOM     76  N   UNL     1      -1.967   0.042  13.650  1.00  0.00    -0.370 N 
ATOM     77  N   UNL     1      -1.908  -1.973  14.591  1.00  0.00    -0.370 N 
ATOM     78  H   UNL     1      -2.477   0.810  13.236  1.00  0.00     0.159 HD
ATOM     79  H   UNL     1      -0.997   0.172  13.877  1.00  0.00     0.159 HD
ATOM     80  H   UNL     1      -2.312  -2.833  14.932  1.00  0.00     0.159 HD
ATOM     81  H   UNL     1      -0.903  -1.914  14.564  1.00  0.00     0.159 HD
ENDBRANCH  73  74
ENDBRANCH  72  73
ENDBRANCH  71  72
ENDBRANCH  45  71
ENDBRANCH   3  45
TORSDOF 20
ENDMDL
MODEL 15
REMARK VINA RESULT:    -5.512      3.575     14.605
REMARK INTER + INTRA:         -22.975
REMARK INTER:                 -17.388
REMARK INTRA:                  -5.587
REMARK UNBOUND:                -7.151
REMARK SMILES CCCCCC(=O)N[C@H](CC(=O)O)C(=O)N[C@H]1C(=O)N[C@H](CCCN=C(N)N)C(=O)N[C@@H]2CC[C@H](O)N(C2=O)[C@@H](CC(C)C)C(=O)N(C)[C@@H](Cc2ccccc2)C(=O)N[C@H](C(C)C)C(=O)O[C@@H]1C
REMARK SMILES IDX 30 1 31 2 29 3 32 5 35 6 37 7 34 8 38 9 33 10 39 11 36 12
REMARK SMILES IDX 40 14 41 15 42 16 43 17 44 18 45 19 46 20 47 21 48 22 49 23
REMARK SMILES IDX 50 24 51 25 52 26 56 27 53 28 55 29 54 30 57 31 58 32 59 33
REMARK SMILES IDX 60 35 61 36 62 37 63 38 64 39 65 40 66 41 67 42 68 43 21 45
REMARK SMILES IDX 20 46 18 47 19 48 17 50 16 52 14 53 15 54 9 56 8 57 6 58
REMARK SMILES IDX 7 59 5 61 4 62 3 63 2 64 1 65 10 66 11 67 12 68 13 69 22 71
REMARK SMILES IDX 23 72 24 73 25 74 26 75 27 76 28 77
REMARK H PARENT 31 4 36 13 59 34 20 49 16 55 8 60 13 70 27 78 27 79 28 80
REMARK H PARENT 28 81
REMARK Flexibility Score:  259.900
ROOT
ATOM      1  O   UNL     1       7.278   6.973   6.701  1.00  0.00    -0.273 OA
ATOM      2  N   UNL     1       5.274   7.764   5.933  1.00  0.00    -0.343 N 
ATOM      3  C   UNL     1       6.639   7.595   5.851  1.00  0.00     0.243 C 
ATOM      4  H   UNL     1       4.780   8.269   5.208  1.00  0.00     0.164 HD
ENDROOT
BRANCH   2   5
ATOM      5  C   UNL     1       4.539   7.308   7.108  1.00  0.00     0.171 C 
ATOM      6  C   UNL     1       1.723   6.820   7.595  1.00  0.00     0.214 C 
ATOM      7  N   UNL     1       2.276   8.125   7.872  1.00  0.00    -0.303 N 
ATOM      8  C   UNL     1       2.728   5.692   7.766  1.00  0.00     0.057 C 
ATOM      9  C   UNL     1       3.600   8.441   7.614  1.00  0.00     0.247 C 
ATOM     10  C   UNL     1       3.923   5.930   6.869  1.00  0.00     0.040 C 
ATOM     11  O   UNL     1       4.045   9.585   7.773  1.00  0.00    -0.272 OA
BRANCH   6  12
ATOM     12  O   UNL     1       1.220   6.836   6.280  1.00  0.00    -0.373 OA
ATOM     13  H   UNL     1       0.535   7.537   6.242  1.00  0.00     0.213 HD
ENDBRANCH   6  12
BRANCH   7  14
ATOM     14  C   UNL     1       1.331   9.174   8.311  1.00  0.00     0.177 C 
BRANCH  14  15
ATOM     15  C   UNL     1       0.598   9.914   7.174  1.00  0.00     0.038 C 
BRANCH  15  16
ATOM     16  C   UNL     1       0.717  11.450   7.066  1.00  0.00    -0.015 C 
ATOM     17  C   UNL     1      -0.057  12.175   8.171  1.00  0.00     0.007 C 
ATOM     18  C   UNL     1       0.171  11.918   5.711  1.00  0.00     0.007 C 
ENDBRANCH  15  16
ENDBRANCH  14  15
BRANCH  14  19
ATOM     19  C   UNL     1       0.707   8.798   9.698  1.00  0.00     0.245 C 
ATOM     20  O   UNL     1       1.489   8.717  10.660  1.00  0.00    -0.272 OA
BRANCH  19  21
ATOM     21  N   UNL     1      -0.620   8.449   9.878  1.00  0.00    -0.332 N 
ATOM     22  C   UNL     1      -1.136   7.093   9.927  1.00  0.00     0.147 C 
BRANCH  21  23
ATOM     23  C   UNL     1      -1.615   9.548  10.023  1.00  0.00     0.178 C 
BRANCH  23  24
ATOM     24  C   UNL     1      -2.845   9.431   9.100  1.00  0.00     0.070 C 
BRANCH  24  25
ATOM     25  C   UNL     1      -3.220  10.653   8.295  1.00  0.00    -0.045 A 
ATOM     26  C   UNL     1      -3.656  11.824   8.929  1.00  0.00     0.004 A 
ATOM     27  C   UNL     1      -3.142  10.630   6.895  1.00  0.00     0.004 A 
ATOM     28  C   UNL     1      -4.017  12.944   8.177  1.00  0.00     0.000 A 
ATOM     29  C   UNL     1      -3.502  11.750   6.144  1.00  0.00     0.000 A 
ATOM     30  C   UNL     1      -3.942  12.906   6.787  1.00  0.00     0.000 A 
ENDBRANCH  24  25
ENDBRANCH  23  24
BRANCH  23  31
ATOM     31  C   UNL     1      -1.937   9.879  11.500  1.00  0.00     0.243 C 
ATOM     32  O   UNL     1      -1.105  10.272  12.313  1.00  0.00    -0.273 OA
ATOM     33  N   UNL     1      -3.218   9.516  11.881  1.00  0.00    -0.341 N 
ATOM     34  H   UNL     1      -3.865   9.190  11.159  1.00  0.00     0.164 HD
BRANCH  33  35
ATOM     35  C   UNL     1      -3.702   9.626  13.260  1.00  0.00     0.194 C 
BRANCH  35  36
ATOM     36  C   UNL     1      -3.738   8.276  14.030  1.00  0.00     0.017 C 
ATOM     37  C   UNL     1      -2.385   7.979  14.700  1.00  0.00     0.010 C 
ATOM     38  C   UNL     1      -4.080   7.079  13.135  1.00  0.00     0.010 C 
ENDBRANCH  35  36
BRANCH  35  39
ATOM     39  C   UNL     1      -5.054  10.387  13.359  1.00  0.00     0.329 C 
ATOM     40  O   UNL     1      -5.233  11.381  14.054  1.00  0.00    -0.250 OA
BRANCH  39  41
ATOM     41  O   UNL     1      -6.002   9.875  12.517  1.00  0.00    -0.458 OA
BRANCH  41  42
ATOM     42  C   UNL     1      -7.370   9.915  12.991  1.00  0.00     0.205 CG0
ATOM     43  C   UNL     1      -7.551   8.744  13.954  1.00  0.00     0.056 C 
ATOM     44  G   UNL     1      -8.314   9.830  11.775  1.00  0.00     0.000 G0
ENDBRANCH  41  42
ENDBRANCH  39  41
ENDBRANCH  35  39
ENDBRANCH  33  35
ENDBRANCH  23  31
ENDBRANCH  21  23
ENDBRANCH  19  21
ENDBRANCH  14  19
ENDBRANCH   7  14
ENDBRANCH   2   5
BRANCH   3  45
ATOM     45  C   UNL     1       7.305   8.216   4.616  1.00  0.00     0.171 C 
BRANCH  45  46
ATOM     46  N   UNL     1       8.470   7.387   4.337  1.00  0.00    -0.342 N 
ATOM     47  C   UNL     1       8.498   6.476   3.312  1.00  0.00     0.247 C 
ATOM     48  O   UNL     1       7.572   6.344   2.510  1.00  0.00    -0.273 OA
ATOM     49  H   UNL     1       9.281   7.504   4.943  1.00  0.00     0.164 HD
BRANCH  47  50
ATOM     50  C   UNL     1       9.761   5.605   3.249  1.00  0.00     0.212 CG0
ATOM     51  G   UNL     1       9.683   4.761   1.961  1.00  0.00     0.000 G0
BRANCH  50  52
ATOM     52  N   UNL     1      10.881   6.543   3.258  1.00  0.00    -0.339 N 
ATOM     53  C   UNL     1      12.192   6.153   3.388  1.00  0.00     0.243 C 
ATOM     54  O   UNL     1      12.520   4.983   3.561  1.00  0.00    -0.273 OA
ATOM     55  H   UNL     1      10.665   7.537   3.230  1.00  0.00     0.164 HD
BRANCH  53  56
ATOM     56  C   UNL     1      13.191   7.325   3.457  1.00  0.00     0.182 C 
BRANCH  56  57
ATOM     57  N   UNL     1      13.370   7.944   2.139  1.00  0.00    -0.344 N 
ATOM     58  C   UNL     1      13.056   9.258   1.894  1.00  0.00     0.220 C 
ATOM     59  O   UNL     1      12.538   9.984   2.736  1.00  0.00    -0.275 OA
ATOM     60  H   UNL     1      13.888   7.409   1.447  1.00  0.00     0.164 HD
BRANCH  58  61
ATOM     61  C   UNL     1      13.377   9.699   0.478  1.00  0.00     0.100 C 
BRANCH  61  62
ATOM     62  C   UNL     1      13.451  11.217   0.308  1.00  0.00     0.010 C 
BRANCH  62  63
ATOM     63  C   UNL     1      13.002  11.716  -1.072  1.00  0.00     0.000 C 
BRANCH  63  64
ATOM     64  C   UNL     1      13.920  11.296  -2.219  1.00  0.00    -0.003 C 
ATOM     65  C   UNL     1      14.537  12.505  -2.907  1.00  0.00     0.004 C 
ENDBRANCH  63  64
ENDBRANCH  62  63
ENDBRANCH  61  62
ENDBRANCH  58  61
ENDBRANCH  56  57
BRANCH  56  66
ATOM     66  C   UNL     1      14.519   6.893   4.077  1.00  0.00     0.157 C 
BRANCH  66  67
ATOM     67  C   UNL     1      14.624   7.342   5.506  1.00  0.00     0.305 C 
ATOM     68  O   UNL     1      13.792   7.975   6.138  1.00  0.00    -0.252 OA
BRANCH  67  69
ATOM     69  O   UNL     1      15.761   6.921   6.092  1.00  0.00    -0.481 OA
ATOM     70  H   UNL     1      16.372   6.736   5.348  1.00  0.00     0.296 HD
ENDBRANCH  67  69
ENDBRANCH  66  67
ENDBRANCH  56  66
ENDBRANCH  53  56
ENDBRANCH  50  52
ENDBRANCH  47  50
ENDBRANCH  45  46
BRANCH  45  71
ATOM     71  C   UNL     1       7.700   9.670   4.897  1.00  0.00     0.037 C 
BRANCH  71  72
ATOM     72  C   UNL     1       9.171   9.799   5.302  1.00  0.00     0.026 C 
BRANCH  72  73
ATOM     73  C   UNL     1       9.314  10.325   6.729  1.00  0.00     0.146 C 
BRANCH  73  74
ATOM     74  N   UNL     1      10.732  10.298   7.075  1.00  0.00    -0.254 NA
ATOM     75  C   UNL     1      11.073   9.710   8.162  1.00  0.00     0.185 C 
ATOM     76  N   UNL     1      12.370   9.668   8.506  1.00  0.00    -0.370 N 
ATOM     77  N   UNL     1      10.295   9.091   9.067  1.00  0.00    -0.370 N 
ATOM     78  H   UNL     1      13.024  10.118   7.882  1.00  0.00     0.159 HD
ATOM     79  H   UNL     1      12.694   9.356   9.404  1.00  0.00     0.159 HD
ATOM     80  H   UNL     1       9.296   9.040   8.937  1.00  0.00     0.159 HD
ATOM     81  H   UNL     1      10.688   8.562   9.828  1.00  0.00     0.159 HD
ENDBRANCH  73  74
ENDBRANCH  72  73
ENDBRANCH  71  72
ENDBRANCH  45  71
ENDBRANCH   3  45
TORSDOF 20
ENDMDL
MODEL 16
REMARK VINA RESULT:    -5.499      3.344      7.065
REMARK INTER + INTRA:         -22.938
REMARK INTER:                 -16.494
REMARK INTRA:                  -6.444
REMARK UNBOUND:                -7.151
REMARK SMILES CCCCCC(=O)N[C@H](CC(=O)O)C(=O)N[C@H]1C(=O)N[C@H](CCCN=C(N)N)C(=O)N[C@@H]2CC[C@H](O)N(C2=O)[C@@H](CC(C)C)C(=O)N(C)[C@@H](Cc2ccccc2)C(=O)N[C@H](C(C)C)C(=O)O[C@@H]1C
REMARK SMILES IDX 30 1 31 2 29 3 32 5 35 6 37 7 34 8 38 9 33 10 39 11 36 12
REMARK SMILES IDX 40 14 41 15 42 16 43 17 44 18 45 19 46 20 47 21 48 22 49 23
REMARK SMILES IDX 50 24 51 25 52 26 56 27 53 28 55 29 54 30 57 31 58 32 59 33
REMARK SMILES IDX 60 35 61 36 62 37 63 38 64 39 65 40 66 41 67 42 68 43 21 45
REMARK SMILES IDX 20 46 18 47 19 48 17 50 16 52 14 53 15 54 9 56 8 57 6 58
REMARK SMILES IDX 7 59 5 61 4 62 3 63 2 64 1 65 10 66 11 67 12 68 13 69 22 71
REMARK SMILES IDX 23 72 24 73 25 74 26 75 27 76 28 77
REMARK H PARENT 31 4 36 13 59 34 20 49 16 55 8 60 13 70 27 78 27 79 28 80
REMARK H PARENT 28 81
REMARK Flexibility Score:  259.900
ROOT
ATOM      1  O   UNL     1       4.601   9.419   7.180  1.00  0.00    -0.273 OA
ATOM      2  N   UNL     1       5.091   7.255   7.734  1.00  0.00    -0.343 N 
ATOM      3  C   UNL     1       4.313   8.391   7.793  1.00  0.00     0.243 C 
ATOM      4  H   UNL     1       4.814   6.422   8.240  1.00  0.00     0.164 HD
ENDROOT
BRANCH   2   5
ATOM      5  C   UNL     1       6.367   7.264   7.027  1.00  0.00     0.171 C 
ATOM      6  C   UNL     1       7.717   9.279   5.439  1.00  0.00     0.214 C 
ATOM      7  N   UNL     1       6.835   8.337   4.790  1.00  0.00    -0.303 N 
ATOM      8  C   UNL     1       8.390   8.717   6.681  1.00  0.00     0.057 C 
ATOM      9  C   UNL     1       6.120   7.382   5.496  1.00  0.00     0.247 C 
ATOM     10  C   UNL     1       7.340   8.253   7.667  1.00  0.00     0.040 C 
ATOM     11  O   UNL     1       5.302   6.635   4.944  1.00  0.00    -0.272 OA
BRANCH   6  12
ATOM     12  O   UNL     1       6.961  10.423   5.763  1.00  0.00    -0.373 OA
ATOM     13  H   UNL     1       7.326  11.167   5.239  1.00  0.00     0.213 HD
ENDBRANCH   6  12
BRANCH   7  14
ATOM     14  C   UNL     1       6.605   8.521   3.342  1.00  0.00     0.177 C 
BRANCH  14  15
ATOM     15  C   UNL     1       6.535   9.987   2.870  1.00  0.00     0.038 C 
BRANCH  15  16
ATOM     16  C   UNL     1       6.810  10.323   1.387  1.00  0.00    -0.015 C 
ATOM     17  C   UNL     1       7.734  11.533   1.224  1.00  0.00     0.007 C 
ATOM     18  C   UNL     1       5.488  10.628   0.671  1.00  0.00     0.007 C 
ENDBRANCH  15  16
ENDBRANCH  14  15
BRANCH  14  19
ATOM     19  C   UNL     1       7.241   7.338   2.535  1.00  0.00     0.245 C 
ATOM     20  O   UNL     1       8.479   7.334   2.431  1.00  0.00    -0.272 OA
BRANCH  19  21
ATOM     21  N   UNL     1       6.505   6.385   1.853  1.00  0.00    -0.332 N 
ATOM     22  C   UNL     1       6.664   4.947   1.982  1.00  0.00     0.147 C 
BRANCH  21  23
ATOM     23  C   UNL     1       5.467   6.860   0.897  1.00  0.00     0.178 C 
BRANCH  23  24
ATOM     24  C   UNL     1       5.786   6.591  -0.588  1.00  0.00     0.070 C 
BRANCH  24  25
ATOM     25  C   UNL     1       6.385   7.729  -1.381  1.00  0.00    -0.045 A 
ATOM     26  C   UNL     1       5.596   8.486  -2.256  1.00  0.00     0.004 A 
ATOM     27  C   UNL     1       7.746   8.042  -1.253  1.00  0.00     0.004 A 
ATOM     28  C   UNL     1       6.160   9.526  -2.998  1.00  0.00     0.000 A 
ATOM     29  C   UNL     1       8.309   9.082  -1.994  1.00  0.00     0.000 A 
ATOM     30  C   UNL     1       7.515   9.822  -2.869  1.00  0.00     0.000 A 
ENDBRANCH  24  25
ENDBRANCH  23  24
BRANCH  23  31
ATOM     31  C   UNL     1       4.030   6.488   1.333  1.00  0.00     0.243 C 
ATOM     32  O   UNL     1       3.374   5.578   0.832  1.00  0.00    -0.273 OA
ATOM     33  N   UNL     1       3.468   7.394   2.217  1.00  0.00    -0.341 N 
ATOM     34  H   UNL     1       4.063   8.135   2.596  1.00  0.00     0.164 HD
BRANCH  33  35
ATOM     35  C   UNL     1       2.078   7.309   2.671  1.00  0.00     0.194 C 
BRANCH  35  36
ATOM     36  C   UNL     1       1.034   7.752   1.608  1.00  0.00     0.017 C 
ATOM     37  C   UNL     1       0.275   6.544   1.032  1.00  0.00     0.010 C 
ATOM     38  C   UNL     1       1.656   8.508   0.428  1.00  0.00     0.010 C 
ENDBRANCH  35  36
BRANCH  35  39
ATOM     39  C   UNL     1       1.851   8.015   4.037  1.00  0.00     0.329 C 
ATOM     40  O   UNL     1       2.687   8.719   4.593  1.00  0.00    -0.250 OA
BRANCH  39  41
ATOM     41  O   UNL     1       0.581   7.836   4.511  1.00  0.00    -0.458 OA
BRANCH  41  42
ATOM     42  C   UNL     1       0.419   6.846   5.554  1.00  0.00     0.205 CG0
ATOM     43  C   UNL     1      -0.468   5.736   4.994  1.00  0.00     0.056 C 
ATOM     44  G   UNL     1      -0.200   7.529   6.790  1.00  0.00     0.000 G0
ENDBRANCH  41  42
ENDBRANCH  39  41
ENDBRANCH  35  39
ENDBRANCH  33  35
ENDBRANCH  23  31
ENDBRANCH  21  23
ENDBRANCH  19  21
ENDBRANCH  14  19
ENDBRANCH   7  14
ENDBRANCH   2   5
BRANCH   3  45
ATOM     45  C   UNL     1       3.051   8.279   8.659  1.00  0.00     0.171 C 
BRANCH  45  46
ATOM     46  N   UNL     1       1.932   8.273   7.725  1.00  0.00    -0.342 N 
ATOM     47  C   UNL     1       0.802   7.523   7.935  1.00  0.00     0.247 C 
ATOM     48  O   UNL     1       0.620   6.860   8.957  1.00  0.00    -0.273 OA
ATOM     49  H   UNL     1       2.018   8.852   6.892  1.00  0.00     0.164 HD
BRANCH  47  50
ATOM     50  C   UNL     1      -0.215   7.545   6.786  1.00  0.00     0.212 CG0
ATOM     51  G   UNL     1       0.422   6.823   5.582  1.00  0.00     0.000 G0
BRANCH  50  52
ATOM     52  N   UNL     1      -1.402   6.868   7.303  1.00  0.00    -0.339 N 
ATOM     53  C   UNL     1      -2.645   7.450   7.346  1.00  0.00     0.243 C 
ATOM     54  O   UNL     1      -2.845   8.611   7.000  1.00  0.00    -0.273 OA
ATOM     55  H   UNL     1      -1.279   5.942   7.707  1.00  0.00     0.164 HD
BRANCH  53  56
ATOM     56  C   UNL     1      -3.725   6.574   8.013  1.00  0.00     0.182 C 
BRANCH  56  57
ATOM     57  N   UNL     1      -3.417   6.344   9.428  1.00  0.00    -0.344 N 
ATOM     58  C   UNL     1      -3.837   7.195  10.421  1.00  0.00     0.220 C 
ATOM     59  O   UNL     1      -4.434   8.241  10.189  1.00  0.00    -0.275 OA
ATOM     60  H   UNL     1      -3.015   5.443   9.671  1.00  0.00     0.164 HD
BRANCH  58  61
ATOM     61  C   UNL     1      -3.454   6.730  11.814  1.00  0.00     0.100 C 
BRANCH  61  62
ATOM     62  C   UNL     1      -4.302   7.350  12.925  1.00  0.00     0.010 C 
BRANCH  62  63
ATOM     63  C   UNL     1      -3.565   8.400  13.765  1.00  0.00     0.000 C 
BRANCH  63  64
ATOM     64  C   UNL     1      -2.320   8.979  13.094  1.00  0.00    -0.003 C 
ATOM     65  C   UNL     1      -2.353  10.500  13.080  1.00  0.00     0.004 C 
ENDBRANCH  63  64
ENDBRANCH  62  63
ENDBRANCH  61  62
ENDBRANCH  58  61
ENDBRANCH  56  57
BRANCH  56  66
ATOM     66  C   UNL     1      -3.937   5.268   7.249  1.00  0.00     0.157 C 
BRANCH  66  67
ATOM     67  C   UNL     1      -5.028   5.406   6.227  1.00  0.00     0.305 C 
ATOM     68  O   UNL     1      -5.107   6.253   5.349  1.00  0.00    -0.252 OA
BRANCH  67  69
ATOM     69  O   UNL     1      -5.951   4.431   6.328  1.00  0.00    -0.481 OA
ATOM     70  H   UNL     1      -6.590   4.616   5.608  1.00  0.00     0.296 HD
ENDBRANCH  67  69
ENDBRANCH  66  67
ENDBRANCH  56  66
ENDBRANCH  53  56
ENDBRANCH  50  52
ENDBRANCH  47  50
ENDBRANCH  45  46
BRANCH  45  71
ATOM     71  C   UNL     1       2.967   9.457   9.635  1.00  0.00     0.037 C 
BRANCH  71  72
ATOM     72  C   UNL     1       1.534   9.973   9.793  1.00  0.00     0.026 C 
BRANCH  72  73
ATOM     73  C   UNL     1       1.363  11.354   9.164  1.00  0.00     0.146 C 
BRANCH  73  74
ATOM     74  N   UNL     1       1.567  11.218   7.725  1.00  0.00    -0.254 NA
ATOM     75  C   UNL     1       0.530  11.097   6.982  1.00  0.00     0.185 C 
ATOM     76  N   UNL     1       0.685  10.971   5.654  1.00  0.00    -0.370 N 
ATOM     77  N   UNL     1      -0.767  11.074   7.337  1.00  0.00    -0.370 N 
ATOM     78  H   UNL     1       1.632  10.970   5.302  1.00  0.00     0.159 HD
ATOM     79  H   UNL     1      -0.064  10.728   5.029  1.00  0.00     0.159 HD
ATOM     80  H   UNL     1      -1.035  11.163   8.305  1.00  0.00     0.159 HD
ATOM     81  H   UNL     1      -1.503  11.090   6.651  1.00  0.00     0.159 HD
ENDBRANCH  73  74
ENDBRANCH  72  73
ENDBRANCH  71  72
ENDBRANCH  45  71
ENDBRANCH   3  45
TORSDOF 20
ENDMDL
MODEL 17
REMARK VINA RESULT:    -5.456      5.864     13.382
REMARK INTER + INTRA:         -22.812
REMARK INTER:                 -16.797
REMARK INTRA:                  -6.016
REMARK UNBOUND:                -7.151
REMARK SMILES CCCCCC(=O)N[C@H](CC(=O)O)C(=O)N[C@H]1C(=O)N[C@H](CCCN=C(N)N)C(=O)N[C@@H]2CC[C@H](O)N(C2=O)[C@@H](CC(C)C)C(=O)N(C)[C@@H](Cc2ccccc2)C(=O)N[C@H](C(C)C)C(=O)O[C@@H]1C
REMARK SMILES IDX 30 1 31 2 29 3 32 5 35 6 37 7 34 8 38 9 33 10 39 11 36 12
REMARK SMILES IDX 40 14 41 15 42 16 43 17 44 18 45 19 46 20 47 21 48 22 49 23
REMARK SMILES IDX 50 24 51 25 52 26 56 27 53 28 55 29 54 30 57 31 58 32 59 33
REMARK SMILES IDX 60 35 61 36 62 37 63 38 64 39 65 40 66 41 67 42 68 43 21 45
REMARK SMILES IDX 20 46 18 47 19 48 17 50 16 52 14 53 15 54 9 56 8 57 6 58
REMARK SMILES IDX 7 59 5 61 4 62 3 63 2 64 1 65 10 66 11 67 12 68 13 69 22 71
REMARK SMILES IDX 23 72 24 73 25 74 26 75 27 76 28 77
REMARK H PARENT 31 4 36 13 59 34 20 49 16 55 8 60 13 70 27 78 27 79 28 80
REMARK H PARENT 28 81
REMARK Flexibility Score:  259.900
ROOT
ATOM      1  O   UNL     1       4.029  -0.251   7.708  1.00  0.00    -0.273 OA
ATOM      2  N   UNL     1       1.908   0.126   6.942  1.00  0.00    -0.343 N 
ATOM      3  C   UNL     1       3.223  -0.254   6.778  1.00  0.00     0.243 C 
ATOM      4  H   UNL     1       1.269   0.097   6.157  1.00  0.00     0.164 HD
ENDROOT
BRANCH   2   5
ATOM      5  C   UNL     1       1.444   0.666   8.215  1.00  0.00     0.171 C 
ATOM      6  C   UNL     1      -1.198   1.254   9.254  1.00  0.00     0.214 C 
ATOM      7  N   UNL     1      -0.465   2.283   8.554  1.00  0.00    -0.303 N 
ATOM      8  C   UNL     1      -0.300   0.265   9.981  1.00  0.00     0.057 C 
ATOM      9  C   UNL     1       0.779   2.054   7.989  1.00  0.00     0.247 C 
ATOM     10  C   UNL     1       0.653  -0.380   8.999  1.00  0.00     0.040 C 
ATOM     11  O   UNL     1       1.363   2.915   7.316  1.00  0.00    -0.272 OA
BRANCH   6  12
ATOM     12  O   UNL     1      -2.007   0.586   8.314  1.00  0.00    -0.373 OA
ATOM     13  H   UNL     1      -2.940   0.752   8.568  1.00  0.00     0.213 HD
ENDBRANCH   6  12
BRANCH   7  14
ATOM     14  C   UNL     1      -1.161   3.568   8.331  1.00  0.00     0.177 C 
BRANCH  14  15
ATOM     15  C   UNL     1      -2.323   3.517   7.320  1.00  0.00     0.038 C 
BRANCH  15  16
ATOM     16  C   UNL     1      -2.458   4.632   6.259  1.00  0.00    -0.015 C 
ATOM     17  C   UNL     1      -1.140   5.376   6.023  1.00  0.00     0.007 C 
ATOM     18  C   UNL     1      -3.511   5.652   6.710  1.00  0.00     0.007 C 
ENDBRANCH  15  16
ENDBRANCH  14  15
BRANCH  14  19
ATOM     19  C   UNL     1      -1.131   4.436   9.635  1.00  0.00     0.245 C 
ATOM     20  O   UNL     1      -0.090   4.393  10.312  1.00  0.00    -0.272 OA
BRANCH  19  21
ATOM     21  N   UNL     1      -2.219   5.141  10.118  1.00  0.00    -0.332 N 
ATOM     22  C   UNL     1      -3.507   4.568  10.466  1.00  0.00     0.147 C 
BRANCH  21  23
ATOM     23  C   UNL     1      -2.075   6.613  10.289  1.00  0.00     0.178 C 
BRANCH  23  24
ATOM     24  C   UNL     1      -1.350   7.329   9.131  1.00  0.00     0.070 C 
BRANCH  24  25
ATOM     25  C   UNL     1      -0.118   8.131   9.481  1.00  0.00    -0.045 A 
ATOM     26  C   UNL     1       0.004   8.750  10.732  1.00  0.00     0.004 A 
ATOM     27  C   UNL     1       0.923   8.272   8.552  1.00  0.00     0.004 A 
ATOM     28  C   UNL     1       1.138   9.504  11.042  1.00  0.00     0.000 A 
ATOM     29  C   UNL     1       2.057   9.024   8.863  1.00  0.00     0.000 A 
ATOM     30  C   UNL     1       2.161   9.642  10.108  1.00  0.00     0.000 A 
ENDBRANCH  24  25
ENDBRANCH  23  24
BRANCH  23  31
ATOM     31  C   UNL     1      -3.379   7.297  10.762  1.00  0.00     0.243 C 
ATOM     32  O   UNL     1      -4.314   7.582  10.019  1.00  0.00    -0.273 OA
ATOM     33  N   UNL     1      -3.330   7.732  12.076  1.00  0.00    -0.341 N 
ATOM     34  H   UNL     1      -2.522   7.468  12.645  1.00  0.00     0.164 HD
BRANCH  33  35
ATOM     35  C   UNL     1      -4.404   8.509  12.701  1.00  0.00     0.194 C 
BRANCH  35  36
ATOM     36  C   UNL     1      -4.228  10.049  12.579  1.00  0.00     0.017 C 
ATOM     37  C   UNL     1      -2.761  10.462  12.791  1.00  0.00     0.010 C 
ATOM     38  C   UNL     1      -5.077  10.836  13.584  1.00  0.00     0.010 C 
ENDBRANCH  35  36
BRANCH  35  39
ATOM     39  C   UNL     1      -4.684   8.072  14.166  1.00  0.00     0.329 C 
ATOM     40  O   UNL     1      -3.935   8.304  15.106  1.00  0.00    -0.250 OA
BRANCH  39  41
ATOM     41  O   UNL     1      -5.906   7.472  14.305  1.00  0.00    -0.458 OA
BRANCH  41  42
ATOM     42  C   UNL     1      -6.812   8.077  15.258  1.00  0.00     0.205 CG0
ATOM     43  C   UNL     1      -7.935   8.738  14.461  1.00  0.00     0.056 C 
ATOM     44  G   UNL     1      -6.022   9.088  16.113  1.00  0.00     0.000 G0
ENDBRANCH  41  42
ENDBRANCH  39  41
ENDBRANCH  35  39
ENDBRANCH  33  35
ENDBRANCH  23  31
ENDBRANCH  21  23
ENDBRANCH  19  21
ENDBRANCH  14  19
ENDBRANCH   7  14
ENDBRANCH   2   5
BRANCH   3  45
ATOM     45  C   UNL     1       3.606  -0.700   5.360  1.00  0.00     0.171 C 
BRANCH  45  46
ATOM     46  N   UNL     1       4.396  -1.912   5.529  1.00  0.00    -0.342 N 
ATOM     47  C   UNL     1       3.823  -3.155   5.637  1.00  0.00     0.247 C 
ATOM     48  O   UNL     1       2.612  -3.345   5.525  1.00  0.00    -0.273 OA
ATOM     49  H   UNL     1       5.408  -1.807   5.570  1.00  0.00     0.164 HD
BRANCH  47  50
ATOM     50  C   UNL     1       4.804  -4.298   5.935  1.00  0.00     0.212 CG0
ATOM     51  G   UNL     1       6.134  -3.971   5.228  1.00  0.00     0.000 G0
BRANCH  50  52
ATOM     52  N   UNL     1       4.920  -4.342   7.390  1.00  0.00    -0.339 N 
ATOM     53  C   UNL     1       5.990  -3.825   8.079  1.00  0.00     0.243 C 
ATOM     54  O   UNL     1       6.962  -3.329   7.516  1.00  0.00    -0.273 OA
ATOM     55  H   UNL     1       4.197  -4.840   7.907  1.00  0.00     0.164 HD
BRANCH  53  56
ATOM     56  C   UNL     1       5.932  -4.065   9.601  1.00  0.00     0.182 C 
BRANCH  56  57
ATOM     57  N   UNL     1       5.153  -3.019  10.271  1.00  0.00    -0.344 N 
ATOM     58  C   UNL     1       3.790  -3.097  10.419  1.00  0.00     0.220 C 
ATOM     59  O   UNL     1       3.122  -4.006   9.940  1.00  0.00    -0.275 OA
ATOM     60  H   UNL     1       5.676  -2.303  10.768  1.00  0.00     0.164 HD
BRANCH  58  61
ATOM     61  C   UNL     1       3.202  -1.932  11.194  1.00  0.00     0.100 C 
BRANCH  61  62
ATOM     62  C   UNL     1       2.550  -2.338  12.516  1.00  0.00     0.010 C 
BRANCH  62  63
ATOM     63  C   UNL     1       1.091  -1.887  12.661  1.00  0.00     0.000 C 
BRANCH  63  64
ATOM     64  C   UNL     1       0.292  -2.675  13.698  1.00  0.00    -0.003 C 
ATOM     65  C   UNL     1       0.521  -2.136  15.102  1.00  0.00     0.004 C 
ENDBRANCH  63  64
ENDBRANCH  62  63
ENDBRANCH  61  62
ENDBRANCH  58  61
ENDBRANCH  56  57
BRANCH  56  66
ATOM     66  C   UNL     1       7.330  -4.215  10.198  1.00  0.00     0.157 C 
BRANCH  66  67
ATOM     67  C   UNL     1       7.927  -2.876  10.528  1.00  0.00     0.305 C 
ATOM     68  O   UNL     1       7.650  -2.166  11.482  1.00  0.00    -0.252 OA
BRANCH  67  69
ATOM     69  O   UNL     1       8.890  -2.517   9.658  1.00  0.00    -0.481 OA
ATOM     70  H   UNL     1       9.629  -2.201  10.220  1.00  0.00     0.296 HD
ENDBRANCH  67  69
ENDBRANCH  66  67
ENDBRANCH  56  66
ENDBRANCH  53  56
ENDBRANCH  50  52
ENDBRANCH  47  50
ENDBRANCH  45  46
BRANCH  45  71
ATOM     71  C   UNL     1       4.403   0.400   4.651  1.00  0.00     0.037 C 
BRANCH  71  72
ATOM     72  C   UNL     1       3.852   1.796   4.953  1.00  0.00     0.026 C 
BRANCH  72  73
ATOM     73  C   UNL     1       4.976   2.808   5.169  1.00  0.00     0.146 C 
BRANCH  73  74
ATOM     74  N   UNL     1       5.375   2.739   6.572  1.00  0.00    -0.254 NA
ATOM     75  C   UNL     1       4.794   3.525   7.400  1.00  0.00     0.185 C 
ATOM     76  N   UNL     1       5.139   3.485   8.697  1.00  0.00    -0.370 N 
ATOM     77  N   UNL     1       3.836   4.440   7.166  1.00  0.00    -0.370 N 
ATOM     78  H   UNL     1       5.860   2.827   8.958  1.00  0.00     0.159 HD
ATOM     79  H   UNL     1       4.835   4.163   9.372  1.00  0.00     0.159 HD
ATOM     80  H   UNL     1       3.474   4.578   6.235  1.00  0.00     0.159 HD
ATOM     81  H   UNL     1       3.371   4.921   7.918  1.00  0.00     0.159 HD
ENDBRANCH  73  74
ENDBRANCH  72  73
ENDBRANCH  71  72
ENDBRANCH  45  71
ENDBRANCH   3  45
TORSDOF 20
ENDMDL
MODEL 18
REMARK VINA RESULT:    -5.432      2.486      4.862
REMARK INTER + INTRA:         -22.744
REMARK INTER:                 -16.045
REMARK INTRA:                  -6.700
REMARK UNBOUND:                -7.151
REMARK SMILES CCCCCC(=O)N[C@H](CC(=O)O)C(=O)N[C@H]1C(=O)N[C@H](CCCN=C(N)N)C(=O)N[C@@H]2CC[C@H](O)N(C2=O)[C@@H](CC(C)C)C(=O)N(C)[C@@H](Cc2ccccc2)C(=O)N[C@H](C(C)C)C(=O)O[C@@H]1C
REMARK SMILES IDX 30 1 31 2 29 3 32 5 35 6 37 7 34 8 38 9 33 10 39 11 36 12
REMARK SMILES IDX 40 14 41 15 42 16 43 17 44 18 45 19 46 20 47 21 48 22 49 23
REMARK SMILES IDX 50 24 51 25 52 26 56 27 53 28 55 29 54 30 57 31 58 32 59 33
REMARK SMILES IDX 60 35 61 36 62 37 63 38 64 39 65 40 66 41 67 42 68 43 21 45
REMARK SMILES IDX 20 46 18 47 19 48 17 50 16 52 14 53 15 54 9 56 8 57 6 58
REMARK SMILES IDX 7 59 5 61 4 62 3 63 2 64 1 65 10 66 11 67 12 68 13 69 22 71
REMARK SMILES IDX 23 72 24 73 25 74 26 75 27 76 28 77
REMARK H PARENT 31 4 36 13 59 34 20 49 16 55 8 60 13 70 27 78 27 79 28 80
REMARK H PARENT 28 81
REMARK Flexibility Score:  259.900
ROOT
ATOM      1  O   UNL     1       1.069   8.416   9.747  1.00  0.00    -0.273 OA
ATOM      2  N   UNL     1       0.804   8.171   7.489  1.00  0.00    -0.343 N 
ATOM      3  C   UNL     1       0.365   8.085   8.793  1.00  0.00     0.243 C 
ATOM      4  H   UNL     1       0.192   7.903   6.728  1.00  0.00     0.164 HD
ENDROOT
BRANCH   2   5
ATOM      5  C   UNL     1       2.181   8.550   7.193  1.00  0.00     0.171 C 
ATOM      6  C   UNL     1       3.530   9.285   4.734  1.00  0.00     0.214 C 
ATOM      7  N   UNL     1       3.510   7.901   5.147  1.00  0.00    -0.303 N 
ATOM      8  C   UNL     1       3.494  10.261   5.899  1.00  0.00     0.057 C 
ATOM      9  C   UNL     1       2.841   7.475   6.283  1.00  0.00     0.247 C 
ATOM     10  C   UNL     1       2.263  10.008   6.741  1.00  0.00     0.040 C 
ATOM     11  O   UNL     1       2.755   6.277   6.583  1.00  0.00    -0.272 OA
BRANCH   6  12
ATOM     12  O   UNL     1       2.429   9.495   3.880  1.00  0.00    -0.373 OA
ATOM     13  H   UNL     1       1.804   8.754   4.029  1.00  0.00     0.213 HD
ENDBRANCH   6  12
BRANCH   7  14
ATOM     14  C   UNL     1       4.114   6.917   4.224  1.00  0.00     0.177 C 
BRANCH  14  15
ATOM     15  C   UNL     1       3.280   6.596   2.969  1.00  0.00     0.038 C 
BRANCH  15  16
ATOM     16  C   UNL     1       2.206   5.488   3.032  1.00  0.00    -0.015 C 
ATOM     17  C   UNL     1       2.118   4.684   1.731  1.00  0.00     0.007 C 
ATOM     18  C   UNL     1       0.831   6.112   3.304  1.00  0.00     0.007 C 
ENDBRANCH  15  16
ENDBRANCH  14  15
BRANCH  14  19
ATOM     19  C   UNL     1       5.678   7.015   4.273  1.00  0.00     0.245 C 
ATOM     20  O   UNL     1       6.242   7.470   3.264  1.00  0.00    -0.272 OA
BRANCH  19  21
ATOM     21  N   UNL     1       6.449   6.526   5.312  1.00  0.00    -0.332 N 
ATOM     22  C   UNL     1       6.747   7.232   6.545  1.00  0.00     0.147 C 
BRANCH  21  23
ATOM     23  C   UNL     1       7.038   5.167   5.162  1.00  0.00     0.178 C 
BRANCH  23  24
ATOM     24  C   UNL     1       6.039   4.074   4.731  1.00  0.00     0.070 C 
BRANCH  24  25
ATOM     25  C   UNL     1       5.009   3.642   5.749  1.00  0.00    -0.045 A 
ATOM     26  C   UNL     1       5.252   3.789   7.121  1.00  0.00     0.004 A 
ATOM     27  C   UNL     1       3.793   3.081   5.332  1.00  0.00     0.004 A 
ATOM     28  C   UNL     1       4.302   3.372   8.056  1.00  0.00     0.000 A 
ATOM     29  C   UNL     1       2.844   2.666   6.268  1.00  0.00     0.000 A 
ATOM     30  C   UNL     1       3.101   2.809   7.630  1.00  0.00     0.000 A 
ENDBRANCH  24  25
ENDBRANCH  23  24
BRANCH  23  31
ATOM     31  C   UNL     1       8.375   5.171   4.383  1.00  0.00     0.243 C 
ATOM     32  O   UNL     1       9.280   5.979   4.575  1.00  0.00    -0.273 OA
ATOM     33  N   UNL     1       8.394   4.292   3.313  1.00  0.00    -0.341 N 
ATOM     34  H   UNL     1       7.609   3.647   3.201  1.00  0.00     0.164 HD
BRANCH  33  35
ATOM     35  C   UNL     1       9.509   4.212   2.365  1.00  0.00     0.194 C 
BRANCH  35  36
ATOM     36  C   UNL     1       9.288   5.017   1.054  1.00  0.00     0.017 C 
ATOM     37  C   UNL     1      10.034   6.362   1.091  1.00  0.00     0.010 C 
ATOM     38  C   UNL     1       7.811   5.319   0.773  1.00  0.00     0.010 C 
ENDBRANCH  35  36
BRANCH  35  39
ATOM     39  C   UNL     1       9.947   2.748   2.080  1.00  0.00     0.329 C 
ATOM     40  O   UNL     1       9.241   1.768   2.287  1.00  0.00    -0.250 OA
BRANCH  39  41
ATOM     41  O   UNL     1      11.179   2.679   1.491  1.00  0.00    -0.458 OA
BRANCH  41  42
ATOM     42  C   UNL     1      11.692   1.351   1.231  1.00  0.00     0.205 CG0
ATOM     43  C   UNL     1      13.035   1.234   1.949  1.00  0.00     0.056 C 
ATOM     44  G   UNL     1      11.821   1.163  -0.294  1.00  0.00     0.000 G0
ENDBRANCH  41  42
ENDBRANCH  39  41
ENDBRANCH  35  39
ENDBRANCH  33  35
ENDBRANCH  23  31
ENDBRANCH  21  23
ENDBRANCH  19  21
ENDBRANCH  14  19
ENDBRANCH   7  14
ENDBRANCH   2   5
BRANCH   3  45
ATOM     45  C   UNL     1      -1.069   7.569   8.971  1.00  0.00     0.171 C 
BRANCH  45  46
ATOM     46  N   UNL     1      -1.881   8.748   9.241  1.00  0.00    -0.342 N 
ATOM     47  C   UNL     1      -2.694   9.315   8.292  1.00  0.00     0.247 C 
ATOM     48  O   UNL     1      -2.852   8.830   7.171  1.00  0.00    -0.273 OA
ATOM     49  H   UNL     1      -1.823   9.149  10.175  1.00  0.00     0.164 HD
BRANCH  47  50
ATOM     50  C   UNL     1      -3.377  10.622   8.718  1.00  0.00     0.212 CG0
ATOM     51  G   UNL     1      -4.867  10.517   8.336  1.00  0.00     0.000 G0
BRANCH  50  52
ATOM     52  N   UNL     1      -3.156  10.726  10.158  1.00  0.00    -0.339 N 
ATOM     53  C   UNL     1      -3.917  11.517  10.984  1.00  0.00     0.243 C 
ATOM     54  O   UNL     1      -4.813  12.243  10.564  1.00  0.00    -0.273 OA
ATOM     55  H   UNL     1      -2.356  10.233  10.550  1.00  0.00     0.164 HD
BRANCH  53  56
ATOM     56  C   UNL     1      -3.441  11.531  12.451  1.00  0.00     0.182 C 
BRANCH  56  57
ATOM     57  N   UNL     1      -3.087  10.182  12.903  1.00  0.00    -0.344 N 
ATOM     58  C   UNL     1      -1.795   9.820  13.197  1.00  0.00     0.220 C 
ATOM     59  O   UNL     1      -0.841  10.573  13.034  1.00  0.00    -0.275 OA
ATOM     60  H   UNL     1      -3.854   9.562  13.148  1.00  0.00     0.164 HD
BRANCH  58  61
ATOM     61  C   UNL     1      -1.670   8.394  13.702  1.00  0.00     0.100 C 
BRANCH  61  62
ATOM     62  C   UNL     1      -2.769   7.990  14.684  1.00  0.00     0.010 C 
BRANCH  62  63
ATOM     63  C   UNL     1      -3.149   6.505  14.625  1.00  0.00     0.000 C 
BRANCH  63  64
ATOM     64  C   UNL     1      -3.624   6.034  13.251  1.00  0.00    -0.003 C 
ATOM     65  C   UNL     1      -3.807   4.523  13.214  1.00  0.00     0.004 C 
ENDBRANCH  63  64
ENDBRANCH  62  63
ENDBRANCH  61  62
ENDBRANCH  58  61
ENDBRANCH  56  57
BRANCH  56  66
ATOM     66  C   UNL     1      -4.469  12.195  13.366  1.00  0.00     0.157 C 
BRANCH  66  67
ATOM     67  C   UNL     1      -5.639  11.288  13.617  1.00  0.00     0.305 C 
ATOM     68  O   UNL     1      -5.652  10.283  14.312  1.00  0.00    -0.252 OA
BRANCH  67  69
ATOM     69  O   UNL     1      -6.762  11.724  13.016  1.00  0.00    -0.481 OA
ATOM     70  H   UNL     1      -7.305  10.917  12.884  1.00  0.00     0.296 HD
ENDBRANCH  67  69
ENDBRANCH  66  67
ENDBRANCH  56  66
ENDBRANCH  53  56
ENDBRANCH  50  52
ENDBRANCH  47  50
ENDBRANCH  45  46
BRANCH  45  71
ATOM     71  C   UNL     1      -1.134   6.561  10.124  1.00  0.00     0.037 C 
BRANCH  71  72
ATOM     72  C   UNL     1      -2.126   5.429   9.844  1.00  0.00     0.026 C 
BRANCH  72  73
ATOM     73  C   UNL     1      -2.262   5.161   8.347  1.00  0.00     0.146 C 
BRANCH  73  74
ATOM     74  N   UNL     1      -3.530   4.472   8.129  1.00  0.00    -0.254 NA
ATOM     75  C   UNL     1      -4.530   5.169   7.731  1.00  0.00     0.185 C 
ATOM     76  N   UNL     1      -5.710   4.564   7.521  1.00  0.00    -0.370 N 
ATOM     77  N   UNL     1      -4.591   6.487   7.474  1.00  0.00    -0.370 N 
ATOM     78  H   UNL     1      -5.752   3.570   7.699  1.00  0.00     0.159 HD
ATOM     79  H   UNL     1      -6.565   5.062   7.351  1.00  0.00     0.159 HD
ATOM     80  H   UNL     1      -3.776   7.071   7.584  1.00  0.00     0.159 HD
ATOM     81  H   UNL     1      -5.405   6.906   7.053  1.00  0.00     0.159 HD
ENDBRANCH  73  74
ENDBRANCH  72  73
ENDBRANCH  71  72
ENDBRANCH  45  71
ENDBRANCH   3  45
TORSDOF 20
ENDMDL
MODEL 19
REMARK VINA RESULT:    -5.419      3.113      4.756
REMARK INTER + INTRA:         -22.706
REMARK INTER:                 -16.031
REMARK INTRA:                  -6.675
REMARK UNBOUND:                -7.151
REMARK SMILES CCCCCC(=O)N[C@H](CC(=O)O)C(=O)N[C@H]1C(=O)N[C@H](CCCN=C(N)N)C(=O)N[C@@H]2CC[C@H](O)N(C2=O)[C@@H](CC(C)C)C(=O)N(C)[C@@H](Cc2ccccc2)C(=O)N[C@H](C(C)C)C(=O)O[C@@H]1C
REMARK SMILES IDX 30 1 31 2 29 3 32 5 35 6 37 7 34 8 38 9 33 10 39 11 36 12
REMARK SMILES IDX 40 14 41 15 42 16 43 17 44 18 45 19 46 20 47 21 48 22 49 23
REMARK SMILES IDX 50 24 51 25 52 26 56 27 53 28 55 29 54 30 57 31 58 32 59 33
REMARK SMILES IDX 60 35 61 36 62 37 63 38 64 39 65 40 66 41 67 42 68 43 21 45
REMARK SMILES IDX 20 46 18 47 19 48 17 50 16 52 14 53 15 54 9 56 8 57 6 58
REMARK SMILES IDX 7 59 5 61 4 62 3 63 2 64 1 65 10 66 11 67 12 68 13 69 22 71
REMARK SMILES IDX 23 72 24 73 25 74 26 75 27 76 28 77
REMARK H PARENT 31 4 36 13 59 34 20 49 16 55 8 60 13 70 27 78 27 79 28 80
REMARK H PARENT 28 81
REMARK Flexibility Score:  259.900
ROOT
ATOM      1  O   UNL     1       1.280   9.607   9.020  1.00  0.00    -0.273 OA
ATOM      2  N   UNL     1       0.101   9.642   7.061  1.00  0.00    -0.343 N 
ATOM      3  C   UNL     1       0.388  10.100   8.328  1.00  0.00     0.243 C 
ATOM      4  H   UNL     1      -0.630  10.081   6.515  1.00  0.00     0.164 HD
ENDROOT
BRANCH   2   5
ATOM      5  C   UNL     1       0.774   8.462   6.527  1.00  0.00     0.171 C 
ATOM      6  C   UNL     1       3.100   6.967   7.396  1.00  0.00     0.214 C 
ATOM      7  N   UNL     1       3.264   8.056   6.462  1.00  0.00    -0.303 N 
ATOM      8  C   UNL     1       1.753   6.272   7.280  1.00  0.00     0.057 C 
ATOM      9  C   UNL     1       2.203   8.843   6.045  1.00  0.00     0.247 C 
ATOM     10  C   UNL     1       0.639   7.276   7.481  1.00  0.00     0.040 C 
ATOM     11  O   UNL     1       2.365   9.828   5.313  1.00  0.00    -0.272 OA
BRANCH   6  12
ATOM     12  O   UNL     1       3.277   7.483   8.695  1.00  0.00    -0.373 OA
ATOM     13  H   UNL     1       3.842   8.281   8.613  1.00  0.00     0.213 HD
ENDBRANCH   6  12
BRANCH   7  14
ATOM     14  C   UNL     1       4.648   8.401   6.071  1.00  0.00     0.177 C 
BRANCH  14  15
ATOM     15  C   UNL     1       5.634   8.581   7.241  1.00  0.00     0.038 C 
BRANCH  15  16
ATOM     16  C   UNL     1       7.145   8.360   7.004  1.00  0.00    -0.015 C 
ATOM     17  C   UNL     1       7.947   8.361   8.309  1.00  0.00     0.007 C 
ATOM     18  C   UNL     1       7.696   9.470   6.100  1.00  0.00     0.007 C 
ENDBRANCH  15  16
ENDBRANCH  14  15
BRANCH  14  19
ATOM     19  C   UNL     1       4.995   7.764   4.682  1.00  0.00     0.245 C 
ATOM     20  O   UNL     1       5.343   6.571   4.685  1.00  0.00    -0.272 OA
BRANCH  19  21
ATOM     21  N   UNL     1       5.042   8.476   3.497  1.00  0.00    -0.332 N 
ATOM     22  C   UNL     1       5.403   9.877   3.369  1.00  0.00     0.147 C 
BRANCH  21  23
ATOM     23  C   UNL     1       4.684   7.761   2.241  1.00  0.00     0.178 C 
BRANCH  23  24
ATOM     24  C   UNL     1       3.413   8.284   1.540  1.00  0.00     0.070 C 
BRANCH  24  25
ATOM     25  C   UNL     1       2.128   7.531   1.797  1.00  0.00    -0.045 A 
ATOM     26  C   UNL     1       1.803   7.083   3.083  1.00  0.00     0.004 A 
ATOM     27  C   UNL     1       1.241   7.267   0.742  1.00  0.00     0.004 A 
ATOM     28  C   UNL     1       0.622   6.373   3.309  1.00  0.00     0.000 A 
ATOM     29  C   UNL     1       0.060   6.558   0.970  1.00  0.00     0.000 A 
ATOM     30  C   UNL     1      -0.247   6.110   2.252  1.00  0.00     0.000 A 
ENDBRANCH  24  25
ENDBRANCH  23  24
BRANCH  23  31
ATOM     31  C   UNL     1       5.898   7.538   1.306  1.00  0.00     0.243 C 
ATOM     32  O   UNL     1       6.971   7.069   1.675  1.00  0.00    -0.273 OA
ATOM     33  N   UNL     1       5.734   8.088   0.046  1.00  0.00    -0.341 N 
ATOM     34  H   UNL     1       4.818   8.470  -0.201  1.00  0.00     0.164 HD
BRANCH  33  35
ATOM     35  C   UNL     1       6.796   8.102  -0.963  1.00  0.00     0.194 C 
BRANCH  35  36
ATOM     36  C   UNL     1       7.103   9.511  -1.543  1.00  0.00     0.017 C 
ATOM     37  C   UNL     1       6.851  10.613  -0.499  1.00  0.00     0.010 C 
ATOM     38  C   UNL     1       6.264   9.852  -2.780  1.00  0.00     0.010 C 
ENDBRANCH  35  36
BRANCH  35  39
ATOM     39  C   UNL     1       6.568   7.050  -2.085  1.00  0.00     0.329 C 
ATOM     40  O   UNL     1       5.531   6.413  -2.228  1.00  0.00    -0.250 OA
BRANCH  39  41
ATOM     41  O   UNL     1       7.624   6.976  -2.951  1.00  0.00    -0.458 OA
BRANCH  41  42
ATOM     42  C   UNL     1       8.180   5.658  -3.173  1.00  0.00     0.205 CG0
ATOM     43  C   UNL     1       9.027   5.310  -1.951  1.00  0.00     0.056 C 
ATOM     44  G   UNL     1       9.005   5.685  -4.475  1.00  0.00     0.000 G0
ENDBRANCH  41  42
ENDBRANCH  39  41
ENDBRANCH  35  39
ENDBRANCH  33  35
ENDBRANCH  23  31
ENDBRANCH  21  23
ENDBRANCH  19  21
ENDBRANCH  14  19
ENDBRANCH   7  14
ENDBRANCH   2   5
BRANCH   3  45
ATOM     45  C   UNL     1      -0.467  11.280   8.810  1.00  0.00     0.171 C 
BRANCH  45  46
ATOM     46  N   UNL     1      -1.048  10.854  10.076  1.00  0.00    -0.342 N 
ATOM     47  C   UNL     1      -0.778  11.491  11.262  1.00  0.00     0.247 C 
ATOM     48  O   UNL     1      -0.087  12.508  11.331  1.00  0.00    -0.273 OA
ATOM     49  H   UNL     1      -1.671  10.049  10.055  1.00  0.00     0.164 HD
BRANCH  47  50
ATOM     50  C   UNL     1      -1.380  10.827  12.508  1.00  0.00     0.212 CG0
ATOM     51  G   UNL     1      -2.049  11.931  13.350  1.00  0.00     0.000 G0
BRANCH  50  52
ATOM     52  N   UNL     1      -2.324   9.834  12.003  1.00  0.00    -0.339 N 
ATOM     53  C   UNL     1      -2.969   8.926  12.808  1.00  0.00     0.243 C 
ATOM     54  O   UNL     1      -2.759   8.846  14.015  1.00  0.00    -0.273 OA
ATOM     55  H   UNL     1      -2.457   9.777  10.995  1.00  0.00     0.164 HD
BRANCH  53  56
ATOM     56  C   UNL     1      -3.852   7.922  12.040  1.00  0.00     0.182 C 
BRANCH  56  57
ATOM     57  N   UNL     1      -3.081   6.739  11.645  1.00  0.00    -0.344 N 
ATOM     58  C   UNL     1      -3.252   5.515  12.245  1.00  0.00     0.220 C 
ATOM     59  O   UNL     1      -4.005   5.343  13.198  1.00  0.00    -0.275 OA
ATOM     60  H   UNL     1      -2.525   6.813  10.797  1.00  0.00     0.164 HD
BRANCH  58  61
ATOM     61  C   UNL     1      -2.393   4.422  11.638  1.00  0.00     0.100 C 
BRANCH  61  62
ATOM     62  C   UNL     1      -1.371   4.934  10.623  1.00  0.00     0.010 C 
BRANCH  62  63
ATOM     63  C   UNL     1      -1.825   4.820   9.162  1.00  0.00     0.000 C 
BRANCH  63  64
ATOM     64  C   UNL     1      -0.907   3.971   8.285  1.00  0.00    -0.003 C 
ATOM     65  C   UNL     1      -1.410   2.539   8.178  1.00  0.00     0.004 C 
ENDBRANCH  63  64
ENDBRANCH  62  63
ENDBRANCH  61  62
ENDBRANCH  58  61
ENDBRANCH  56  57
BRANCH  56  66
ATOM     66  C   UNL     1      -4.545   8.582  10.849  1.00  0.00     0.157 C 
BRANCH  66  67
ATOM     67  C   UNL     1      -3.910   8.169   9.552  1.00  0.00     0.305 C 
ATOM     68  O   UNL     1      -2.875   8.604   9.072  1.00  0.00    -0.252 OA
BRANCH  67  69
ATOM     69  O   UNL     1      -4.591   7.180   8.942  1.00  0.00    -0.481 OA
ATOM     70  H   UNL     1      -3.968   6.823   8.274  1.00  0.00     0.296 HD
ENDBRANCH  67  69
ENDBRANCH  66  67
ENDBRANCH  56  66
ENDBRANCH  53  56
ENDBRANCH  50  52
ENDBRANCH  47  50
ENDBRANCH  45  46
BRANCH  45  71
ATOM     71  C   UNL     1      -1.547  11.613   7.776  1.00  0.00     0.037 C 
BRANCH  71  72
ATOM     72  C   UNL     1      -2.356  12.853   8.167  1.00  0.00     0.026 C 
BRANCH  72  73
ATOM     73  C   UNL     1      -3.817  12.504   8.443  1.00  0.00     0.146 C 
BRANCH  73  74
ATOM     74  N   UNL     1      -3.903  11.985   9.805  1.00  0.00    -0.254 NA
ATOM     75  C   UNL     1      -4.712  12.562  10.615  1.00  0.00     0.185 C 
ATOM     76  N   UNL     1      -4.814  12.106  11.875  1.00  0.00    -0.370 N 
ATOM     77  N   UNL     1      -5.523  13.611  10.396  1.00  0.00    -0.370 N 
ATOM     78  H   UNL     1      -4.231  11.321  12.126  1.00  0.00     0.159 HD
ATOM     79  H   UNL     1      -5.312  12.591  12.600  1.00  0.00     0.159 HD
ATOM     80  H   UNL     1      -5.555  14.055   9.491  1.00  0.00     0.159 HD
ATOM     81  H   UNL     1      -6.202  13.906  11.079  1.00  0.00     0.159 HD
ENDBRANCH  73  74
ENDBRANCH  72  73
ENDBRANCH  71  72
ENDBRANCH  45  71
ENDBRANCH   3  45
TORSDOF 20
ENDMDL
MODEL 20
REMARK VINA RESULT:    -5.408      2.351      3.931
REMARK INTER + INTRA:         -22.676
REMARK INTER:                 -15.591
REMARK INTRA:                  -7.085
REMARK UNBOUND:                -7.151
REMARK SMILES CCCCCC(=O)N[C@H](CC(=O)O)C(=O)N[C@H]1C(=O)N[C@H](CCCN=C(N)N)C(=O)N[C@@H]2CC[C@H](O)N(C2=O)[C@@H](CC(C)C)C(=O)N(C)[C@@H](Cc2ccccc2)C(=O)N[C@H](C(C)C)C(=O)O[C@@H]1C
REMARK SMILES IDX 30 1 31 2 29 3 32 5 35 6 37 7 34 8 38 9 33 10 39 11 36 12
REMARK SMILES IDX 40 14 41 15 42 16 43 17 44 18 45 19 46 20 47 21 48 22 49 23
REMARK SMILES IDX 50 24 51 25 52 26 56 27 53 28 55 29 54 30 57 31 58 32 59 33
REMARK SMILES IDX 60 35 61 36 62 37 63 38 64 39 65 40 66 41 67 42 68 43 21 45
REMARK SMILES IDX 20 46 18 47 19 48 17 50 16 52 14 53 15 54 9 56 8 57 6 58
REMARK SMILES IDX 7 59 5 61 4 62 3 63 2 64 1 65 10 66 11 67 12 68 13 69 22 71
REMARK SMILES IDX 23 72 24 73 25 74 26 75 27 76 28 77
REMARK H PARENT 31 4 36 13 59 34 20 49 16 55 8 60 13 70 27 78 27 79 28 80
REMARK H PARENT 28 81
REMARK Flexibility Score:  259.900
ROOT
ATOM      1  O   UNL     1       1.185   8.804  11.233  1.00  0.00    -0.273 OA
ATOM      2  N   UNL     1       1.765   9.111   9.042  1.00  0.00    -0.343 N 
ATOM      3  C   UNL     1       0.904   9.230  10.112  1.00  0.00     0.243 C 
ATOM      4  H   UNL     1       1.506   9.486   8.138  1.00  0.00     0.164 HD
ENDROOT
BRANCH   2   5
ATOM      5  C   UNL     1       3.009   8.361   9.170  1.00  0.00     0.171 C 
ATOM      6  C   UNL     1       5.440   8.305   7.591  1.00  0.00     0.214 C 
ATOM      7  N   UNL     1       4.372   7.382   7.284  1.00  0.00    -0.303 N 
ATOM      8  C   UNL     1       5.500   8.688   9.061  1.00  0.00     0.057 C 
ATOM      9  C   UNL     1       3.166   7.389   7.966  1.00  0.00     0.247 C 
ATOM     10  C   UNL     1       4.179   9.291   9.488  1.00  0.00     0.040 C 
ATOM     11  O   UNL     1       2.224   6.654   7.641  1.00  0.00    -0.272 OA
BRANCH   6  12
ATOM     12  O   UNL     1       5.262   9.450   6.790  1.00  0.00    -0.373 OA
ATOM     13  H   UNL     1       6.094   9.968   6.840  1.00  0.00     0.213 HD
ENDBRANCH   6  12
BRANCH   7  14
ATOM     14  C   UNL     1       4.557   6.511   6.104  1.00  0.00     0.177 C 
BRANCH  14  15
ATOM     15  C   UNL     1       3.993   7.069   4.783  1.00  0.00     0.038 C 
BRANCH  15  16
ATOM     16  C   UNL     1       3.187   6.141   3.847  1.00  0.00    -0.015 C 
ATOM     17  C   UNL     1       2.521   4.986   4.602  1.00  0.00     0.007 C 
ATOM     18  C   UNL     1       4.115   5.546   2.780  1.00  0.00     0.007 C 
ENDBRANCH  15  16
ENDBRANCH  14  15
BRANCH  14  19
ATOM     19  C   UNL     1       5.875   5.675   6.246  1.00  0.00     0.245 C 
ATOM     20  O   UNL     1       6.875   6.099   5.644  1.00  0.00    -0.272 OA
BRANCH  19  21
ATOM     21  N   UNL     1       5.949   4.457   6.900  1.00  0.00    -0.332 N 
ATOM     22  C   UNL     1       5.659   4.236   8.305  1.00  0.00     0.147 C 
BRANCH  21  23
ATOM     23  C   UNL     1       6.370   3.268   6.109  1.00  0.00     0.178 C 
BRANCH  23  24
ATOM     24  C   UNL     1       5.402   2.869   4.977  1.00  0.00     0.070 C 
BRANCH  24  25
ATOM     25  C   UNL     1       4.382   1.798   5.289  1.00  0.00    -0.045 A 
ATOM     26  C   UNL     1       3.613   1.221   4.270  1.00  0.00     0.004 A 
ATOM     27  C   UNL     1       4.189   1.368   6.611  1.00  0.00     0.004 A 
ATOM     28  C   UNL     1       2.661   0.244   4.569  1.00  0.00     0.000 A 
ATOM     29  C   UNL     1       3.238   0.391   6.907  1.00  0.00     0.000 A 
ATOM     30  C   UNL     1       2.472  -0.168   5.886  1.00  0.00     0.000 A 
ENDBRANCH  24  25
ENDBRANCH  23  24
BRANCH  23  31
ATOM     31  C   UNL     1       7.863   3.310   5.705  1.00  0.00     0.243 C 
ATOM     32  O   UNL     1       8.792   3.345   6.508  1.00  0.00    -0.273 OA
ATOM     33  N   UNL     1       8.063   3.492   4.347  1.00  0.00    -0.341 N 
ATOM     34  H   UNL     1       7.250   3.459   3.728  1.00  0.00     0.164 HD
BRANCH  33  35
ATOM     35  C   UNL     1       9.390   3.680   3.754  1.00  0.00     0.194 C 
BRANCH  35  36
ATOM     36  C   UNL     1       9.470   4.851   2.734  1.00  0.00     0.017 C 
ATOM     37  C   UNL     1       9.584   6.209   3.449  1.00  0.00     0.010 C 
ATOM     38  C   UNL     1       8.254   4.924   1.802  1.00  0.00     0.010 C 
ENDBRANCH  35  36
BRANCH  35  39
ATOM     39  C   UNL     1       9.977   2.363   3.172  1.00  0.00     0.329 C 
ATOM     40  O   UNL     1       9.297   1.460   2.699  1.00  0.00    -0.250 OA
BRANCH  39  41
ATOM     41  O   UNL     1      11.344   2.361   3.166  1.00  0.00    -0.458 OA
BRANCH  41  42
ATOM     42  C   UNL     1      11.979   2.170   1.879  1.00  0.00     0.205 CG0
ATOM     43  C   UNL     1      12.760   0.859   1.949  1.00  0.00     0.056 C 
ATOM     44  G   UNL     1      12.887   3.383   1.594  1.00  0.00     0.000 G0
ENDBRANCH  41  42
ENDBRANCH  39  41
ENDBRANCH  35  39
ENDBRANCH  33  35
ENDBRANCH  23  31
ENDBRANCH  21  23
ENDBRANCH  19  21
ENDBRANCH  14  19
ENDBRANCH   7  14
ENDBRANCH   2   5
BRANCH   3  45
ATOM     45  C   UNL     1      -0.419   9.948   9.815  1.00  0.00     0.171 C 
BRANCH  45  46
ATOM     46  N   UNL     1      -1.172   9.920  11.062  1.00  0.00    -0.342 N 
ATOM     47  C   UNL     1      -1.304  11.023  11.867  1.00  0.00     0.247 C 
ATOM     48  O   UNL     1      -0.862  12.131  11.561  1.00  0.00    -0.273 OA
ATOM     49  H   UNL     1      -1.602   9.035  11.326  1.00  0.00     0.164 HD
BRANCH  47  50
ATOM     50  C   UNL     1      -2.025  10.772  13.200  1.00  0.00     0.212 CG0
ATOM     51  G   UNL     1      -3.351  11.557  13.169  1.00  0.00     0.000 G0
BRANCH  50  52
ATOM     52  N   UNL     1      -2.212   9.326  13.276  1.00  0.00    -0.339 N 
ATOM     53  C   UNL     1      -3.334   8.736  13.805  1.00  0.00     0.243 C 
ATOM     54  O   UNL     1      -4.248   9.384  14.306  1.00  0.00    -0.273 OA
ATOM     55  H   UNL     1      -1.440   8.733  12.977  1.00  0.00     0.164 HD
BRANCH  53  56
ATOM     56  C   UNL     1      -3.267   7.196  13.857  1.00  0.00     0.182 C 
BRANCH  56  57
ATOM     57  N   UNL     1      -3.821   6.604  12.635  1.00  0.00    -0.344 N 
ATOM     58  C   UNL     1      -3.089   6.484  11.478  1.00  0.00     0.220 C 
ATOM     59  O   UNL     1      -1.951   6.928  11.364  1.00  0.00    -0.275 OA
ATOM     60  H   UNL     1      -4.719   6.134  12.716  1.00  0.00     0.164 HD
BRANCH  58  61
ATOM     61  C   UNL     1      -3.842   5.788  10.359  1.00  0.00     0.100 C 
BRANCH  61  62
ATOM     62  C   UNL     1      -3.693   6.471   8.999  1.00  0.00     0.010 C 
BRANCH  62  63
ATOM     63  C   UNL     1      -2.672   5.803   8.070  1.00  0.00     0.000 C 
BRANCH  63  64
ATOM     64  C   UNL     1      -2.610   6.408   6.669  1.00  0.00    -0.003 C 
ATOM     65  C   UNL     1      -1.540   5.736   5.821  1.00  0.00     0.004 C 
ENDBRANCH  63  64
ENDBRANCH  62  63
ENDBRANCH  61  62
ENDBRANCH  58  61
ENDBRANCH  56  57
BRANCH  56  66
ATOM     66  C   UNL     1      -3.936   6.649  15.117  1.00  0.00     0.157 C 
BRANCH  66  67
ATOM     67  C   UNL     1      -5.286   6.069  14.807  1.00  0.00     0.305 C 
ATOM     68  O   UNL     1      -5.568   4.885  14.699  1.00  0.00    -0.252 OA
BRANCH  67  69
ATOM     69  O   UNL     1      -6.238   7.016  14.699  1.00  0.00    -0.481 OA
ATOM     70  H   UNL     1      -6.093   7.605  15.469  1.00  0.00     0.296 HD
ENDBRANCH  67  69
ENDBRANCH  66  67
ENDBRANCH  56  66
ENDBRANCH  53  56
ENDBRANCH  50  52
ENDBRANCH  47  50
ENDBRANCH  45  46
BRANCH  45  71
ATOM     71  C   UNL     1      -1.171   9.236   8.685  1.00  0.00     0.037 C 
BRANCH  71  72
ATOM     72  C   UNL     1      -1.590  10.202   7.574  1.00  0.00     0.026 C 
BRANCH  72  73
ATOM     73  C   UNL     1      -3.092  10.476   7.608  1.00  0.00     0.146 C 
BRANCH  73  74
ATOM     74  N   UNL     1      -3.418  11.016   8.924  1.00  0.00    -0.254 NA
ATOM     75  C   UNL     1      -3.540  12.287   9.037  1.00  0.00     0.185 C 
ATOM     76  N   UNL     1      -3.841  12.814  10.235  1.00  0.00    -0.370 N 
ATOM     77  N   UNL     1      -3.407  13.236   8.093  1.00  0.00    -0.370 N 
ATOM     78  H   UNL     1      -3.951  12.168  11.004  1.00  0.00     0.159 HD
ATOM     79  H   UNL     1      -3.809  13.799  10.431  1.00  0.00     0.159 HD
ATOM     80  H   UNL     1      -3.185  12.986   7.141  1.00  0.00     0.159 HD
ATOM     81  H   UNL     1      -3.641  14.198   8.275  1.00  0.00     0.159 HD
ENDBRANCH  73  74
ENDBRANCH  72  73
ENDBRANCH  71  72
ENDBRANCH  45  71
ENDBRANCH   3  45
TORSDOF 20
ENDMDL
MODEL 21
REMARK VINA RESULT:    -5.395      8.036     14.140
REMARK INTER + INTRA:         -22.639
REMARK INTER:                 -17.007
REMARK INTRA:                  -5.631
REMARK UNBOUND:                -7.151
REMARK SMILES CCCCCC(=O)N[C@H](CC(=O)O)C(=O)N[C@H]1C(=O)N[C@H](CCCN=C(N)N)C(=O)N[C@@H]2CC[C@H](O)N(C2=O)[C@@H](CC(C)C)C(=O)N(C)[C@@H](Cc2ccccc2)C(=O)N[C@H](C(C)C)C(=O)O[C@@H]1C
REMARK SMILES IDX 30 1 31 2 29 3 32 5 35 6 37 7 34 8 38 9 33 10 39 11 36 12
REMARK SMILES IDX 40 14 41 15 42 16 43 17 44 18 45 19 46 20 47 21 48 22 49 23
REMARK SMILES IDX 50 24 51 25 52 26 56 27 53 28 55 29 54 30 57 31 58 32 59 33
REMARK SMILES IDX 60 35 61 36 62 37 63 38 64 39 65 40 66 41 67 42 68 43 21 45
REMARK SMILES IDX 20 46 18 47 19 48 17 50 16 52 14 53 15 54 9 56 8 57 6 58
REMARK SMILES IDX 7 59 5 61 4 62 3 63 2 64 1 65 10 66 11 67 12 68 13 69 22 71
REMARK SMILES IDX 23 72 24 73 25 74 26 75 27 76 28 77
REMARK H PARENT 31 4 36 13 59 34 20 49 16 55 8 60 13 70 27 78 27 79 28 80
REMARK H PARENT 28 81
REMARK Flexibility Score:  259.900
ROOT
ATOM      1  O   UNL     1      -4.345  -2.533   9.024  1.00  0.00    -0.273 OA
ATOM      2  N   UNL     1      -3.580  -1.159  10.684  1.00  0.00    -0.343 N 
ATOM      3  C   UNL     1      -4.027  -2.370  10.203  1.00  0.00     0.243 C 
ATOM      4  H   UNL     1      -3.313  -1.066  11.657  1.00  0.00     0.164 HD
ENDROOT
BRANCH   2   5
ATOM      5  C   UNL     1      -3.579   0.025   9.832  1.00  0.00     0.171 C 
ATOM      6  C   UNL     1      -2.139   2.538   9.960  1.00  0.00     0.214 C 
ATOM      7  N   UNL     1      -3.430   2.426  10.597  1.00  0.00    -0.303 N 
ATOM      8  C   UNL     1      -1.989   1.640   8.742  1.00  0.00     0.057 C 
ATOM      9  C   UNL     1      -4.148   1.241  10.617  1.00  0.00     0.247 C 
ATOM     10  C   UNL     1      -2.231   0.199   9.135  1.00  0.00     0.040 C 
ATOM     11  O   UNL     1      -5.213   1.130  11.239  1.00  0.00    -0.272 OA
BRANCH   6  12
ATOM     12  O   UNL     1      -1.157   2.231  10.922  1.00  0.00    -0.373 OA
ATOM     13  H   UNL     1      -1.243   2.892  11.642  1.00  0.00     0.213 HD
ENDBRANCH   6  12
BRANCH   7  14
ATOM     14  C   UNL     1      -3.903   3.598  11.365  1.00  0.00     0.177 C 
BRANCH  14  15
ATOM     15  C   UNL     1      -3.560   3.579  12.867  1.00  0.00     0.038 C 
BRANCH  15  16
ATOM     16  C   UNL     1      -4.537   4.219  13.879  1.00  0.00    -0.015 C 
ATOM     17  C   UNL     1      -3.922   4.362  15.274  1.00  0.00     0.007 C 
ATOM     18  C   UNL     1      -5.800   3.357  13.996  1.00  0.00     0.007 C 
ENDBRANCH  15  16
ENDBRANCH  14  15
BRANCH  14  19
ATOM     19  C   UNL     1      -3.920   4.873  10.454  1.00  0.00     0.245 C 
ATOM     20  O   UNL     1      -4.570   4.798   9.398  1.00  0.00    -0.272 OA
BRANCH  19  21
ATOM     21  N   UNL     1      -3.174   6.011  10.706  1.00  0.00    -0.332 N 
ATOM     22  C   UNL     1      -1.724   6.072  10.762  1.00  0.00     0.147 C 
BRANCH  21  23
ATOM     23  C   UNL     1      -3.906   7.283  10.953  1.00  0.00     0.178 C 
BRANCH  23  24
ATOM     24  C   UNL     1      -3.854   7.786  12.410  1.00  0.00     0.070 C 
BRANCH  24  25
ATOM     25  C   UNL     1      -5.164   8.187  13.047  1.00  0.00    -0.045 A 
ATOM     26  C   UNL     1      -5.998   9.133  12.439  1.00  0.00     0.004 A 
ATOM     27  C   UNL     1      -5.562   7.617  14.266  1.00  0.00     0.004 A 
ATOM     28  C   UNL     1      -7.199   9.511  13.043  1.00  0.00     0.000 A 
ATOM     29  C   UNL     1      -6.763   7.994  14.868  1.00  0.00     0.000 A 
ATOM     30  C   UNL     1      -7.580   8.943  14.257  1.00  0.00     0.000 A 
ENDBRANCH  24  25
ENDBRANCH  23  24
BRANCH  23  31
ATOM     31  C   UNL     1      -3.620   8.362   9.881  1.00  0.00     0.243 C 
ATOM     32  O   UNL     1      -3.816   8.205   8.679  1.00  0.00    -0.273 OA
ATOM     33  N   UNL     1      -2.946   9.466  10.374  1.00  0.00    -0.341 N 
ATOM     34  H   UNL     1      -2.807   9.539  11.385  1.00  0.00     0.164 HD
BRANCH  33  35
ATOM     35  C   UNL     1      -2.467  10.557   9.520  1.00  0.00     0.194 C 
BRANCH  35  36
ATOM     36  C   UNL     1      -1.109  11.166   9.968  1.00  0.00     0.017 C 
ATOM     37  C   UNL     1       0.069  10.261   9.568  1.00  0.00     0.010 C 
ATOM     38  C   UNL     1      -1.019  11.392  11.482  1.00  0.00     0.010 C 
ENDBRANCH  35  36
BRANCH  35  39
ATOM     39  C   UNL     1      -3.545  11.652   9.288  1.00  0.00     0.329 C 
ATOM     40  O   UNL     1      -4.093  12.277  10.188  1.00  0.00    -0.250 OA
BRANCH  39  41
ATOM     41  O   UNL     1      -3.754  11.903   7.960  1.00  0.00    -0.458 OA
BRANCH  41  42
ATOM     42  C   UNL     1      -4.217  13.233   7.624  1.00  0.00     0.205 CG0
ATOM     43  C   UNL     1      -4.550  13.235   6.134  1.00  0.00     0.056 C 
ATOM     44  G   UNL     1      -3.109  14.244   7.982  1.00  0.00     0.000 G0
ENDBRANCH  41  42
ENDBRANCH  39  41
ENDBRANCH  35  39
ENDBRANCH  33  35
ENDBRANCH  23  31
ENDBRANCH  21  23
ENDBRANCH  19  21
ENDBRANCH  14  19
ENDBRANCH   7  14
ENDBRANCH   2   5
BRANCH   3  45
ATOM     45  C   UNL     1      -4.079  -3.507  11.231  1.00  0.00     0.171 C 
BRANCH  45  46
ATOM     46  N   UNL     1      -3.752  -4.721  10.494  1.00  0.00    -0.342 N 
ATOM     47  C   UNL     1      -3.063  -5.763  11.061  1.00  0.00     0.247 C 
ATOM     48  O   UNL     1      -2.737  -5.782  12.248  1.00  0.00    -0.273 OA
ATOM     49  H   UNL     1      -4.054  -4.771   9.523  1.00  0.00     0.164 HD
BRANCH  47  50
ATOM     50  C   UNL     1      -2.701  -6.903  10.098  1.00  0.00     0.212 CG0
ATOM     51  G   UNL     1      -3.543  -6.721   8.820  1.00  0.00     0.000 G0
BRANCH  50  52
ATOM     52  N   UNL     1      -1.264  -6.775   9.866  1.00  0.00    -0.339 N 
ATOM     53  C   UNL     1      -0.556  -7.606   9.032  1.00  0.00     0.243 C 
ATOM     54  O   UNL     1      -1.071  -8.560   8.456  1.00  0.00    -0.273 OA
ATOM     55  H   UNL     1      -0.760  -6.071  10.402  1.00  0.00     0.164 HD
BRANCH  53  56
ATOM     56  C   UNL     1       0.961  -7.332   9.014  1.00  0.00     0.182 C 
BRANCH  56  57
ATOM     57  N   UNL     1       1.277  -6.179   8.164  1.00  0.00    -0.344 N 
ATOM     58  C   UNL     1       1.377  -4.903   8.661  1.00  0.00     0.220 C 
ATOM     59  O   UNL     1       1.138  -4.627   9.832  1.00  0.00    -0.275 OA
ATOM     60  H   UNL     1       1.581  -6.377   7.214  1.00  0.00     0.164 HD
BRANCH  58  61
ATOM     61  C   UNL     1       1.771  -3.878   7.614  1.00  0.00     0.100 C 
BRANCH  61  62
ATOM     62  C   UNL     1       2.111  -2.504   8.193  1.00  0.00     0.010 C 
BRANCH  62  63
ATOM     63  C   UNL     1       3.565  -2.363   8.659  1.00  0.00     0.000 C 
BRANCH  63  64
ATOM     64  C   UNL     1       3.720  -2.074  10.152  1.00  0.00    -0.003 C 
ATOM     65  C   UNL     1       4.322  -3.262  10.888  1.00  0.00     0.004 C 
ENDBRANCH  63  64
ENDBRANCH  62  63
ENDBRANCH  61  62
ENDBRANCH  58  61
ENDBRANCH  56  57
BRANCH  56  66
ATOM     66  C   UNL     1       1.750  -8.577   8.614  1.00  0.00     0.157 C 
BRANCH  66  67
ATOM     67  C   UNL     1       2.000  -8.610   7.133  1.00  0.00     0.305 C 
ATOM     68  O   UNL     1       2.876  -8.016   6.524  1.00  0.00    -0.252 OA
BRANCH  67  69
ATOM     69  O   UNL     1       1.156  -9.440   6.491  1.00  0.00    -0.481 OA
ATOM     70  H   UNL     1       1.385 -10.335   6.821  1.00  0.00     0.296 HD
ENDBRANCH  67  69
ENDBRANCH  66  67
ENDBRANCH  56  66
ENDBRANCH  53  56
ENDBRANCH  50  52
ENDBRANCH  47  50
ENDBRANCH  45  46
BRANCH  45  71
ATOM     71  C   UNL     1      -5.472  -3.590  11.866  1.00  0.00     0.037 C 
BRANCH  71  72
ATOM     72  C   UNL     1      -5.703  -2.480  12.895  1.00  0.00     0.026 C 
BRANCH  72  73
ATOM     73  C   UNL     1      -4.643  -2.508  13.995  1.00  0.00     0.146 C 
BRANCH  73  74
ATOM     74  N   UNL     1      -3.607  -1.542  13.641  1.00  0.00    -0.254 NA
ATOM     75  C   UNL     1      -3.629  -0.400  14.223  1.00  0.00     0.185 C 
ATOM     76  N   UNL     1      -2.688   0.509  13.920  1.00  0.00    -0.370 N 
ATOM     77  N   UNL     1      -4.493   0.063  15.143  1.00  0.00    -0.370 N 
ATOM     78  H   UNL     1      -2.001   0.243  13.229  1.00  0.00     0.159 HD
ATOM     79  H   UNL     1      -2.725   1.466  14.223  1.00  0.00     0.159 HD
ATOM     80  H   UNL     1      -5.253  -0.514  15.471  1.00  0.00     0.159 HD
ATOM     81  H   UNL     1      -4.342   0.939  15.616  1.00  0.00     0.159 HD
ENDBRANCH  73  74
ENDBRANCH  72  73
ENDBRANCH  71  72
ENDBRANCH  45  71
ENDBRANCH   3  45
TORSDOF 20
ENDMDL
MODEL 22
REMARK VINA RESULT:    -5.393      3.662      6.067
REMARK INTER + INTRA:         -22.634
REMARK INTER:                 -15.959
REMARK INTRA:                  -6.675
REMARK UNBOUND:                -7.151
REMARK SMILES CCCCCC(=O)N[C@H](CC(=O)O)C(=O)N[C@H]1C(=O)N[C@H](CCCN=C(N)N)C(=O)N[C@@H]2CC[C@H](O)N(C2=O)[C@@H](CC(C)C)C(=O)N(C)[C@@H](Cc2ccccc2)C(=O)N[C@H](C(C)C)C(=O)O[C@@H]1C
REMARK SMILES IDX 30 1 31 2 29 3 32 5 35 6 37 7 34 8 38 9 33 10 39 11 36 12
REMARK SMILES IDX 40 14 41 15 42 16 43 17 44 18 45 19 46 20 47 21 48 22 49 23
REMARK SMILES IDX 50 24 51 25 52 26 56 27 53 28 55 29 54 30 57 31 58 32 59 33
REMARK SMILES IDX 60 35 61 36 62 37 63 38 64 39 65 40 66 41 67 42 68 43 21 45
REMARK SMILES IDX 20 46 18 47 19 48 17 50 16 52 14 53 15 54 9 56 8 57 6 58
REMARK SMILES IDX 7 59 5 61 4 62 3 63 2 64 1 65 10 66 11 67 12 68 13 69 22 71
REMARK SMILES IDX 23 72 24 73 25 74 26 75 27 76 28 77
REMARK H PARENT 31 4 36 13 59 34 20 49 16 55 8 60 13 70 27 78 27 79 28 80
REMARK H PARENT 28 81
REMARK Flexibility Score:  259.900
ROOT
ATOM      1  O   UNL     1       1.034   4.450   9.042  1.00  0.00    -0.273 OA
ATOM      2  N   UNL     1       0.940   5.851   7.236  1.00  0.00    -0.343 N 
ATOM      3  C   UNL     1       0.364   5.093   8.233  1.00  0.00     0.243 C 
ATOM      4  H   UNL     1       0.358   6.379   6.598  1.00  0.00     0.164 HD
ENDROOT
BRANCH   2   5
ATOM      5  C   UNL     1       2.383   5.826   7.024  1.00  0.00     0.171 C 
ATOM      6  C   UNL     1       4.169   7.495   5.465  1.00  0.00     0.214 C 
ATOM      7  N   UNL     1       3.592   6.316   4.863  1.00  0.00    -0.303 N 
ATOM      8  C   UNL     1       4.370   7.367   6.967  1.00  0.00     0.057 C 
ATOM      9  C   UNL     1       2.692   5.504   5.534  1.00  0.00     0.247 C 
ATOM     10  C   UNL     1       3.049   7.058   7.636  1.00  0.00     0.040 C 
ATOM     11  O   UNL     1       2.136   4.545   4.983  1.00  0.00    -0.272 OA
BRANCH   6  12
ATOM     12  O   UNL     1       3.325   8.585   5.173  1.00  0.00    -0.373 OA
ATOM     13  H   UNL     1       3.666   9.355   5.676  1.00  0.00     0.213 HD
ENDBRANCH   6  12
BRANCH   7  14
ATOM     14  C   UNL     1       3.885   6.081   3.433  1.00  0.00     0.177 C 
BRANCH  14  15
ATOM     15  C   UNL     1       3.258   7.099   2.460  1.00  0.00     0.038 C 
BRANCH  15  16
ATOM     16  C   UNL     1       2.471   6.591   1.231  1.00  0.00    -0.015 C 
ATOM     17  C   UNL     1       1.443   7.611   0.733  1.00  0.00     0.007 C 
ATOM     18  C   UNL     1       1.730   5.296   1.588  1.00  0.00     0.007 C 
ENDBRANCH  15  16
ENDBRANCH  14  15
BRANCH  14  19
ATOM     19  C   UNL     1       5.296   5.420   3.269  1.00  0.00     0.245 C 
ATOM     20  O   UNL     1       6.263   6.189   3.135  1.00  0.00    -0.272 OA
BRANCH  19  21
ATOM     21  N   UNL     1       5.500   4.056   3.155  1.00  0.00    -0.332 N 
ATOM     22  C   UNL     1       4.579   3.114   2.544  1.00  0.00     0.147 C 
BRANCH  21  23
ATOM     23  C   UNL     1       6.761   3.492   3.711  1.00  0.00     0.178 C 
BRANCH  23  24
ATOM     24  C   UNL     1       6.563   2.398   4.780  1.00  0.00     0.070 C 
BRANCH  24  25
ATOM     25  C   UNL     1       5.799   2.783   6.025  1.00  0.00    -0.045 A 
ATOM     26  C   UNL     1       6.298   3.755   6.902  1.00  0.00     0.004 A 
ATOM     27  C   UNL     1       4.576   2.164   6.325  1.00  0.00     0.004 A 
ATOM     28  C   UNL     1       5.595   4.093   8.060  1.00  0.00     0.000 A 
ATOM     29  C   UNL     1       3.873   2.504   7.482  1.00  0.00     0.000 A 
ATOM     30  C   UNL     1       4.385   3.466   8.350  1.00  0.00     0.000 A 
ENDBRANCH  24  25
ENDBRANCH  23  24
BRANCH  23  31
ATOM     31  C   UNL     1       7.805   3.155   2.620  1.00  0.00     0.243 C 
ATOM     32  O   UNL     1       7.868   3.722   1.531  1.00  0.00    -0.273 OA
ATOM     33  N   UNL     1       8.554   2.025   2.901  1.00  0.00    -0.341 N 
ATOM     34  H   UNL     1       8.453   1.593   3.822  1.00  0.00     0.164 HD
BRANCH  33  35
ATOM     35  C   UNL     1       9.518   1.451   1.958  1.00  0.00     0.194 C 
BRANCH  35  36
ATOM     36  C   UNL     1       9.375  -0.084   1.759  1.00  0.00     0.017 C 
ATOM     37  C   UNL     1       8.954  -0.425   0.319  1.00  0.00     0.010 C 
ATOM     38  C   UNL     1       8.346  -0.722   2.701  1.00  0.00     0.010 C 
ENDBRANCH  35  36
BRANCH  35  39
ATOM     39  C   UNL     1      10.983   1.860   2.278  1.00  0.00     0.329 C 
ATOM     40  O   UNL     1      11.335   3.006   2.534  1.00  0.00    -0.250 OA
BRANCH  39  41
ATOM     41  O   UNL     1      11.825   0.784   2.327  1.00  0.00    -0.458 OA
BRANCH  41  42
ATOM     42  C   UNL     1      13.033   0.878   1.536  1.00  0.00     0.205 CG0
ATOM     43  C   UNL     1      12.661   0.531   0.096  1.00  0.00     0.056 C 
ATOM     44  G   UNL     1      14.082  -0.088   2.123  1.00  0.00     0.000 G0
ENDBRANCH  41  42
ENDBRANCH  39  41
ENDBRANCH  35  39
ENDBRANCH  33  35
ENDBRANCH  23  31
ENDBRANCH  21  23
ENDBRANCH  19  21
ENDBRANCH  14  19
ENDBRANCH   7  14
ENDBRANCH   2   5
BRANCH   3  45
ATOM     45  C   UNL     1      -1.169   5.123   8.278  1.00  0.00     0.171 C 
BRANCH  45  46
ATOM     46  N   UNL     1      -1.514   5.632   9.599  1.00  0.00    -0.342 N 
ATOM     47  C   UNL     1      -1.918   6.927   9.807  1.00  0.00     0.247 C 
ATOM     48  O   UNL     1      -2.088   7.730   8.888  1.00  0.00    -0.273 OA
ATOM     49  H   UNL     1      -1.442   4.984  10.381  1.00  0.00     0.164 HD
BRANCH  47  50
ATOM     50  C   UNL     1      -2.118   7.318  11.278  1.00  0.00     0.212 CG0
ATOM     51  G   UNL     1      -3.206   8.409  11.328  1.00  0.00     0.000 G0
BRANCH  50  52
ATOM     52  N   UNL     1      -2.505   6.085  11.959  1.00  0.00    -0.339 N 
ATOM     53  C   UNL     1      -3.568   6.002  12.825  1.00  0.00     0.243 C 
ATOM     54  O   UNL     1      -4.247   6.977  13.136  1.00  0.00    -0.273 OA
ATOM     55  H   UNL     1      -1.913   5.267  11.829  1.00  0.00     0.164 HD
BRANCH  53  56
ATOM     56  C   UNL     1      -3.730   4.620  13.489  1.00  0.00     0.182 C 
BRANCH  56  57
ATOM     57  N   UNL     1      -4.449   3.693  12.608  1.00  0.00    -0.344 N 
ATOM     58  C   UNL     1      -3.823   2.998  11.603  1.00  0.00     0.220 C 
ATOM     59  O   UNL     1      -2.639   3.157  11.324  1.00  0.00    -0.275 OA
ATOM     60  H   UNL     1      -5.403   3.457  12.868  1.00  0.00     0.164 HD
BRANCH  58  61
ATOM     61  C   UNL     1      -4.748   2.055  10.857  1.00  0.00     0.100 C 
BRANCH  61  62
ATOM     62  C   UNL     1      -6.158   1.982  11.444  1.00  0.00     0.010 C 
BRANCH  62  63
ATOM     63  C   UNL     1      -6.506   0.628  12.074  1.00  0.00     0.000 C 
BRANCH  63  64
ATOM     64  C   UNL     1      -5.718   0.305  13.342  1.00  0.00    -0.003 C 
ATOM     65  C   UNL     1      -5.124  -1.095  13.286  1.00  0.00     0.004 C 
ENDBRANCH  63  64
ENDBRANCH  62  63
ENDBRANCH  61  62
ENDBRANCH  58  61
ENDBRANCH  56  57
BRANCH  56  66
ATOM     66  C   UNL     1      -4.385   4.732  14.865  1.00  0.00     0.157 C 
BRANCH  66  67
ATOM     67  C   UNL     1      -5.874   4.564  14.774  1.00  0.00     0.305 C 
ATOM     68  O   UNL     1      -6.490   3.512  14.701  1.00  0.00    -0.252 OA
BRANCH  67  69
ATOM     69  O   UNL     1      -6.526   5.741  14.831  1.00  0.00    -0.481 OA
ATOM     70  H   UNL     1      -6.135   6.207  15.600  1.00  0.00     0.296 HD
ENDBRANCH  67  69
ENDBRANCH  66  67
ENDBRANCH  56  66
ENDBRANCH  53  56
ENDBRANCH  50  52
ENDBRANCH  47  50
ENDBRANCH  45  46
BRANCH  45  71
ATOM     71  C   UNL     1      -1.738   3.719   8.047  1.00  0.00     0.037 C 
BRANCH  71  72
ATOM     72  C   UNL     1      -2.430   3.594   6.687  1.00  0.00     0.026 C 
BRANCH  72  73
ATOM     73  C   UNL     1      -2.607   4.958   6.022  1.00  0.00     0.146 C 
BRANCH  73  74
ATOM     74  N   UNL     1      -4.001   5.075   5.607  1.00  0.00    -0.254 NA
ATOM     75  C   UNL     1      -4.826   5.616   6.426  1.00  0.00     0.185 C 
ATOM     76  N   UNL     1      -6.116   5.739   6.072  1.00  0.00    -0.370 N 
ATOM     77  N   UNL     1      -4.595   6.111   7.654  1.00  0.00    -0.370 N 
ATOM     78  H   UNL     1      -6.377   5.384   5.164  1.00  0.00     0.159 HD
ATOM     79  H   UNL     1      -6.841   6.017   6.710  1.00  0.00     0.159 HD
ATOM     80  H   UNL     1      -3.668   6.090   8.051  1.00  0.00     0.159 HD
ATOM     81  H   UNL     1      -5.302   6.619   8.160  1.00  0.00     0.159 HD
ENDBRANCH  73  74
ENDBRANCH  72  73
ENDBRANCH  71  72
ENDBRANCH  45  71
ENDBRANCH   3  45
TORSDOF 20
ENDMDL
MODEL 23
REMARK VINA RESULT:    -5.382      8.673     14.179
REMARK INTER + INTRA:         -22.601
REMARK INTER:                 -16.477
REMARK INTRA:                  -6.124
REMARK UNBOUND:                -7.151
REMARK SMILES CCCCCC(=O)N[C@H](CC(=O)O)C(=O)N[C@H]1C(=O)N[C@H](CCCN=C(N)N)C(=O)N[C@@H]2CC[C@H](O)N(C2=O)[C@@H](CC(C)C)C(=O)N(C)[C@@H](Cc2ccccc2)C(=O)N[C@H](C(C)C)C(=O)O[C@@H]1C
REMARK SMILES IDX 30 1 31 2 29 3 32 5 35 6 37 7 34 8 38 9 33 10 39 11 36 12
REMARK SMILES IDX 40 14 41 15 42 16 43 17 44 18 45 19 46 20 47 21 48 22 49 23
REMARK SMILES IDX 50 24 51 25 52 26 56 27 53 28 55 29 54 30 57 31 58 32 59 33
REMARK SMILES IDX 60 35 61 36 62 37 63 38 64 39 65 40 66 41 67 42 68 43 21 45
REMARK SMILES IDX 20 46 18 47 19 48 17 50 16 52 14 53 15 54 9 56 8 57 6 58
REMARK SMILES IDX 7 59 5 61 4 62 3 63 2 64 1 65 10 66 11 67 12 68 13 69 22 71
REMARK SMILES IDX 23 72 24 73 25 74 26 75 27 76 28 77
REMARK H PARENT 31 4 36 13 59 34 20 49 16 55 8 60 13 70 27 78 27 79 28 80
REMARK H PARENT 28 81
REMARK Flexibility Score:  259.900
ROOT
ATOM      1  O   UNL     1      -1.564  -3.689   7.572  1.00  0.00    -0.273 OA
ATOM      2  N   UNL     1      -2.988  -2.571   8.969  1.00  0.00    -0.343 N 
ATOM      3  C   UNL     1      -2.660  -3.613   8.129  1.00  0.00     0.243 C 
ATOM      4  H   UNL     1      -3.893  -2.549   9.422  1.00  0.00     0.164 HD
ENDROOT
BRANCH   2   5
ATOM      5  C   UNL     1      -2.081  -1.441   9.140  1.00  0.00     0.171 C 
ATOM      6  C   UNL     1      -1.510   0.297  11.389  1.00  0.00     0.214 C 
ATOM      7  N   UNL     1      -2.541   0.668  10.448  1.00  0.00    -0.303 N 
ATOM      8  C   UNL     1      -0.394  -0.526  10.765  1.00  0.00     0.057 C 
ATOM      9  C   UNL     1      -2.899  -0.140   9.382  1.00  0.00     0.247 C 
ATOM     10  C   UNL     1      -0.970  -1.775  10.134  1.00  0.00     0.040 C 
ATOM     11  O   UNL     1      -3.842   0.144   8.631  1.00  0.00    -0.272 OA
BRANCH   6  12
ATOM     12  O   UNL     1      -2.121  -0.418  12.438  1.00  0.00    -0.373 OA
ATOM     13  H   UNL     1      -1.544  -0.323  13.225  1.00  0.00     0.213 HD
ENDBRANCH   6  12
BRANCH   7  14
ATOM     14  C   UNL     1      -3.315   1.891  10.750  1.00  0.00     0.177 C 
BRANCH  14  15
ATOM     15  C   UNL     1      -3.959   1.932  12.150  1.00  0.00     0.038 C 
BRANCH  15  16
ATOM     16  C   UNL     1      -5.340   2.599  12.333  1.00  0.00    -0.015 C 
ATOM     17  C   UNL     1      -5.897   2.410  13.747  1.00  0.00     0.007 C 
ATOM     18  C   UNL     1      -6.342   2.001  11.337  1.00  0.00     0.007 C 
ENDBRANCH  15  16
ENDBRANCH  14  15
BRANCH  14  19
ATOM     19  C   UNL     1      -2.701   3.122   9.998  1.00  0.00     0.245 C 
ATOM     20  O   UNL     1      -1.483   3.081   9.759  1.00  0.00    -0.272 OA
BRANCH  19  21
ATOM     21  N   UNL     1      -3.408   4.273   9.696  1.00  0.00    -0.332 N 
ATOM     22  C   UNL     1      -4.367   4.413   8.615  1.00  0.00     0.147 C 
BRANCH  21  23
ATOM     23  C   UNL     1      -3.167   5.478  10.536  1.00  0.00     0.178 C 
BRANCH  23  24
ATOM     24  C   UNL     1      -2.653   5.181  11.960  1.00  0.00     0.070 C 
BRANCH  24  25
ATOM     25  C   UNL     1      -3.087   6.123  13.058  1.00  0.00    -0.045 A 
ATOM     26  C   UNL     1      -4.288   5.916  13.749  1.00  0.00     0.004 A 
ATOM     27  C   UNL     1      -2.290   7.227  13.400  1.00  0.00     0.004 A 
ATOM     28  C   UNL     1      -4.690   6.802  14.752  1.00  0.00     0.000 A 
ATOM     29  C   UNL     1      -2.693   8.110  14.403  1.00  0.00     0.000 A 
ATOM     30  C   UNL     1      -3.894   7.898  15.076  1.00  0.00     0.000 A 
ENDBRANCH  24  25
ENDBRANCH  23  24
BRANCH  23  31
ATOM     31  C   UNL     1      -2.400   6.593   9.786  1.00  0.00     0.243 C 
ATOM     32  O   UNL     1      -1.285   6.446   9.292  1.00  0.00    -0.273 OA
ATOM     33  N   UNL     1      -3.001   7.837   9.878  1.00  0.00    -0.341 N 
ATOM     34  H   UNL     1      -3.928   7.897  10.307  1.00  0.00     0.164 HD
BRANCH  33  35
ATOM     35  C   UNL     1      -2.392   9.059   9.346  1.00  0.00     0.194 C 
BRANCH  35  36
ATOM     36  C   UNL     1      -2.368  10.245  10.351  1.00  0.00     0.017 C 
ATOM     37  C   UNL     1      -1.033  10.305  11.114  1.00  0.00     0.010 C 
ATOM     38  C   UNL     1      -3.490  10.177  11.394  1.00  0.00     0.010 C 
ENDBRANCH  35  36
BRANCH  35  39
ATOM     39  C   UNL     1      -2.989   9.475   7.972  1.00  0.00     0.329 C 
ATOM     40  O   UNL     1      -3.092   8.720   7.013  1.00  0.00    -0.250 OA
BRANCH  39  41
ATOM     41  O   UNL     1      -3.467  10.756   7.979  1.00  0.00    -0.458 OA
BRANCH  41  42
ATOM     42  C   UNL     1      -3.086  11.589   6.858  1.00  0.00     0.205 CG0
ATOM     43  C   UNL     1      -2.167  12.683   7.398  1.00  0.00     0.056 C 
ATOM     44  G   UNL     1      -4.364  12.158   6.211  1.00  0.00     0.000 G0
ENDBRANCH  41  42
ENDBRANCH  39  41
ENDBRANCH  35  39
ENDBRANCH  33  35
ENDBRANCH  23  31
ENDBRANCH  21  23
ENDBRANCH  19  21
ENDBRANCH  14  19
ENDBRANCH   7  14
ENDBRANCH   2   5
BRANCH   3  45
ATOM     45  C   UNL     1      -3.746  -4.683   7.954  1.00  0.00     0.171 C 
BRANCH  45  46
ATOM     46  N   UNL     1      -3.113  -5.948   8.302  1.00  0.00    -0.342 N 
ATOM     47  C   UNL     1      -3.103  -6.438   9.584  1.00  0.00     0.247 C 
ATOM     48  O   UNL     1      -3.688  -5.884  10.515  1.00  0.00    -0.273 OA
ATOM     49  H   UNL     1      -2.665  -6.467   7.549  1.00  0.00     0.164 HD
BRANCH  47  50
ATOM     50  C   UNL     1      -2.283  -7.720   9.783  1.00  0.00     0.212 CG0
ATOM     51  G   UNL     1      -2.924  -8.824   8.920  1.00  0.00     0.000 G0
BRANCH  50  52
ATOM     52  N   UNL     1      -0.924  -7.381   9.370  1.00  0.00    -0.339 N 
ATOM     53  C   UNL     1       0.015  -8.319   9.017  1.00  0.00     0.243 C 
ATOM     54  O   UNL     1      -0.202  -9.527   9.074  1.00  0.00    -0.273 OA
ATOM     55  H   UNL     1      -0.648  -6.402   9.410  1.00  0.00     0.164 HD
BRANCH  53  56
ATOM     56  C   UNL     1       1.405  -7.729   8.701  1.00  0.00     0.182 C 
BRANCH  56  57
ATOM     57  N   UNL     1       1.337  -6.272   8.557  1.00  0.00    -0.344 N 
ATOM     58  C   UNL     1       2.451  -5.503   8.323  1.00  0.00     0.220 C 
ATOM     59  O   UNL     1       3.585  -5.969   8.293  1.00  0.00    -0.275 OA
ATOM     60  H   UNL     1       0.411  -5.860   8.474  1.00  0.00     0.164 HD
BRANCH  58  61
ATOM     61  C   UNL     1       2.138  -4.028   8.149  1.00  0.00     0.100 C 
BRANCH  61  62
ATOM     62  C   UNL     1       3.158  -3.100   8.809  1.00  0.00     0.010 C 
BRANCH  62  63
ATOM     63  C   UNL     1       3.424  -3.410  10.288  1.00  0.00     0.000 C 
BRANCH  63  64
ATOM     64  C   UNL     1       2.198  -3.265  11.189  1.00  0.00    -0.003 C 
ATOM     65  C   UNL     1       2.525  -2.473  12.447  1.00  0.00     0.004 C 
ENDBRANCH  63  64
ENDBRANCH  62  63
ENDBRANCH  61  62
ENDBRANCH  58  61
ENDBRANCH  56  57
BRANCH  56  66
ATOM     66  C   UNL     1       2.035  -8.401   7.482  1.00  0.00     0.157 C 
BRANCH  66  67
ATOM     67  C   UNL     1       1.093  -8.398   6.313  1.00  0.00     0.305 C 
ATOM     68  O   UNL     1       0.727  -7.426   5.669  1.00  0.00    -0.252 OA
BRANCH  67  69
ATOM     69  O   UNL     1       0.695  -9.639   5.973  1.00  0.00    -0.481 OA
ATOM     70  H   UNL     1       0.190  -9.961   6.750  1.00  0.00     0.296 HD
ENDBRANCH  67  69
ENDBRANCH  66  67
ENDBRANCH  56  66
ENDBRANCH  53  56
ENDBRANCH  50  52
ENDBRANCH  47  50
ENDBRANCH  45  46
BRANCH  45  71
ATOM     71  C   UNL     1      -4.262  -4.687   6.511  1.00  0.00     0.037 C 
BRANCH  71  72
ATOM     72  C   UNL     1      -5.186  -3.500   6.226  1.00  0.00     0.026 C 
BRANCH  72  73
ATOM     73  C   UNL     1      -4.866  -2.851   4.881  1.00  0.00     0.146 C 
BRANCH  73  74
ATOM     74  N   UNL     1      -3.415  -2.727   4.779  1.00  0.00    -0.254 NA
ATOM     75  C   UNL     1      -2.878  -1.634   5.177  1.00  0.00     0.185 C 
ATOM     76  N   UNL     1      -1.545  -1.491   5.097  1.00  0.00    -0.370 N 
ATOM     77  N   UNL     1      -3.467  -0.542   5.693  1.00  0.00    -0.370 N 
ATOM     78  H   UNL     1      -1.024  -2.266   4.711  1.00  0.00     0.159 HD
ATOM     79  H   UNL     1      -1.071  -0.618   5.251  1.00  0.00     0.159 HD
ATOM     80  H   UNL     1      -4.468  -0.508   5.817  1.00  0.00     0.159 HD
ATOM     81  H   UNL     1      -2.929   0.216   6.080  1.00  0.00     0.159 HD
ENDBRANCH  73  74
ENDBRANCH  72  73
ENDBRANCH  71  72
ENDBRANCH  45  71
ENDBRANCH   3  45
TORSDOF 20
ENDMDL
MODEL 24
REMARK VINA RESULT:    -5.364      3.881      5.547
REMARK INTER + INTRA:         -22.550
REMARK INTER:                 -16.551
REMARK INTRA:                  -6.000
REMARK UNBOUND:                -7.151
REMARK SMILES CCCCCC(=O)N[C@H](CC(=O)O)C(=O)N[C@H]1C(=O)N[C@H](CCCN=C(N)N)C(=O)N[C@@H]2CC[C@H](O)N(C2=O)[C@@H](CC(C)C)C(=O)N(C)[C@@H](Cc2ccccc2)C(=O)N[C@H](C(C)C)C(=O)O[C@@H]1C
REMARK SMILES IDX 30 1 31 2 29 3 32 5 35 6 37 7 34 8 38 9 33 10 39 11 36 12
REMARK SMILES IDX 40 14 41 15 42 16 43 17 44 18 45 19 46 20 47 21 48 22 49 23
REMARK SMILES IDX 50 24 51 25 52 26 56 27 53 28 55 29 54 30 57 31 58 32 59 33
REMARK SMILES IDX 60 35 61 36 62 37 63 38 64 39 65 40 66 41 67 42 68 43 21 45
REMARK SMILES IDX 20 46 18 47 19 48 17 50 16 52 14 53 15 54 9 56 8 57 6 58
REMARK SMILES IDX 7 59 5 61 4 62 3 63 2 64 1 65 10 66 11 67 12 68 13 69 22 71
REMARK SMILES IDX 23 72 24 73 25 74 26 75 27 76 28 77
REMARK H PARENT 31 4 36 13 59 34 20 49 16 55 8 60 13 70 27 78 27 79 28 80
REMARK H PARENT 28 81
REMARK Flexibility Score:  259.900
ROOT
ATOM      1  O   UNL     1      -0.842   6.397  11.271  1.00  0.00    -0.273 OA
ATOM      2  N   UNL     1      -1.085   8.502  10.412  1.00  0.00    -0.343 N 
ATOM      3  C   UNL     1      -1.568   7.270  10.796  1.00  0.00     0.243 C 
ATOM      4  H   UNL     1      -1.714   9.202  10.038  1.00  0.00     0.164 HD
ENDROOT
BRANCH   2   5
ATOM      5  C   UNL     1       0.347   8.781  10.444  1.00  0.00     0.171 C 
ATOM      6  C   UNL     1       2.044  10.527   8.870  1.00  0.00     0.214 C 
ATOM      7  N   UNL     1       1.848   9.159   8.450  1.00  0.00    -0.303 N 
ATOM      8  C   UNL     1       1.957  10.711  10.377  1.00  0.00     0.057 C 
ATOM      9  C   UNL     1       1.010   8.287   9.126  1.00  0.00     0.247 C 
ATOM     10  C   UNL     1       0.615  10.222  10.877  1.00  0.00     0.040 C 
ATOM     11  O   UNL     1       0.780   7.144   8.711  1.00  0.00    -0.272 OA
BRANCH   6  12
ATOM     12  O   UNL     1       1.078  11.320   8.220  1.00  0.00    -0.373 OA
ATOM     13  H   UNL     1       1.291  12.256   8.423  1.00  0.00     0.213 HD
ENDBRANCH   6  12
BRANCH   7  14
ATOM     14  C   UNL     1       2.466   8.756   7.169  1.00  0.00     0.177 C 
BRANCH  14  15
ATOM     15  C   UNL     1       1.547   8.858   5.936  1.00  0.00     0.038 C 
BRANCH  15  16
ATOM     16  C   UNL     1       1.781   7.918   4.733  1.00  0.00    -0.015 C 
ATOM     17  C   UNL     1       1.784   8.668   3.397  1.00  0.00     0.007 C 
ATOM     18  C   UNL     1       0.677   6.854   4.684  1.00  0.00     0.007 C 
ENDBRANCH  15  16
ENDBRANCH  14  15
BRANCH  14  19
ATOM     19  C   UNL     1       4.002   9.070   7.184  1.00  0.00     0.245 C 
ATOM     20  O   UNL     1       4.387  10.015   6.476  1.00  0.00    -0.272 OA
BRANCH  19  21
ATOM     21  N   UNL     1       4.941   8.295   7.842  1.00  0.00    -0.332 N 
ATOM     22  C   UNL     1       5.771   8.736   8.948  1.00  0.00     0.147 C 
BRANCH  21  23
ATOM     23  C   UNL     1       5.133   6.893   7.380  1.00  0.00     0.178 C 
BRANCH  23  24
ATOM     24  C   UNL     1       3.908   5.975   7.574  1.00  0.00     0.070 C 
BRANCH  24  25
ATOM     25  C   UNL     1       3.953   4.618   6.911  1.00  0.00    -0.045 A 
ATOM     26  C   UNL     1       4.717   3.578   7.457  1.00  0.00     0.004 A 
ATOM     27  C   UNL     1       3.231   4.382   5.732  1.00  0.00     0.004 A 
ATOM     28  C   UNL     1       4.767   2.332   6.830  1.00  0.00     0.000 A 
ATOM     29  C   UNL     1       3.281   3.135   5.106  1.00  0.00     0.000 A 
ATOM     30  C   UNL     1       4.052   2.112   5.655  1.00  0.00     0.000 A 
ENDBRANCH  24  25
ENDBRANCH  23  24
BRANCH  23  31
ATOM     31  C   UNL     1       5.801   6.802   5.987  1.00  0.00     0.243 C 
ATOM     32  O   UNL     1       5.290   7.223   4.952  1.00  0.00    -0.273 OA
ATOM     33  N   UNL     1       6.953   6.035   5.975  1.00  0.00    -0.341 N 
ATOM     34  H   UNL     1       7.327   5.707   6.869  1.00  0.00     0.164 HD
BRANCH  33  35
ATOM     35  C   UNL     1       7.686   5.714   4.747  1.00  0.00     0.194 C 
BRANCH  35  36
ATOM     36  C   UNL     1       8.054   4.211   4.602  1.00  0.00     0.017 C 
ATOM     37  C   UNL     1       6.957   3.437   3.850  1.00  0.00     0.010 C 
ATOM     38  C   UNL     1       8.271   3.508   5.948  1.00  0.00     0.010 C 
ENDBRANCH  35  36
BRANCH  35  39
ATOM     39  C   UNL     1       8.918   6.637   4.528  1.00  0.00     0.329 C 
ATOM     40  O   UNL     1       9.015   7.771   4.982  1.00  0.00    -0.250 OA
BRANCH  39  41
ATOM     41  O   UNL     1       9.923   6.009   3.844  1.00  0.00    -0.458 OA
BRANCH  41  42
ATOM     42  C   UNL     1      10.351   6.639   2.613  1.00  0.00     0.205 CG0
ATOM     43  C   UNL     1       9.401   6.173   1.511  1.00  0.00     0.056 C 
ATOM     44  G   UNL     1      11.814   6.238   2.339  1.00  0.00     0.000 G0
ENDBRANCH  41  42
ENDBRANCH  39  41
ENDBRANCH  35  39
ENDBRANCH  33  35
ENDBRANCH  23  31
ENDBRANCH  21  23
ENDBRANCH  19  21
ENDBRANCH  14  19
ENDBRANCH   7  14
ENDBRANCH   2   5
BRANCH   3  45
ATOM     45  C   UNL     1      -3.078   7.070  10.610  1.00  0.00     0.171 C 
BRANCH  45  46
ATOM     46  N   UNL     1      -3.554   6.483  11.856  1.00  0.00    -0.342 N 
ATOM     47  C   UNL     1      -4.113   7.235  12.858  1.00  0.00     0.247 C 
ATOM     48  O   UNL     1      -4.320   8.444  12.750  1.00  0.00    -0.273 OA
ATOM     49  H   UNL     1      -3.453   5.475  11.964  1.00  0.00     0.164 HD
BRANCH  47  50
ATOM     50  C   UNL     1      -4.440   6.463  14.144  1.00  0.00     0.212 CG0
ATOM     51  G   UNL     1      -5.633   7.167  14.821  1.00  0.00     0.000 G0
BRANCH  50  52
ATOM     52  N   UNL     1      -4.741   5.100  13.715  1.00  0.00    -0.339 N 
ATOM     53  C   UNL     1      -4.288   3.983  14.374  1.00  0.00     0.243 C 
ATOM     54  O   UNL     1      -3.546   4.045  15.350  1.00  0.00    -0.273 OA
ATOM     55  H   UNL     1      -5.261   4.982  12.848  1.00  0.00     0.164 HD
BRANCH  53  56
ATOM     56  C   UNL     1      -4.662   2.654  13.686  1.00  0.00     0.182 C 
BRANCH  56  57
ATOM     57  N   UNL     1      -3.974   1.523  14.316  1.00  0.00    -0.344 N 
ATOM     58  C   UNL     1      -4.558   0.287  14.447  1.00  0.00     0.220 C 
ATOM     59  O   UNL     1      -5.716   0.062  14.114  1.00  0.00    -0.275 OA
ATOM     60  H   UNL     1      -2.983   1.638  14.513  1.00  0.00     0.164 HD
BRANCH  58  61
ATOM     61  C   UNL     1      -3.642  -0.747  15.076  1.00  0.00     0.100 C 
BRANCH  61  62
ATOM     62  C   UNL     1      -2.335  -0.958  14.313  1.00  0.00     0.010 C 
BRANCH  62  63
ATOM     63  C   UNL     1      -1.788  -2.389  14.388  1.00  0.00     0.000 C 
BRANCH  63  64
ATOM     64  C   UNL     1      -0.539  -2.538  15.256  1.00  0.00    -0.003 C 
ATOM     65  C   UNL     1       0.625  -1.734  14.695  1.00  0.00     0.004 C 
ENDBRANCH  63  64
ENDBRANCH  62  63
ENDBRANCH  61  62
ENDBRANCH  58  61
ENDBRANCH  56  57
BRANCH  56  66
ATOM     66  C   UNL     1      -4.412   2.714  12.180  1.00  0.00     0.157 C 
BRANCH  66  67
ATOM     67  C   UNL     1      -2.950   2.584  11.865  1.00  0.00     0.305 C 
ATOM     68  O   UNL     1      -2.333   1.549  11.663  1.00  0.00    -0.252 OA
BRANCH  67  69
ATOM     69  O   UNL     1      -2.338   3.780  11.769  1.00  0.00    -0.481 OA
ATOM     70  H   UNL     1      -2.036   3.832  10.838  1.00  0.00     0.296 HD
ENDBRANCH  67  69
ENDBRANCH  66  67
ENDBRANCH  56  66
ENDBRANCH  53  56
ENDBRANCH  50  52
ENDBRANCH  47  50
ENDBRANCH  45  46
BRANCH  45  71
ATOM     71  C   UNL     1      -3.352   6.154   9.412  1.00  0.00     0.037 C 
BRANCH  71  72
ATOM     72  C   UNL     1      -2.472   6.501   8.209  1.00  0.00     0.026 C 
BRANCH  72  73
ATOM     73  C   UNL     1      -3.309   6.967   7.019  1.00  0.00     0.146 C 
BRANCH  73  74
ATOM     74  N   UNL     1      -3.383   5.864   6.065  1.00  0.00    -0.254 NA
ATOM     75  C   UNL     1      -4.536   5.364   5.816  1.00  0.00     0.185 C 
ATOM     76  N   UNL     1      -4.637   4.349   4.942  1.00  0.00    -0.370 N 
ATOM     77  N   UNL     1      -5.735   5.712   6.317  1.00  0.00    -0.370 N 
ATOM     78  H   UNL     1      -3.779   4.020   4.523  1.00  0.00     0.159 HD
ATOM     79  H   UNL     1      -5.477   3.816   4.807  1.00  0.00     0.159 HD
ATOM     80  H   UNL     1      -5.813   6.465   6.984  1.00  0.00     0.159 HD
ATOM     81  H   UNL     1      -6.591   5.323   5.958  1.00  0.00     0.159 HD
ENDBRANCH  73  74
ENDBRANCH  72  73
ENDBRANCH  71  72
ENDBRANCH  45  71
ENDBRANCH   3  45
TORSDOF 20
ENDMDL
MODEL 25
REMARK VINA RESULT:    -5.350      4.086      6.278
REMARK INTER + INTRA:         -22.510
REMARK INTER:                 -16.731
REMARK INTRA:                  -5.779
REMARK UNBOUND:                -7.151
REMARK SMILES CCCCCC(=O)N[C@H](CC(=O)O)C(=O)N[C@H]1C(=O)N[C@H](CCCN=C(N)N)C(=O)N[C@@H]2CC[C@H](O)N(C2=O)[C@@H](CC(C)C)C(=O)N(C)[C@@H](Cc2ccccc2)C(=O)N[C@H](C(C)C)C(=O)O[C@@H]1C
REMARK SMILES IDX 30 1 31 2 29 3 32 5 35 6 37 7 34 8 38 9 33 10 39 11 36 12
REMARK SMILES IDX 40 14 41 15 42 16 43 17 44 18 45 19 46 20 47 21 48 22 49 23
REMARK SMILES IDX 50 24 51 25 52 26 56 27 53 28 55 29 54 30 57 31 58 32 59 33
REMARK SMILES IDX 60 35 61 36 62 37 63 38 64 39 65 40 66 41 67 42 68 43 21 45
REMARK SMILES IDX 20 46 18 47 19 48 17 50 16 52 14 53 15 54 9 56 8 57 6 58
REMARK SMILES IDX 7 59 5 61 4 62 3 63 2 64 1 65 10 66 11 67 12 68 13 69 22 71
REMARK SMILES IDX 23 72 24 73 25 74 26 75 27 76 28 77
REMARK H PARENT 31 4 36 13 59 34 20 49 16 55 8 60 13 70 27 78 27 79 28 80
REMARK H PARENT 28 81
REMARK Flexibility Score:  259.900
ROOT
ATOM      1  O   UNL     1      -1.735   8.769  12.709  1.00  0.00    -0.273 OA
ATOM      2  N   UNL     1      -2.215   9.410  10.567  1.00  0.00    -0.343 N 
ATOM      3  C   UNL     1      -2.526   8.806  11.766  1.00  0.00     0.243 C 
ATOM      4  H   UNL     1      -2.896   9.434   9.818  1.00  0.00     0.164 HD
ENDROOT
BRANCH   2   5
ATOM      5  C   UNL     1      -0.874   9.932  10.324  1.00  0.00     0.171 C 
ATOM      6  C   UNL     1       0.490  10.799   7.918  1.00  0.00     0.214 C 
ATOM      7  N   UNL     1       0.598   9.422   8.338  1.00  0.00    -0.303 N 
ATOM      8  C   UNL     1       0.304  11.769   9.074  1.00  0.00     0.057 C 
ATOM      9  C   UNL     1      -0.069   8.930   9.448  1.00  0.00     0.247 C 
ATOM     10  C   UNL     1      -0.927  11.389   9.868  1.00  0.00     0.040 C 
ATOM     11  O   UNL     1      -0.041   7.730   9.752  1.00  0.00    -0.272 OA
BRANCH   6  12
ATOM     12  O   UNL     1      -0.591  10.892   7.019  1.00  0.00    -0.373 OA
ATOM     13  H   UNL     1      -0.684  11.838   6.778  1.00  0.00     0.213 HD
ENDBRANCH   6  12
BRANCH   7  14
ATOM     14  C   UNL     1       1.339   8.505   7.446  1.00  0.00     0.177 C 
BRANCH  14  15
ATOM     15  C   UNL     1       2.591   7.855   8.067  1.00  0.00     0.038 C 
BRANCH  15  16
ATOM     16  C   UNL     1       3.807   8.737   8.427  1.00  0.00    -0.015 C 
ATOM     17  C   UNL     1       5.133   7.981   8.306  1.00  0.00     0.007 C 
ATOM     18  C   UNL     1       3.672   9.242   9.870  1.00  0.00     0.007 C 
ENDBRANCH  15  16
ENDBRANCH  14  15
BRANCH  14  19
ATOM     19  C   UNL     1       0.355   7.805   6.446  1.00  0.00     0.245 C 
ATOM     20  O   UNL     1      -0.859   7.980   6.642  1.00  0.00    -0.272 OA
BRANCH  19  21
ATOM     21  N   UNL     1       0.758   6.933   5.451  1.00  0.00    -0.332 N 
ATOM     22  C   UNL     1      -0.125   6.112   4.642  1.00  0.00     0.147 C 
BRANCH  21  23
ATOM     23  C   UNL     1       2.217   6.808   5.184  1.00  0.00     0.178 C 
BRANCH  23  24
ATOM     24  C   UNL     1       2.745   5.359   5.149  1.00  0.00     0.070 C 
BRANCH  24  25
ATOM     25  C   UNL     1       3.959   5.048   5.994  1.00  0.00    -0.045 A 
ATOM     26  C   UNL     1       3.822   4.447   7.253  1.00  0.00     0.004 A 
ATOM     27  C   UNL     1       5.244   5.362   5.530  1.00  0.00     0.004 A 
ATOM     28  C   UNL     1       4.947   4.179   8.035  1.00  0.00     0.000 A 
ATOM     29  C   UNL     1       6.368   5.092   6.312  1.00  0.00     0.000 A 
ATOM     30  C   UNL     1       6.218   4.503   7.566  1.00  0.00     0.000 A 
ENDBRANCH  24  25
ENDBRANCH  23  24
BRANCH  23  31
ATOM     31  C   UNL     1       2.697   7.704   4.018  1.00  0.00     0.243 C 
ATOM     32  O   UNL     1       2.635   8.931   4.024  1.00  0.00    -0.273 OA
ATOM     33  N   UNL     1       3.036   6.995   2.878  1.00  0.00    -0.341 N 
ATOM     34  H   UNL     1       3.064   5.974   2.933  1.00  0.00     0.164 HD
BRANCH  33  35
ATOM     35  C   UNL     1       3.404   7.641   1.615  1.00  0.00     0.194 C 
BRANCH  35  36
ATOM     36  C   UNL     1       2.259   7.678   0.564  1.00  0.00     0.017 C 
ATOM     37  C   UNL     1       1.788   9.119   0.301  1.00  0.00     0.010 C 
ATOM     38  C   UNL     1       1.030   6.862   0.980  1.00  0.00     0.010 C 
ENDBRANCH  35  36
BRANCH  35  39
ATOM     39  C   UNL     1       4.723   7.077   1.017  1.00  0.00     0.329 C 
ATOM     40  O   UNL     1       5.659   6.662   1.690  1.00  0.00    -0.250 OA
BRANCH  39  41
ATOM     41  O   UNL     1       4.689   7.013  -0.348  1.00  0.00    -0.458 OA
BRANCH  41  42
ATOM     42  C   UNL     1       5.714   7.757  -1.050  1.00  0.00     0.205 CG0
ATOM     43  C   UNL     1       5.085   9.070  -1.513  1.00  0.00     0.056 C 
ATOM     44  G   UNL     1       6.225   6.901  -2.226  1.00  0.00     0.000 G0
ENDBRANCH  41  42
ENDBRANCH  39  41
ENDBRANCH  35  39
ENDBRANCH  33  35
ENDBRANCH  23  31
ENDBRANCH  21  23
ENDBRANCH  19  21
ENDBRANCH  14  19
ENDBRANCH   7  14
ENDBRANCH   2   5
BRANCH   3  45
ATOM     45  C   UNL     1      -3.934   8.203  11.852  1.00  0.00     0.171 C 
BRANCH  45  46
ATOM     46  N   UNL     1      -3.847   7.139  12.844  1.00  0.00    -0.342 N 
ATOM     47  C   UNL     1      -4.752   7.011  13.867  1.00  0.00     0.247 C 
ATOM     48  O   UNL     1      -5.740   7.737  13.981  1.00  0.00    -0.273 OA
ATOM     49  H   UNL     1      -3.075   6.481  12.754  1.00  0.00     0.164 HD
BRANCH  47  50
ATOM     50  C   UNL     1      -4.429   5.908  14.886  1.00  0.00     0.212 CG0
ATOM     51  G   UNL     1      -5.406   6.065  16.069  1.00  0.00     0.000 G0
BRANCH  50  52
ATOM     52  N   UNL     1      -4.595   4.650  14.163  1.00  0.00    -0.339 N 
ATOM     53  C   UNL     1      -5.737   3.890  14.222  1.00  0.00     0.243 C 
ATOM     54  O   UNL     1      -6.694   4.185  14.933  1.00  0.00    -0.273 OA
ATOM     55  H   UNL     1      -3.795   4.295  13.644  1.00  0.00     0.164 HD
BRANCH  53  56
ATOM     56  C   UNL     1      -5.647   2.561  13.445  1.00  0.00     0.182 C 
BRANCH  56  57
ATOM     57  N   UNL     1      -5.078   1.499  14.282  1.00  0.00    -0.344 N 
ATOM     58  C   UNL     1      -5.322   0.168  14.049  1.00  0.00     0.220 C 
ATOM     59  O   UNL     1      -6.086  -0.223  13.173  1.00  0.00    -0.275 OA
ATOM     60  H   UNL     1      -4.363   1.773  14.950  1.00  0.00     0.164 HD
BRANCH  58  61
ATOM     61  C   UNL     1      -4.584  -0.755  15.002  1.00  0.00     0.100 C 
BRANCH  61  62
ATOM     62  C   UNL     1      -3.091  -0.884  14.702  1.00  0.00     0.010 C 
BRANCH  62  63
ATOM     63  C   UNL     1      -2.742  -0.810  13.210  1.00  0.00     0.000 C 
BRANCH  63  64
ATOM     64  C   UNL     1      -2.050  -2.058  12.665  1.00  0.00    -0.003 C 
ATOM     65  C   UNL     1      -1.115  -2.671  13.699  1.00  0.00     0.004 C 
ENDBRANCH  63  64
ENDBRANCH  62  63
ENDBRANCH  61  62
ENDBRANCH  58  61
ENDBRANCH  56  57
BRANCH  56  66
ATOM     66  C   UNL     1      -4.885   2.730  12.132  1.00  0.00     0.157 C 
BRANCH  66  67
ATOM     67  C   UNL     1      -5.744   2.371  10.954  1.00  0.00     0.305 C 
ATOM     68  O   UNL     1      -5.421   2.398   9.776  1.00  0.00    -0.252 OA
BRANCH  67  69
ATOM     69  O   UNL     1      -6.966   1.943  11.324  1.00  0.00    -0.481 OA
ATOM     70  H   UNL     1      -6.889   0.966  11.357  1.00  0.00     0.296 HD
ENDBRANCH  67  69
ENDBRANCH  66  67
ENDBRANCH  56  66
ENDBRANCH  53  56
ENDBRANCH  50  52
ENDBRANCH  47  50
ENDBRANCH  45  46
BRANCH  45  71
ATOM     71  C   UNL     1      -4.369   7.666  10.484  1.00  0.00     0.037 C 
BRANCH  71  72
ATOM     72  C   UNL     1      -3.926   6.217  10.266  1.00  0.00     0.026 C 
BRANCH  72  73
ATOM     73  C   UNL     1      -3.016   6.087   9.046  1.00  0.00     0.146 C 
BRANCH  73  74
ATOM     74  N   UNL     1      -3.765   5.392   8.003  1.00  0.00    -0.254 NA
ATOM     75  C   UNL     1      -3.542   4.141   7.839  1.00  0.00     0.185 C 
ATOM     76  N   UNL     1      -4.216   3.474   6.888  1.00  0.00    -0.370 N 
ATOM     77  N   UNL     1      -2.692   3.339   8.504  1.00  0.00    -0.370 N 
ATOM     78  H   UNL     1      -4.872   4.005   6.334  1.00  0.00     0.159 HD
ATOM     79  H   UNL     1      -3.993   2.535   6.606  1.00  0.00     0.159 HD
ATOM     80  H   UNL     1      -2.121   3.704   9.251  1.00  0.00     0.159 HD
ATOM     81  H   UNL     1      -2.687   2.342   8.364  1.00  0.00     0.159 HD
ENDBRANCH  73  74
ENDBRANCH  72  73
ENDBRANCH  71  72
ENDBRANCH  45  71
ENDBRANCH   3  45
TORSDOF 20
ENDMDL
MODEL 26
REMARK VINA RESULT:    -5.337      7.159     10.435
REMARK INTER + INTRA:         -22.472
REMARK INTER:                 -15.424
REMARK INTRA:                  -7.048
REMARK UNBOUND:                -7.151
REMARK SMILES CCCCCC(=O)N[C@H](CC(=O)O)C(=O)N[C@H]1C(=O)N[C@H](CCCN=C(N)N)C(=O)N[C@@H]2CC[C@H](O)N(C2=O)[C@@H](CC(C)C)C(=O)N(C)[C@@H](Cc2ccccc2)C(=O)N[C@H](C(C)C)C(=O)O[C@@H]1C
REMARK SMILES IDX 30 1 31 2 29 3 32 5 35 6 37 7 34 8 38 9 33 10 39 11 36 12
REMARK SMILES IDX 40 14 41 15 42 16 43 17 44 18 45 19 46 20 47 21 48 22 49 23
REMARK SMILES IDX 50 24 51 25 52 26 56 27 53 28 55 29 54 30 57 31 58 32 59 33
REMARK SMILES IDX 60 35 61 36 62 37 63 38 64 39 65 40 66 41 67 42 68 43 21 45
REMARK SMILES IDX 20 46 18 47 19 48 17 50 16 52 14 53 15 54 9 56 8 57 6 58
REMARK SMILES IDX 7 59 5 61 4 62 3 63 2 64 1 65 10 66 11 67 12 68 13 69 22 71
REMARK SMILES IDX 23 72 24 73 25 74 26 75 27 76 28 77
REMARK H PARENT 31 4 36 13 59 34 20 49 16 55 8 60 13 70 27 78 27 79 28 80
REMARK H PARENT 28 81
REMARK Flexibility Score:  259.900
ROOT
ATOM      1  O   UNL     1      -4.276   4.282  11.233  1.00  0.00    -0.273 OA
ATOM      2  N   UNL     1      -2.748   3.316  12.634  1.00  0.00    -0.343 N 
ATOM      3  C   UNL     1      -3.314   4.397  11.993  1.00  0.00     0.243 C 
ATOM      4  H   UNL     1      -1.966   3.450  13.263  1.00  0.00     0.164 HD
ENDROOT
BRANCH   2   5
ATOM      5  C   UNL     1      -3.199   1.959  12.341  1.00  0.00     0.171 C 
ATOM      6  C   UNL     1      -1.941  -0.636  12.639  1.00  0.00     0.214 C 
ATOM      7  N   UNL     1      -1.799   0.084  11.395  1.00  0.00    -0.303 N 
ATOM      8  C   UNL     1      -3.247  -0.339  13.360  1.00  0.00     0.057 C 
ATOM      9  C   UNL     1      -2.331   1.349  11.204  1.00  0.00     0.247 C 
ATOM     10  C   UNL     1      -3.360   1.146  13.625  1.00  0.00     0.040 C 
ATOM     11  O   UNL     1      -2.131   1.994  10.166  1.00  0.00    -0.272 OA
BRANCH   6  12
ATOM     12  O   UNL     1      -0.842  -0.305  13.455  1.00  0.00    -0.373 OA
ATOM     13  H   UNL     1      -0.313  -1.124  13.571  1.00  0.00     0.213 HD
ENDBRANCH   6  12
BRANCH   7  14
ATOM     14  C   UNL     1      -0.929  -0.523  10.365  1.00  0.00     0.177 C 
BRANCH  14  15
ATOM     15  C   UNL     1       0.537  -0.048  10.382  1.00  0.00     0.038 C 
BRANCH  15  16
ATOM     16  C   UNL     1       1.311   0.078   9.052  1.00  0.00    -0.015 C 
ATOM     17  C   UNL     1       2.829   0.091   9.258  1.00  0.00     0.007 C 
ATOM     18  C   UNL     1       0.912   1.376   8.340  1.00  0.00     0.007 C 
ENDBRANCH  15  16
ENDBRANCH  14  15
BRANCH  14  19
ATOM     19  C   UNL     1      -1.407  -1.980  10.039  1.00  0.00     0.245 C 
ATOM     20  O   UNL     1      -2.485  -2.092   9.432  1.00  0.00    -0.272 OA
BRANCH  19  21
ATOM     21  N   UNL     1      -0.762  -3.121  10.483  1.00  0.00    -0.332 N 
ATOM     22  C   UNL     1      -1.286  -4.060  11.458  1.00  0.00     0.147 C 
BRANCH  21  23
ATOM     23  C   UNL     1       0.589  -3.415   9.930  1.00  0.00     0.178 C 
BRANCH  23  24
ATOM     24  C   UNL     1       1.591  -3.997  10.948  1.00  0.00     0.070 C 
BRANCH  24  25
ATOM     25  C   UNL     1       2.736  -3.106  11.373  1.00  0.00    -0.045 A 
ATOM     26  C   UNL     1       2.594  -2.219  12.448  1.00  0.00     0.004 A 
ATOM     27  C   UNL     1       3.960  -3.154  10.689  1.00  0.00     0.004 A 
ATOM     28  C   UNL     1       3.651  -1.388  12.823  1.00  0.00     0.000 A 
ATOM     29  C   UNL     1       5.016  -2.323  11.066  1.00  0.00     0.000 A 
ATOM     30  C   UNL     1       4.860  -1.438  12.131  1.00  0.00     0.000 A 
ENDBRANCH  24  25
ENDBRANCH  23  24
BRANCH  23  31
ATOM     31  C   UNL     1       0.537  -4.155   8.572  1.00  0.00     0.243 C 
ATOM     32  O   UNL     1       0.168  -3.637   7.521  1.00  0.00    -0.273 OA
ATOM     33  N   UNL     1       0.769  -5.516   8.674  1.00  0.00    -0.341 N 
ATOM     34  H   UNL     1       1.068  -5.891   9.578  1.00  0.00     0.164 HD
BRANCH  33  35
ATOM     35  C   UNL     1       0.653  -6.434   7.538  1.00  0.00     0.194 C 
BRANCH  35  36
ATOM     36  C   UNL     1      -0.612  -7.337   7.576  1.00  0.00     0.017 C 
ATOM     37  C   UNL     1      -1.736  -6.763   6.696  1.00  0.00     0.010 C 
ATOM     38  C   UNL     1      -1.182  -7.518   8.988  1.00  0.00     0.010 C 
ENDBRANCH  35  36
BRANCH  35  39
ATOM     39  C   UNL     1       1.949  -7.260   7.303  1.00  0.00     0.329 C 
ATOM     40  O   UNL     1       2.906  -7.268   8.067  1.00  0.00    -0.250 OA
BRANCH  39  41
ATOM     41  O   UNL     1       1.867  -8.049   6.188  1.00  0.00    -0.458 OA
BRANCH  41  42
ATOM     42  C   UNL     1       3.080  -8.184   5.409  1.00  0.00     0.205 CG0
ATOM     43  C   UNL     1       2.680  -8.139   3.935  1.00  0.00     0.056 C 
ATOM     44  G   UNL     1       3.766  -9.510   5.793  1.00  0.00     0.000 G0
ENDBRANCH  41  42
ENDBRANCH  39  41
ENDBRANCH  35  39
ENDBRANCH  33  35
ENDBRANCH  23  31
ENDBRANCH  21  23
ENDBRANCH  19  21
ENDBRANCH  14  19
ENDBRANCH   7  14
ENDBRANCH   2   5
BRANCH   3  45
ATOM     45  C   UNL     1      -2.675   5.756  12.308  1.00  0.00     0.171 C 
BRANCH  45  46
ATOM     46  N   UNL     1      -3.581   6.754  11.755  1.00  0.00    -0.342 N 
ATOM     47  C   UNL     1      -4.089   7.783  12.508  1.00  0.00     0.247 C 
ATOM     48  O   UNL     1      -3.761   7.981  13.678  1.00  0.00    -0.273 OA
ATOM     49  H   UNL     1      -3.834   6.661  10.773  1.00  0.00     0.164 HD
BRANCH  47  50
ATOM     50  C   UNL     1      -5.123   8.663  11.791  1.00  0.00     0.212 CG0
ATOM     51  G   UNL     1      -5.927   9.413  12.872  1.00  0.00     0.000 G0
BRANCH  50  52
ATOM     52  N   UNL     1      -4.348   9.551  10.928  1.00  0.00    -0.339 N 
ATOM     53  C   UNL     1      -3.973   9.222   9.648  1.00  0.00     0.243 C 
ATOM     54  O   UNL     1      -4.216   8.127   9.148  1.00  0.00    -0.273 OA
ATOM     55  H   UNL     1      -4.021  10.429  11.325  1.00  0.00     0.164 HD
BRANCH  53  56
ATOM     56  C   UNL     1      -3.087  10.282   8.963  1.00  0.00     0.182 C 
BRANCH  56  57
ATOM     57  N   UNL     1      -1.674   9.892   9.003  1.00  0.00    -0.344 N 
ATOM     58  C   UNL     1      -1.034   9.332   7.924  1.00  0.00     0.220 C 
ATOM     59  O   UNL     1      -1.614   9.051   6.881  1.00  0.00    -0.275 OA
ATOM     60  H   UNL     1      -1.134  10.200   9.808  1.00  0.00     0.164 HD
BRANCH  58  61
ATOM     61  C   UNL     1       0.439   9.064   8.172  1.00  0.00     0.100 C 
BRANCH  61  62
ATOM     62  C   UNL     1       1.301  10.326   8.184  1.00  0.00     0.010 C 
BRANCH  62  63
ATOM     63  C   UNL     1       0.930  11.351   7.105  1.00  0.00     0.000 C 
BRANCH  63  64
ATOM     64  C   UNL     1       1.733  11.219   5.812  1.00  0.00    -0.003 C 
ATOM     65  C   UNL     1       3.071  10.536   6.057  1.00  0.00     0.004 C 
ENDBRANCH  63  64
ENDBRANCH  62  63
ENDBRANCH  61  62
ENDBRANCH  58  61
ENDBRANCH  56  57
BRANCH  56  66
ATOM     66  C   UNL     1      -3.319  11.672   9.552  1.00  0.00     0.157 C 
BRANCH  66  67
ATOM     67  C   UNL     1      -2.168  12.588   9.253  1.00  0.00     0.305 C 
ATOM     68  O   UNL     1      -1.901  13.103   8.178  1.00  0.00    -0.252 OA
BRANCH  67  69
ATOM     69  O   UNL     1      -1.430  12.857  10.347  1.00  0.00    -0.481 OA
ATOM     70  H   UNL     1      -0.873  12.060  10.475  1.00  0.00     0.296 HD
ENDBRANCH  67  69
ENDBRANCH  66  67
ENDBRANCH  56  66
ENDBRANCH  53  56
ENDBRANCH  50  52
ENDBRANCH  47  50
ENDBRANCH  45  46
BRANCH  45  71
ATOM     71  C   UNL     1      -1.280   5.848  11.679  1.00  0.00     0.037 C 
BRANCH  71  72
ATOM     72  C   UNL     1      -1.051   7.192  10.982  1.00  0.00     0.026 C 
BRANCH  72  73
ATOM     73  C   UNL     1      -0.306   8.172  11.885  1.00  0.00     0.146 C 
BRANCH  73  74
ATOM     74  N   UNL     1      -0.977   9.465  11.792  1.00  0.00    -0.254 NA
ATOM     75  C   UNL     1      -1.350  10.026  12.882  1.00  0.00     0.185 C 
ATOM     76  N   UNL     1      -1.969  11.217  12.828  1.00  0.00    -0.370 N 
ATOM     77  N   UNL     1      -1.212   9.591  14.146  1.00  0.00    -0.370 N 
ATOM     78  H   UNL     1      -2.119  11.614  11.912  1.00  0.00     0.159 HD
ATOM     79  H   UNL     1      -2.414  11.645  13.620  1.00  0.00     0.159 HD
ATOM     80  H   UNL     1      -0.761   8.710  14.340  1.00  0.00     0.159 HD
ATOM     81  H   UNL     1      -1.442  10.175  14.934  1.00  0.00     0.159 HD
ENDBRANCH  73  74
ENDBRANCH  72  73
ENDBRANCH  71  72
ENDBRANCH  45  71
ENDBRANCH   3  45
TORSDOF 20
ENDMDL
MODEL 27
REMARK VINA RESULT:    -5.327      8.007     11.500
REMARK INTER + INTRA:         -22.445
REMARK INTER:                 -14.630
REMARK INTRA:                  -7.814
REMARK UNBOUND:                -7.151
REMARK SMILES CCCCCC(=O)N[C@H](CC(=O)O)C(=O)N[C@H]1C(=O)N[C@H](CCCN=C(N)N)C(=O)N[C@@H]2CC[C@H](O)N(C2=O)[C@@H](CC(C)C)C(=O)N(C)[C@@H](Cc2ccccc2)C(=O)N[C@H](C(C)C)C(=O)O[C@@H]1C
REMARK SMILES IDX 30 1 31 2 29 3 32 5 35 6 37 7 34 8 38 9 33 10 39 11 36 12
REMARK SMILES IDX 40 14 41 15 42 16 43 17 44 18 45 19 46 20 47 21 48 22 49 23
REMARK SMILES IDX 50 24 51 25 52 26 56 27 53 28 55 29 54 30 57 31 58 32 59 33
REMARK SMILES IDX 60 35 61 36 62 37 63 38 64 39 65 40 66 41 67 42 68 43 21 45
REMARK SMILES IDX 20 46 18 47 19 48 17 50 16 52 14 53 15 54 9 56 8 57 6 58
REMARK SMILES IDX 7 59 5 61 4 62 3 63 2 64 1 65 10 66 11 67 12 68 13 69 22 71
REMARK SMILES IDX 23 72 24 73 25 74 26 75 27 76 28 77
REMARK H PARENT 31 4 36 13 59 34 20 49 16 55 8 60 13 70 27 78 27 79 28 80
REMARK H PARENT 28 81
REMARK Flexibility Score:  259.900
ROOT
ATOM      1  O   UNL     1       2.236   0.831  10.548  1.00  0.00    -0.273 OA
ATOM      2  N   UNL     1       1.512   1.361   8.444  1.00  0.00    -0.343 N 
ATOM      3  C   UNL     1       1.393   0.718   9.657  1.00  0.00     0.243 C 
ATOM      4  H   UNL     1       0.792   1.256   7.740  1.00  0.00     0.164 HD
ENDROOT
BRANCH   2   5
ATOM      5  C   UNL     1       2.717   2.118   8.120  1.00  0.00     0.171 C 
ATOM      6  C   UNL     1       3.788   3.131   5.624  1.00  0.00     0.214 C 
ATOM      7  N   UNL     1       4.175   1.817   6.081  1.00  0.00    -0.303 N 
ATOM      8  C   UNL     1       3.469   4.093   6.758  1.00  0.00     0.057 C 
ATOM      9  C   UNL     1       3.662   1.252   7.237  1.00  0.00     0.247 C 
ATOM     10  C   UNL     1       2.367   3.519   7.622  1.00  0.00     0.040 C 
ATOM     11  O   UNL     1       3.931   0.093   7.577  1.00  0.00    -0.272 OA
BRANCH   6  12
ATOM     12  O   UNL     1       2.672   2.981   4.777  1.00  0.00    -0.373 OA
ATOM     13  H   UNL     1       2.467   3.868   4.411  1.00  0.00     0.213 HD
ENDBRANCH   6  12
BRANCH   7  14
ATOM     14  C   UNL     1       5.039   1.023   5.183  1.00  0.00     0.177 C 
BRANCH  14  15
ATOM     15  C   UNL     1       4.296   0.217   4.100  1.00  0.00     0.038 C 
BRANCH  15  16
ATOM     16  C   UNL     1       4.244  -1.324   4.198  1.00  0.00    -0.015 C 
ATOM     17  C   UNL     1       5.425  -1.899   4.985  1.00  0.00     0.007 C 
ATOM     18  C   UNL     1       4.261  -1.934   2.791  1.00  0.00     0.007 C 
ENDBRANCH  15  16
ENDBRANCH  14  15
BRANCH  14  19
ATOM     19  C   UNL     1       6.425   1.731   4.996  1.00  0.00     0.245 C 
ATOM     20  O   UNL     1       7.035   2.050   6.030  1.00  0.00    -0.272 OA
BRANCH  19  21
ATOM     21  N   UNL     1       6.937   2.111   3.768  1.00  0.00    -0.332 N 
ATOM     22  C   UNL     1       6.498   3.255   2.989  1.00  0.00     0.147 C 
BRANCH  21  23
ATOM     23  C   UNL     1       8.023   1.279   3.179  1.00  0.00     0.178 C 
BRANCH  23  24
ATOM     24  C   UNL     1       7.575   0.353   2.029  1.00  0.00     0.070 C 
BRANCH  24  25
ATOM     25  C   UNL     1       7.888  -1.118   2.170  1.00  0.00    -0.045 A 
ATOM     26  C   UNL     1       7.486  -2.034   1.189  1.00  0.00     0.004 A 
ATOM     27  C   UNL     1       8.584  -1.590   3.293  1.00  0.00     0.004 A 
ATOM     28  C   UNL     1       7.764  -3.395   1.335  1.00  0.00     0.000 A 
ATOM     29  C   UNL     1       8.862  -2.950   3.436  1.00  0.00     0.000 A 
ATOM     30  C   UNL     1       8.449  -3.852   2.458  1.00  0.00     0.000 A 
ENDBRANCH  24  25
ENDBRANCH  23  24
BRANCH  23  31
ATOM     31  C   UNL     1       9.316   2.082   2.903  1.00  0.00     0.243 C 
ATOM     32  O   UNL     1       9.863   2.809   3.728  1.00  0.00    -0.273 OA
ATOM     33  N   UNL     1       9.709   2.058   1.575  1.00  0.00    -0.341 N 
ATOM     34  H   UNL     1       9.211   1.437   0.933  1.00  0.00     0.164 HD
BRANCH  33  35
ATOM     35  C   UNL     1      10.836   2.842   1.062  1.00  0.00     0.194 C 
BRANCH  35  36
ATOM     36  C   UNL     1      10.417   4.120   0.281  1.00  0.00     0.017 C 
ATOM     37  C   UNL     1      10.411   5.357   1.196  1.00  0.00     0.010 C 
ATOM     38  C   UNL     1       9.025   4.012  -0.352  1.00  0.00     0.010 C 
ENDBRANCH  35  36
BRANCH  35  39
ATOM     39  C   UNL     1      11.849   1.978   0.259  1.00  0.00     0.329 C 
ATOM     40  O   UNL     1      12.034   0.782   0.452  1.00  0.00    -0.250 OA
BRANCH  39  41
ATOM     41  O   UNL     1      12.449   2.682  -0.748  1.00  0.00    -0.458 OA
BRANCH  41  42
ATOM     42  C   UNL     1      13.108   1.900  -1.773  1.00  0.00     0.205 CG0
ATOM     43  C   UNL     1      14.539   1.647  -1.302  1.00  0.00     0.056 C 
ATOM     44  G   UNL     1      13.054   2.683  -3.100  1.00  0.00     0.000 G0
ENDBRANCH  41  42
ENDBRANCH  39  41
ENDBRANCH  35  39
ENDBRANCH  33  35
ENDBRANCH  23  31
ENDBRANCH  21  23
ENDBRANCH  19  21
ENDBRANCH  14  19
ENDBRANCH   7  14
ENDBRANCH   2   5
BRANCH   3  45
ATOM     45  C   UNL     1       0.127  -0.132   9.829  1.00  0.00     0.171 C 
BRANCH  45  46
ATOM     46  N   UNL     1       0.519  -1.258  10.666  1.00  0.00    -0.342 N 
ATOM     47  C   UNL     1       0.077  -1.406  11.956  1.00  0.00     0.247 C 
ATOM     48  O   UNL     1      -0.738  -0.642  12.475  1.00  0.00    -0.273 OA
ATOM     49  H   UNL     1       1.149  -1.946  10.256  1.00  0.00     0.164 HD
BRANCH  47  50
ATOM     50  C   UNL     1       0.693  -2.584  12.724  1.00  0.00     0.212 CG0
ATOM     51  G   UNL     1      -0.265  -3.784  12.585  1.00  0.00     0.000 G0
BRANCH  50  52
ATOM     52  N   UNL     1       1.997  -2.812  12.107  1.00  0.00    -0.339 N 
ATOM     53  C   UNL     1       3.117  -2.078  12.414  1.00  0.00     0.243 C 
ATOM     54  O   UNL     1       3.094  -1.133  13.198  1.00  0.00    -0.273 OA
ATOM     55  H   UNL     1       2.054  -3.509  11.368  1.00  0.00     0.164 HD
BRANCH  53  56
ATOM     56  C   UNL     1       4.356  -2.443  11.572  1.00  0.00     0.182 C 
BRANCH  56  57
ATOM     57  N   UNL     1       4.062  -3.548  10.654  1.00  0.00    -0.344 N 
ATOM     58  C   UNL     1       4.519  -3.570   9.359  1.00  0.00     0.220 C 
ATOM     59  O   UNL     1       5.140  -2.638   8.859  1.00  0.00    -0.275 OA
ATOM     60  H   UNL     1       3.641  -4.381  11.056  1.00  0.00     0.164 HD
BRANCH  58  61
ATOM     61  C   UNL     1       4.145  -4.836   8.611  1.00  0.00     0.100 C 
BRANCH  61  62
ATOM     62  C   UNL     1       4.447  -4.778   7.113  1.00  0.00     0.010 C 
BRANCH  62  63
ATOM     63  C   UNL     1       3.422  -5.511   6.238  1.00  0.00     0.000 C 
BRANCH  63  64
ATOM     64  C   UNL     1       3.008  -4.745   4.982  1.00  0.00    -0.003 C 
ATOM     65  C   UNL     1       1.707  -3.986   5.199  1.00  0.00     0.004 C 
ENDBRANCH  63  64
ENDBRANCH  62  63
ENDBRANCH  61  62
ENDBRANCH  58  61
ENDBRANCH  56  57
BRANCH  56  66
ATOM     66  C   UNL     1       5.567  -2.734  12.457  1.00  0.00     0.157 C 
BRANCH  66  67
ATOM     67  C   UNL     1       6.777  -1.977  11.989  1.00  0.00     0.305 C 
ATOM     68  O   UNL     1       7.284  -1.003  12.525  1.00  0.00    -0.252 OA
BRANCH  67  69
ATOM     69  O   UNL     1       7.326  -2.520  10.886  1.00  0.00    -0.481 OA
ATOM     70  H   UNL     1       6.894  -2.056  10.137  1.00  0.00     0.296 HD
ENDBRANCH  67  69
ENDBRANCH  66  67
ENDBRANCH  56  66
ENDBRANCH  53  56
ENDBRANCH  50  52
ENDBRANCH  47  50
ENDBRANCH  45  46
BRANCH  45  71
ATOM     71  C   UNL     1      -0.393  -0.596   8.464  1.00  0.00     0.037 C 
BRANCH  71  72
ATOM     72  C   UNL     1       0.274  -1.895   8.004  1.00  0.00     0.026 C 
BRANCH  72  73
ATOM     73  C   UNL     1      -0.727  -3.047   7.939  1.00  0.00     0.146 C 
BRANCH  73  74
ATOM     74  N   UNL     1      -0.749  -3.694   9.247  1.00  0.00    -0.254 NA
ATOM     75  C   UNL     1      -0.110  -4.797   9.380  1.00  0.00     0.185 C 
ATOM     76  N   UNL     1      -0.111  -5.416  10.572  1.00  0.00    -0.370 N 
ATOM     77  N   UNL     1       0.605  -5.475   8.466  1.00  0.00    -0.370 N 
ATOM     78  H   UNL     1      -0.634  -4.975  11.316  1.00  0.00     0.159 HD
ATOM     79  H   UNL     1       0.241  -6.346  10.713  1.00  0.00     0.159 HD
ATOM     80  H   UNL     1       0.698  -5.126   7.524  1.00  0.00     0.159 HD
ATOM     81  H   UNL     1       1.162  -6.275   8.718  1.00  0.00     0.159 HD
ENDBRANCH  73  74
ENDBRANCH  72  73
ENDBRANCH  71  72
ENDBRANCH  45  71
ENDBRANCH   3  45
TORSDOF 20
ENDMDL
MODEL 28
REMARK VINA RESULT:    -5.287      5.780     13.216
REMARK INTER + INTRA:         -22.329
REMARK INTER:                 -17.702
REMARK INTRA:                  -4.627
REMARK UNBOUND:                -7.151
REMARK SMILES CCCCCC(=O)N[C@H](CC(=O)O)C(=O)N[C@H]1C(=O)N[C@H](CCCN=C(N)N)C(=O)N[C@@H]2CC[C@H](O)N(C2=O)[C@@H](CC(C)C)C(=O)N(C)[C@@H](Cc2ccccc2)C(=O)N[C@H](C(C)C)C(=O)O[C@@H]1C
REMARK SMILES IDX 30 1 31 2 29 3 32 5 35 6 37 7 34 8 38 9 33 10 39 11 36 12
REMARK SMILES IDX 40 14 41 15 42 16 43 17 44 18 45 19 46 20 47 21 48 22 49 23
REMARK SMILES IDX 50 24 51 25 52 26 56 27 53 28 55 29 54 30 57 31 58 32 59 33
REMARK SMILES IDX 60 35 61 36 62 37 63 38 64 39 65 40 66 41 67 42 68 43 21 45
REMARK SMILES IDX 20 46 18 47 19 48 17 50 16 52 14 53 15 54 9 56 8 57 6 58
REMARK SMILES IDX 7 59 5 61 4 62 3 63 2 64 1 65 10 66 11 67 12 68 13 69 22 71
REMARK SMILES IDX 23 72 24 73 25 74 26 75 27 76 28 77
REMARK H PARENT 31 4 36 13 59 34 20 49 16 55 8 60 13 70 27 78 27 79 28 80
REMARK H PARENT 28 81
REMARK Flexibility Score:  259.900
ROOT
ATOM      1  O   UNL     1       3.076   0.107   9.124  1.00  0.00    -0.273 OA
ATOM      2  N   UNL     1       1.366   1.152   8.020  1.00  0.00    -0.343 N 
ATOM      3  C   UNL     1       2.553   0.452   8.063  1.00  0.00     0.243 C 
ATOM      4  H   UNL     1       0.957   1.406   7.129  1.00  0.00     0.164 HD
ENDROOT
BRANCH   2   5
ATOM      5  C   UNL     1       0.735   1.620   9.250  1.00  0.00     0.171 C 
ATOM      6  C   UNL     1      -1.930   2.595   9.842  1.00  0.00     0.214 C 
ATOM      7  N   UNL     1      -0.899   3.533   9.464  1.00  0.00    -0.303 N 
ATOM      8  C   UNL     1      -1.393   1.369  10.565  1.00  0.00     0.057 C 
ATOM      9  C   UNL     1       0.381   3.129   9.119  1.00  0.00     0.247 C 
ATOM     10  C   UNL     1      -0.373   0.668   9.695  1.00  0.00     0.040 C 
ATOM     11  O   UNL     1       1.234   3.930   8.712  1.00  0.00    -0.272 OA
BRANCH   6  12
ATOM     12  O   UNL     1      -2.617   2.215   8.672  1.00  0.00    -0.373 OA
ATOM     13  H   UNL     1      -2.850   1.267   8.771  1.00  0.00     0.213 HD
ENDBRANCH   6  12
BRANCH   7  14
ATOM     14  C   UNL     1      -1.301   4.947   9.313  1.00  0.00     0.177 C 
BRANCH  14  15
ATOM     15  C   UNL     1      -2.215   5.245   8.109  1.00  0.00     0.038 C 
BRANCH  15  16
ATOM     16  C   UNL     1      -1.754   4.852   6.688  1.00  0.00    -0.015 C 
ATOM     17  C   UNL     1      -1.102   6.019   5.941  1.00  0.00     0.007 C 
ATOM     18  C   UNL     1      -2.957   4.368   5.867  1.00  0.00     0.007 C 
ENDBRANCH  15  16
ENDBRANCH  14  15
BRANCH  14  19
ATOM     19  C   UNL     1      -1.397   5.637  10.717  1.00  0.00     0.245 C 
ATOM     20  O   UNL     1      -0.513   5.353  11.542  1.00  0.00    -0.272 OA
BRANCH  19  21
ATOM     21  N   UNL     1      -2.454   6.438  11.112  1.00  0.00    -0.332 N 
ATOM     22  C   UNL     1      -3.823   5.993  11.305  1.00  0.00     0.147 C 
BRANCH  21  23
ATOM     23  C   UNL     1      -2.181   7.882  11.352  1.00  0.00     0.178 C 
BRANCH  23  24
ATOM     24  C   UNL     1      -0.775   8.352  10.927  1.00  0.00     0.070 C 
BRANCH  24  25
ATOM     25  C   UNL     1      -0.643   9.777  10.442  1.00  0.00    -0.045 A 
ATOM     26  C   UNL     1      -0.849  10.098   9.094  1.00  0.00     0.004 A 
ATOM     27  C   UNL     1      -0.306  10.802  11.339  1.00  0.00     0.004 A 
ATOM     28  C   UNL     1      -0.708  11.415   8.651  1.00  0.00     0.000 A 
ATOM     29  C   UNL     1      -0.167  12.117  10.895  1.00  0.00     0.000 A 
ATOM     30  C   UNL     1      -0.365  12.422   9.550  1.00  0.00     0.000 A 
ENDBRANCH  24  25
ENDBRANCH  23  24
BRANCH  23  31
ATOM     31  C   UNL     1      -3.340   8.799  10.895  1.00  0.00     0.243 C 
ATOM     32  O   UNL     1      -3.815   8.794   9.762  1.00  0.00    -0.273 OA
ATOM     33  N   UNL     1      -3.679   9.768  11.825  1.00  0.00    -0.341 N 
ATOM     34  H   UNL     1      -3.246   9.724  12.750  1.00  0.00     0.164 HD
BRANCH  33  35
ATOM     35  C   UNL     1      -4.666  10.818  11.561  1.00  0.00     0.194 C 
BRANCH  35  36
ATOM     36  C   UNL     1      -4.061  12.127  10.979  1.00  0.00     0.017 C 
ATOM     37  C   UNL     1      -3.444  12.998  12.087  1.00  0.00     0.010 C 
ATOM     38  C   UNL     1      -5.087  12.989  10.235  1.00  0.00     0.010 C 
ENDBRANCH  35  36
BRANCH  35  39
ATOM     39  C   UNL     1      -5.584  11.097  12.784  1.00  0.00     0.329 C 
ATOM     40  O   UNL     1      -6.778  11.359  12.700  1.00  0.00    -0.250 OA
BRANCH  39  41
ATOM     41  O   UNL     1      -4.930  10.932  13.973  1.00  0.00    -0.458 OA
BRANCH  41  42
ATOM     42  C   UNL     1      -5.732  10.471  15.087  1.00  0.00     0.205 CG0
ATOM     43  C   UNL     1      -5.765   8.946  15.022  1.00  0.00     0.056 C 
ATOM     44  G   UNL     1      -7.136  11.097  14.974  1.00  0.00     0.000 G0
ENDBRANCH  41  42
ENDBRANCH  39  41
ENDBRANCH  35  39
ENDBRANCH  33  35
ENDBRANCH  23  31
ENDBRANCH  21  23
ENDBRANCH  19  21
ENDBRANCH  14  19
ENDBRANCH   7  14
ENDBRANCH   2   5
BRANCH   3  45
ATOM     45  C   UNL     1       3.166   0.114   6.698  1.00  0.00     0.171 C 
BRANCH  45  46
ATOM     46  N   UNL     1       3.701  -1.235   6.830  1.00  0.00    -0.342 N 
ATOM     47  C   UNL     1       2.947  -2.354   6.583  1.00  0.00     0.247 C 
ATOM     48  O   UNL     1       1.790  -2.301   6.163  1.00  0.00    -0.273 OA
ATOM     49  H   UNL     1       4.673  -1.323   7.121  1.00  0.00     0.164 HD
BRANCH  47  50
ATOM     50  C   UNL     1       3.641  -3.687   6.894  1.00  0.00     0.212 CG0
ATOM     51  G   UNL     1       4.633  -3.977   5.750  1.00  0.00     0.000 G0
BRANCH  50  52
ATOM     52  N   UNL     1       4.292  -3.495   8.187  1.00  0.00    -0.339 N 
ATOM     53  C   UNL     1       5.594  -3.855   8.439  1.00  0.00     0.243 C 
ATOM     54  O   UNL     1       6.298  -4.418   7.606  1.00  0.00    -0.273 OA
ATOM     55  H   UNL     1       3.726  -3.134   8.953  1.00  0.00     0.164 HD
BRANCH  53  56
ATOM     56  C   UNL     1       6.034  -3.634   9.901  1.00  0.00     0.182 C 
BRANCH  56  57
ATOM     57  N   UNL     1       5.144  -2.690  10.582  1.00  0.00    -0.344 N 
ATOM     58  C   UNL     1       5.159  -2.515  11.945  1.00  0.00     0.220 C 
ATOM     59  O   UNL     1       5.863  -3.187  12.691  1.00  0.00    -0.275 OA
ATOM     60  H   UNL     1       4.620  -2.045   9.996  1.00  0.00     0.164 HD
BRANCH  58  61
ATOM     61  C   UNL     1       4.196  -1.446  12.425  1.00  0.00     0.100 C 
BRANCH  61  62
ATOM     62  C   UNL     1       2.758  -1.653  11.950  1.00  0.00     0.010 C 
BRANCH  62  63
ATOM     63  C   UNL     1       1.936  -2.602  12.832  1.00  0.00     0.000 C 
BRANCH  63  64
ATOM     64  C   UNL     1       1.174  -1.908  13.960  1.00  0.00    -0.003 C 
ATOM     65  C   UNL     1      -0.299  -1.744  13.615  1.00  0.00     0.004 C 
ENDBRANCH  63  64
ENDBRANCH  62  63
ENDBRANCH  61  62
ENDBRANCH  58  61
ENDBRANCH  56  57
BRANCH  56  66
ATOM     66  C   UNL     1       7.499  -3.210   9.986  1.00  0.00     0.157 C 
BRANCH  66  67
ATOM     67  C   UNL     1       8.339  -4.280  10.622  1.00  0.00     0.305 C 
ATOM     68  O   UNL     1       9.559  -4.351  10.621  1.00  0.00    -0.252 OA
BRANCH  67  69
ATOM     69  O   UNL     1       7.596  -5.191  11.279  1.00  0.00    -0.481 OA
ATOM     70  H   UNL     1       8.053  -5.313  12.138  1.00  0.00     0.296 HD
ENDBRANCH  67  69
ENDBRANCH  66  67
ENDBRANCH  56  66
ENDBRANCH  53  56
ENDBRANCH  50  52
ENDBRANCH  47  50
ENDBRANCH  45  46
BRANCH  45  71
ATOM     71  C   UNL     1       4.261   1.125   6.339  1.00  0.00     0.037 C 
BRANCH  71  72
ATOM     72  C   UNL     1       3.780   2.155   5.315  1.00  0.00     0.026 C 
BRANCH  72  73
ATOM     73  C   UNL     1       3.641   3.543   5.939  1.00  0.00     0.146 C 
BRANCH  73  74
ATOM     74  N   UNL     1       4.427   3.560   7.169  1.00  0.00    -0.254 NA
ATOM     75  C   UNL     1       5.482   4.288   7.195  1.00  0.00     0.185 C 
ATOM     76  N   UNL     1       6.225   4.326   8.313  1.00  0.00    -0.370 N 
ATOM     77  N   UNL     1       5.996   5.066   6.227  1.00  0.00    -0.370 N 
ATOM     78  H   UNL     1       5.912   3.761   9.090  1.00  0.00     0.159 HD
ATOM     79  H   UNL     1       7.133   4.753   8.360  1.00  0.00     0.159 HD
ATOM     80  H   UNL     1       5.540   5.139   5.330  1.00  0.00     0.159 HD
ATOM     81  H   UNL     1       6.770   5.685   6.402  1.00  0.00     0.159 HD
ENDBRANCH  73  74
ENDBRANCH  72  73
ENDBRANCH  71  72
ENDBRANCH  45  71
ENDBRANCH   3  45
TORSDOF 20
ENDMDL
MODEL 29
REMARK VINA RESULT:    -5.242     11.471     14.079
REMARK INTER + INTRA:         -22.198
REMARK INTER:                 -16.029
REMARK INTRA:                  -6.169
REMARK UNBOUND:                -7.151
REMARK SMILES CCCCCC(=O)N[C@H](CC(=O)O)C(=O)N[C@H]1C(=O)N[C@H](CCCN=C(N)N)C(=O)N[C@@H]2CC[C@H](O)N(C2=O)[C@@H](CC(C)C)C(=O)N(C)[C@@H](Cc2ccccc2)C(=O)N[C@H](C(C)C)C(=O)O[C@@H]1C
REMARK SMILES IDX 30 1 31 2 29 3 32 5 35 6 37 7 34 8 38 9 33 10 39 11 36 12
REMARK SMILES IDX 40 14 41 15 42 16 43 17 44 18 45 19 46 20 47 21 48 22 49 23
REMARK SMILES IDX 50 24 51 25 52 26 56 27 53 28 55 29 54 30 57 31 58 32 59 33
REMARK SMILES IDX 60 35 61 36 62 37 63 38 64 39 65 40 66 41 67 42 68 43 21 45
REMARK SMILES IDX 20 46 18 47 19 48 17 50 16 52 14 53 15 54 9 56 8 57 6 58
REMARK SMILES IDX 7 59 5 61 4 62 3 63 2 64 1 65 10 66 11 67 12 68 13 69 22 71
REMARK SMILES IDX 23 72 24 73 25 74 26 75 27 76 28 77
REMARK H PARENT 31 4 36 13 59 34 20 49 16 55 8 60 13 70 27 78 27 79 28 80
REMARK H PARENT 28 81
REMARK Flexibility Score:  259.900
ROOT
ATOM      1  O   UNL     1      -3.538   0.005   7.163  1.00  0.00    -0.273 OA
ATOM      2  N   UNL     1      -2.765  -0.222   5.023  1.00  0.00    -0.343 N 
ATOM      3  C   UNL     1      -3.052   0.513   6.153  1.00  0.00     0.243 C 
ATOM      4  H   UNL     1      -2.351   0.228   4.215  1.00  0.00     0.164 HD
ENDROOT
BRANCH   2   5
ATOM      5  C   UNL     1      -3.141  -1.629   4.937  1.00  0.00     0.171 C 
ATOM      6  C   UNL     1      -2.044  -3.869   3.459  1.00  0.00     0.214 C 
ATOM      7  N   UNL     1      -3.093  -3.071   2.866  1.00  0.00    -0.303 N 
ATOM      8  C   UNL     1      -2.116  -3.925   4.976  1.00  0.00     0.057 C 
ATOM      9  C   UNL     1      -3.625  -1.958   3.496  1.00  0.00     0.247 C 
ATOM     10  C   UNL     1      -2.061  -2.523   5.544  1.00  0.00     0.040 C 
ATOM     11  O   UNL     1      -4.462  -1.230   2.945  1.00  0.00    -0.272 OA
BRANCH   6  12
ATOM     12  O   UNL     1      -0.809  -3.333   3.043  1.00  0.00    -0.373 OA
ATOM     13  H   UNL     1      -0.369  -4.016   2.495  1.00  0.00     0.213 HD
ENDBRANCH   6  12
BRANCH   7  14
ATOM     14  C   UNL     1      -3.484  -3.402   1.479  1.00  0.00     0.177 C 
BRANCH  14  15
ATOM     15  C   UNL     1      -2.368  -3.249   0.428  1.00  0.00     0.038 C 
BRANCH  15  16
ATOM     16  C   UNL     1      -2.445  -2.099  -0.601  1.00  0.00    -0.015 C 
ATOM     17  C   UNL     1      -1.412  -1.002  -0.330  1.00  0.00     0.007 C 
ATOM     18  C   UNL     1      -3.841  -1.464  -0.566  1.00  0.00     0.007 C 
ENDBRANCH  15  16
ENDBRANCH  14  15
BRANCH  14  19
ATOM     19  C   UNL     1      -4.585  -4.518   1.477  1.00  0.00     0.245 C 
ATOM     20  O   UNL     1      -5.692  -4.213   1.949  1.00  0.00    -0.272 OA
BRANCH  19  21
ATOM     21  N   UNL     1      -4.356  -5.827   1.089  1.00  0.00    -0.332 N 
ATOM     22  C   UNL     1      -3.607  -6.812   1.848  1.00  0.00     0.147 C 
BRANCH  21  23
ATOM     23  C   UNL     1      -4.909  -6.271  -0.220  1.00  0.00     0.178 C 
BRANCH  23  24
ATOM     24  C   UNL     1      -3.888  -6.299  -1.376  1.00  0.00     0.070 C 
BRANCH  24  25
ATOM     25  C   UNL     1      -4.006  -5.216  -2.424  1.00  0.00    -0.045 A 
ATOM     26  C   UNL     1      -2.889  -4.807  -3.162  1.00  0.00     0.004 A 
ATOM     27  C   UNL     1      -5.243  -4.601  -2.669  1.00  0.00     0.004 A 
ATOM     28  C   UNL     1      -3.003  -3.794  -4.117  1.00  0.00     0.000 A 
ATOM     29  C   UNL     1      -5.356  -3.590  -3.625  1.00  0.00     0.000 A 
ATOM     30  C   UNL     1      -4.235  -3.185  -4.346  1.00  0.00     0.000 A 
ENDBRANCH  24  25
ENDBRANCH  23  24
BRANCH  23  31
ATOM     31  C   UNL     1      -5.795  -7.535  -0.103  1.00  0.00     0.243 C 
ATOM     32  O   UNL     1      -6.850  -7.578   0.524  1.00  0.00    -0.273 OA
ATOM     33  N   UNL     1      -5.202  -8.675  -0.617  1.00  0.00    -0.341 N 
ATOM     34  H   UNL     1      -4.319  -8.577  -1.125  1.00  0.00     0.164 HD
BRANCH  33  35
ATOM     35  C   UNL     1      -5.805 -10.007  -0.510  1.00  0.00     0.194 C 
BRANCH  35  36
ATOM     36  C   UNL     1      -5.007 -10.995   0.387  1.00  0.00     0.017 C 
ATOM     37  C   UNL     1      -5.776 -12.312   0.589  1.00  0.00     0.010 C 
ATOM     38  C   UNL     1      -4.693 -10.430   1.778  1.00  0.00     0.010 C 
ENDBRANCH  35  36
BRANCH  35  39
ATOM     39  C   UNL     1      -6.142 -10.624  -1.896  1.00  0.00     0.329 C 
ATOM     40  O   UNL     1      -7.218 -11.139  -2.174  1.00  0.00    -0.250 OA
BRANCH  39  41
ATOM     41  O   UNL     1      -5.132 -10.451  -2.802  1.00  0.00    -0.458 OA
BRANCH  41  42
ATOM     42  C   UNL     1      -4.881 -11.556  -3.702  1.00  0.00     0.205 CG0
ATOM     43  C   UNL     1      -4.203 -12.658  -2.891  1.00  0.00     0.056 C 
ATOM     44  G   UNL     1      -4.003 -11.054  -4.865  1.00  0.00     0.000 G0
ENDBRANCH  41  42
ENDBRANCH  39  41
ENDBRANCH  35  39
ENDBRANCH  33  35
ENDBRANCH  23  31
ENDBRANCH  21  23
ENDBRANCH  19  21
ENDBRANCH  14  19
ENDBRANCH   7  14
ENDBRANCH   2   5
BRANCH   3  45
ATOM     45  C   UNL     1      -2.703   2.006   6.072  1.00  0.00     0.171 C 
BRANCH  45  46
ATOM     46  N   UNL     1      -2.478   2.433   7.446  1.00  0.00    -0.342 N 
ATOM     47  C   UNL     1      -1.381   3.169   7.818  1.00  0.00     0.247 C 
ATOM     48  O   UNL     1      -0.549   3.583   7.011  1.00  0.00    -0.273 OA
ATOM     49  H   UNL     1      -3.173   2.159   8.139  1.00  0.00     0.164 HD
BRANCH  47  50
ATOM     50  C   UNL     1      -1.248   3.419   9.327  1.00  0.00     0.212 CG0
ATOM     51  G   UNL     1      -1.912   4.775   9.636  1.00  0.00     0.000 G0
BRANCH  50  52
ATOM     52  N   UNL     1      -1.915   2.290   9.970  1.00  0.00    -0.339 N 
ATOM     53  C   UNL     1      -1.239   1.257  10.574  1.00  0.00     0.243 C 
ATOM     54  O   UNL     1      -0.014   1.178  10.574  1.00  0.00    -0.273 OA
ATOM     55  H   UNL     1      -2.930   2.242   9.907  1.00  0.00     0.164 HD
BRANCH  53  56
ATOM     56  C   UNL     1      -2.154   0.136  11.107  1.00  0.00     0.182 C 
BRANCH  56  57
ATOM     57  N   UNL     1      -3.041   0.637  12.163  1.00  0.00    -0.344 N 
ATOM     58  C   UNL     1      -4.399   0.750  11.991  1.00  0.00     0.220 C 
ATOM     59  O   UNL     1      -4.955   0.510  10.924  1.00  0.00    -0.275 OA
ATOM     60  H   UNL     1      -2.637   0.749  13.089  1.00  0.00     0.164 HD
BRANCH  58  61
ATOM     61  C   UNL     1      -5.124   1.234  13.233  1.00  0.00     0.100 C 
BRANCH  61  62
ATOM     62  C   UNL     1      -5.357   2.745  13.261  1.00  0.00     0.010 C 
BRANCH  62  63
ATOM     63  C   UNL     1      -4.581   3.479  14.361  1.00  0.00     0.000 C 
BRANCH  63  64
ATOM     64  C   UNL     1      -3.467   4.387  13.843  1.00  0.00    -0.003 C 
ATOM     65  C   UNL     1      -3.503   4.499  12.325  1.00  0.00     0.004 C 
ENDBRANCH  63  64
ENDBRANCH  62  63
ENDBRANCH  61  62
ENDBRANCH  58  61
ENDBRANCH  56  57
BRANCH  56  66
ATOM     66  C   UNL     1      -1.346  -1.078  11.562  1.00  0.00     0.157 C 
BRANCH  66  67
ATOM     67  C   UNL     1      -1.356  -1.209  13.058  1.00  0.00     0.305 C 
ATOM     68  O   UNL     1      -0.617  -0.643  13.848  1.00  0.00    -0.252 OA
BRANCH  67  69
ATOM     69  O   UNL     1      -2.342  -2.017  13.493  1.00  0.00    -0.481 OA
ATOM     70  H   UNL     1      -1.917  -2.894  13.603  1.00  0.00     0.296 HD
ENDBRANCH  67  69
ENDBRANCH  66  67
ENDBRANCH  56  66
ENDBRANCH  53  56
ENDBRANCH  50  52
ENDBRANCH  47  50
ENDBRANCH  45  46
BRANCH  45  71
ATOM     71  C   UNL     1      -3.849   2.786   5.417  1.00  0.00     0.037 C 
BRANCH  71  72
ATOM     72  C   UNL     1      -4.740   3.477   6.453  1.00  0.00     0.026 C 
BRANCH  72  73
ATOM     73  C   UNL     1      -5.012   4.932   6.076  1.00  0.00     0.146 C 
BRANCH  73  74
ATOM     74  N   UNL     1      -3.737   5.643   6.091  1.00  0.00    -0.254 NA
ATOM     75  C   UNL     1      -3.472   6.378   7.107  1.00  0.00     0.185 C 
ATOM     76  N   UNL     1      -2.307   7.044   7.150  1.00  0.00    -0.370 N 
ATOM     77  N   UNL     1      -4.217   6.604   8.204  1.00  0.00    -0.370 N 
ATOM     78  H   UNL     1      -1.689   6.935   6.359  1.00  0.00     0.159 HD
ATOM     79  H   UNL     1      -2.095   7.745   7.838  1.00  0.00     0.159 HD
ATOM     80  H   UNL     1      -5.119   6.164   8.311  1.00  0.00     0.159 HD
ATOM     81  H   UNL     1      -3.854   7.111   8.994  1.00  0.00     0.159 HD
ENDBRANCH  73  74
ENDBRANCH  72  73
ENDBRANCH  71  72
ENDBRANCH  45  71
ENDBRANCH   3  45
TORSDOF 20
ENDMDL
MODEL 30
REMARK VINA RESULT:    -5.232      3.806     14.672
REMARK INTER + INTRA:         -22.171
REMARK INTER:                 -16.732
REMARK INTRA:                  -5.439
REMARK UNBOUND:                -7.151
REMARK SMILES CCCCCC(=O)N[C@H](CC(=O)O)C(=O)N[C@H]1C(=O)N[C@H](CCCN=C(N)N)C(=O)N[C@@H]2CC[C@H](O)N(C2=O)[C@@H](CC(C)C)C(=O)N(C)[C@@H](Cc2ccccc2)C(=O)N[C@H](C(C)C)C(=O)O[C@@H]1C
REMARK SMILES IDX 30 1 31 2 29 3 32 5 35 6 37 7 34 8 38 9 33 10 39 11 36 12
REMARK SMILES IDX 40 14 41 15 42 16 43 17 44 18 45 19 46 20 47 21 48 22 49 23
REMARK SMILES IDX 50 24 51 25 52 26 56 27 53 28 55 29 54 30 57 31 58 32 59 33
REMARK SMILES IDX 60 35 61 36 62 37 63 38 64 39 65 40 66 41 67 42 68 43 21 45
REMARK SMILES IDX 20 46 18 47 19 48 17 50 16 52 14 53 15 54 9 56 8 57 6 58
REMARK SMILES IDX 7 59 5 61 4 62 3 63 2 64 1 65 10 66 11 67 12 68 13 69 22 71
REMARK SMILES IDX 23 72 24 73 25 74 26 75 27 76 28 77
REMARK H PARENT 31 4 36 13 59 34 20 49 16 55 8 60 13 70 27 78 27 79 28 80
REMARK H PARENT 28 81
REMARK Flexibility Score:  259.900
ROOT
ATOM      1  O   UNL     1       7.242   6.940   6.306  1.00  0.00    -0.273 OA
ATOM      2  N   UNL     1       5.169   7.684   5.690  1.00  0.00    -0.343 N 
ATOM      3  C   UNL     1       6.522   7.517   5.490  1.00  0.00     0.243 C 
ATOM      4  H   UNL     1       4.605   8.151   4.990  1.00  0.00     0.164 HD
ENDROOT
BRANCH   2   5
ATOM      5  C   UNL     1       4.549   7.283   6.949  1.00  0.00     0.171 C 
ATOM      6  C   UNL     1       1.825   6.599   7.666  1.00  0.00     0.214 C 
ATOM      7  N   UNL     1       2.267   7.969   7.783  1.00  0.00    -0.303 N 
ATOM      8  C   UNL     1       2.940   5.586   7.873  1.00  0.00     0.057 C 
ATOM      9  C   UNL     1       3.539   8.373   7.410  1.00  0.00     0.247 C 
ATOM     10  C   UNL     1       4.053   5.840   6.880  1.00  0.00     0.040 C 
ATOM     11  O   UNL     1       3.883   9.562   7.432  1.00  0.00    -0.272 OA
BRANCH   6  12
ATOM     12  O   UNL     1       1.247   6.441   6.391  1.00  0.00    -0.373 OA
ATOM     13  H   UNL     1       0.498   7.073   6.334  1.00  0.00     0.213 HD
ENDBRANCH   6  12
BRANCH   7  14
ATOM     14  C   UNL     1       1.255   8.969   8.185  1.00  0.00     0.177 C 
BRANCH  14  15
ATOM     15  C   UNL     1       0.371   9.503   7.041  1.00  0.00     0.038 C 
BRANCH  15  16
ATOM     16  C   UNL     1       0.353  11.018   6.738  1.00  0.00    -0.015 C 
ATOM     17  C   UNL     1       1.506  11.445   5.825  1.00  0.00     0.007 C 
ATOM     18  C   UNL     1       0.457  11.810   8.047  1.00  0.00     0.007 C 
ENDBRANCH  15  16
ENDBRANCH  14  15
BRANCH  14  19
ATOM     19  C   UNL     1       0.774   8.696   9.652  1.00  0.00     0.245 C 
ATOM     20  O   UNL     1       1.640   8.741  10.542  1.00  0.00    -0.272 OA
BRANCH  19  21
ATOM     21  N   UNL     1      -0.512   8.306   9.982  1.00  0.00    -0.332 N 
ATOM     22  C   UNL     1      -0.955   6.936  10.171  1.00  0.00     0.147 C 
BRANCH  21  23
ATOM     23  C   UNL     1      -1.540   9.370  10.148  1.00  0.00     0.178 C 
BRANCH  23  24
ATOM     24  C   UNL     1      -2.722   9.286   9.161  1.00  0.00     0.070 C 
BRANCH  24  25
ATOM     25  C   UNL     1      -3.105  10.555   8.435  1.00  0.00    -0.045 A 
ATOM     26  C   UNL     1      -3.474  11.704   9.145  1.00  0.00     0.004 A 
ATOM     27  C   UNL     1      -3.099  10.597   7.033  1.00  0.00     0.004 A 
ATOM     28  C   UNL     1      -3.843  12.868   8.467  1.00  0.00     0.000 A 
ATOM     29  C   UNL     1      -3.467  11.761   6.356  1.00  0.00     0.000 A 
ATOM     30  C   UNL     1      -3.841  12.895   7.074  1.00  0.00     0.000 A 
ENDBRANCH  24  25
ENDBRANCH  23  24
BRANCH  23  31
ATOM     31  C   UNL     1      -1.941   9.597  11.625  1.00  0.00     0.243 C 
ATOM     32  O   UNL     1      -1.174  10.018  12.488  1.00  0.00    -0.273 OA
ATOM     33  N   UNL     1      -3.197   9.105  11.940  1.00  0.00    -0.341 N 
ATOM     34  H   UNL     1      -3.787   8.761  11.179  1.00  0.00     0.164 HD
BRANCH  33  35
ATOM     35  C   UNL     1      -3.735   9.103  13.303  1.00  0.00     0.194 C 
BRANCH  35  36
ATOM     36  C   UNL     1      -3.939   7.683  13.903  1.00  0.00     0.017 C 
ATOM     37  C   UNL     1      -2.990   7.436  15.089  1.00  0.00     0.010 C 
ATOM     38  C   UNL     1      -3.705   6.559  12.886  1.00  0.00     0.010 C 
ENDBRANCH  35  36
BRANCH  35  39
ATOM     39  C   UNL     1      -5.011   9.980  13.443  1.00  0.00     0.329 C 
ATOM     40  O   UNL     1      -5.254  10.687  14.414  1.00  0.00    -0.250 OA
BRANCH  39  41
ATOM     41  O   UNL     1      -5.792   9.944  12.321  1.00  0.00    -0.458 OA
BRANCH  41  42
ATOM     42  C   UNL     1      -7.217  10.099  12.527  1.00  0.00     0.205 CG0
ATOM     43  C   UNL     1      -7.592  11.506  12.067  1.00  0.00     0.056 C 
ATOM     44  G   UNL     1      -7.526   9.865  14.019  1.00  0.00     0.000 G0
ENDBRANCH  41  42
ENDBRANCH  39  41
ENDBRANCH  35  39
ENDBRANCH  33  35
ENDBRANCH  23  31
ENDBRANCH  21  23
ENDBRANCH  19  21
ENDBRANCH  14  19
ENDBRANCH   7  14
ENDBRANCH   2   5
BRANCH   3  45
ATOM     45  C   UNL     1       7.066   8.080   4.171  1.00  0.00     0.171 C 
BRANCH  45  46
ATOM     46  N   UNL     1       8.409   7.533   4.033  1.00  0.00    -0.342 N 
ATOM     47  C   UNL     1       8.886   7.044   2.843  1.00  0.00     0.247 C 
ATOM     48  O   UNL     1       8.245   7.097   1.793  1.00  0.00    -0.273 OA
ATOM     49  H   UNL     1       8.995   7.522   4.866  1.00  0.00     0.164 HD
BRANCH  47  50
ATOM     50  C   UNL     1      10.276   6.395   2.917  1.00  0.00     0.212 CG0
ATOM     51  G   UNL     1      10.260   5.150   2.007  1.00  0.00     0.000 G0
BRANCH  50  52
ATOM     52  N   UNL     1      11.211   7.424   2.472  1.00  0.00    -0.339 N 
ATOM     53  C   UNL     1      12.491   7.543   2.956  1.00  0.00     0.243 C 
ATOM     54  O   UNL     1      12.931   6.821   3.846  1.00  0.00    -0.273 OA
ATOM     55  H   UNL     1      10.868   8.122   1.815  1.00  0.00     0.164 HD
BRANCH  53  56
ATOM     56  C   UNL     1      13.262   8.758   2.400  1.00  0.00     0.182 C 
BRANCH  56  57
ATOM     57  N   UNL     1      13.552   8.588   0.973  1.00  0.00    -0.344 N 
ATOM     58  C   UNL     1      12.934   9.339   0.002  1.00  0.00     0.220 C 
ATOM     59  O   UNL     1      12.048  10.148   0.253  1.00  0.00    -0.275 OA
ATOM     60  H   UNL     1      14.348   8.005   0.731  1.00  0.00     0.164 HD
BRANCH  58  61
ATOM     61  C   UNL     1      13.431   9.036  -1.399  1.00  0.00     0.100 C 
BRANCH  61  62
ATOM     62  C   UNL     1      14.018  10.249  -2.121  1.00  0.00     0.010 C 
BRANCH  62  63
ATOM     63  C   UNL     1      13.038  10.948  -3.072  1.00  0.00     0.000 C 
BRANCH  63  64
ATOM     64  C   UNL     1      11.898  10.057  -3.563  1.00  0.00    -0.003 C 
ATOM     65  C   UNL     1      10.542  10.619  -3.161  1.00  0.00     0.004 C 
ENDBRANCH  63  64
ENDBRANCH  62  63
ENDBRANCH  61  62
ENDBRANCH  58  61
ENDBRANCH  56  57
BRANCH  56  66
ATOM     66  C   UNL     1      14.522   9.042   3.215  1.00  0.00     0.157 C 
BRANCH  66  67
ATOM     67  C   UNL     1      15.295  10.193   2.638  1.00  0.00     0.305 C 
ATOM     68  O   UNL     1      15.894  10.213   1.574  1.00  0.00    -0.252 OA
BRANCH  67  69
ATOM     69  O   UNL     1      15.230  11.292   3.414  1.00  0.00    -0.481 OA
ATOM     70  H   UNL     1      16.016  11.822   3.163  1.00  0.00     0.296 HD
ENDBRANCH  67  69
ENDBRANCH  66  67
ENDBRANCH  56  66
ENDBRANCH  53  56
ENDBRANCH  50  52
ENDBRANCH  47  50
ENDBRANCH  45  46
BRANCH  45  71
ATOM     71  C   UNL     1       7.081   9.612   4.210  1.00  0.00     0.037 C 
BRANCH  71  72
ATOM     72  C   UNL     1       5.962  10.221   3.360  1.00  0.00     0.026 C 
BRANCH  72  73
ATOM     73  C   UNL     1       5.524   9.271   2.247  1.00  0.00     0.146 C 
BRANCH  73  74
ATOM     74  N   UNL     1       6.132   9.731   1.002  1.00  0.00    -0.254 NA
ATOM     75  C   UNL     1       5.354  10.177   0.085  1.00  0.00     0.185 C 
ATOM     76  N   UNL     1       5.884  10.608  -1.071  1.00  0.00    -0.370 N 
ATOM     77  N   UNL     1       4.015  10.289   0.094  1.00  0.00    -0.370 N 
ATOM     78  H   UNL     1       6.888  10.551  -1.164  1.00  0.00     0.159 HD
ATOM     79  H   UNL     1       5.334  10.833  -1.882  1.00  0.00     0.159 HD
ATOM     80  H   UNL     1       3.481  10.006   0.902  1.00  0.00     0.159 HD
ATOM     81  H   UNL     1       3.520  10.764  -0.643  1.00  0.00     0.159 HD
ENDBRANCH  73  74
ENDBRANCH  72  73
ENDBRANCH  71  72
ENDBRANCH  45  71
ENDBRANCH   3  45
TORSDOF 20
ENDMDL
MODEL 31
REMARK VINA RESULT:    -5.228      3.936     13.014
REMARK INTER + INTRA:         -22.159
REMARK INTER:                 -16.400
REMARK INTRA:                  -5.759
REMARK UNBOUND:                -7.151
REMARK SMILES CCCCCC(=O)N[C@H](CC(=O)O)C(=O)N[C@H]1C(=O)N[C@H](CCCN=C(N)N)C(=O)N[C@@H]2CC[C@H](O)N(C2=O)[C@@H](CC(C)C)C(=O)N(C)[C@@H](Cc2ccccc2)C(=O)N[C@H](C(C)C)C(=O)O[C@@H]1C
REMARK SMILES IDX 30 1 31 2 29 3 32 5 35 6 37 7 34 8 38 9 33 10 39 11 36 12
REMARK SMILES IDX 40 14 41 15 42 16 43 17 44 18 45 19 46 20 47 21 48 22 49 23
REMARK SMILES IDX 50 24 51 25 52 26 56 27 53 28 55 29 54 30 57 31 58 32 59 33
REMARK SMILES IDX 60 35 61 36 62 37 63 38 64 39 65 40 66 41 67 42 68 43 21 45
REMARK SMILES IDX 20 46 18 47 19 48 17 50 16 52 14 53 15 54 9 56 8 57 6 58
REMARK SMILES IDX 7 59 5 61 4 62 3 63 2 64 1 65 10 66 11 67 12 68 13 69 22 71
REMARK SMILES IDX 23 72 24 73 25 74 26 75 27 76 28 77
REMARK H PARENT 31 4 36 13 59 34 20 49 16 55 8 60 13 70 27 78 27 79 28 80
REMARK H PARENT 28 81
REMARK Flexibility Score:  259.900
ROOT
ATOM      1  O   UNL     1       2.522  11.395   5.295  1.00  0.00    -0.273 OA
ATOM      2  N   UNL     1       2.726  10.064   7.144  1.00  0.00    -0.343 N 
ATOM      3  C   UNL     1       3.201  10.629   5.979  1.00  0.00     0.243 C 
ATOM      4  H   UNL     1       3.318   9.450   7.689  1.00  0.00     0.164 HD
ENDROOT
BRANCH   2   5
ATOM      5  C   UNL     1       1.340  10.262   7.553  1.00  0.00     0.171 C 
ATOM      6  C   UNL     1      -0.398   8.815   9.368  1.00  0.00     0.214 C 
ATOM      7  N   UNL     1      -0.374   8.456   7.969  1.00  0.00    -0.303 N 
ATOM      8  C   UNL     1      -0.097  10.284   9.617  1.00  0.00     0.057 C 
ATOM      9  C   UNL     1       0.469   9.072   7.058  1.00  0.00     0.247 C 
ATOM     10  C   UNL     1       1.253  10.638   9.032  1.00  0.00     0.040 C 
ATOM     11  O   UNL     1       0.545   8.700   5.880  1.00  0.00    -0.272 OA
BRANCH   6  12
ATOM     12  O   UNL     1       0.537   8.001  10.037  1.00  0.00    -0.373 OA
ATOM     13  H   UNL     1       0.071   7.592  10.797  1.00  0.00     0.213 HD
ENDBRANCH   6  12
BRANCH   7  14
ATOM     14  C   UNL     1      -1.188   7.291   7.562  1.00  0.00     0.177 C 
BRANCH  14  15
ATOM     15  C   UNL     1      -0.487   5.924   7.688  1.00  0.00     0.038 C 
BRANCH  15  16
ATOM     16  C   UNL     1      -0.689   4.861   6.585  1.00  0.00    -0.015 C 
ATOM     17  C   UNL     1      -1.609   5.351   5.463  1.00  0.00     0.007 C 
ATOM     18  C   UNL     1      -1.304   3.594   7.193  1.00  0.00     0.007 C 
ENDBRANCH  15  16
ENDBRANCH  14  15
BRANCH  14  19
ATOM     19  C   UNL     1      -2.706   7.562   7.848  1.00  0.00     0.245 C 
ATOM     20  O   UNL     1      -3.218   8.536   7.273  1.00  0.00    -0.272 OA
BRANCH  19  21
ATOM     21  N   UNL     1      -3.454   6.856   8.773  1.00  0.00    -0.332 N 
ATOM     22  C   UNL     1      -4.250   5.675   8.489  1.00  0.00     0.147 C 
BRANCH  21  23
ATOM     23  C   UNL     1      -3.460   7.343  10.180  1.00  0.00     0.178 C 
BRANCH  23  24
ATOM     24  C   UNL     1      -4.785   7.991  10.633  1.00  0.00     0.070 C 
BRANCH  24  25
ATOM     25  C   UNL     1      -4.688   9.184  11.554  1.00  0.00    -0.045 A 
ATOM     26  C   UNL     1      -4.265  10.430  11.073  1.00  0.00     0.004 A 
ATOM     27  C   UNL     1      -5.018   9.059  12.912  1.00  0.00     0.004 A 
ATOM     28  C   UNL     1      -4.161  11.524  11.935  1.00  0.00     0.000 A 
ATOM     29  C   UNL     1      -4.915  10.154  13.772  1.00  0.00     0.000 A 
ATOM     30  C   UNL     1      -4.484  11.385  13.283  1.00  0.00     0.000 A 
ENDBRANCH  24  25
ENDBRANCH  23  24
BRANCH  23  31
ATOM     31  C   UNL     1      -2.861   6.321  11.176  1.00  0.00     0.243 C 
ATOM     32  O   UNL     1      -1.687   5.962  11.168  1.00  0.00    -0.273 OA
ATOM     33  N   UNL     1      -3.811   5.699  11.969  1.00  0.00    -0.341 N 
ATOM     34  H   UNL     1      -4.775   6.038  11.927  1.00  0.00     0.164 HD
BRANCH  33  35
ATOM     35  C   UNL     1      -3.488   4.614  12.899  1.00  0.00     0.194 C 
BRANCH  35  36
ATOM     36  C   UNL     1      -3.839   3.196  12.367  1.00  0.00     0.017 C 
ATOM     37  C   UNL     1      -2.613   2.519  11.729  1.00  0.00     0.010 C 
ATOM     38  C   UNL     1      -4.957   3.204  11.317  1.00  0.00     0.010 C 
ENDBRANCH  35  36
BRANCH  35  39
ATOM     39  C   UNL     1      -4.061   4.857  14.323  1.00  0.00     0.329 C 
ATOM     40  O   UNL     1      -3.371   4.991  15.327  1.00  0.00    -0.250 OA
BRANCH  39  41
ATOM     41  O   UNL     1      -5.422   4.993  14.320  1.00  0.00    -0.458 OA
BRANCH  41  42
ATOM     42  C   UNL     1      -6.126   4.421  15.449  1.00  0.00     0.205 CG0
ATOM     43  C   UNL     1      -6.220   2.916  15.210  1.00  0.00     0.056 C 
ATOM     44  G   UNL     1      -7.511   5.090  15.554  1.00  0.00     0.000 G0
ENDBRANCH  41  42
ENDBRANCH  39  41
ENDBRANCH  35  39
ENDBRANCH  33  35
ENDBRANCH  23  31
ENDBRANCH  21  23
ENDBRANCH  19  21
ENDBRANCH  14  19
ENDBRANCH   7  14
ENDBRANCH   2   5
BRANCH   3  45
ATOM     45  C   UNL     1       4.641  10.254   5.607  1.00  0.00     0.171 C 
BRANCH  45  46
ATOM     46  N   UNL     1       4.952  11.024   4.410  1.00  0.00    -0.342 N 
ATOM     47  C   UNL     1       6.023  11.879   4.342  1.00  0.00     0.247 C 
ATOM     48  O   UNL     1       6.838  12.003   5.256  1.00  0.00    -0.273 OA
ATOM     49  H   UNL     1       4.334  10.908   3.609  1.00  0.00     0.164 HD
BRANCH  47  50
ATOM     50  C   UNL     1       6.120  12.698   3.047  1.00  0.00     0.212 CG0
ATOM     51  G   UNL     1       7.419  13.525   3.113  1.00  0.00     0.000 G0
BRANCH  50  52
ATOM     52  N   UNL     1       6.115  11.717   1.965  1.00  0.00    -0.339 N 
ATOM     53  C   UNL     1       7.255  11.128   1.474  1.00  0.00     0.243 C 
ATOM     54  O   UNL     1       8.378  11.422   1.874  1.00  0.00    -0.273 OA
ATOM     55  H   UNL     1       5.225  11.513   1.515  1.00  0.00     0.164 HD
BRANCH  53  56
ATOM     56  C   UNL     1       7.010  10.190   0.274  1.00  0.00     0.182 C 
BRANCH  56  57
ATOM     57  N   UNL     1       8.229  10.028  -0.525  1.00  0.00    -0.344 N 
ATOM     58  C   UNL     1       8.673  10.994  -1.394  1.00  0.00     0.220 C 
ATOM     59  O   UNL     1       8.046  12.024  -1.618  1.00  0.00    -0.275 OA
ATOM     60  H   UNL     1       8.828   9.239  -0.296  1.00  0.00     0.164 HD
BRANCH  58  61
ATOM     61  C   UNL     1       9.984  10.638  -2.070  1.00  0.00     0.100 C 
BRANCH  61  62
ATOM     62  C   UNL     1       9.923   9.354  -2.897  1.00  0.00     0.010 C 
BRANCH  62  63
ATOM     63  C   UNL     1       8.902   9.393  -4.041  1.00  0.00     0.000 C 
BRANCH  63  64
ATOM     64  C   UNL     1       7.699   8.473  -3.840  1.00  0.00    -0.003 C 
ATOM     65  C   UNL     1       8.002   7.377  -2.829  1.00  0.00     0.004 C 
ENDBRANCH  63  64
ENDBRANCH  62  63
ENDBRANCH  61  62
ENDBRANCH  58  61
ENDBRANCH  56  57
BRANCH  56  66
ATOM     66  C   UNL     1       5.825  10.658  -0.570  1.00  0.00     0.157 C 
BRANCH  66  67
ATOM     67  C   UNL     1       4.650   9.736  -0.415  1.00  0.00     0.305 C 
ATOM     68  O   UNL     1       4.515   8.631  -0.917  1.00  0.00    -0.252 OA
BRANCH  67  69
ATOM     69  O   UNL     1       3.714  10.236   0.414  1.00  0.00    -0.481 OA
ATOM     70  H   UNL     1       3.572  11.156   0.106  1.00  0.00     0.296 HD
ENDBRANCH  67  69
ENDBRANCH  66  67
ENDBRANCH  56  66
ENDBRANCH  53  56
ENDBRANCH  50  52
ENDBRANCH  47  50
ENDBRANCH  45  46
BRANCH  45  71
ATOM     71  C   UNL     1       4.752   8.746   5.354  1.00  0.00     0.037 C 
BRANCH  71  72
ATOM     72  C   UNL     1       5.027   8.428   3.883  1.00  0.00     0.026 C 
BRANCH  72  73
ATOM     73  C   UNL     1       3.898   7.604   3.267  1.00  0.00     0.146 C 
BRANCH  73  74
ATOM     74  N   UNL     1       3.009   8.521   2.560  1.00  0.00    -0.254 NA
ATOM     75  C   UNL     1       1.752   8.273   2.581  1.00  0.00     0.185 C 
ATOM     76  N   UNL     1       0.909   9.099   1.940  1.00  0.00    -0.370 N 
ATOM     77  N   UNL     1       1.101   7.259   3.177  1.00  0.00    -0.370 N 
ATOM     78  H   UNL     1       1.319   9.887   1.458  1.00  0.00     0.159 HD
ATOM     79  H   UNL     1      -0.063   8.892   1.792  1.00  0.00     0.159 HD
ATOM     80  H   UNL     1       1.607   6.560   3.700  1.00  0.00     0.159 HD
ATOM     81  H   UNL     1       0.096   7.231   3.222  1.00  0.00     0.159 HD
ENDBRANCH  73  74
ENDBRANCH  72  73
ENDBRANCH  71  72
ENDBRANCH  45  71
ENDBRANCH   3  45
TORSDOF 20
ENDMDL
MODEL 32
REMARK VINA RESULT:    -5.225      3.241     11.182
REMARK INTER + INTRA:         -22.151
REMARK INTER:                 -16.058
REMARK INTRA:                  -6.093
REMARK UNBOUND:                -7.151
REMARK SMILES CCCCCC(=O)N[C@H](CC(=O)O)C(=O)N[C@H]1C(=O)N[C@H](CCCN=C(N)N)C(=O)N[C@@H]2CC[C@H](O)N(C2=O)[C@@H](CC(C)C)C(=O)N(C)[C@@H](Cc2ccccc2)C(=O)N[C@H](C(C)C)C(=O)O[C@@H]1C
REMARK SMILES IDX 30 1 31 2 29 3 32 5 35 6 37 7 34 8 38 9 33 10 39 11 36 12
REMARK SMILES IDX 40 14 41 15 42 16 43 17 44 18 45 19 46 20 47 21 48 22 49 23
REMARK SMILES IDX 50 24 51 25 52 26 56 27 53 28 55 29 54 30 57 31 58 32 59 33
REMARK SMILES IDX 60 35 61 36 62 37 63 38 64 39 65 40 66 41 67 42 68 43 21 45
REMARK SMILES IDX 20 46 18 47 19 48 17 50 16 52 14 53 15 54 9 56 8 57 6 58
REMARK SMILES IDX 7 59 5 61 4 62 3 63 2 64 1 65 10 66 11 67 12 68 13 69 22 71
REMARK SMILES IDX 23 72 24 73 25 74 26 75 27 76 28 77
REMARK H PARENT 31 4 36 13 59 34 20 49 16 55 8 60 13 70 27 78 27 79 28 80
REMARK H PARENT 28 81
REMARK Flexibility Score:  259.900
ROOT
ATOM      1  O   UNL     1      -1.779   4.471   8.058  1.00  0.00    -0.273 OA
ATOM      2  N   UNL     1      -0.725   3.078   9.534  1.00  0.00    -0.343 N 
ATOM      3  C   UNL     1      -0.765   3.862   8.400  1.00  0.00     0.243 C 
ATOM      4  H   UNL     1       0.131   2.603   9.793  1.00  0.00     0.164 HD
ENDROOT
BRANCH   2   5
ATOM      5  C   UNL     1      -1.932   2.843  10.318  1.00  0.00     0.171 C 
ATOM      6  C   UNL     1      -4.564   4.059  10.283  1.00  0.00     0.214 C 
ATOM      7  N   UNL     1      -3.544   4.597  11.153  1.00  0.00    -0.303 N 
ATOM      8  C   UNL     1      -4.416   2.566  10.033  1.00  0.00     0.057 C 
ATOM      9  C   UNL     1      -2.253   4.097  11.181  1.00  0.00     0.247 C 
ATOM     10  C   UNL     1      -3.052   2.279   9.444  1.00  0.00     0.040 C 
ATOM     11  O   UNL     1      -1.362   4.618  11.865  1.00  0.00    -0.272 OA
BRANCH   6  12
ATOM     12  O   UNL     1      -4.512   4.769   9.067  1.00  0.00    -0.373 OA
ATOM     13  H   UNL     1      -4.770   4.143   8.357  1.00  0.00     0.213 HD
ENDBRANCH   6  12
BRANCH   7  14
ATOM     14  C   UNL     1      -3.890   5.814  11.918  1.00  0.00     0.177 C 
BRANCH  14  15
ATOM     15  C   UNL     1      -4.117   5.597  13.427  1.00  0.00     0.038 C 
BRANCH  15  16
ATOM     16  C   UNL     1      -4.696   4.255  13.924  1.00  0.00    -0.015 C 
ATOM     17  C   UNL     1      -5.908   4.445  14.842  1.00  0.00     0.007 C 
ATOM     18  C   UNL     1      -3.622   3.482  14.701  1.00  0.00     0.007 C 
ENDBRANCH  15  16
ENDBRANCH  14  15
BRANCH  14  19
ATOM     19  C   UNL     1      -3.212   7.072  11.274  1.00  0.00     0.245 C 
ATOM     20  O   UNL     1      -3.233   7.146  10.034  1.00  0.00    -0.272 OA
BRANCH  19  21
ATOM     21  N   UNL     1      -2.511   8.023  11.994  1.00  0.00    -0.332 N 
ATOM     22  C   UNL     1      -1.423   7.749  12.915  1.00  0.00     0.147 C 
BRANCH  21  23
ATOM     23  C   UNL     1      -2.901   9.450  11.826  1.00  0.00     0.178 C 
BRANCH  23  24
ATOM     24  C   UNL     1      -3.434  10.128  13.105  1.00  0.00     0.070 C 
BRANCH  24  25
ATOM     25  C   UNL     1      -4.887   9.901  13.450  1.00  0.00    -0.045 A 
ATOM     26  C   UNL     1      -5.308   8.694  14.023  1.00  0.00     0.004 A 
ATOM     27  C   UNL     1      -5.839  10.899  13.195  1.00  0.00     0.004 A 
ATOM     28  C   UNL     1      -6.656   8.485  14.323  1.00  0.00     0.000 A 
ATOM     29  C   UNL     1      -7.186  10.689  13.496  1.00  0.00     0.000 A 
ATOM     30  C   UNL     1      -7.593   9.481  14.058  1.00  0.00     0.000 A 
ENDBRANCH  24  25
ENDBRANCH  23  24
BRANCH  23  31
ATOM     31  C   UNL     1      -1.853  10.274  11.040  1.00  0.00     0.243 C 
ATOM     32  O   UNL     1      -1.148  11.146  11.542  1.00  0.00    -0.273 OA
ATOM     33  N   UNL     1      -1.906  10.074   9.671  1.00  0.00    -0.341 N 
ATOM     34  H   UNL     1      -2.517   9.337   9.312  1.00  0.00     0.164 HD
BRANCH  33  35
ATOM     35  C   UNL     1      -1.089  10.834   8.721  1.00  0.00     0.194 C 
BRANCH  35  36
ATOM     36  C   UNL     1      -1.895  11.451   7.543  1.00  0.00     0.017 C 
ATOM     37  C   UNL     1      -2.369  12.877   7.874  1.00  0.00     0.010 C 
ATOM     38  C   UNL     1      -3.135  10.632   7.165  1.00  0.00     0.010 C 
ENDBRANCH  35  36
BRANCH  35  39
ATOM     39  C   UNL     1       0.148  10.036   8.223  1.00  0.00     0.329 C 
ATOM     40  O   UNL     1       1.228  10.014   8.800  1.00  0.00    -0.250 OA
BRANCH  39  41
ATOM     41  O   UNL     1      -0.129   9.287   7.112  1.00  0.00    -0.458 OA
BRANCH  41  42
ATOM     42  C   UNL     1       1.010   8.734   6.412  1.00  0.00     0.205 CG0
ATOM     43  C   UNL     1       1.398   9.727   5.318  1.00  0.00     0.056 C 
ATOM     44  G   UNL     1       0.616   7.356   5.843  1.00  0.00     0.000 G0
ENDBRANCH  41  42
ENDBRANCH  39  41
ENDBRANCH  35  39
ENDBRANCH  33  35
ENDBRANCH  23  31
ENDBRANCH  21  23
ENDBRANCH  19  21
ENDBRANCH  14  19
ENDBRANCH   7  14
ENDBRANCH   2   5
BRANCH   3  45
ATOM     45  C   UNL     1       0.546   3.938   7.608  1.00  0.00     0.171 C 
BRANCH  45  46
ATOM     46  N   UNL     1       0.379   5.045   6.675  1.00  0.00    -0.342 N 
ATOM     47  C   UNL     1       1.010   6.252   6.844  1.00  0.00     0.247 C 
ATOM     48  O   UNL     1       1.816   6.463   7.751  1.00  0.00    -0.273 OA
ATOM     49  H   UNL     1      -0.237   4.894   5.879  1.00  0.00     0.164 HD
BRANCH  47  50
ATOM     50  C   UNL     1       0.616   7.338   5.834  1.00  0.00     0.212 CG0
ATOM     51  G   UNL     1       1.003   8.702   6.439  1.00  0.00     0.000 G0
BRANCH  50  52
ATOM     52  N   UNL     1       1.352   7.019   4.613  1.00  0.00    -0.339 N 
ATOM     53  C   UNL     1       0.833   6.256   3.596  1.00  0.00     0.243 C 
ATOM     54  O   UNL     1      -0.277   5.735   3.659  1.00  0.00    -0.273 OA
ATOM     55  H   UNL     1       2.319   7.330   4.549  1.00  0.00     0.164 HD
BRANCH  53  56
ATOM     56  C   UNL     1       1.825   5.981   2.448  1.00  0.00     0.182 C 
BRANCH  56  57
ATOM     57  N   UNL     1       3.096   6.679   2.673  1.00  0.00    -0.344 N 
ATOM     58  C   UNL     1       4.293   6.013   2.772  1.00  0.00     0.220 C 
ATOM     59  O   UNL     1       4.376   4.790   2.753  1.00  0.00    -0.275 OA
ATOM     60  H   UNL     1       3.085   7.692   2.592  1.00  0.00     0.164 HD
BRANCH  58  61
ATOM     61  C   UNL     1       5.483   6.939   2.944  1.00  0.00     0.100 C 
BRANCH  61  62
ATOM     62  C   UNL     1       5.557   7.597   4.322  1.00  0.00     0.010 C 
BRANCH  62  63
ATOM     63  C   UNL     1       6.812   7.234   5.125  1.00  0.00     0.000 C 
BRANCH  63  64
ATOM     64  C   UNL     1       6.969   5.739   5.401  1.00  0.00    -0.003 C 
ATOM     65  C   UNL     1       8.226   5.183   4.748  1.00  0.00     0.004 C 
ENDBRANCH  63  64
ENDBRANCH  62  63
ENDBRANCH  61  62
ENDBRANCH  58  61
ENDBRANCH  56  57
BRANCH  56  66
ATOM     66  C   UNL     1       1.216   6.317   1.088  1.00  0.00     0.157 C 
BRANCH  66  67
ATOM     67  C   UNL     1       1.442   7.758   0.732  1.00  0.00     0.305 C 
ATOM     68  O   UNL     1       0.832   8.724   1.164  1.00  0.00    -0.252 OA
BRANCH  67  69
ATOM     69  O   UNL     1       2.471   7.919  -0.121  1.00  0.00    -0.481 OA
ATOM     70  H   UNL     1       3.201   7.390   0.265  1.00  0.00     0.296 HD
ENDBRANCH  67  69
ENDBRANCH  66  67
ENDBRANCH  56  66
ENDBRANCH  53  56
ENDBRANCH  50  52
ENDBRANCH  47  50
ENDBRANCH  45  46
BRANCH  45  71
ATOM     71  C   UNL     1       0.805   2.617   6.875  1.00  0.00     0.037 C 
BRANCH  71  72
ATOM     72  C   UNL     1       2.208   2.069   7.154  1.00  0.00     0.026 C 
BRANCH  72  73
ATOM     73  C   UNL     1       3.283   2.910   6.470  1.00  0.00     0.146 C 
BRANCH  73  74
ATOM     74  N   UNL     1       4.492   2.838   7.285  1.00  0.00    -0.254 NA
ATOM     75  C   UNL     1       4.860   3.898   7.905  1.00  0.00     0.185 C 
ATOM     76  N   UNL     1       5.968   3.862   8.664  1.00  0.00    -0.370 N 
ATOM     77  N   UNL     1       4.282   5.111   7.922  1.00  0.00    -0.370 N 
ATOM     78  H   UNL     1       6.469   2.986   8.701  1.00  0.00     0.159 HD
ATOM     79  H   UNL     1       6.395   4.682   9.059  1.00  0.00     0.159 HD
ATOM     80  H   UNL     1       3.437   5.285   7.398  1.00  0.00     0.159 HD
ATOM     81  H   UNL     1       4.599   5.839   8.541  1.00  0.00     0.159 HD
ENDBRANCH  73  74
ENDBRANCH  72  73
ENDBRANCH  71  72
ENDBRANCH  45  71
ENDBRANCH   3  45
TORSDOF 20
ENDMDL
MODEL 33
REMARK VINA RESULT:    -5.225      2.695      4.159
REMARK INTER + INTRA:         -22.149
REMARK INTER:                 -16.252
REMARK INTRA:                  -5.897
REMARK UNBOUND:                -7.151
REMARK SMILES CCCCCC(=O)N[C@H](CC(=O)O)C(=O)N[C@H]1C(=O)N[C@H](CCCN=C(N)N)C(=O)N[C@@H]2CC[C@H](O)N(C2=O)[C@@H](CC(C)C)C(=O)N(C)[C@@H](Cc2ccccc2)C(=O)N[C@H](C(C)C)C(=O)O[C@@H]1C
REMARK SMILES IDX 30 1 31 2 29 3 32 5 35 6 37 7 34 8 38 9 33 10 39 11 36 12
REMARK SMILES IDX 40 14 41 15 42 16 43 17 44 18 45 19 46 20 47 21 48 22 49 23
REMARK SMILES IDX 50 24 51 25 52 26 56 27 53 28 55 29 54 30 57 31 58 32 59 33
REMARK SMILES IDX 60 35 61 36 62 37 63 38 64 39 65 40 66 41 67 42 68 43 21 45
REMARK SMILES IDX 20 46 18 47 19 48 17 50 16 52 14 53 15 54 9 56 8 57 6 58
REMARK SMILES IDX 7 59 5 61 4 62 3 63 2 64 1 65 10 66 11 67 12 68 13 69 22 71
REMARK SMILES IDX 23 72 24 73 25 74 26 75 27 76 28 77
REMARK H PARENT 31 4 36 13 59 34 20 49 16 55 8 60 13 70 27 78 27 79 28 80
REMARK H PARENT 28 81
REMARK Flexibility Score:  259.900
ROOT
ATOM      1  O   UNL     1      -0.382   8.789  10.577  1.00  0.00    -0.273 OA
ATOM      2  N   UNL     1       0.616   9.069   8.539  1.00  0.00    -0.343 N 
ATOM      3  C   UNL     1      -0.463   9.123   9.395  1.00  0.00     0.243 C 
ATOM      4  H   UNL     1       0.517   9.365   7.576  1.00  0.00     0.164 HD
ENDROOT
BRANCH   2   5
ATOM      5  C   UNL     1       1.883   8.493   8.977  1.00  0.00     0.171 C 
ATOM      6  C   UNL     1       4.563   8.573   7.873  1.00  0.00     0.214 C 
ATOM      7  N   UNL     1       3.672   7.499   7.499  1.00  0.00    -0.303 N 
ATOM      8  C   UNL     1       4.304   9.110   9.272  1.00  0.00     0.057 C 
ATOM      9  C   UNL     1       2.363   7.429   7.949  1.00  0.00     0.247 C 
ATOM     10  C   UNL     1       2.872   9.587   9.380  1.00  0.00     0.040 C 
ATOM     11  O   UNL     1       1.580   6.555   7.555  1.00  0.00    -0.272 OA
BRANCH   6  12
ATOM     12  O   UNL     1       4.426   9.599   6.918  1.00  0.00    -0.373 OA
ATOM     13  H   UNL     1       4.040  10.373   7.382  1.00  0.00     0.213 HD
ENDBRANCH   6  12
BRANCH   7  14
ATOM     14  C   UNL     1       4.165   6.541   6.486  1.00  0.00     0.177 C 
BRANCH  14  15
ATOM     15  C   UNL     1       3.620   6.755   5.061  1.00  0.00     0.038 C 
BRANCH  15  16
ATOM     16  C   UNL     1       3.262   5.529   4.191  1.00  0.00    -0.015 C 
ATOM     17  C   UNL     1       2.072   5.798   3.265  1.00  0.00     0.007 C 
ATOM     18  C   UNL     1       2.909   4.339   5.093  1.00  0.00     0.007 C 
ENDBRANCH  15  16
ENDBRANCH  14  15
BRANCH  14  19
ATOM     19  C   UNL     1       5.619   6.076   6.841  1.00  0.00     0.245 C 
ATOM     20  O   UNL     1       5.739   5.310   7.812  1.00  0.00    -0.272 OA
BRANCH  19  21
ATOM     21  N   UNL     1       6.756   6.552   6.214  1.00  0.00    -0.332 N 
ATOM     22  C   UNL     1       7.665   7.546   6.758  1.00  0.00     0.147 C 
BRANCH  21  23
ATOM     23  C   UNL     1       7.081   6.018   4.862  1.00  0.00     0.178 C 
BRANCH  23  24
ATOM     24  C   UNL     1       7.273   7.093   3.773  1.00  0.00     0.070 C 
BRANCH  24  25
ATOM     25  C   UNL     1       6.231   7.160   2.680  1.00  0.00    -0.045 A 
ATOM     26  C   UNL     1       5.980   6.053   1.860  1.00  0.00     0.004 A 
ATOM     27  C   UNL     1       5.502   8.340   2.469  1.00  0.00     0.004 A 
ATOM     28  C   UNL     1       5.027   6.128   0.842  1.00  0.00     0.000 A 
ATOM     29  C   UNL     1       4.550   8.413   1.452  1.00  0.00     0.000 A 
ATOM     30  C   UNL     1       4.315   7.308   0.637  1.00  0.00     0.000 A 
ENDBRANCH  24  25
ENDBRANCH  23  24
BRANCH  23  31
ATOM     31  C   UNL     1       8.170   4.919   4.893  1.00  0.00     0.243 C 
ATOM     32  O   UNL     1       8.532   4.340   5.914  1.00  0.00    -0.273 OA
ATOM     33  N   UNL     1       8.840   4.771   3.690  1.00  0.00    -0.341 N 
ATOM     34  H   UNL     1       8.495   5.285   2.876  1.00  0.00     0.164 HD
BRANCH  33  35
ATOM     35  C   UNL     1       9.987   3.875   3.520  1.00  0.00     0.194 C 
BRANCH  35  36
ATOM     36  C   UNL     1      11.079   4.417   2.556  1.00  0.00     0.017 C 
ATOM     37  C   UNL     1      11.678   5.736   3.074  1.00  0.00     0.010 C 
ATOM     38  C   UNL     1      10.558   4.676   1.137  1.00  0.00     0.010 C 
ENDBRANCH  35  36
BRANCH  35  39
ATOM     39  C   UNL     1       9.563   2.423   3.159  1.00  0.00     0.329 C 
ATOM     40  O   UNL     1       8.412   2.089   2.902  1.00  0.00    -0.250 OA
BRANCH  39  41
ATOM     41  O   UNL     1      10.632   1.575   3.076  1.00  0.00    -0.458 OA
BRANCH  41  42
ATOM     42  C   UNL     1      10.702   0.748   1.890  1.00  0.00     0.205 CG0
ATOM     43  C   UNL     1      11.185  -0.633   2.328  1.00  0.00     0.056 C 
ATOM     44  G   UNL     1      11.659   1.415   0.881  1.00  0.00     0.000 G0
ENDBRANCH  41  42
ENDBRANCH  39  41
ENDBRANCH  35  39
ENDBRANCH  33  35
ENDBRANCH  23  31
ENDBRANCH  21  23
ENDBRANCH  19  21
ENDBRANCH  14  19
ENDBRANCH   7  14
ENDBRANCH   2   5
BRANCH   3  45
ATOM     45  C   UNL     1      -1.765   9.649   8.777  1.00  0.00     0.171 C 
BRANCH  45  46
ATOM     46  N   UNL     1      -2.758   9.590   9.842  1.00  0.00    -0.342 N 
ATOM     47  C   UNL     1      -3.620  10.625  10.102  1.00  0.00     0.247 C 
ATOM     48  O   UNL     1      -3.668  11.644   9.413  1.00  0.00    -0.273 OA
ATOM     49  H   UNL     1      -2.790   8.740  10.402  1.00  0.00     0.164 HD
BRANCH  47  50
ATOM     50  C   UNL     1      -4.509  10.435  11.339  1.00  0.00     0.212 CG0
ATOM     51  G   UNL     1      -5.955  10.221  10.848  1.00  0.00     0.000 G0
BRANCH  50  52
ATOM     52  N   UNL     1      -3.960   9.277  12.039  1.00  0.00    -0.339 N 
ATOM     53  C   UNL     1      -4.512   8.754  13.184  1.00  0.00     0.243 C 
ATOM     54  O   UNL     1      -5.485   9.257  13.739  1.00  0.00    -0.273 OA
ATOM     55  H   UNL     1      -3.089   8.882  11.690  1.00  0.00     0.164 HD
BRANCH  53  56
ATOM     56  C   UNL     1      -3.709   7.586  13.790  1.00  0.00     0.182 C 
BRANCH  56  57
ATOM     57  N   UNL     1      -4.586   6.669  14.526  1.00  0.00    -0.344 N 
ATOM     58  C   UNL     1      -4.465   5.304  14.436  1.00  0.00     0.220 C 
ATOM     59  O   UNL     1      -3.668   4.757  13.683  1.00  0.00    -0.275 OA
ATOM     60  H   UNL     1      -5.189   7.079  15.235  1.00  0.00     0.164 HD
BRANCH  58  61
ATOM     61  C   UNL     1      -5.438   4.555  15.328  1.00  0.00     0.100 C 
BRANCH  61  62
ATOM     62  C   UNL     1      -5.443   3.043  15.101  1.00  0.00     0.010 C 
BRANCH  62  63
ATOM     63  C   UNL     1      -6.468   2.567  14.064  1.00  0.00     0.000 C 
BRANCH  63  64
ATOM     64  C   UNL     1      -5.887   2.331  12.671  1.00  0.00    -0.003 C 
ATOM     65  C   UNL     1      -6.389   1.025  12.074  1.00  0.00     0.004 C 
ENDBRANCH  63  64
ENDBRANCH  62  63
ENDBRANCH  61  62
ENDBRANCH  58  61
ENDBRANCH  56  57
BRANCH  56  66
ATOM     66  C   UNL     1      -2.550   8.089  14.650  1.00  0.00     0.157 C 
BRANCH  66  67
ATOM     67  C   UNL     1      -1.247   8.008  13.908  1.00  0.00     0.305 C 
ATOM     68  O   UNL     1      -0.150   8.361  14.313  1.00  0.00    -0.252 OA
BRANCH  67  69
ATOM     69  O   UNL     1      -1.383   7.433  12.698  1.00  0.00    -0.481 OA
ATOM     70  H   UNL     1      -2.321   7.153  12.657  1.00  0.00     0.296 HD
ENDBRANCH  67  69
ENDBRANCH  66  67
ENDBRANCH  56  66
ENDBRANCH  53  56
ENDBRANCH  50  52
ENDBRANCH  47  50
ENDBRANCH  45  46
BRANCH  45  71
ATOM     71  C   UNL     1      -2.172   8.787   7.576  1.00  0.00     0.037 C 
BRANCH  71  72
ATOM     72  C   UNL     1      -2.756   7.439   8.007  1.00  0.00     0.026 C 
BRANCH  72  73
ATOM     73  C   UNL     1      -2.820   6.458   6.838  1.00  0.00     0.146 C 
BRANCH  73  74
ATOM     74  N   UNL     1      -4.176   6.493   6.299  1.00  0.00    -0.254 NA
ATOM     75  C   UNL     1      -4.948   5.502   6.555  1.00  0.00     0.185 C 
ATOM     76  N   UNL     1      -6.202   5.505   6.075  1.00  0.00    -0.370 N 
ATOM     77  N   UNL     1      -4.690   4.393   7.271  1.00  0.00    -0.370 N 
ATOM     78  H   UNL     1      -6.476   6.302   5.517  1.00  0.00     0.159 HD
ATOM     79  H   UNL     1      -6.811   4.707   6.110  1.00  0.00     0.159 HD
ATOM     80  H   UNL     1      -3.786   4.255   7.697  1.00  0.00     0.159 HD
ATOM     81  H   UNL     1      -5.415   3.733   7.502  1.00  0.00     0.159 HD
ENDBRANCH  73  74
ENDBRANCH  72  73
ENDBRANCH  71  72
ENDBRANCH  45  71
ENDBRANCH   3  45
TORSDOF 20
ENDMDL
MODEL 34
REMARK VINA RESULT:    -5.213      3.663      6.335
REMARK INTER + INTRA:         -22.117
REMARK INTER:                 -15.612
REMARK INTRA:                  -6.504
REMARK UNBOUND:                -7.151
REMARK SMILES CCCCCC(=O)N[C@H](CC(=O)O)C(=O)N[C@H]1C(=O)N[C@H](CCCN=C(N)N)C(=O)N[C@@H]2CC[C@H](O)N(C2=O)[C@@H](CC(C)C)C(=O)N(C)[C@@H](Cc2ccccc2)C(=O)N[C@H](C(C)C)C(=O)O[C@@H]1C
REMARK SMILES IDX 30 1 31 2 29 3 32 5 35 6 37 7 34 8 38 9 33 10 39 11 36 12
REMARK SMILES IDX 40 14 41 15 42 16 43 17 44 18 45 19 46 20 47 21 48 22 49 23
REMARK SMILES IDX 50 24 51 25 52 26 56 27 53 28 55 29 54 30 57 31 58 32 59 33
REMARK SMILES IDX 60 35 61 36 62 37 63 38 64 39 65 40 66 41 67 42 68 43 21 45
REMARK SMILES IDX 20 46 18 47 19 48 17 50 16 52 14 53 15 54 9 56 8 57 6 58
REMARK SMILES IDX 7 59 5 61 4 62 3 63 2 64 1 65 10 66 11 67 12 68 13 69 22 71
REMARK SMILES IDX 23 72 24 73 25 74 26 75 27 76 28 77
REMARK H PARENT 31 4 36 13 59 34 20 49 16 55 8 60 13 70 27 78 27 79 28 80
REMARK H PARENT 28 81
REMARK Flexibility Score:  259.900
ROOT
ATOM      1  O   UNL     1       2.187   8.665   8.208  1.00  0.00    -0.273 OA
ATOM      2  N   UNL     1       1.514  10.631   7.252  1.00  0.00    -0.343 N 
ATOM      3  C   UNL     1       1.693   9.787   8.327  1.00  0.00     0.243 C 
ATOM      4  H   UNL     1       1.117  11.552   7.389  1.00  0.00     0.164 HD
ENDROOT
BRANCH   2   5
ATOM      5  C   UNL     1       1.799  10.176   5.895  1.00  0.00     0.171 C 
ATOM      6  C   UNL     1       3.208   7.866   4.854  1.00  0.00     0.214 C 
ATOM      7  N   UNL     1       3.933   9.092   5.094  1.00  0.00    -0.303 N 
ATOM      8  C   UNL     1       1.749   8.091   4.489  1.00  0.00     0.057 C 
ATOM      9  C   UNL     1       3.333  10.216   5.637  1.00  0.00     0.247 C 
ATOM     10  C   UNL     1       1.062   8.874   5.587  1.00  0.00     0.040 C 
ATOM     11  O   UNL     1       3.979  11.233   5.920  1.00  0.00    -0.272 OA
BRANCH   6  12
ATOM     12  O   UNL     1       3.309   7.072   6.013  1.00  0.00    -0.373 OA
ATOM     13  H   UNL     1       3.897   7.549   6.638  1.00  0.00     0.213 HD
ENDBRANCH   6  12
BRANCH   7  14
ATOM     14  C   UNL     1       5.395   9.060   4.872  1.00  0.00     0.177 C 
BRANCH  14  15
ATOM     15  C   UNL     1       6.252   9.022   6.152  1.00  0.00     0.038 C 
BRANCH  15  16
ATOM     16  C   UNL     1       6.279   7.738   7.011  1.00  0.00    -0.015 C 
ATOM     17  C   UNL     1       5.789   7.983   8.442  1.00  0.00     0.007 C 
ATOM     18  C   UNL     1       7.710   7.190   7.080  1.00  0.00     0.007 C 
ENDBRANCH  15  16
ENDBRANCH  14  15
BRANCH  14  19
ATOM     19  C   UNL     1       5.726   8.311   3.536  1.00  0.00     0.245 C 
ATOM     20  O   UNL     1       6.144   7.145   3.637  1.00  0.00    -0.272 OA
BRANCH  19  21
ATOM     21  N   UNL     1       5.685   8.905   2.287  1.00  0.00    -0.332 N 
ATOM     22  C   UNL     1       5.628  10.334   2.036  1.00  0.00     0.147 C 
BRANCH  21  23
ATOM     23  C   UNL     1       5.688   8.016   1.093  1.00  0.00     0.178 C 
BRANCH  23  24
ATOM     24  C   UNL     1       4.391   8.051   0.259  1.00  0.00     0.070 C 
BRANCH  24  25
ATOM     25  C   UNL     1       3.219   7.249   0.775  1.00  0.00    -0.045 A 
ATOM     26  C   UNL     1       3.420   6.034   1.443  1.00  0.00     0.004 A 
ATOM     27  C   UNL     1       1.908   7.710   0.587  1.00  0.00     0.004 A 
ATOM     28  C   UNL     1       2.331   5.290   1.902  1.00  0.00     0.000 A 
ATOM     29  C   UNL     1       0.821   6.966   1.047  1.00  0.00     0.000 A 
ATOM     30  C   UNL     1       1.033   5.755   1.702  1.00  0.00     0.000 A 
ENDBRANCH  24  25
ENDBRANCH  23  24
BRANCH  23  31
ATOM     31  C   UNL     1       6.995   8.116   0.269  1.00  0.00     0.243 C 
ATOM     32  O   UNL     1       8.120   8.059   0.758  1.00  0.00    -0.273 OA
ATOM     33  N   UNL     1       6.789   8.462  -1.055  1.00  0.00    -0.341 N 
ATOM     34  H   UNL     1       5.828   8.499  -1.403  1.00  0.00     0.164 HD
BRANCH  33  35
ATOM     35  C   UNL     1       7.885   8.728  -1.991  1.00  0.00     0.194 C 
BRANCH  35  36
ATOM     36  C   UNL     1       7.906  10.179  -2.548  1.00  0.00     0.017 C 
ATOM     37  C   UNL     1       9.128  10.959  -2.031  1.00  0.00     0.010 C 
ATOM     38  C   UNL     1       6.657  10.987  -2.178  1.00  0.00     0.010 C 
ENDBRANCH  35  36
BRANCH  35  39
ATOM     39  C   UNL     1       7.972   7.670  -3.126  1.00  0.00     0.329 C 
ATOM     40  O   UNL     1       7.767   6.472  -2.965  1.00  0.00    -0.250 OA
BRANCH  39  41
ATOM     41  O   UNL     1       8.217   8.235  -4.347  1.00  0.00    -0.458 OA
BRANCH  41  42
ATOM     42  C   UNL     1       9.327   7.686  -5.097  1.00  0.00     0.205 CG0
ATOM     43  C   UNL     1      10.596   8.374  -4.598  1.00  0.00     0.056 C 
ATOM     44  G   UNL     1       9.075   7.931  -6.598  1.00  0.00     0.000 G0
ENDBRANCH  41  42
ENDBRANCH  39  41
ENDBRANCH  35  39
ENDBRANCH  33  35
ENDBRANCH  23  31
ENDBRANCH  21  23
ENDBRANCH  19  21
ENDBRANCH  14  19
ENDBRANCH   7  14
ENDBRANCH   2   5
BRANCH   3  45
ATOM     45  C   UNL     1       1.252  10.350   9.684  1.00  0.00     0.171 C 
BRANCH  45  46
ATOM     46  N   UNL     1       0.025   9.642  10.025  1.00  0.00    -0.342 N 
ATOM     47  C   UNL     1      -0.082   8.849  11.139  1.00  0.00     0.247 C 
ATOM     48  O   UNL     1       0.821   8.735  11.968  1.00  0.00    -0.273 OA
ATOM     49  H   UNL     1      -0.767   9.753   9.394  1.00  0.00     0.164 HD
BRANCH  47  50
ATOM     50  C   UNL     1      -1.408   8.084  11.268  1.00  0.00     0.212 CG0
ATOM     51  G   UNL     1      -2.543   9.125  11.338  1.00  0.00     0.000 G0
BRANCH  50  52
ATOM     52  N   UNL     1      -1.480   7.229  10.087  1.00  0.00    -0.339 N 
ATOM     53  C   UNL     1      -2.312   6.140   9.992  1.00  0.00     0.243 C 
ATOM     54  O   UNL     1      -3.024   5.768  10.921  1.00  0.00    -0.273 OA
ATOM     55  H   UNL     1      -0.833   7.420   9.324  1.00  0.00     0.164 HD
BRANCH  53  56
ATOM     56  C   UNL     1      -2.152   5.339   8.684  1.00  0.00     0.182 C 
BRANCH  56  57
ATOM     57  N   UNL     1      -0.807   5.508   8.125  1.00  0.00    -0.344 N 
ATOM     58  C   UNL     1       0.260   4.744   8.531  1.00  0.00     0.220 C 
ATOM     59  O   UNL     1       0.181   3.922   9.436  1.00  0.00    -0.275 OA
ATOM     60  H   UNL     1      -0.720   6.104   7.306  1.00  0.00     0.164 HD
BRANCH  58  61
ATOM     61  C   UNL     1       1.541   5.051   7.776  1.00  0.00     0.100 C 
BRANCH  61  62
ATOM     62  C   UNL     1       2.269   3.807   7.267  1.00  0.00     0.010 C 
BRANCH  62  63
ATOM     63  C   UNL     1       3.618   3.546   7.949  1.00  0.00     0.000 C 
BRANCH  63  64
ATOM     64  C   UNL     1       4.809   4.205   7.253  1.00  0.00    -0.003 C 
ATOM     65  C   UNL     1       6.118   3.862   7.950  1.00  0.00     0.004 C 
ENDBRANCH  63  64
ENDBRANCH  62  63
ENDBRANCH  61  62
ENDBRANCH  58  61
ENDBRANCH  56  57
BRANCH  56  66
ATOM     66  C   UNL     1      -3.244   5.691   7.675  1.00  0.00     0.157 C 
BRANCH  66  67
ATOM     67  C   UNL     1      -2.753   6.690   6.668  1.00  0.00     0.305 C 
ATOM     68  O   UNL     1      -1.965   6.485   5.757  1.00  0.00    -0.252 OA
BRANCH  67  69
ATOM     69  O   UNL     1      -3.323   7.899   6.826  1.00  0.00    -0.481 OA
ATOM     70  H   UNL     1      -2.923   8.260   7.645  1.00  0.00     0.296 HD
ENDBRANCH  67  69
ENDBRANCH  66  67
ENDBRANCH  56  66
ENDBRANCH  53  56
ENDBRANCH  50  52
ENDBRANCH  47  50
ENDBRANCH  45  46
BRANCH  45  71
ATOM     71  C   UNL     1       1.023  11.862   9.586  1.00  0.00     0.037 C 
BRANCH  71  72
ATOM     72  C   UNL     1       0.620  12.472  10.931  1.00  0.00     0.026 C 
BRANCH  72  73
ATOM     73  C   UNL     1      -0.857  12.861  10.949  1.00  0.00     0.146 C 
BRANCH  73  74
ATOM     74  N   UNL     1      -1.538  11.988  11.900  1.00  0.00    -0.254 NA
ATOM     75  C   UNL     1      -2.762  12.246  12.180  1.00  0.00     0.185 C 
ATOM     76  N   UNL     1      -3.415  11.459  13.050  1.00  0.00    -0.370 N 
ATOM     77  N   UNL     1      -3.544  13.235  11.716  1.00  0.00    -0.370 N 
ATOM     78  H   UNL     1      -2.895  10.693  13.454  1.00  0.00     0.159 HD
ATOM     79  H   UNL     1      -4.320  11.681  13.426  1.00  0.00     0.159 HD
ATOM     80  H   UNL     1      -3.187  13.903  11.049  1.00  0.00     0.159 HD
ATOM     81  H   UNL     1      -4.529  13.270  11.921  1.00  0.00     0.159 HD
ENDBRANCH  73  74
ENDBRANCH  72  73
ENDBRANCH  71  72
ENDBRANCH  45  71
ENDBRANCH   3  45
TORSDOF 20
ENDMDL
MODEL 35
REMARK VINA RESULT:    -5.204      2.747      4.859
REMARK INTER + INTRA:         -22.090
REMARK INTER:                 -14.976
REMARK INTRA:                  -7.114
REMARK UNBOUND:                -7.151
REMARK SMILES CCCCCC(=O)N[C@H](CC(=O)O)C(=O)N[C@H]1C(=O)N[C@H](CCCN=C(N)N)C(=O)N[C@@H]2CC[C@H](O)N(C2=O)[C@@H](CC(C)C)C(=O)N(C)[C@@H](Cc2ccccc2)C(=O)N[C@H](C(C)C)C(=O)O[C@@H]1C
REMARK SMILES IDX 30 1 31 2 29 3 32 5 35 6 37 7 34 8 38 9 33 10 39 11 36 12
REMARK SMILES IDX 40 14 41 15 42 16 43 17 44 18 45 19 46 20 47 21 48 22 49 23
REMARK SMILES IDX 50 24 51 25 52 26 56 27 53 28 55 29 54 30 57 31 58 32 59 33
REMARK SMILES IDX 60 35 61 36 62 37 63 38 64 39 65 40 66 41 67 42 68 43 21 45
REMARK SMILES IDX 20 46 18 47 19 48 17 50 16 52 14 53 15 54 9 56 8 57 6 58
REMARK SMILES IDX 7 59 5 61 4 62 3 63 2 64 1 65 10 66 11 67 12 68 13 69 22 71
REMARK SMILES IDX 23 72 24 73 25 74 26 75 27 76 28 77
REMARK H PARENT 31 4 36 13 59 34 20 49 16 55 8 60 13 70 27 78 27 79 28 80
REMARK H PARENT 28 81
REMARK Flexibility Score:  259.900
ROOT
ATOM      1  O   UNL     1       1.402   7.369   9.074  1.00  0.00    -0.273 OA
ATOM      2  N   UNL     1       2.808   8.864   8.064  1.00  0.00    -0.343 N 
ATOM      3  C   UNL     1       1.560   8.407   8.430  1.00  0.00     0.243 C 
ATOM      4  H   UNL     1       2.900   9.730   7.547  1.00  0.00     0.164 HD
ENDROOT
BRANCH   2   5
ATOM      5  C   UNL     1       3.998   8.062   8.325  1.00  0.00     0.171 C 
ATOM      6  C   UNL     1       6.716   8.197   7.325  1.00  0.00     0.214 C 
ATOM      7  N   UNL     1       5.746   7.376   6.638  1.00  0.00    -0.303 N 
ATOM      8  C   UNL     1       6.451   8.321   8.817  1.00  0.00     0.057 C 
ATOM      9  C   UNL     1       4.419   7.307   7.032  1.00  0.00     0.247 C 
ATOM     10  C   UNL     1       5.065   8.884   9.046  1.00  0.00     0.040 C 
ATOM     11  O   UNL     1       3.576   6.670   6.388  1.00  0.00    -0.272 OA
BRANCH   6  12
ATOM     12  O   UNL     1       6.711   9.468   6.717  1.00  0.00    -0.373 OA
ATOM     13  H   UNL     1       7.532   9.535   6.184  1.00  0.00     0.213 HD
ENDBRANCH   6  12
BRANCH   7  14
ATOM     14  C   UNL     1       6.189   6.715   5.392  1.00  0.00     0.177 C 
BRANCH  14  15
ATOM     15  C   UNL     1       5.712   7.385   4.089  1.00  0.00     0.038 C 
BRANCH  15  16
ATOM     16  C   UNL     1       6.314   6.937   2.738  1.00  0.00    -0.015 C 
ATOM     17  C   UNL     1       6.868   8.113   1.927  1.00  0.00     0.007 C 
ATOM     18  C   UNL     1       5.239   6.237   1.897  1.00  0.00     0.007 C 
ENDBRANCH  15  16
ENDBRANCH  14  15
BRANCH  14  19
ATOM     19  C   UNL     1       7.586   6.036   5.604  1.00  0.00     0.245 C 
ATOM     20  O   UNL     1       8.580   6.667   5.209  1.00  0.00    -0.272 OA
BRANCH  19  21
ATOM     21  N   UNL     1       7.753   4.753   6.094  1.00  0.00    -0.332 N 
ATOM     22  C   UNL     1       7.781   4.383   7.498  1.00  0.00     0.147 C 
BRANCH  21  23
ATOM     23  C   UNL     1       7.931   3.650   5.109  1.00  0.00     0.178 C 
BRANCH  23  24
ATOM     24  C   UNL     1       6.706   3.383   4.211  1.00  0.00     0.070 C 
BRANCH  24  25
ATOM     25  C   UNL     1       5.415   3.007   4.901  1.00  0.00    -0.045 A 
ATOM     26  C   UNL     1       5.379   1.968   5.839  1.00  0.00     0.004 A 
ATOM     27  C   UNL     1       4.228   3.695   4.605  1.00  0.00     0.004 A 
ATOM     28  C   UNL     1       4.179   1.616   6.460  1.00  0.00     0.000 A 
ATOM     29  C   UNL     1       3.030   3.342   5.227  1.00  0.00     0.000 A 
ATOM     30  C   UNL     1       3.006   2.301   6.152  1.00  0.00     0.000 A 
ENDBRANCH  24  25
ENDBRANCH  23  24
BRANCH  23  31
ATOM     31  C   UNL     1       9.284   3.720   4.362  1.00  0.00     0.243 C 
ATOM     32  O   UNL     1      10.370   3.854   4.919  1.00  0.00    -0.273 OA
ATOM     33  N   UNL     1       9.152   3.805   2.986  1.00  0.00    -0.341 N 
ATOM     34  H   UNL     1       8.220   3.692   2.580  1.00  0.00     0.164 HD
BRANCH  33  35
ATOM     35  C   UNL     1      10.291   4.000   2.085  1.00  0.00     0.194 C 
BRANCH  35  36
ATOM     36  C   UNL     1      10.222   5.307   1.246  1.00  0.00     0.017 C 
ATOM     37  C   UNL     1      10.312   6.553   2.144  1.00  0.00     0.010 C 
ATOM     38  C   UNL     1       8.935   5.428   0.421  1.00  0.00     0.010 C 
ENDBRANCH  35  36
BRANCH  35  39
ATOM     39  C   UNL     1      10.570   2.755   1.197  1.00  0.00     0.329 C 
ATOM     40  O   UNL     1       9.752   1.869   0.980  1.00  0.00    -0.250 OA
BRANCH  39  41
ATOM     41  O   UNL     1      11.805   2.800   0.612  1.00  0.00    -0.458 OA
BRANCH  41  42
ATOM     42  C   UNL     1      12.529   1.548   0.544  1.00  0.00     0.205 CG0
ATOM     43  C   UNL     1      13.034   1.238   1.951  1.00  0.00     0.056 C 
ATOM     44  G   UNL     1      13.676   1.697  -0.475  1.00  0.00     0.000 G0
ENDBRANCH  41  42
ENDBRANCH  39  41
ENDBRANCH  35  39
ENDBRANCH  33  35
ENDBRANCH  23  31
ENDBRANCH  21  23
ENDBRANCH  19  21
ENDBRANCH  14  19
ENDBRANCH   7  14
ENDBRANCH   2   5
BRANCH   3  45
ATOM     45  C   UNL     1       0.383   9.293   8.000  1.00  0.00     0.171 C 
BRANCH  45  46
ATOM     46  N   UNL     1       0.008  10.053   9.185  1.00  0.00    -0.342 N 
ATOM     47  C   UNL     1       0.649  11.209   9.552  1.00  0.00     0.247 C 
ATOM     48  O   UNL     1       1.535  11.727   8.870  1.00  0.00    -0.273 OA
ATOM     49  H   UNL     1      -0.759   9.689   9.748  1.00  0.00     0.164 HD
BRANCH  47  50
ATOM     50  C   UNL     1       0.201  11.804  10.894  1.00  0.00     0.212 CG0
ATOM     51  G   UNL     1      -0.650  13.053  10.592  1.00  0.00     0.000 G0
BRANCH  50  52
ATOM     52  N   UNL     1      -0.549  10.742  11.559  1.00  0.00    -0.339 N 
ATOM     53  C   UNL     1      -1.605  10.978  12.406  1.00  0.00     0.243 C 
ATOM     54  O   UNL     1      -1.967  12.111  12.712  1.00  0.00    -0.273 OA
ATOM     55  H   UNL     1      -0.227   9.784  11.433  1.00  0.00     0.164 HD
BRANCH  53  56
ATOM     56  C   UNL     1      -2.185   9.706  13.057  1.00  0.00     0.182 C 
BRANCH  56  57
ATOM     57  N   UNL     1      -2.134   8.571  12.130  1.00  0.00    -0.344 N 
ATOM     58  C   UNL     1      -1.093   7.676  12.118  1.00  0.00     0.220 C 
ATOM     59  O   UNL     1      -0.100   7.803  12.827  1.00  0.00    -0.275 OA
ATOM     60  H   UNL     1      -2.979   8.372  11.599  1.00  0.00     0.164 HD
BRANCH  58  61
ATOM     61  C   UNL     1      -1.279   6.549  11.118  1.00  0.00     0.100 C 
BRANCH  61  62
ATOM     62  C   UNL     1      -2.731   6.097  10.962  1.00  0.00     0.010 C 
BRANCH  62  63
ATOM     63  C   UNL     1      -3.134   4.948  11.895  1.00  0.00     0.000 C 
BRANCH  63  64
ATOM     64  C   UNL     1      -3.999   3.877  11.232  1.00  0.00    -0.003 C 
ATOM     65  C   UNL     1      -3.633   3.697   9.766  1.00  0.00     0.004 C 
ENDBRANCH  63  64
ENDBRANCH  62  63
ENDBRANCH  61  62
ENDBRANCH  58  61
ENDBRANCH  56  57
BRANCH  56  66
ATOM     66  C   UNL     1      -3.593   9.946  13.599  1.00  0.00     0.157 C 
BRANCH  66  67
ATOM     67  C   UNL     1      -4.574  10.169  12.484  1.00  0.00     0.305 C 
ATOM     68  O   UNL     1      -4.995   9.332  11.700  1.00  0.00    -0.252 OA
BRANCH  67  69
ATOM     69  O   UNL     1      -5.021  11.438  12.443  1.00  0.00    -0.481 OA
ATOM     70  H   UNL     1      -4.254  11.983  12.719  1.00  0.00     0.296 HD
ENDBRANCH  67  69
ENDBRANCH  66  67
ENDBRANCH  56  66
ENDBRANCH  53  56
ENDBRANCH  50  52
ENDBRANCH  47  50
ENDBRANCH  45  46
BRANCH  45  71
ATOM     71  C   UNL     1      -0.777   8.430   7.491  1.00  0.00     0.037 C 
BRANCH  71  72
ATOM     72  C   UNL     1      -2.073   8.696   8.260  1.00  0.00     0.026 C 
BRANCH  72  73
ATOM     73  C   UNL     1      -3.012   9.611   7.475  1.00  0.00     0.146 C 
BRANCH  73  74
ATOM     74  N   UNL     1      -2.512  10.977   7.599  1.00  0.00    -0.254 NA
ATOM     75  C   UNL     1      -2.954  11.691   8.567  1.00  0.00     0.185 C 
ATOM     76  N   UNL     1      -2.512  12.951   8.708  1.00  0.00    -0.370 N 
ATOM     77  N   UNL     1      -3.842  11.363   9.522  1.00  0.00    -0.370 N 
ATOM     78  H   UNL     1      -1.846  13.281   8.025  1.00  0.00     0.159 HD
ATOM     79  H   UNL     1      -2.917  13.611   9.348  1.00  0.00     0.159 HD
ATOM     80  H   UNL     1      -4.256  10.443   9.545  1.00  0.00     0.159 HD
ATOM     81  H   UNL     1      -4.027  11.971  10.303  1.00  0.00     0.159 HD
ENDBRANCH  73  74
ENDBRANCH  72  73
ENDBRANCH  71  72
ENDBRANCH  45  71
ENDBRANCH   3  45
TORSDOF 20
ENDMDL
MODEL 36
REMARK VINA RESULT:    -5.173      7.690     10.741
REMARK INTER + INTRA:         -22.002
REMARK INTER:                 -15.442
REMARK INTRA:                  -6.560
REMARK UNBOUND:                -7.151
REMARK SMILES CCCCCC(=O)N[C@H](CC(=O)O)C(=O)N[C@H]1C(=O)N[C@H](CCCN=C(N)N)C(=O)N[C@@H]2CC[C@H](O)N(C2=O)[C@@H](CC(C)C)C(=O)N(C)[C@@H](Cc2ccccc2)C(=O)N[C@H](C(C)C)C(=O)O[C@@H]1C
REMARK SMILES IDX 30 1 31 2 29 3 32 5 35 6 37 7 34 8 38 9 33 10 39 11 36 12
REMARK SMILES IDX 40 14 41 15 42 16 43 17 44 18 45 19 46 20 47 21 48 22 49 23
REMARK SMILES IDX 50 24 51 25 52 26 56 27 53 28 55 29 54 30 57 31 58 32 59 33
REMARK SMILES IDX 60 35 61 36 62 37 63 38 64 39 65 40 66 41 67 42 68 43 21 45
REMARK SMILES IDX 20 46 18 47 19 48 17 50 16 52 14 53 15 54 9 56 8 57 6 58
REMARK SMILES IDX 7 59 5 61 4 62 3 63 2 64 1 65 10 66 11 67 12 68 13 69 22 71
REMARK SMILES IDX 23 72 24 73 25 74 26 75 27 76 28 77
REMARK H PARENT 31 4 36 13 59 34 20 49 16 55 8 60 13 70 27 78 27 79 28 80
REMARK H PARENT 28 81
REMARK Flexibility Score:  259.900
ROOT
ATOM      1  O   UNL     1      -1.056  -0.224  13.238  1.00  0.00    -0.273 OA
ATOM      2  N   UNL     1      -1.480  -0.598  11.022  1.00  0.00    -0.343 N 
ATOM      3  C   UNL     1      -1.819  -0.624  12.358  1.00  0.00     0.243 C 
ATOM      4  H   UNL     1      -2.139  -0.922  10.324  1.00  0.00     0.164 HD
ENDROOT
BRANCH   2   5
ATOM      5  C   UNL     1      -0.141  -0.201  10.603  1.00  0.00     0.171 C 
ATOM      6  C   UNL     1       1.045   0.265   7.999  1.00  0.00     0.214 C 
ATOM      7  N   UNL     1       1.116  -1.052   8.586  1.00  0.00    -0.303 N 
ATOM      8  C   UNL     1       1.018   1.383   9.030  1.00  0.00     0.057 C 
ATOM      9  C   UNL     1       0.526  -1.356   9.803  1.00  0.00     0.247 C 
ATOM     10  C   UNL     1      -0.155   1.188   9.966  1.00  0.00     0.040 C 
ATOM     11  O   UNL     1       0.516  -2.507  10.258  1.00  0.00    -0.272 OA
BRANCH   6  12
ATOM     12  O   UNL     1      -0.106   0.315   7.189  1.00  0.00    -0.373 OA
ATOM     13  H   UNL     1      -0.392  -0.611   7.039  1.00  0.00     0.213 HD
ENDBRANCH   6  12
BRANCH   7  14
ATOM     14  C   UNL     1       1.722  -2.121   7.764  1.00  0.00     0.177 C 
BRANCH  14  15
ATOM     15  C   UNL     1       0.844  -2.637   6.607  1.00  0.00     0.038 C 
BRANCH  15  16
ATOM     16  C   UNL     1      -0.449  -3.421   6.923  1.00  0.00    -0.015 C 
ATOM     17  C   UNL     1      -0.165  -4.856   7.375  1.00  0.00     0.007 C 
ATOM     18  C   UNL     1      -1.340  -3.477   5.676  1.00  0.00     0.007 C 
ENDBRANCH  15  16
ENDBRANCH  14  15
BRANCH  14  19
ATOM     19  C   UNL     1       3.279  -1.951   7.715  1.00  0.00     0.245 C 
ATOM     20  O   UNL     1       3.835  -1.583   8.763  1.00  0.00    -0.272 OA
BRANCH  19  21
ATOM     21  N   UNL     1       4.033  -2.078   6.561  1.00  0.00    -0.332 N 
ATOM     22  C   UNL     1       4.268  -1.026   5.588  1.00  0.00     0.147 C 
BRANCH  21  23
ATOM     23  C   UNL     1       4.652  -3.402   6.276  1.00  0.00     0.178 C 
BRANCH  23  24
ATOM     24  C   UNL     1       3.802  -4.334   5.388  1.00  0.00     0.070 C 
BRANCH  24  25
ATOM     25  C   UNL     1       3.363  -5.648   5.992  1.00  0.00    -0.045 A 
ATOM     26  C   UNL     1       2.995  -6.725   5.176  1.00  0.00     0.004 A 
ATOM     27  C   UNL     1       3.312  -5.805   7.385  1.00  0.00     0.004 A 
ATOM     28  C   UNL     1       2.575  -7.931   5.741  1.00  0.00     0.000 A 
ATOM     29  C   UNL     1       2.893  -7.010   7.949  1.00  0.00     0.000 A 
ATOM     30  C   UNL     1       2.521  -8.072   7.126  1.00  0.00     0.000 A 
ENDBRANCH  24  25
ENDBRANCH  23  24
BRANCH  23  31
ATOM     31  C   UNL     1       6.142  -3.298   5.872  1.00  0.00     0.243 C 
ATOM     32  O   UNL     1       7.028  -2.887   6.616  1.00  0.00    -0.273 OA
ATOM     33  N   UNL     1       6.367  -3.534   4.526  1.00  0.00    -0.341 N 
ATOM     34  H   UNL     1       5.588  -3.868   3.955  1.00  0.00     0.164 HD
BRANCH  33  35
ATOM     35  C   UNL     1       7.681  -3.375   3.897  1.00  0.00     0.194 C 
BRANCH  35  36
ATOM     36  C   UNL     1       7.996  -1.922   3.442  1.00  0.00     0.017 C 
ATOM     37  C   UNL     1       6.784  -1.279   2.745  1.00  0.00     0.010 C 
ATOM     38  C   UNL     1       9.181  -1.835   2.473  1.00  0.00     0.010 C 
ENDBRANCH  35  36
BRANCH  35  39
ATOM     39  C   UNL     1       7.928  -4.405   2.759  1.00  0.00     0.329 C 
ATOM     40  O   UNL     1       8.907  -5.139   2.699  1.00  0.00    -0.250 OA
BRANCH  39  41
ATOM     41  O   UNL     1       6.886  -4.464   1.876  1.00  0.00    -0.458 OA
BRANCH  41  42
ATOM     42  C   UNL     1       7.234  -4.442   0.471  1.00  0.00     0.205 CG0
ATOM     43  C   UNL     1       6.092  -5.112  -0.290  1.00  0.00     0.056 C 
ATOM     44  G   UNL     1       8.577  -5.175   0.286  1.00  0.00     0.000 G0
ENDBRANCH  41  42
ENDBRANCH  39  41
ENDBRANCH  35  39
ENDBRANCH  33  35
ENDBRANCH  23  31
ENDBRANCH  21  23
ENDBRANCH  19  21
ENDBRANCH  14  19
ENDBRANCH   7  14
ENDBRANCH   2   5
BRANCH   3  45
ATOM     45  C   UNL     1      -3.220  -1.165  12.670  1.00  0.00     0.171 C 
BRANCH  45  46
ATOM     46  N   UNL     1      -3.984  -0.024  13.156  1.00  0.00    -0.342 N 
ATOM     47  C   UNL     1      -4.979   0.565  12.416  1.00  0.00     0.247 C 
ATOM     48  O   UNL     1      -5.346   0.129  11.324  1.00  0.00    -0.273 OA
ATOM     49  H   UNL     1      -3.750   0.334  14.080  1.00  0.00     0.164 HD
BRANCH  47  50
ATOM     50  C   UNL     1      -5.587   1.831  13.035  1.00  0.00     0.212 CG0
ATOM     51  G   UNL     1      -6.219   1.433  14.384  1.00  0.00     0.000 G0
BRANCH  50  52
ATOM     52  N   UNL     1      -4.478   2.770  13.172  1.00  0.00    -0.339 N 
ATOM     53  C   UNL     1      -4.105   3.649  12.185  1.00  0.00     0.243 C 
ATOM     54  O   UNL     1      -4.648   3.676  11.083  1.00  0.00    -0.273 OA
ATOM     55  H   UNL     1      -3.917   2.720  14.021  1.00  0.00     0.164 HD
BRANCH  53  56
ATOM     56  C   UNL     1      -2.852   4.480  12.524  1.00  0.00     0.182 C 
BRANCH  56  57
ATOM     57  N   UNL     1      -3.221   5.795  13.060  1.00  0.00    -0.344 N 
ATOM     58  C   UNL     1      -3.470   6.001  14.395  1.00  0.00     0.220 C 
ATOM     59  O   UNL     1      -3.475   5.092  15.218  1.00  0.00    -0.275 OA
ATOM     60  H   UNL     1      -3.129   6.590  12.434  1.00  0.00     0.164 HD
BRANCH  58  61
ATOM     61  C   UNL     1      -3.776   7.449  14.733  1.00  0.00     0.100 C 
BRANCH  61  62
ATOM     62  C   UNL     1      -5.264   7.795  14.674  1.00  0.00     0.010 C 
BRANCH  62  63
ATOM     63  C   UNL     1      -5.577   9.092  13.918  1.00  0.00     0.000 C 
BRANCH  63  64
ATOM     64  C   UNL     1      -6.953   9.114  13.253  1.00  0.00    -0.003 C 
ATOM     65  C   UNL     1      -7.215  10.445  12.564  1.00  0.00     0.004 C 
ENDBRANCH  63  64
ENDBRANCH  62  63
ENDBRANCH  61  62
ENDBRANCH  58  61
ENDBRANCH  56  57
BRANCH  56  66
ATOM     66  C   UNL     1      -1.911   4.590  11.326  1.00  0.00     0.157 C 
BRANCH  66  67
ATOM     67  C   UNL     1      -1.759   6.017  10.882  1.00  0.00     0.305 C 
ATOM     68  O   UNL     1      -2.540   6.657  10.194  1.00  0.00    -0.252 OA
BRANCH  67  69
ATOM     69  O   UNL     1      -0.645   6.590  11.374  1.00  0.00    -0.481 OA
ATOM     70  H   UNL     1      -0.932   7.023  12.205  1.00  0.00     0.296 HD
ENDBRANCH  67  69
ENDBRANCH  66  67
ENDBRANCH  56  66
ENDBRANCH  53  56
ENDBRANCH  50  52
ENDBRANCH  47  50
ENDBRANCH  45  46
BRANCH  45  71
ATOM     71  C   UNL     1      -3.140  -2.280  13.720  1.00  0.00     0.037 C 
BRANCH  71  72
ATOM     72  C   UNL     1      -2.465  -3.540  13.171  1.00  0.00     0.026 C 
BRANCH  72  73
ATOM     73  C   UNL     1      -1.293  -3.974  14.048  1.00  0.00     0.146 C 
BRANCH  73  74
ATOM     74  N   UNL     1      -0.067  -3.793  13.277  1.00  0.00    -0.254 NA
ATOM     75  C   UNL     1       0.756  -2.889  13.664  1.00  0.00     0.185 C 
ATOM     76  N   UNL     1       1.893  -2.700  12.975  1.00  0.00    -0.370 N 
ATOM     77  N   UNL     1       0.660  -2.050  14.710  1.00  0.00    -0.370 N 
ATOM     78  H   UNL     1       2.042  -3.286  12.167  1.00  0.00     0.159 HD
ATOM     79  H   UNL     1       2.511  -1.922  13.130  1.00  0.00     0.159 HD
ATOM     80  H   UNL     1      -0.143  -2.081  15.321  1.00  0.00     0.159 HD
ATOM     81  H   UNL     1       1.426  -1.458  14.985  1.00  0.00     0.159 HD
ENDBRANCH  73  74
ENDBRANCH  72  73
ENDBRANCH  71  72
ENDBRANCH  45  71
ENDBRANCH   3  45
TORSDOF 20
ENDMDL
MODEL 37
REMARK VINA RESULT:    -5.163      3.234     13.978
REMARK INTER + INTRA:         -21.971
REMARK INTER:                 -15.979
REMARK INTRA:                  -5.992
REMARK UNBOUND:                -7.151
REMARK SMILES CCCCCC(=O)N[C@H](CC(=O)O)C(=O)N[C@H]1C(=O)N[C@H](CCCN=C(N)N)C(=O)N[C@@H]2CC[C@H](O)N(C2=O)[C@@H](CC(C)C)C(=O)N(C)[C@@H](Cc2ccccc2)C(=O)N[C@H](C(C)C)C(=O)O[C@@H]1C
REMARK SMILES IDX 30 1 31 2 29 3 32 5 35 6 37 7 34 8 38 9 33 10 39 11 36 12
REMARK SMILES IDX 40 14 41 15 42 16 43 17 44 18 45 19 46 20 47 21 48 22 49 23
REMARK SMILES IDX 50 24 51 25 52 26 56 27 53 28 55 29 54 30 57 31 58 32 59 33
REMARK SMILES IDX 60 35 61 36 62 37 63 38 64 39 65 40 66 41 67 42 68 43 21 45
REMARK SMILES IDX 20 46 18 47 19 48 17 50 16 52 14 53 15 54 9 56 8 57 6 58
REMARK SMILES IDX 7 59 5 61 4 62 3 63 2 64 1 65 10 66 11 67 12 68 13 69 22 71
REMARK SMILES IDX 23 72 24 73 25 74 26 75 27 76 28 77
REMARK H PARENT 31 4 36 13 59 34 20 49 16 55 8 60 13 70 27 78 27 79 28 80
REMARK H PARENT 28 81
REMARK Flexibility Score:  259.900
ROOT
ATOM      1  O   UNL     1       7.007   5.823   5.973  1.00  0.00    -0.273 OA
ATOM      2  N   UNL     1       4.846   5.735   5.230  1.00  0.00    -0.343 N 
ATOM      3  C   UNL     1       6.208   5.822   5.036  1.00  0.00     0.243 C 
ATOM      4  H   UNL     1       4.219   5.722   4.435  1.00  0.00     0.164 HD
ENDROOT
BRANCH   2   5
ATOM      5  C   UNL     1       4.285   5.759   6.576  1.00  0.00     0.171 C 
ATOM      6  C   UNL     1       1.562   5.849   7.568  1.00  0.00     0.214 C 
ATOM      7  N   UNL     1       2.276   7.084   7.340  1.00  0.00    -0.303 N 
ATOM      8  C   UNL     1       2.469   4.690   7.949  1.00  0.00     0.057 C 
ATOM      9  C   UNL     1       3.560   7.114   6.821  1.00  0.00     0.247 C 
ATOM     10  C   UNL     1       3.509   4.477   6.870  1.00  0.00     0.040 C 
ATOM     11  O   UNL     1       4.132   8.177   6.548  1.00  0.00    -0.272 OA
BRANCH   6  12
ATOM     12  O   UNL     1       0.843   5.546   6.395  1.00  0.00    -0.373 OA
ATOM     13  H   UNL     1       0.444   4.659   6.523  1.00  0.00     0.213 HD
ENDBRANCH   6  12
BRANCH   7  14
ATOM     14  C   UNL     1       1.526   8.340   7.548  1.00  0.00     0.177 C 
BRANCH  14  15
ATOM     15  C   UNL     1       0.648   8.784   6.361  1.00  0.00     0.038 C 
BRANCH  15  16
ATOM     16  C   UNL     1       1.111   9.958   5.470  1.00  0.00    -0.015 C 
ATOM     17  C   UNL     1       1.825   9.482   4.201  1.00  0.00     0.007 C 
ATOM     18  C   UNL     1       2.075  10.857   6.255  1.00  0.00     0.007 C 
ENDBRANCH  15  16
ENDBRANCH  14  15
BRANCH  14  19
ATOM     19  C   UNL     1       1.156   8.509   9.062  1.00  0.00     0.245 C 
ATOM     20  O   UNL     1       2.102   8.635   9.858  1.00  0.00    -0.272 OA
BRANCH  19  21
ATOM     21  N   UNL     1      -0.132   8.414   9.557  1.00  0.00    -0.332 N 
ATOM     22  C   UNL     1      -0.767   7.196  10.027  1.00  0.00     0.147 C 
BRANCH  21  23
ATOM     23  C   UNL     1      -0.952   9.657   9.606  1.00  0.00     0.178 C 
BRANCH  23  24
ATOM     24  C   UNL     1      -2.165   9.668   8.652  1.00  0.00     0.070 C 
BRANCH  24  25
ATOM     25  C   UNL     1      -2.289  10.842   7.710  1.00  0.00    -0.045 A 
ATOM     26  C   UNL     1      -1.257  11.783   7.596  1.00  0.00     0.004 A 
ATOM     27  C   UNL     1      -3.448  11.010   6.937  1.00  0.00     0.004 A 
ATOM     28  C   UNL     1      -1.386  12.875   6.735  1.00  0.00     0.000 A 
ATOM     29  C   UNL     1      -3.575  12.102   6.077  1.00  0.00     0.000 A 
ATOM     30  C   UNL     1      -2.545  13.035   5.979  1.00  0.00     0.000 A 
ENDBRANCH  24  25
ENDBRANCH  23  24
BRANCH  23  31
ATOM     31  C   UNL     1      -1.254  10.124  11.049  1.00  0.00     0.243 C 
ATOM     32  O   UNL     1      -0.396  10.499  11.844  1.00  0.00    -0.273 OA
ATOM     33  N   UNL     1      -2.565   9.908  11.438  1.00  0.00    -0.341 N 
ATOM     34  H   UNL     1      -3.234   9.588  10.733  1.00  0.00     0.164 HD
BRANCH  33  35
ATOM     35  C   UNL     1      -3.048  10.163  12.798  1.00  0.00     0.194 C 
BRANCH  35  36
ATOM     36  C   UNL     1      -3.271   8.878  13.644  1.00  0.00     0.017 C 
ATOM     37  C   UNL     1      -1.955   8.386  14.271  1.00  0.00     0.010 C 
ATOM     38  C   UNL     1      -3.857   7.715  12.834  1.00  0.00     0.010 C 
ENDBRANCH  35  36
BRANCH  35  39
ATOM     39  C   UNL     1      -4.289  11.099  12.826  1.00  0.00     0.329 C 
ATOM     40  O   UNL     1      -4.404  12.062  13.575  1.00  0.00    -0.250 OA
BRANCH  39  41
ATOM     41  O   UNL     1      -5.203  10.780  11.861  1.00  0.00    -0.458 OA
BRANCH  41  42
ATOM     42  C   UNL     1      -6.573  11.166  12.122  1.00  0.00     0.205 CG0
ATOM     43  C   UNL     1      -7.350   9.892  12.450  1.00  0.00     0.056 C 
ATOM     44  G   UNL     1      -7.126  11.890  10.879  1.00  0.00     0.000 G0
ENDBRANCH  41  42
ENDBRANCH  39  41
ENDBRANCH  35  39
ENDBRANCH  33  35
ENDBRANCH  23  31
ENDBRANCH  21  23
ENDBRANCH  19  21
ENDBRANCH  14  19
ENDBRANCH   7  14
ENDBRANCH   2   5
BRANCH   3  45
ATOM     45  C   UNL     1       6.660   5.897   3.572  1.00  0.00     0.171 C 
BRANCH  45  46
ATOM     46  N   UNL     1       8.084   5.591   3.583  1.00  0.00    -0.342 N 
ATOM     47  C   UNL     1       8.566   4.321   3.388  1.00  0.00     0.247 C 
ATOM     48  O   UNL     1       7.840   3.364   3.118  1.00  0.00    -0.273 OA
ATOM     49  H   UNL     1       8.725   6.365   3.747  1.00  0.00     0.164 HD
BRANCH  47  50
ATOM     50  C   UNL     1      10.085   4.169   3.558  1.00  0.00     0.212 CG0
ATOM     51  G   UNL     1      10.554   3.060   2.596  1.00  0.00     0.000 G0
BRANCH  50  52
ATOM     52  N   UNL     1      10.645   5.481   3.245  1.00  0.00    -0.339 N 
ATOM     53  C   UNL     1      11.978   5.785   3.378  1.00  0.00     0.243 C 
ATOM     54  O   UNL     1      12.797   4.987   3.825  1.00  0.00    -0.273 OA
ATOM     55  H   UNL     1       9.998   6.219   2.975  1.00  0.00     0.164 HD
BRANCH  53  56
ATOM     56  C   UNL     1      12.320   7.256   3.070  1.00  0.00     0.182 C 
BRANCH  56  57
ATOM     57  N   UNL     1      12.977   7.895   4.216  1.00  0.00    -0.344 N 
ATOM     58  C   UNL     1      14.261   8.379   4.152  1.00  0.00     0.220 C 
ATOM     59  O   UNL     1      14.971   8.247   3.161  1.00  0.00    -0.275 OA
ATOM     60  H   UNL     1      12.393   8.114   5.018  1.00  0.00     0.164 HD
BRANCH  58  61
ATOM     61  C   UNL     1      14.715   9.051   5.435  1.00  0.00     0.100 C 
BRANCH  61  62
ATOM     62  C   UNL     1      15.297   8.082   6.464  1.00  0.00     0.010 C 
BRANCH  62  63
ATOM     63  C   UNL     1      15.824   8.761   7.736  1.00  0.00     0.000 C 
BRANCH  63  64
ATOM     64  C   UNL     1      17.205   8.279   8.177  1.00  0.00    -0.003 C 
ATOM     65  C   UNL     1      18.000   9.399   8.832  1.00  0.00     0.004 C 
ENDBRANCH  63  64
ENDBRANCH  62  63
ENDBRANCH  61  62
ENDBRANCH  58  61
ENDBRANCH  56  57
BRANCH  56  66
ATOM     66  C   UNL     1      11.089   8.032   2.606  1.00  0.00     0.157 C 
BRANCH  66  67
ATOM     67  C   UNL     1      10.517   8.862   3.719  1.00  0.00     0.305 C 
ATOM     68  O   UNL     1      10.677  10.060   3.897  1.00  0.00    -0.252 OA
BRANCH  67  69
ATOM     69  O   UNL     1       9.720   8.145   4.534  1.00  0.00    -0.481 OA
ATOM     70  H   UNL     1       9.600   8.710   5.327  1.00  0.00     0.296 HD
ENDBRANCH  67  69
ENDBRANCH  66  67
ENDBRANCH  56  66
ENDBRANCH  53  56
ENDBRANCH  50  52
ENDBRANCH  47  50
ENDBRANCH  45  46
BRANCH  45  71
ATOM     71  C   UNL     1       6.385   7.291   2.998  1.00  0.00     0.037 C 
BRANCH  71  72
ATOM     72  C   UNL     1       5.567   7.232   1.706  1.00  0.00     0.026 C 
BRANCH  72  73
ATOM     73  C   UNL     1       4.081   7.463   1.973  1.00  0.00     0.146 C 
BRANCH  73  74
ATOM     74  N   UNL     1       3.696   8.705   1.309  1.00  0.00    -0.254 NA
ATOM     75  C   UNL     1       2.571   8.732   0.694  1.00  0.00     0.185 C 
ATOM     76  N   UNL     1       2.188   9.860   0.075  1.00  0.00    -0.370 N 
ATOM     77  N   UNL     1       1.657   7.755   0.562  1.00  0.00    -0.370 N 
ATOM     78  H   UNL     1       2.823  10.644   0.120  1.00  0.00     0.159 HD
ATOM     79  H   UNL     1       1.398   9.912  -0.542  1.00  0.00     0.159 HD
ATOM     80  H   UNL     1       1.809   6.849   0.980  1.00  0.00     0.159 HD
ATOM     81  H   UNL     1       0.754   7.928   0.152  1.00  0.00     0.159 HD
ENDBRANCH  73  74
ENDBRANCH  72  73
ENDBRANCH  71  72
ENDBRANCH  45  71
ENDBRANCH   3  45
TORSDOF 20
ENDMDL
MODEL 38
REMARK VINA RESULT:    -5.160     11.139     13.729
REMARK INTER + INTRA:         -21.965
REMARK INTER:                 -16.905
REMARK INTRA:                  -5.060
REMARK UNBOUND:                -7.151
REMARK SMILES CCCCCC(=O)N[C@H](CC(=O)O)C(=O)N[C@H]1C(=O)N[C@H](CCCN=C(N)N)C(=O)N[C@@H]2CC[C@H](O)N(C2=O)[C@@H](CC(C)C)C(=O)N(C)[C@@H](Cc2ccccc2)C(=O)N[C@H](C(C)C)C(=O)O[C@@H]1C
REMARK SMILES IDX 30 1 31 2 29 3 32 5 35 6 37 7 34 8 38 9 33 10 39 11 36 12
REMARK SMILES IDX 40 14 41 15 42 16 43 17 44 18 45 19 46 20 47 21 48 22 49 23
REMARK SMILES IDX 50 24 51 25 52 26 56 27 53 28 55 29 54 30 57 31 58 32 59 33
REMARK SMILES IDX 60 35 61 36 62 37 63 38 64 39 65 40 66 41 67 42 68 43 21 45
REMARK SMILES IDX 20 46 18 47 19 48 17 50 16 52 14 53 15 54 9 56 8 57 6 58
REMARK SMILES IDX 7 59 5 61 4 62 3 63 2 64 1 65 10 66 11 67 12 68 13 69 22 71
REMARK SMILES IDX 23 72 24 73 25 74 26 75 27 76 28 77
REMARK H PARENT 31 4 36 13 59 34 20 49 16 55 8 60 13 70 27 78 27 79 28 80
REMARK H PARENT 28 81
REMARK Flexibility Score:  259.900
ROOT
ATOM      1  O   UNL     1      -3.565  -0.669   7.559  1.00  0.00    -0.273 OA
ATOM      2  N   UNL     1      -2.539  -0.575   5.518  1.00  0.00    -0.343 N 
ATOM      3  C   UNL     1      -3.021  -0.005   6.676  1.00  0.00     0.243 C 
ATOM      4  H   UNL     1      -2.084  -0.000   4.819  1.00  0.00     0.164 HD
ENDROOT
BRANCH   2   5
ATOM      5  C   UNL     1      -2.764  -1.989   5.236  1.00  0.00     0.171 C 
ATOM      6  C   UNL     1      -1.731  -3.775   3.199  1.00  0.00     0.214 C 
ATOM      7  N   UNL     1      -2.958  -3.053   2.956  1.00  0.00    -0.303 N 
ATOM      8  C   UNL     1      -1.498  -4.087   4.669  1.00  0.00     0.057 C 
ATOM      9  C   UNL     1      -3.480  -2.147   3.864  1.00  0.00     0.247 C 
ATOM     10  C   UNL     1      -1.492  -2.803   5.471  1.00  0.00     0.040 C 
ATOM     11  O   UNL     1      -4.484  -1.469   3.612  1.00  0.00    -0.272 OA
BRANCH   6  12
ATOM     12  O   UNL     1      -0.669  -3.004   2.685  1.00  0.00    -0.373 OA
ATOM     13  H   UNL     1      -1.059  -2.174   2.336  1.00  0.00     0.213 HD
ENDBRANCH   6  12
BRANCH   7  14
ATOM     14  C   UNL     1      -3.573  -3.208   1.620  1.00  0.00     0.177 C 
BRANCH  14  15
ATOM     15  C   UNL     1      -2.658  -2.852   0.432  1.00  0.00     0.038 C 
BRANCH  15  16
ATOM     16  C   UNL     1      -2.731  -1.438  -0.188  1.00  0.00    -0.015 C 
ATOM     17  C   UNL     1      -3.593  -1.399  -1.453  1.00  0.00     0.007 C 
ATOM     18  C   UNL     1      -1.320  -0.959  -0.553  1.00  0.00     0.007 C 
ENDBRANCH  15  16
ENDBRANCH  14  15
BRANCH  14  19
ATOM     19  C   UNL     1      -4.627  -4.368   1.637  1.00  0.00     0.245 C 
ATOM     20  O   UNL     1      -5.739  -4.106   2.126  1.00  0.00    -0.272 OA
BRANCH  19  21
ATOM     21  N   UNL     1      -4.350  -5.667   1.250  1.00  0.00    -0.332 N 
ATOM     22  C   UNL     1      -3.587  -6.632   2.020  1.00  0.00     0.147 C 
BRANCH  21  23
ATOM     23  C   UNL     1      -4.864  -6.123  -0.072  1.00  0.00     0.178 C 
BRANCH  23  24
ATOM     24  C   UNL     1      -3.801  -6.193  -1.188  1.00  0.00     0.070 C 
BRANCH  24  25
ATOM     25  C   UNL     1      -4.072  -5.401  -2.446  1.00  0.00    -0.045 A 
ATOM     26  C   UNL     1      -3.183  -5.446  -3.527  1.00  0.00     0.004 A 
ATOM     27  C   UNL     1      -5.221  -4.602  -2.546  1.00  0.00     0.004 A 
ATOM     28  C   UNL     1      -3.431  -4.698  -4.680  1.00  0.00     0.000 A 
ATOM     29  C   UNL     1      -5.468  -3.855  -3.699  1.00  0.00     0.000 A 
ATOM     30  C   UNL     1      -4.572  -3.902  -4.764  1.00  0.00     0.000 A 
ENDBRANCH  24  25
ENDBRANCH  23  24
BRANCH  23  31
ATOM     31  C   UNL     1      -5.781  -7.364   0.033  1.00  0.00     0.243 C 
ATOM     32  O   UNL     1      -6.849  -7.380   0.641  1.00  0.00    -0.273 OA
ATOM     33  N   UNL     1      -5.206  -8.521  -0.465  1.00  0.00    -0.341 N 
ATOM     34  H   UNL     1      -4.312  -8.445  -0.956  1.00  0.00     0.164 HD
BRANCH  33  35
ATOM     35  C   UNL     1      -5.843  -9.837  -0.364  1.00  0.00     0.194 C 
BRANCH  35  36
ATOM     36  C   UNL     1      -5.116 -10.822   0.594  1.00  0.00     0.017 C 
ATOM     37  C   UNL     1      -5.930 -12.113   0.792  1.00  0.00     0.010 C 
ATOM     38  C   UNL     1      -4.851 -10.229   1.983  1.00  0.00     0.010 C 
ENDBRANCH  35  36
BRANCH  35  39
ATOM     39  C   UNL     1      -6.118 -10.476  -1.754  1.00  0.00     0.329 C 
ATOM     40  O   UNL     1      -7.229 -10.813  -2.147  1.00  0.00    -0.250 OA
BRANCH  39  41
ATOM     41  O   UNL     1      -4.993 -10.542  -2.528  1.00  0.00    -0.458 OA
BRANCH  41  42
ATOM     42  C   UNL     1      -4.993 -11.540  -3.577  1.00  0.00     0.205 CG0
ATOM     43  C   UNL     1      -3.548 -11.996  -3.770  1.00  0.00     0.056 C 
ATOM     44  G   UNL     1      -5.588 -10.912  -4.853  1.00  0.00     0.000 G0
ENDBRANCH  41  42
ENDBRANCH  39  41
ENDBRANCH  35  39
ENDBRANCH  33  35
ENDBRANCH  23  31
ENDBRANCH  21  23
ENDBRANCH  19  21
ENDBRANCH  14  19
ENDBRANCH   7  14
ENDBRANCH   2   5
BRANCH   3  45
ATOM     45  C   UNL     1      -2.814   1.510   6.798  1.00  0.00     0.171 C 
BRANCH  45  46
ATOM     46  N   UNL     1      -3.418   1.889   8.069  1.00  0.00    -0.342 N 
ATOM     47  C   UNL     1      -2.730   2.579   9.035  1.00  0.00     0.247 C 
ATOM     48  O   UNL     1      -1.581   2.991   8.871  1.00  0.00    -0.273 OA
ATOM     49  H   UNL     1      -4.387   1.617   8.223  1.00  0.00     0.164 HD
BRANCH  47  50
ATOM     50  C   UNL     1      -3.487   2.780  10.355  1.00  0.00     0.212 CG0
ATOM     51  G   UNL     1      -2.855   1.844  11.404  1.00  0.00     0.000 G0
BRANCH  50  52
ATOM     52  N   UNL     1      -3.336   4.196  10.679  1.00  0.00    -0.339 N 
ATOM     53  C   UNL     1      -2.956   4.651  11.918  1.00  0.00     0.243 C 
ATOM     54  O   UNL     1      -2.765   3.899  12.870  1.00  0.00    -0.273 OA
ATOM     55  H   UNL     1      -3.588   4.875   9.963  1.00  0.00     0.164 HD
BRANCH  53  56
ATOM     56  C   UNL     1      -2.949   6.188  12.047  1.00  0.00     0.182 C 
BRANCH  56  57
ATOM     57  N   UNL     1      -4.110   6.658  12.809  1.00  0.00    -0.344 N 
ATOM     58  C   UNL     1      -4.031   6.997  14.138  1.00  0.00     0.220 C 
ATOM     59  O   UNL     1      -3.006   6.862  14.797  1.00  0.00    -0.275 OA
ATOM     60  H   UNL     1      -4.949   6.880  12.279  1.00  0.00     0.164 HD
BRANCH  58  61
ATOM     61  C   UNL     1      -5.340   7.513  14.706  1.00  0.00     0.100 C 
BRANCH  61  62
ATOM     62  C   UNL     1      -5.344   9.017  14.980  1.00  0.00     0.010 C 
BRANCH  62  63
ATOM     63  C   UNL     1      -5.952   9.859  13.850  1.00  0.00     0.000 C 
BRANCH  63  64
ATOM     64  C   UNL     1      -5.622  11.348  13.932  1.00  0.00    -0.003 C 
ATOM     65  C   UNL     1      -4.584  11.745  12.893  1.00  0.00     0.004 C 
ENDBRANCH  63  64
ENDBRANCH  62  63
ENDBRANCH  61  62
ENDBRANCH  58  61
ENDBRANCH  56  57
BRANCH  56  66
ATOM     66  C   UNL     1      -2.843   6.864  10.682  1.00  0.00     0.157 C 
BRANCH  66  67
ATOM     67  C   UNL     1      -3.811   8.006  10.564  1.00  0.00     0.305 C 
ATOM     68  O   UNL     1      -3.619   9.166  10.896  1.00  0.00    -0.252 OA
BRANCH  67  69
ATOM     69  O   UNL     1      -4.967   7.639   9.979  1.00  0.00    -0.481 OA
ATOM     70  H   UNL     1      -4.735   7.492   9.038  1.00  0.00     0.296 HD
ENDBRANCH  67  69
ENDBRANCH  66  67
ENDBRANCH  56  66
ENDBRANCH  53  56
ENDBRANCH  50  52
ENDBRANCH  47  50
ENDBRANCH  45  46
BRANCH  45  71
ATOM     71  C   UNL     1      -3.473   2.236   5.620  1.00  0.00     0.037 C 
BRANCH  71  72
ATOM     72  C   UNL     1      -4.018   3.609   6.022  1.00  0.00     0.026 C 
BRANCH  72  73
ATOM     73  C   UNL     1      -3.009   4.718   5.734  1.00  0.00     0.146 C 
BRANCH  73  74
ATOM     74  N   UNL     1      -3.620   5.989   6.112  1.00  0.00    -0.254 NA
ATOM     75  C   UNL     1      -2.931   6.795   6.832  1.00  0.00     0.185 C 
ATOM     76  N   UNL     1      -3.466   7.971   7.195  1.00  0.00    -0.370 N 
ATOM     77  N   UNL     1      -1.683   6.644   7.311  1.00  0.00    -0.370 N 
ATOM     78  H   UNL     1      -4.407   8.162   6.883  1.00  0.00     0.159 HD
ATOM     79  H   UNL     1      -3.047   8.585   7.872  1.00  0.00     0.159 HD
ATOM     80  H   UNL     1      -1.155   5.807   7.113  1.00  0.00     0.159 HD
ATOM     81  H   UNL     1      -1.199   7.398   7.770  1.00  0.00     0.159 HD
ENDBRANCH  73  74
ENDBRANCH  72  73
ENDBRANCH  71  72
ENDBRANCH  45  71
ENDBRANCH   3  45
TORSDOF 20
ENDMDL
MODEL 39
REMARK VINA RESULT:    -5.153      2.988     12.359
REMARK INTER + INTRA:         -21.944
REMARK INTER:                 -15.522
REMARK INTRA:                  -6.422
REMARK UNBOUND:                -7.151
REMARK SMILES CCCCCC(=O)N[C@H](CC(=O)O)C(=O)N[C@H]1C(=O)N[C@H](CCCN=C(N)N)C(=O)N[C@@H]2CC[C@H](O)N(C2=O)[C@@H](CC(C)C)C(=O)N(C)[C@@H](Cc2ccccc2)C(=O)N[C@H](C(C)C)C(=O)O[C@@H]1C
REMARK SMILES IDX 30 1 31 2 29 3 32 5 35 6 37 7 34 8 38 9 33 10 39 11 36 12
REMARK SMILES IDX 40 14 41 15 42 16 43 17 44 18 45 19 46 20 47 21 48 22 49 23
REMARK SMILES IDX 50 24 51 25 52 26 56 27 53 28 55 29 54 30 57 31 58 32 59 33
REMARK SMILES IDX 60 35 61 36 62 37 63 38 64 39 65 40 66 41 67 42 68 43 21 45
REMARK SMILES IDX 20 46 18 47 19 48 17 50 16 52 14 53 15 54 9 56 8 57 6 58
REMARK SMILES IDX 7 59 5 61 4 62 3 63 2 64 1 65 10 66 11 67 12 68 13 69 22 71
REMARK SMILES IDX 23 72 24 73 25 74 26 75 27 76 28 77
REMARK H PARENT 31 4 36 13 59 34 20 49 16 55 8 60 13 70 27 78 27 79 28 80
REMARK H PARENT 28 81
REMARK Flexibility Score:  259.900
ROOT
ATOM      1  O   UNL     1       5.496   5.266   7.559  1.00  0.00    -0.273 OA
ATOM      2  N   UNL     1       4.157   6.701   6.386  1.00  0.00    -0.343 N 
ATOM      3  C   UNL     1       5.383   6.235   6.809  1.00  0.00     0.243 C 
ATOM      4  H   UNL     1       4.103   7.493   5.757  1.00  0.00     0.164 HD
ENDROOT
BRANCH   2   5
ATOM      5  C   UNL     1       2.923   6.128   6.913  1.00  0.00     0.171 C 
ATOM      6  C   UNL     1       0.127   6.785   6.519  1.00  0.00     0.214 C 
ATOM      7  N   UNL     1       0.854   7.398   7.606  1.00  0.00    -0.303 N 
ATOM      8  C   UNL     1       0.637   5.399   6.160  1.00  0.00     0.057 C 
ATOM      9  C   UNL     1       2.204   7.168   7.819  1.00  0.00     0.247 C 
ATOM     10  C   UNL     1       2.106   5.470   5.802  1.00  0.00     0.040 C 
ATOM     11  O   UNL     1       2.840   7.763   8.699  1.00  0.00    -0.272 OA
BRANCH   6  12
ATOM     12  O   UNL     1       0.211   7.644   5.406  1.00  0.00    -0.373 OA
ATOM     13  H   UNL     1      -0.674   7.654   4.982  1.00  0.00     0.213 HD
ENDBRANCH   6  12
BRANCH   7  14
ATOM     14  C   UNL     1       0.134   8.410   8.408  1.00  0.00     0.177 C 
BRANCH  14  15
ATOM     15  C   UNL     1      -0.487   9.566   7.601  1.00  0.00     0.038 C 
BRANCH  15  16
ATOM     16  C   UNL     1       0.208  10.945   7.589  1.00  0.00    -0.015 C 
ATOM     17  C   UNL     1       1.637  10.874   7.042  1.00  0.00     0.007 C 
ATOM     18  C   UNL     1       0.267  11.510   9.014  1.00  0.00     0.007 C 
ENDBRANCH  15  16
ENDBRANCH  14  15
BRANCH  14  19
ATOM     19  C   UNL     1      -0.502   7.745   9.677  1.00  0.00     0.245 C 
ATOM     20  O   UNL     1      -0.030   8.076  10.778  1.00  0.00    -0.272 OA
BRANCH  19  21
ATOM     21  N   UNL     1      -1.460   6.748   9.627  1.00  0.00    -0.332 N 
ATOM     22  C   UNL     1      -1.244   5.353   9.968  1.00  0.00     0.147 C 
BRANCH  21  23
ATOM     23  C   UNL     1      -2.830   7.122   9.177  1.00  0.00     0.178 C 
BRANCH  23  24
ATOM     24  C   UNL     1      -3.829   5.949   9.109  1.00  0.00     0.070 C 
BRANCH  24  25
ATOM     25  C   UNL     1      -4.086   5.342   7.749  1.00  0.00    -0.045 A 
ATOM     26  C   UNL     1      -3.166   5.503   6.705  1.00  0.00     0.004 A 
ATOM     27  C   UNL     1      -5.259   4.610   7.511  1.00  0.00     0.004 A 
ATOM     28  C   UNL     1      -3.419   4.953   5.447  1.00  0.00     0.000 A 
ATOM     29  C   UNL     1      -5.510   4.061   6.253  1.00  0.00     0.000 A 
ATOM     30  C   UNL     1      -4.591   4.235   5.221  1.00  0.00     0.000 A 
ENDBRANCH  24  25
ENDBRANCH  23  24
BRANCH  23  31
ATOM     31  C   UNL     1      -3.367   8.396   9.871  1.00  0.00     0.243 C 
ATOM     32  O   UNL     1      -3.597   9.451   9.286  1.00  0.00    -0.273 OA
ATOM     33  N   UNL     1      -3.392   8.304  11.252  1.00  0.00    -0.341 N 
ATOM     34  H   UNL     1      -3.185   7.400  11.683  1.00  0.00     0.164 HD
BRANCH  33  35
ATOM     35  C   UNL     1      -3.751   9.429  12.121  1.00  0.00     0.194 C 
BRANCH  35  36
ATOM     36  C   UNL     1      -2.606   9.893  13.065  1.00  0.00     0.017 C 
ATOM     37  C   UNL     1      -1.580  10.760  12.315  1.00  0.00     0.010 C 
ATOM     38  C   UNL     1      -1.842   8.728  13.705  1.00  0.00     0.010 C 
ENDBRANCH  35  36
BRANCH  35  39
ATOM     39  C   UNL     1      -5.078   9.187  12.894  1.00  0.00     0.329 C 
ATOM     40  O   UNL     1      -5.497   8.079  13.210  1.00  0.00    -0.250 OA
BRANCH  39  41
ATOM     41  O   UNL     1      -5.687  10.356  13.260  1.00  0.00    -0.458 OA
BRANCH  41  42
ATOM     42  C   UNL     1      -7.132  10.377  13.185  1.00  0.00     0.205 CG0
ATOM     43  C   UNL     1      -7.515  11.354  12.076  1.00  0.00     0.056 C 
ATOM     44  G   UNL     1      -7.690  10.797  14.560  1.00  0.00     0.000 G0
ENDBRANCH  41  42
ENDBRANCH  39  41
ENDBRANCH  35  39
ENDBRANCH  33  35
ENDBRANCH  23  31
ENDBRANCH  21  23
ENDBRANCH  19  21
ENDBRANCH  14  19
ENDBRANCH   7  14
ENDBRANCH   2   5
BRANCH   3  45
ATOM     45  C   UNL     1       6.599   6.996   6.263  1.00  0.00     0.171 C 
BRANCH  45  46
ATOM     46  N   UNL     1       7.176   6.133   5.240  1.00  0.00    -0.342 N 
ATOM     47  C   UNL     1       7.974   6.617   4.234  1.00  0.00     0.247 C 
ATOM     48  O   UNL     1       8.319   7.797   4.163  1.00  0.00    -0.273 OA
ATOM     49  H   UNL     1       6.961   5.139   5.294  1.00  0.00     0.164 HD
BRANCH  47  50
ATOM     50  C   UNL     1       8.388   5.582   3.178  1.00  0.00     0.212 CG0
ATOM     51  G   UNL     1       9.840   5.161   3.480  1.00  0.00     0.000 G0
BRANCH  50  52
ATOM     52  N   UNL     1       7.430   4.487   3.310  1.00  0.00    -0.339 N 
ATOM     53  C   UNL     1       7.681   3.207   2.877  1.00  0.00     0.243 C 
ATOM     54  O   UNL     1       8.716   2.897   2.294  1.00  0.00    -0.273 OA
ATOM     55  H   UNL     1       6.510   4.706   3.685  1.00  0.00     0.164 HD
BRANCH  53  56
ATOM     56  C   UNL     1       6.489   2.244   3.044  1.00  0.00     0.182 C 
BRANCH  56  57
ATOM     57  N   UNL     1       5.224   2.981   3.130  1.00  0.00    -0.344 N 
ATOM     58  C   UNL     1       4.159   2.712   2.305  1.00  0.00     0.220 C 
ATOM     59  O   UNL     1       4.214   1.892   1.395  1.00  0.00    -0.275 OA
ATOM     60  H   UNL     1       5.102   3.594   3.931  1.00  0.00     0.164 HD
BRANCH  58  61
ATOM     61  C   UNL     1       2.935   3.556   2.610  1.00  0.00     0.100 C 
BRANCH  61  62
ATOM     62  C   UNL     1       2.566   4.534   1.494  1.00  0.00     0.010 C 
BRANCH  62  63
ATOM     63  C   UNL     1       2.895   5.999   1.810  1.00  0.00     0.000 C 
BRANCH  63  64
ATOM     64  C   UNL     1       1.698   6.821   2.285  1.00  0.00    -0.003 C 
ATOM     65  C   UNL     1       0.385   6.109   1.995  1.00  0.00     0.004 C 
ENDBRANCH  63  64
ENDBRANCH  62  63
ENDBRANCH  61  62
ENDBRANCH  58  61
ENDBRANCH  56  57
BRANCH  56  66
ATOM     66  C   UNL     1       6.690   1.304   4.232  1.00  0.00     0.157 C 
BRANCH  66  67
ATOM     67  C   UNL     1       6.076   1.868   5.481  1.00  0.00     0.305 C 
ATOM     68  O   UNL     1       5.146   1.396   6.117  1.00  0.00    -0.252 OA
BRANCH  67  69
ATOM     69  O   UNL     1       6.704   2.982   5.902  1.00  0.00    -0.481 OA
ATOM     70  H   UNL     1       6.367   3.130   6.811  1.00  0.00     0.296 HD
ENDBRANCH  67  69
ENDBRANCH  66  67
ENDBRANCH  56  66
ENDBRANCH  53  56
ENDBRANCH  50  52
ENDBRANCH  47  50
ENDBRANCH  45  46
BRANCH  45  71
ATOM     71  C   UNL     1       7.598   7.285   7.389  1.00  0.00     0.037 C 
BRANCH  71  72
ATOM     72  C   UNL     1       7.818   8.786   7.592  1.00  0.00     0.026 C 
BRANCH  72  73
ATOM     73  C   UNL     1       8.157   9.111   9.045  1.00  0.00     0.146 C 
BRANCH  73  74
ATOM     74  N   UNL     1       8.783  10.430   9.074  1.00  0.00    -0.254 NA
ATOM     75  C   UNL     1      10.049  10.488   9.264  1.00  0.00     0.185 C 
ATOM     76  N   UNL     1      10.654  11.686   9.295  1.00  0.00    -0.370 N 
ATOM     77  N   UNL     1      10.923   9.483   9.449  1.00  0.00    -0.370 N 
ATOM     78  H   UNL     1      10.066  12.498   9.171  1.00  0.00     0.159 HD
ATOM     79  H   UNL     1      11.608  11.818   9.581  1.00  0.00     0.159 HD
ATOM     80  H   UNL     1      10.611   8.524   9.447  1.00  0.00     0.159 HD
ATOM     81  H   UNL     1      11.916   9.644   9.474  1.00  0.00     0.159 HD
ENDBRANCH  73  74
ENDBRANCH  72  73
ENDBRANCH  71  72
ENDBRANCH  45  71
ENDBRANCH   3  45
TORSDOF 20
ENDMDL
MODEL 40
REMARK VINA RESULT:    -5.137      4.623     13.114
REMARK INTER + INTRA:         -21.898
REMARK INTER:                 -15.985
REMARK INTRA:                  -5.913
REMARK UNBOUND:                -7.151
REMARK SMILES CCCCCC(=O)N[C@H](CC(=O)O)C(=O)N[C@H]1C(=O)N[C@H](CCCN=C(N)N)C(=O)N[C@@H]2CC[C@H](O)N(C2=O)[C@@H](CC(C)C)C(=O)N(C)[C@@H](Cc2ccccc2)C(=O)N[C@H](C(C)C)C(=O)O[C@@H]1C
REMARK SMILES IDX 30 1 31 2 29 3 32 5 35 6 37 7 34 8 38 9 33 10 39 11 36 12
REMARK SMILES IDX 40 14 41 15 42 16 43 17 44 18 45 19 46 20 47 21 48 22 49 23
REMARK SMILES IDX 50 24 51 25 52 26 56 27 53 28 55 29 54 30 57 31 58 32 59 33
REMARK SMILES IDX 60 35 61 36 62 37 63 38 64 39 65 40 66 41 67 42 68 43 21 45
REMARK SMILES IDX 20 46 18 47 19 48 17 50 16 52 14 53 15 54 9 56 8 57 6 58
REMARK SMILES IDX 7 59 5 61 4 62 3 63 2 64 1 65 10 66 11 67 12 68 13 69 22 71
REMARK SMILES IDX 23 72 24 73 25 74 26 75 27 76 28 77
REMARK H PARENT 31 4 36 13 59 34 20 49 16 55 8 60 13 70 27 78 27 79 28 80
REMARK H PARENT 28 81
REMARK Flexibility Score:  259.900
ROOT
ATOM      1  O   UNL     1       8.314   3.138   4.984  1.00  0.00    -0.273 OA
ATOM      2  N   UNL     1       6.060   3.154   4.601  1.00  0.00    -0.343 N 
ATOM      3  C   UNL     1       7.366   2.926   4.227  1.00  0.00     0.243 C 
ATOM      4  H   UNL     1       5.304   2.955   3.957  1.00  0.00     0.164 HD
ENDROOT
BRANCH   2   5
ATOM      5  C   UNL     1       5.753   3.776   5.885  1.00  0.00     0.171 C 
ATOM      6  C   UNL     1       3.274   4.162   7.337  1.00  0.00     0.214 C 
ATOM      7  N   UNL     1       3.729   5.185   6.425  1.00  0.00    -0.303 N 
ATOM      8  C   UNL     1       4.408   3.373   7.971  1.00  0.00     0.057 C 
ATOM      9  C   UNL     1       4.877   5.042   5.662  1.00  0.00     0.247 C 
ATOM     10  C   UNL     1       5.257   2.739   6.892  1.00  0.00     0.040 C 
ATOM     11  O   UNL     1       5.213   5.884   4.819  1.00  0.00    -0.272 OA
BRANCH   6  12
ATOM     12  O   UNL     1       2.413   3.302   6.626  1.00  0.00    -0.373 OA
ATOM     13  H   UNL     1       1.814   3.869   6.095  1.00  0.00     0.213 HD
ENDBRANCH   6  12
BRANCH   7  14
ATOM     14  C   UNL     1       2.837   6.345   6.219  1.00  0.00     0.177 C 
BRANCH  14  15
ATOM     15  C   UNL     1       1.875   6.230   5.020  1.00  0.00     0.038 C 
BRANCH  15  16
ATOM     16  C   UNL     1       1.323   7.514   4.362  1.00  0.00    -0.015 C 
ATOM     17  C   UNL     1       0.659   7.237   3.010  1.00  0.00     0.007 C 
ATOM     18  C   UNL     1       2.464   8.516   4.141  1.00  0.00     0.007 C 
ENDBRANCH  15  16
ENDBRANCH  14  15
BRANCH  14  19
ATOM     19  C   UNL     1       2.496   7.019   7.593  1.00  0.00     0.245 C 
ATOM     20  O   UNL     1       3.457   7.316   8.324  1.00  0.00    -0.272 OA
BRANCH  19  21
ATOM     21  N   UNL     1       1.209   7.191   8.070  1.00  0.00    -0.332 N 
ATOM     22  C   UNL     1       0.277   6.122   8.385  1.00  0.00     0.147 C 
BRANCH  21  23
ATOM     23  C   UNL     1       0.721   8.583   8.271  1.00  0.00     0.178 C 
BRANCH  23  24
ATOM     24  C   UNL     1      -0.559   8.938   7.487  1.00  0.00     0.070 C 
BRANCH  24  25
ATOM     25  C   UNL     1      -0.655  10.335   6.920  1.00  0.00    -0.045 A 
ATOM     26  C   UNL     1      -1.799  11.117   7.126  1.00  0.00     0.004 A 
ATOM     27  C   UNL     1       0.406  10.869   6.173  1.00  0.00     0.004 A 
ATOM     28  C   UNL     1      -1.886  12.401   6.584  1.00  0.00     0.000 A 
ATOM     29  C   UNL     1       0.318  12.153   5.633  1.00  0.00     0.000 A 
ATOM     30  C   UNL     1      -0.830  12.917   5.837  1.00  0.00     0.000 A 
ENDBRANCH  24  25
ENDBRANCH  23  24
BRANCH  23  31
ATOM     31  C   UNL     1       0.715   9.013   9.757  1.00  0.00     0.243 C 
ATOM     32  O   UNL     1       1.718   9.049  10.466  1.00  0.00    -0.273 OA
ATOM     33  N   UNL     1      -0.556   9.178  10.280  1.00  0.00    -0.341 N 
ATOM     34  H   UNL     1      -1.353   9.131   9.641  1.00  0.00     0.164 HD
BRANCH  33  35
ATOM     35  C   UNL     1      -0.806   9.467  11.695  1.00  0.00     0.194 C 
BRANCH  35  36
ATOM     36  C   UNL     1      -1.564   8.339  12.449  1.00  0.00     0.017 C 
ATOM     37  C   UNL     1      -1.249   8.363  13.955  1.00  0.00     0.010 C 
ATOM     38  C   UNL     1      -1.226   6.935  11.933  1.00  0.00     0.010 C 
ENDBRANCH  35  36
BRANCH  35  39
ATOM     39  C   UNL     1      -1.468  10.857  11.913  1.00  0.00     0.329 C 
ATOM     40  O   UNL     1      -0.842  11.898  12.074  1.00  0.00    -0.250 OA
BRANCH  39  41
ATOM     41  O   UNL     1      -2.832  10.803  11.819  1.00  0.00    -0.458 OA
BRANCH  41  42
ATOM     42  C   UNL     1      -3.573  11.535  12.824  1.00  0.00     0.205 CG0
ATOM     43  C   UNL     1      -4.442  10.526  13.571  1.00  0.00     0.056 C 
ATOM     44  G   UNL     1      -4.406  12.626  12.123  1.00  0.00     0.000 G0
ENDBRANCH  41  42
ENDBRANCH  39  41
ENDBRANCH  35  39
ENDBRANCH  33  35
ENDBRANCH  23  31
ENDBRANCH  21  23
ENDBRANCH  19  21
ENDBRANCH  14  19
ENDBRANCH   7  14
ENDBRANCH   2   5
BRANCH   3  45
ATOM     45  C   UNL     1       7.556   2.370   2.809  1.00  0.00     0.171 C 
BRANCH  45  46
ATOM     46  N   UNL     1       7.928   0.972   2.981  1.00  0.00    -0.342 N 
ATOM     47  C   UNL     1       7.022  -0.051   2.862  1.00  0.00     0.247 C 
ATOM     48  O   UNL     1       5.850   0.130   2.531  1.00  0.00    -0.273 OA
ATOM     49  H   UNL     1       8.903   0.773   3.201  1.00  0.00     0.164 HD
BRANCH  47  50
ATOM     50  C   UNL     1       7.568  -1.446   3.200  1.00  0.00     0.212 CG0
ATOM     51  G   UNL     1       9.022  -1.274   3.683  1.00  0.00     0.000 G0
BRANCH  50  52
ATOM     52  N   UNL     1       6.676  -1.975   4.229  1.00  0.00    -0.339 N 
ATOM     53  C   UNL     1       5.789  -2.999   4.006  1.00  0.00     0.243 C 
ATOM     54  O   UNL     1       5.638  -3.516   2.902  1.00  0.00    -0.273 OA
ATOM     55  H   UNL     1       6.675  -1.513   5.136  1.00  0.00     0.164 HD
BRANCH  53  56
ATOM     56  C   UNL     1       4.892  -3.327   5.217  1.00  0.00     0.182 C 
BRANCH  56  57
ATOM     57  N   UNL     1       4.616  -2.124   6.009  1.00  0.00    -0.344 N 
ATOM     58  C   UNL     1       3.351  -1.798   6.434  1.00  0.00     0.220 C 
ATOM     59  O   UNL     1       2.358  -2.446   6.122  1.00  0.00    -0.275 OA
ATOM     60  H   UNL     1       5.419  -1.618   6.373  1.00  0.00     0.164 HD
BRANCH  58  61
ATOM     61  C   UNL     1       3.309  -0.544   7.288  1.00  0.00     0.100 C 
BRANCH  61  62
ATOM     62  C   UNL     1       2.812  -0.785   8.713  1.00  0.00     0.010 C 
BRANCH  62  63
ATOM     63  C   UNL     1       3.671  -1.766   9.520  1.00  0.00     0.000 C 
BRANCH  63  64
ATOM     64  C   UNL     1       3.010  -3.121   9.767  1.00  0.00    -0.003 C 
ATOM     65  C   UNL     1       2.383  -3.188  11.152  1.00  0.00     0.004 C 
ENDBRANCH  63  64
ENDBRANCH  62  63
ENDBRANCH  61  62
ENDBRANCH  58  61
ENDBRANCH  56  57
BRANCH  56  66
ATOM     66  C   UNL     1       5.486  -4.451   6.064  1.00  0.00     0.157 C 
BRANCH  66  67
ATOM     67  C   UNL     1       6.282  -3.904   7.214  1.00  0.00     0.305 C 
ATOM     68  O   UNL     1       7.033  -2.941   7.192  1.00  0.00    -0.252 OA
BRANCH  67  69
ATOM     69  O   UNL     1       6.052  -4.572   8.360  1.00  0.00    -0.481 OA
ATOM     70  H   UNL     1       5.077  -4.657   8.409  1.00  0.00     0.296 HD
ENDBRANCH  67  69
ENDBRANCH  66  67
ENDBRANCH  56  66
ENDBRANCH  53  56
ENDBRANCH  50  52
ENDBRANCH  47  50
ENDBRANCH  45  46
BRANCH  45  71
ATOM     71  C   UNL     1       8.642   3.157   2.068  1.00  0.00     0.037 C 
BRANCH  71  72
ATOM     72  C   UNL     1       9.718   2.241   1.481  1.00  0.00     0.026 C 
BRANCH  72  73
ATOM     73  C   UNL     1      10.883   2.051   2.450  1.00  0.00     0.146 C 
BRANCH  73  74
ATOM     74  N   UNL     1      11.751   3.220   2.340  1.00  0.00    -0.254 NA
ATOM     75  C   UNL     1      11.866   3.979   3.366  1.00  0.00     0.185 C 
ATOM     76  N   UNL     1      12.658   5.061   3.296  1.00  0.00    -0.370 N 
ATOM     77  N   UNL     1      11.288   3.861   4.574  1.00  0.00    -0.370 N 
ATOM     78  H   UNL     1      13.127   5.229   2.417  1.00  0.00     0.159 HD
ATOM     79  H   UNL     1      12.684   5.775   4.003  1.00  0.00     0.159 HD
ATOM     80  H   UNL     1      10.668   3.090   4.773  1.00  0.00     0.159 HD
ATOM     81  H   UNL     1      11.544   4.457   5.343  1.00  0.00     0.159 HD
ENDBRANCH  73  74
ENDBRANCH  72  73
ENDBRANCH  71  72
ENDBRANCH  45  71
ENDBRANCH   3  45
TORSDOF 20
ENDMDL
MODEL 41
REMARK VINA RESULT:    -5.074      3.291      6.577
REMARK INTER + INTRA:         -21.717
REMARK INTER:                 -15.349
REMARK INTRA:                  -6.368
REMARK UNBOUND:                -7.151
REMARK SMILES CCCCCC(=O)N[C@H](CC(=O)O)C(=O)N[C@H]1C(=O)N[C@H](CCCN=C(N)N)C(=O)N[C@@H]2CC[C@H](O)N(C2=O)[C@@H](CC(C)C)C(=O)N(C)[C@@H](Cc2ccccc2)C(=O)N[C@H](C(C)C)C(=O)O[C@@H]1C
REMARK SMILES IDX 30 1 31 2 29 3 32 5 35 6 37 7 34 8 38 9 33 10 39 11 36 12
REMARK SMILES IDX 40 14 41 15 42 16 43 17 44 18 45 19 46 20 47 21 48 22 49 23
REMARK SMILES IDX 50 24 51 25 52 26 56 27 53 28 55 29 54 30 57 31 58 32 59 33
REMARK SMILES IDX 60 35 61 36 62 37 63 38 64 39 65 40 66 41 67 42 68 43 21 45
REMARK SMILES IDX 20 46 18 47 19 48 17 50 16 52 14 53 15 54 9 56 8 57 6 58
REMARK SMILES IDX 7 59 5 61 4 62 3 63 2 64 1 65 10 66 11 67 12 68 13 69 22 71
REMARK SMILES IDX 23 72 24 73 25 74 26 75 27 76 28 77
REMARK H PARENT 31 4 36 13 59 34 20 49 16 55 8 60 13 70 27 78 27 79 28 80
REMARK H PARENT 28 81
REMARK Flexibility Score:  259.900
ROOT
ATOM      1  O   UNL     1       1.606   6.876   7.394  1.00  0.00    -0.273 OA
ATOM      2  N   UNL     1       3.689   7.741   7.013  1.00  0.00    -0.343 N 
ATOM      3  C   UNL     1       2.345   7.856   7.295  1.00  0.00     0.243 C 
ATOM      4  H   UNL     1       4.270   8.568   6.954  1.00  0.00     0.164 HD
ENDROOT
BRANCH   2   5
ATOM      5  C   UNL     1       4.273   6.441   6.699  1.00  0.00     0.171 C 
ATOM      6  C   UNL     1       6.999   5.456   6.716  1.00  0.00     0.214 C 
ATOM      7  N   UNL     1       6.457   6.025   5.505  1.00  0.00    -0.303 N 
ATOM      8  C   UNL     1       5.948   4.791   7.591  1.00  0.00     0.057 C 
ATOM      9  C   UNL     1       5.181   6.560   5.442  1.00  0.00     0.247 C 
ATOM     10  C   UNL     1       4.870   5.792   7.947  1.00  0.00     0.040 C 
ATOM     11  O   UNL     1       4.755   7.124   4.425  1.00  0.00    -0.272 OA
BRANCH   6  12
ATOM     12  O   UNL     1       7.649   6.487   7.424  1.00  0.00    -0.373 OA
ATOM     13  H   UNL     1       6.974   6.913   7.995  1.00  0.00     0.213 HD
ENDBRANCH   6  12
BRANCH   7  14
ATOM     14  C   UNL     1       7.377   6.153   4.354  1.00  0.00     0.177 C 
BRANCH  14  15
ATOM     15  C   UNL     1       8.552   7.129   4.559  1.00  0.00     0.038 C 
BRANCH  15  16
ATOM     16  C   UNL     1       8.262   8.623   4.825  1.00  0.00    -0.015 C 
ATOM     17  C   UNL     1       7.284   9.219   3.809  1.00  0.00     0.007 C 
ATOM     18  C   UNL     1       9.569   9.424   4.760  1.00  0.00     0.007 C 
ENDBRANCH  15  16
ENDBRANCH  14  15
BRANCH  14  19
ATOM     19  C   UNL     1       7.447   4.802   3.562  1.00  0.00     0.245 C 
ATOM     20  O   UNL     1       6.365   4.251   3.299  1.00  0.00    -0.272 OA
BRANCH  19  21
ATOM     21  N   UNL     1       8.628   4.153   3.249  1.00  0.00    -0.332 N 
ATOM     22  C   UNL     1       9.782   4.035   4.122  1.00  0.00     0.147 C 
BRANCH  21  23
ATOM     23  C   UNL     1       8.742   3.527   1.902  1.00  0.00     0.178 C 
BRANCH  23  24
ATOM     24  C   UNL     1       9.625   4.302   0.903  1.00  0.00     0.070 C 
BRANCH  24  25
ATOM     25  C   UNL     1       9.601   5.811   0.989  1.00  0.00    -0.045 A 
ATOM     26  C   UNL     1       8.487   6.537   0.548  1.00  0.00     0.004 A 
ATOM     27  C   UNL     1      10.701   6.507   1.511  1.00  0.00     0.004 A 
ATOM     28  C   UNL     1       8.479   7.932   0.615  1.00  0.00     0.000 A 
ATOM     29  C   UNL     1      10.691   7.901   1.578  1.00  0.00     0.000 A 
ATOM     30  C   UNL     1       9.581   8.613   1.128  1.00  0.00     0.000 A 
ENDBRANCH  24  25
ENDBRANCH  23  24
BRANCH  23  31
ATOM     31  C   UNL     1       9.011   2.005   1.965  1.00  0.00     0.243 C 
ATOM     32  O   UNL     1       8.383   1.225   2.677  1.00  0.00    -0.273 OA
ATOM     33  N   UNL     1      10.152   1.616   1.284  1.00  0.00    -0.341 N 
ATOM     34  H   UNL     1      10.637   2.313   0.712  1.00  0.00     0.164 HD
BRANCH  33  35
ATOM     35  C   UNL     1      10.667   0.244   1.304  1.00  0.00     0.194 C 
BRANCH  35  36
ATOM     36  C   UNL     1      11.836   0.020   2.305  1.00  0.00     0.017 C 
ATOM     37  C   UNL     1      12.795   1.223   2.324  1.00  0.00     0.010 C 
ATOM     38  C   UNL     1      12.670  -1.228   1.989  1.00  0.00     0.010 C 
ENDBRANCH  35  36
BRANCH  35  39
ATOM     39  C   UNL     1      11.009  -0.288  -0.116  1.00  0.00     0.329 C 
ATOM     40  O   UNL     1      10.678  -1.391  -0.533  1.00  0.00    -0.250 OA
BRANCH  39  41
ATOM     41  O   UNL     1      11.646   0.649  -0.882  1.00  0.00    -0.458 OA
BRANCH  41  42
ATOM     42  C   UNL     1      12.886   0.233  -1.503  1.00  0.00     0.205 CG0
ATOM     43  C   UNL     1      13.939   1.286  -1.164  1.00  0.00     0.056 C 
ATOM     44  G   UNL     1      12.655   0.098  -3.021  1.00  0.00     0.000 G0
ENDBRANCH  41  42
ENDBRANCH  39  41
ENDBRANCH  35  39
ENDBRANCH  33  35
ENDBRANCH  23  31
ENDBRANCH  21  23
ENDBRANCH  19  21
ENDBRANCH  14  19
ENDBRANCH   7  14
ENDBRANCH   2   5
BRANCH   3  45
ATOM     45  C   UNL     1       1.838   9.290   7.499  1.00  0.00     0.171 C 
BRANCH  45  46
ATOM     46  N   UNL     1       1.462   9.379   8.904  1.00  0.00    -0.342 N 
ATOM     47  C   UNL     1       2.244  10.011   9.837  1.00  0.00     0.247 C 
ATOM     48  O   UNL     1       3.280  10.610   9.546  1.00  0.00    -0.273 OA
ATOM     49  H   UNL     1       0.582   8.944   9.179  1.00  0.00     0.164 HD
BRANCH  47  50
ATOM     50  C   UNL     1       1.749   9.895  11.286  1.00  0.00     0.212 CG0
ATOM     51  G   UNL     1       1.877  11.287  11.936  1.00  0.00     0.000 G0
BRANCH  50  52
ATOM     52  N   UNL     1       0.369   9.428  11.190  1.00  0.00    -0.339 N 
ATOM     53  C   UNL     1      -0.184   8.520  12.061  1.00  0.00     0.243 C 
ATOM     54  O   UNL     1       0.461   7.989  12.961  1.00  0.00    -0.273 OA
ATOM     55  H   UNL     1      -0.185   9.747  10.398  1.00  0.00     0.164 HD
BRANCH  53  56
ATOM     56  C   UNL     1      -1.629   8.112  11.709  1.00  0.00     0.182 C 
BRANCH  56  57
ATOM     57  N   UNL     1      -2.575   9.179  12.051  1.00  0.00    -0.344 N 
ATOM     58  C   UNL     1      -3.216   9.929  11.095  1.00  0.00     0.220 C 
ATOM     59  O   UNL     1      -2.988   9.810   9.896  1.00  0.00    -0.275 OA
ATOM     60  H   UNL     1      -2.867   9.241  13.023  1.00  0.00     0.164 HD
BRANCH  58  61
ATOM     61  C   UNL     1      -4.193  10.935  11.675  1.00  0.00     0.100 C 
BRANCH  61  62
ATOM     62  C   UNL     1      -4.134  11.043  13.199  1.00  0.00     0.010 C 
BRANCH  62  63
ATOM     63  C   UNL     1      -5.444  10.673  13.906  1.00  0.00     0.000 C 
BRANCH  63  64
ATOM     64  C   UNL     1      -6.077   9.372  13.412  1.00  0.00    -0.003 C 
ATOM     65  C   UNL     1      -7.592   9.487  13.332  1.00  0.00     0.004 C 
ENDBRANCH  63  64
ENDBRANCH  62  63
ENDBRANCH  61  62
ENDBRANCH  58  61
ENDBRANCH  56  57
BRANCH  56  66
ATOM     66  C   UNL     1      -2.006   6.779  12.351  1.00  0.00     0.157 C 
BRANCH  66  67
ATOM     67  C   UNL     1      -2.925   6.979  13.522  1.00  0.00     0.305 C 
ATOM     68  O   UNL     1      -4.085   6.610  13.615  1.00  0.00    -0.252 OA
BRANCH  67  69
ATOM     69  O   UNL     1      -2.314   7.598  14.551  1.00  0.00    -0.481 OA
ATOM     70  H   UNL     1      -1.357   7.539  14.346  1.00  0.00     0.296 HD
ENDBRANCH  67  69
ENDBRANCH  66  67
ENDBRANCH  56  66
ENDBRANCH  53  56
ENDBRANCH  50  52
ENDBRANCH  47  50
ENDBRANCH  45  46
BRANCH  45  71
ATOM     71  C   UNL     1       0.647   9.572   6.576  1.00  0.00     0.037 C 
BRANCH  71  72
ATOM     72  C   UNL     1      -0.609   9.963   7.359  1.00  0.00     0.026 C 
BRANCH  72  73
ATOM     73  C   UNL     1      -0.918  11.451   7.214  1.00  0.00     0.146 C 
BRANCH  73  74
ATOM     74  N   UNL     1      -0.276  12.152   8.322  1.00  0.00    -0.254 NA
ATOM     75  C   UNL     1      -1.029  12.762   9.161  1.00  0.00     0.185 C 
ATOM     76  N   UNL     1      -0.467  13.415  10.192  1.00  0.00    -0.370 N 
ATOM     77  N   UNL     1      -2.369  12.861   9.178  1.00  0.00    -0.370 N 
ATOM     78  H   UNL     1       0.541  13.397  10.250  1.00  0.00     0.159 HD
ATOM     79  H   UNL     1      -0.977  14.030  10.801  1.00  0.00     0.159 HD
ATOM     80  H   UNL     1      -2.926  12.416   8.465  1.00  0.00     0.159 HD
ATOM     81  H   UNL     1      -2.859  13.272   9.956  1.00  0.00     0.159 HD
ENDBRANCH  73  74
ENDBRANCH  72  73
ENDBRANCH  71  72
ENDBRANCH  45  71
ENDBRANCH   3  45
TORSDOF 20
ENDMDL
MODEL 42
REMARK VINA RESULT:    -5.049      3.886     15.084
REMARK INTER + INTRA:         -21.647
REMARK INTER:                 -16.373
REMARK INTRA:                  -5.274
REMARK UNBOUND:                -7.151
REMARK SMILES CCCCCC(=O)N[C@H](CC(=O)O)C(=O)N[C@H]1C(=O)N[C@H](CCCN=C(N)N)C(=O)N[C@@H]2CC[C@H](O)N(C2=O)[C@@H](CC(C)C)C(=O)N(C)[C@@H](Cc2ccccc2)C(=O)N[C@H](C(C)C)C(=O)O[C@@H]1C
REMARK SMILES IDX 30 1 31 2 29 3 32 5 35 6 37 7 34 8 38 9 33 10 39 11 36 12
REMARK SMILES IDX 40 14 41 15 42 16 43 17 44 18 45 19 46 20 47 21 48 22 49 23
REMARK SMILES IDX 50 24 51 25 52 26 56 27 53 28 55 29 54 30 57 31 58 32 59 33
REMARK SMILES IDX 60 35 61 36 62 37 63 38 64 39 65 40 66 41 67 42 68 43 21 45
REMARK SMILES IDX 20 46 18 47 19 48 17 50 16 52 14 53 15 54 9 56 8 57 6 58
REMARK SMILES IDX 7 59 5 61 4 62 3 63 2 64 1 65 10 66 11 67 12 68 13 69 22 71
REMARK SMILES IDX 23 72 24 73 25 74 26 75 27 76 28 77
REMARK H PARENT 31 4 36 13 59 34 20 49 16 55 8 60 13 70 27 78 27 79 28 80
REMARK H PARENT 28 81
REMARK Flexibility Score:  259.900
ROOT
ATOM      1  O   UNL     1       5.075   4.780   0.778  1.00  0.00    -0.273 OA
ATOM      2  N   UNL     1       5.298   5.921   2.748  1.00  0.00    -0.343 N 
ATOM      3  C   UNL     1       5.772   5.113   1.737  1.00  0.00     0.243 C 
ATOM      4  H   UNL     1       5.905   6.187   3.513  1.00  0.00     0.164 HD
ENDROOT
BRANCH   2   5
ATOM      5  C   UNL     1       3.895   6.320   2.782  1.00  0.00     0.171 C 
ATOM      6  C   UNL     1       2.504   8.498   4.097  1.00  0.00     0.214 C 
ATOM      7  N   UNL     1       2.642   7.231   4.776  1.00  0.00    -0.303 N 
ATOM      8  C   UNL     1       2.447   8.366   2.583  1.00  0.00     0.057 C 
ATOM      9  C   UNL     1       3.338   6.166   4.227  1.00  0.00     0.247 C 
ATOM     10  C   UNL     1       3.689   7.662   2.082  1.00  0.00     0.040 C 
ATOM     11  O   UNL     1       3.526   5.113   4.851  1.00  0.00    -0.272 OA
BRANCH   6  12
ATOM     12  O   UNL     1       3.589   9.312   4.480  1.00  0.00    -0.373 OA
ATOM     13  H   UNL     1       3.215  10.082   4.958  1.00  0.00     0.213 HD
ENDBRANCH   6  12
BRANCH   7  14
ATOM     14  C   UNL     1       2.133   7.154   6.162  1.00  0.00     0.177 C 
BRANCH  14  15
ATOM     15  C   UNL     1       3.214   7.170   7.260  1.00  0.00     0.038 C 
BRANCH  15  16
ATOM     16  C   UNL     1       4.054   8.447   7.482  1.00  0.00    -0.015 C 
ATOM     17  C   UNL     1       5.550   8.210   7.253  1.00  0.00     0.007 C 
ATOM     18  C   UNL     1       3.862   8.950   8.919  1.00  0.00     0.007 C 
ENDBRANCH  15  16
ENDBRANCH  14  15
BRANCH  14  19
ATOM     19  C   UNL     1       0.727   7.839   6.263  1.00  0.00     0.245 C 
ATOM     20  O   UNL     1      -0.178   7.367   5.555  1.00  0.00    -0.272 OA
BRANCH  19  21
ATOM     21  N   UNL     1       0.479   8.986   6.996  1.00  0.00    -0.332 N 
ATOM     22  C   UNL     1       1.041  10.298   6.725  1.00  0.00     0.147 C 
BRANCH  21  23
ATOM     23  C   UNL     1      -0.429   8.878   8.171  1.00  0.00     0.178 C 
BRANCH  23  24
ATOM     24  C   UNL     1       0.219   9.242   9.523  1.00  0.00     0.070 C 
BRANCH  24  25
ATOM     25  C   UNL     1      -0.372   8.609  10.762  1.00  0.00    -0.045 A 
ATOM     26  C   UNL     1       0.079   8.971  12.037  1.00  0.00     0.004 A 
ATOM     27  C   UNL     1      -1.382   7.642  10.649  1.00  0.00     0.004 A 
ATOM     28  C   UNL     1      -0.460   8.369  13.176  1.00  0.00     0.000 A 
ATOM     29  C   UNL     1      -1.920   7.042  11.788  1.00  0.00     0.000 A 
ATOM     30  C   UNL     1      -1.457   7.404  13.051  1.00  0.00     0.000 A 
ENDBRANCH  24  25
ENDBRANCH  23  24
BRANCH  23  31
ATOM     31  C   UNL     1      -1.817   9.514   7.922  1.00  0.00     0.243 C 
ATOM     32  O   UNL     1      -2.618   9.108   7.083  1.00  0.00    -0.273 OA
ATOM     33  N   UNL     1      -2.011  10.704   8.602  1.00  0.00    -0.341 N 
ATOM     34  H   UNL     1      -1.305  10.994   9.284  1.00  0.00     0.164 HD
BRANCH  33  35
ATOM     35  C   UNL     1      -3.201  11.541   8.425  1.00  0.00     0.194 C 
BRANCH  35  36
ATOM     36  C   UNL     1      -2.957  12.823   7.581  1.00  0.00     0.017 C 
ATOM     37  C   UNL     1      -3.980  12.943   6.438  1.00  0.00     0.010 C 
ATOM     38  C   UNL     1      -1.559  12.876   6.953  1.00  0.00     0.010 C 
ENDBRANCH  35  36
BRANCH  35  39
ATOM     39  C   UNL     1      -3.913  11.858   9.770  1.00  0.00     0.329 C 
ATOM     40  O   UNL     1      -4.594  12.858   9.967  1.00  0.00    -0.250 OA
BRANCH  39  41
ATOM     41  O   UNL     1      -3.767  10.853  10.686  1.00  0.00    -0.458 OA
BRANCH  41  42
ATOM     42  C   UNL     1      -3.753  11.251  12.078  1.00  0.00     0.205 CG0
ATOM     43  C   UNL     1      -2.333  11.709  12.404  1.00  0.00     0.056 C 
ATOM     44  G   UNL     1      -4.197  10.050  12.937  1.00  0.00     0.000 G0
ENDBRANCH  41  42
ENDBRANCH  39  41
ENDBRANCH  35  39
ENDBRANCH  33  35
ENDBRANCH  23  31
ENDBRANCH  21  23
ENDBRANCH  19  21
ENDBRANCH  14  19
ENDBRANCH   7  14
ENDBRANCH   2   5
BRANCH   3  45
ATOM     45  C   UNL     1       7.237   4.677   1.877  1.00  0.00     0.171 C 
BRANCH  45  46
ATOM     46  N   UNL     1       7.660   4.283   0.540  1.00  0.00    -0.342 N 
ATOM     47  C   UNL     1       8.758   4.830  -0.075  1.00  0.00     0.247 C 
ATOM     48  O   UNL     1       9.505   5.635   0.482  1.00  0.00    -0.273 OA
ATOM     49  H   UNL     1       7.102   3.577   0.064  1.00  0.00     0.164 HD
BRANCH  47  50
ATOM     50  C   UNL     1       8.978   4.385  -1.528  1.00  0.00     0.212 CG0
ATOM     51  G   UNL     1       9.048   5.654  -2.400  1.00  0.00     0.000 G0
BRANCH  50  52
ATOM     52  N   UNL     1      10.223   3.622  -1.518  1.00  0.00    -0.339 N 
ATOM     53  C   UNL     1      10.271   2.254  -1.411  1.00  0.00     0.243 C 
ATOM     54  O   UNL     1       9.265   1.566  -1.261  1.00  0.00    -0.273 OA
ATOM     55  H   UNL     1      11.097   4.144  -1.527  1.00  0.00     0.164 HD
BRANCH  53  56
ATOM     56  C   UNL     1      11.700   1.679  -1.335  1.00  0.00     0.182 C 
BRANCH  56  57
ATOM     57  N   UNL     1      11.970   1.112  -0.010  1.00  0.00    -0.344 N 
ATOM     58  C   UNL     1      12.005   1.882   1.127  1.00  0.00     0.220 C 
ATOM     59  O   UNL     1      11.888   3.102   1.106  1.00  0.00    -0.275 OA
ATOM     60  H   UNL     1      11.971   0.098   0.065  1.00  0.00     0.164 HD
BRANCH  58  61
ATOM     61  C   UNL     1      12.242   1.077   2.391  1.00  0.00     0.100 C 
BRANCH  61  62
ATOM     62  C   UNL     1      12.104  -0.433   2.195  1.00  0.00     0.010 C 
BRANCH  62  63
ATOM     63  C   UNL     1      10.775  -1.012   2.697  1.00  0.00     0.000 C 
BRANCH  63  64
ATOM     64  C   UNL     1       9.652  -0.991   1.662  1.00  0.00    -0.003 C 
ATOM     65  C   UNL     1       9.962  -1.908   0.487  1.00  0.00     0.004 C 
ENDBRANCH  63  64
ENDBRANCH  62  63
ENDBRANCH  61  62
ENDBRANCH  58  61
ENDBRANCH  56  57
BRANCH  56  66
ATOM     66  C   UNL     1      12.744   2.719  -1.740  1.00  0.00     0.157 C 
BRANCH  66  67
ATOM     67  C   UNL     1      14.118   2.116  -1.800  1.00  0.00     0.305 C 
ATOM     68  O   UNL     1      15.182   2.716  -1.800  1.00  0.00    -0.252 OA
BRANCH  67  69
ATOM     69  O   UNL     1      14.086   0.770  -1.803  1.00  0.00    -0.481 OA
ATOM     70  H   UNL     1      14.822   0.500  -1.214  1.00  0.00     0.296 HD
ENDBRANCH  67  69
ENDBRANCH  66  67
ENDBRANCH  56  66
ENDBRANCH  53  56
ENDBRANCH  50  52
ENDBRANCH  47  50
ENDBRANCH  45  46
BRANCH  45  71
ATOM     71  C   UNL     1       7.355   3.518   2.873  1.00  0.00     0.037 C 
BRANCH  71  72
ATOM     72  C   UNL     1       8.802   3.281   3.312  1.00  0.00     0.026 C 
BRANCH  72  73
ATOM     73  C   UNL     1       9.441   4.560   3.849  1.00  0.00     0.146 C 
BRANCH  73  74
ATOM     74  N   UNL     1      10.827   4.257   4.193  1.00  0.00    -0.254 NA
ATOM     75  C   UNL     1      11.751   4.843   3.525  1.00  0.00     0.185 C 
ATOM     76  N   UNL     1      13.036   4.585   3.818  1.00  0.00    -0.370 N 
ATOM     77  N   UNL     1      11.636   5.725   2.517  1.00  0.00    -0.370 N 
ATOM     78  H   UNL     1      13.212   3.924   4.561  1.00  0.00     0.159 HD
ATOM     79  H   UNL     1      13.806   4.891   3.249  1.00  0.00     0.159 HD
ATOM     80  H   UNL     1      10.727   6.017   2.191  1.00  0.00     0.159 HD
ATOM     81  H   UNL     1      12.436   6.208   2.144  1.00  0.00     0.159 HD
ENDBRANCH  73  74
ENDBRANCH  72  73
ENDBRANCH  71  72
ENDBRANCH  45  71
ENDBRANCH   3  45
TORSDOF 20
ENDMDL
MODEL 43
REMARK VINA RESULT:    -5.041     11.616     14.264
REMARK INTER + INTRA:         -21.623
REMARK INTER:                 -16.053
REMARK INTRA:                  -5.570
REMARK UNBOUND:                -7.151
REMARK SMILES CCCCCC(=O)N[C@H](CC(=O)O)C(=O)N[C@H]1C(=O)N[C@H](CCCN=C(N)N)C(=O)N[C@@H]2CC[C@H](O)N(C2=O)[C@@H](CC(C)C)C(=O)N(C)[C@@H](Cc2ccccc2)C(=O)N[C@H](C(C)C)C(=O)O[C@@H]1C
REMARK SMILES IDX 30 1 31 2 29 3 32 5 35 6 37 7 34 8 38 9 33 10 39 11 36 12
REMARK SMILES IDX 40 14 41 15 42 16 43 17 44 18 45 19 46 20 47 21 48 22 49 23
REMARK SMILES IDX 50 24 51 25 52 26 56 27 53 28 55 29 54 30 57 31 58 32 59 33
REMARK SMILES IDX 60 35 61 36 62 37 63 38 64 39 65 40 66 41 67 42 68 43 21 45
REMARK SMILES IDX 20 46 18 47 19 48 17 50 16 52 14 53 15 54 9 56 8 57 6 58
REMARK SMILES IDX 7 59 5 61 4 62 3 63 2 64 1 65 10 66 11 67 12 68 13 69 22 71
REMARK SMILES IDX 23 72 24 73 25 74 26 75 27 76 28 77
REMARK H PARENT 31 4 36 13 59 34 20 49 16 55 8 60 13 70 27 78 27 79 28 80
REMARK H PARENT 28 81
REMARK Flexibility Score:  259.900
ROOT
ATOM      1  O   UNL     1      -4.216  -1.763   7.768  1.00  0.00    -0.273 OA
ATOM      2  N   UNL     1      -2.753  -1.801   6.010  1.00  0.00    -0.343 N 
ATOM      3  C   UNL     1      -3.311  -1.223   7.130  1.00  0.00     0.243 C 
ATOM      4  H   UNL     1      -2.001  -1.335   5.518  1.00  0.00     0.164 HD
ENDROOT
BRANCH   2   5
ATOM      5  C   UNL     1      -3.301  -3.037   5.461  1.00  0.00     0.171 C 
ATOM      6  C   UNL     1      -2.471  -4.753   3.277  1.00  0.00     0.214 C 
ATOM      7  N   UNL     1      -3.403  -3.680   3.022  1.00  0.00    -0.303 N 
ATOM      8  C   UNL     1      -2.571  -5.315   4.686  1.00  0.00     0.057 C 
ATOM      9  C   UNL     1      -3.802  -2.792   4.008  1.00  0.00     0.247 C 
ATOM     10  C   UNL     1      -2.350  -4.210   5.695  1.00  0.00     0.040 C 
ATOM     11  O   UNL     1      -4.532  -1.823   3.763  1.00  0.00    -0.272 OA
BRANCH   6  12
ATOM     12  O   UNL     1      -1.173  -4.263   3.033  1.00  0.00    -0.373 OA
ATOM     13  H   UNL     1      -1.231  -3.672   2.252  1.00  0.00     0.213 HD
ENDBRANCH   6  12
BRANCH   7  14
ATOM     14  C   UNL     1      -3.812  -3.466   1.617  1.00  0.00     0.177 C 
BRANCH  14  15
ATOM     15  C   UNL     1      -2.833  -2.634   0.767  1.00  0.00     0.038 C 
BRANCH  15  16
ATOM     16  C   UNL     1      -2.811  -2.817  -0.766  1.00  0.00    -0.015 C 
ATOM     17  C   UNL     1      -1.474  -3.366  -1.271  1.00  0.00     0.007 C 
ATOM     18  C   UNL     1      -3.066  -1.468  -1.452  1.00  0.00     0.007 C 
ENDBRANCH  15  16
ENDBRANCH  14  15
BRANCH  14  19
ATOM     19  C   UNL     1      -4.647  -4.690   1.103  1.00  0.00     0.245 C 
ATOM     20  O   UNL     1      -5.817  -4.779   1.509  1.00  0.00    -0.272 OA
BRANCH  19  21
ATOM     21  N   UNL     1      -4.122  -5.710   0.329  1.00  0.00    -0.332 N 
ATOM     22  C   UNL     1      -2.842  -6.359   0.545  1.00  0.00     0.147 C 
BRANCH  21  23
ATOM     23  C   UNL     1      -4.924  -6.184  -0.833  1.00  0.00     0.178 C 
BRANCH  23  24
ATOM     24  C   UNL     1      -4.147  -6.265  -2.163  1.00  0.00     0.070 C 
BRANCH  24  25
ATOM     25  C   UNL     1      -4.225  -5.066  -3.080  1.00  0.00    -0.045 A 
ATOM     26  C   UNL     1      -3.194  -4.788  -3.987  1.00  0.00     0.004 A 
ATOM     27  C   UNL     1      -5.335  -4.209  -3.031  1.00  0.00     0.004 A 
ATOM     28  C   UNL     1      -3.266  -3.668  -4.819  1.00  0.00     0.000 A 
ATOM     29  C   UNL     1      -5.406  -3.091  -3.864  1.00  0.00     0.000 A 
ATOM     30  C   UNL     1      -4.370  -2.820  -4.755  1.00  0.00     0.000 A 
ENDBRANCH  24  25
ENDBRANCH  23  24
BRANCH  23  31
ATOM     31  C   UNL     1      -5.785  -7.427  -0.506  1.00  0.00     0.243 C 
ATOM     32  O   UNL     1      -6.829  -7.388   0.141  1.00  0.00    -0.273 OA
ATOM     33  N   UNL     1      -5.181  -8.624  -0.847  1.00  0.00    -0.341 N 
ATOM     34  H   UNL     1      -4.308  -8.593  -1.380  1.00  0.00     0.164 HD
BRANCH  33  35
ATOM     35  C   UNL     1      -5.759  -9.932  -0.523  1.00  0.00     0.194 C 
BRANCH  35  36
ATOM     36  C   UNL     1      -4.985 -10.714   0.575  1.00  0.00     0.017 C 
ATOM     37  C   UNL     1      -5.627 -12.086   0.842  1.00  0.00     0.010 C 
ATOM     38  C   UNL     1      -4.920  -9.969   1.915  1.00  0.00     0.010 C 
ENDBRANCH  35  36
BRANCH  35  39
ATOM     39  C   UNL     1      -6.012 -10.802  -1.786  1.00  0.00     0.329 C 
ATOM     40  O   UNL     1      -7.124 -11.138  -2.176  1.00  0.00    -0.250 OA
BRANCH  39  41
ATOM     41  O   UNL     1      -4.858 -11.081  -2.465  1.00  0.00    -0.458 OA
BRANCH  41  42
ATOM     42  C   UNL     1      -4.967 -12.035  -3.549  1.00  0.00     0.205 CG0
ATOM     43  C   UNL     1      -4.115 -11.510  -4.702  1.00  0.00     0.056 C 
ATOM     44  G   UNL     1      -6.454 -12.177  -3.931  1.00  0.00     0.000 G0
ENDBRANCH  41  42
ENDBRANCH  39  41
ENDBRANCH  35  39
ENDBRANCH  33  35
ENDBRANCH  23  31
ENDBRANCH  21  23
ENDBRANCH  19  21
ENDBRANCH  14  19
ENDBRANCH   7  14
ENDBRANCH   2   5
BRANCH   3  45
ATOM     45  C   UNL     1      -2.713   0.130   7.538  1.00  0.00     0.171 C 
BRANCH  45  46
ATOM     46  N   UNL     1      -2.848   0.198   8.987  1.00  0.00    -0.342 N 
ATOM     47  C   UNL     1      -1.836   0.641   9.801  1.00  0.00     0.247 C 
ATOM     48  O   UNL     1      -0.771   1.080   9.365  1.00  0.00    -0.273 OA
ATOM     49  H   UNL     1      -3.735  -0.103   9.387  1.00  0.00     0.164 HD
BRANCH  47  50
ATOM     50  C   UNL     1      -2.114   0.525  11.307  1.00  0.00     0.212 CG0
ATOM     51  G   UNL     1      -0.761   0.606  12.040  1.00  0.00     0.000 G0
BRANCH  50  52
ATOM     52  N   UNL     1      -3.009   1.635  11.624  1.00  0.00    -0.339 N 
ATOM     53  C   UNL     1      -4.379   1.526  11.619  1.00  0.00     0.243 C 
ATOM     54  O   UNL     1      -4.960   0.495  11.293  1.00  0.00    -0.273 OA
ATOM     55  H   UNL     1      -2.590   2.547  11.793  1.00  0.00     0.164 HD
BRANCH  53  56
ATOM     56  C   UNL     1      -5.114   2.852  11.900  1.00  0.00     0.182 C 
BRANCH  56  57
ATOM     57  N   UNL     1      -4.190   3.868  12.413  1.00  0.00    -0.344 N 
ATOM     58  C   UNL     1      -3.840   4.979  11.685  1.00  0.00     0.220 C 
ATOM     59  O   UNL     1      -4.215   5.163  10.533  1.00  0.00    -0.275 OA
ATOM     60  H   UNL     1      -3.938   3.807  13.396  1.00  0.00     0.164 HD
BRANCH  58  61
ATOM     61  C   UNL     1      -2.919   5.924  12.436  1.00  0.00     0.100 C 
BRANCH  61  62
ATOM     62  C   UNL     1      -3.156   5.946  13.946  1.00  0.00     0.010 C 
BRANCH  62  63
ATOM     63  C   UNL     1      -4.020   7.119  14.428  1.00  0.00     0.000 C 
BRANCH  63  64
ATOM     64  C   UNL     1      -5.517   6.819  14.472  1.00  0.00    -0.003 C 
ATOM     65  C   UNL     1      -6.272   7.874  15.268  1.00  0.00     0.004 C 
ENDBRANCH  63  64
ENDBRANCH  62  63
ENDBRANCH  61  62
ENDBRANCH  58  61
ENDBRANCH  56  57
BRANCH  56  66
ATOM     66  C   UNL     1      -6.312   2.643  12.825  1.00  0.00     0.157 C 
BRANCH  66  67
ATOM     67  C   UNL     1      -5.950   2.918  14.256  1.00  0.00     0.305 C 
ATOM     68  O   UNL     1      -4.907   2.619  14.818  1.00  0.00    -0.252 OA
BRANCH  67  69
ATOM     69  O   UNL     1      -6.907   3.609  14.902  1.00  0.00    -0.481 OA
ATOM     70  H   UNL     1      -6.435   4.073  15.626  1.00  0.00     0.296 HD
ENDBRANCH  67  69
ENDBRANCH  66  67
ENDBRANCH  56  66
ENDBRANCH  53  56
ENDBRANCH  50  52
ENDBRANCH  47  50
ENDBRANCH  45  46
BRANCH  45  71
ATOM     71  C   UNL     1      -3.459   1.275   6.846  1.00  0.00     0.037 C 
BRANCH  71  72
ATOM     72  C   UNL     1      -2.567   2.501   6.638  1.00  0.00     0.026 C 
BRANCH  72  73
ATOM     73  C   UNL     1      -3.063   3.699   7.446  1.00  0.00     0.146 C 
BRANCH  73  74
ATOM     74  N   UNL     1      -3.803   4.573   6.541  1.00  0.00    -0.254 NA
ATOM     75  C   UNL     1      -4.985   4.930   6.886  1.00  0.00     0.185 C 
ATOM     76  N   UNL     1      -5.690   5.735   6.075  1.00  0.00    -0.370 N 
ATOM     77  N   UNL     1      -5.675   4.610   7.995  1.00  0.00    -0.370 N 
ATOM     78  H   UNL     1      -5.247   6.018   5.213  1.00  0.00     0.159 HD
ATOM     79  H   UNL     1      -6.666   5.937   6.206  1.00  0.00     0.159 HD
ATOM     80  H   UNL     1      -5.267   4.012   8.699  1.00  0.00     0.159 HD
ATOM     81  H   UNL     1      -6.556   5.045   8.213  1.00  0.00     0.159 HD
ENDBRANCH  73  74
ENDBRANCH  72  73
ENDBRANCH  71  72
ENDBRANCH  45  71
ENDBRANCH   3  45
TORSDOF 20
ENDMDL
MODEL 44
REMARK VINA RESULT:    -5.022     11.996     14.570
REMARK INTER + INTRA:         -21.569
REMARK INTER:                 -15.676
REMARK INTRA:                  -5.893
REMARK UNBOUND:                -7.151
REMARK SMILES CCCCCC(=O)N[C@H](CC(=O)O)C(=O)N[C@H]1C(=O)N[C@H](CCCN=C(N)N)C(=O)N[C@@H]2CC[C@H](O)N(C2=O)[C@@H](CC(C)C)C(=O)N(C)[C@@H](Cc2ccccc2)C(=O)N[C@H](C(C)C)C(=O)O[C@@H]1C
REMARK SMILES IDX 30 1 31 2 29 3 32 5 35 6 37 7 34 8 38 9 33 10 39 11 36 12
REMARK SMILES IDX 40 14 41 15 42 16 43 17 44 18 45 19 46 20 47 21 48 22 49 23
REMARK SMILES IDX 50 24 51 25 52 26 56 27 53 28 55 29 54 30 57 31 58 32 59 33
REMARK SMILES IDX 60 35 61 36 62 37 63 38 64 39 65 40 66 41 67 42 68 43 21 45
REMARK SMILES IDX 20 46 18 47 19 48 17 50 16 52 14 53 15 54 9 56 8 57 6 58
REMARK SMILES IDX 7 59 5 61 4 62 3 63 2 64 1 65 10 66 11 67 12 68 13 69 22 71
REMARK SMILES IDX 23 72 24 73 25 74 26 75 27 76 28 77
REMARK H PARENT 31 4 36 13 59 34 20 49 16 55 8 60 13 70 27 78 27 79 28 80
REMARK H PARENT 28 81
REMARK Flexibility Score:  259.900
ROOT
ATOM      1  O   UNL     1      -3.842  -0.665   8.114  1.00  0.00    -0.273 OA
ATOM      2  N   UNL     1      -2.346  -1.586   6.650  1.00  0.00    -0.343 N 
ATOM      3  C   UNL     1      -2.729  -0.651   7.587  1.00  0.00     0.243 C 
ATOM      4  H   UNL     1      -1.417  -1.552   6.249  1.00  0.00     0.164 HD
ENDROOT
BRANCH   2   5
ATOM      5  C   UNL     1      -3.299  -2.571   6.152  1.00  0.00     0.171 C 
ATOM      6  C   UNL     1      -3.013  -4.879   4.420  1.00  0.00     0.214 C 
ATOM      7  N   UNL     1      -3.332  -3.594   3.844  1.00  0.00    -0.303 N 
ATOM      8  C   UNL     1      -3.546  -5.054   5.834  1.00  0.00     0.057 C 
ATOM      9  C   UNL     1      -3.432  -2.442   4.607  1.00  0.00     0.247 C 
ATOM     10  C   UNL     1      -3.004  -3.957   6.725  1.00  0.00     0.040 C 
ATOM     11  O   UNL     1      -3.620  -1.330   4.096  1.00  0.00    -0.272 OA
BRANCH   6  12
ATOM     12  O   UNL     1      -1.612  -5.024   4.401  1.00  0.00    -0.373 OA
ATOM     13  H   UNL     1      -1.232  -4.194   4.760  1.00  0.00     0.213 HD
ENDBRANCH   6  12
BRANCH   7  14
ATOM     14  C   UNL     1      -3.405  -3.520   2.369  1.00  0.00     0.177 C 
BRANCH  14  15
ATOM     15  C   UNL     1      -2.062  -3.268   1.657  1.00  0.00     0.038 C 
BRANCH  15  16
ATOM     16  C   UNL     1      -1.831  -1.931   0.918  1.00  0.00    -0.015 C 
ATOM     17  C   UNL     1      -0.852  -1.016   1.659  1.00  0.00     0.007 C 
ATOM     18  C   UNL     1      -3.163  -1.187   0.765  1.00  0.00     0.007 C 
ENDBRANCH  15  16
ENDBRANCH  14  15
BRANCH  14  19
ATOM     19  C   UNL     1      -4.556  -4.440   1.835  1.00  0.00     0.245 C 
ATOM     20  O   UNL     1      -5.719  -4.097   2.108  1.00  0.00    -0.272 OA
BRANCH  19  21
ATOM     21  N   UNL     1      -4.343  -5.645   1.190  1.00  0.00    -0.332 N 
ATOM     22  C   UNL     1      -3.309  -6.609   1.523  1.00  0.00     0.147 C 
BRANCH  21  23
ATOM     23  C   UNL     1      -5.235  -5.991   0.049  1.00  0.00     0.178 C 
BRANCH  23  24
ATOM     24  C   UNL     1      -4.544  -6.003  -1.330  1.00  0.00     0.070 C 
BRANCH  24  25
ATOM     25  C   UNL     1      -4.674  -4.757  -2.175  1.00  0.00    -0.045 A 
ATOM     26  C   UNL     1      -3.938  -3.604  -1.872  1.00  0.00     0.004 A 
ATOM     27  C   UNL     1      -5.542  -4.737  -3.278  1.00  0.00     0.004 A 
ATOM     28  C   UNL     1      -4.077  -2.451  -2.648  1.00  0.00     0.000 A 
ATOM     29  C   UNL     1      -5.678  -3.585  -4.053  1.00  0.00     0.000 A 
ATOM     30  C   UNL     1      -4.948  -2.441  -3.736  1.00  0.00     0.000 A 
ENDBRANCH  24  25
ENDBRANCH  23  24
BRANCH  23  31
ATOM     31  C   UNL     1      -6.136  -7.216   0.336  1.00  0.00     0.243 C 
ATOM     32  O   UNL     1      -7.007  -7.240   1.202  1.00  0.00    -0.273 OA
ATOM     33  N   UNL     1      -5.751  -8.358  -0.346  1.00  0.00    -0.341 N 
ATOM     34  H   UNL     1      -5.015  -8.277  -1.052  1.00  0.00     0.164 HD
BRANCH  33  35
ATOM     35  C   UNL     1      -6.385  -9.663  -0.139  1.00  0.00     0.194 C 
BRANCH  35  36
ATOM     36  C   UNL     1      -5.790 -10.477   1.045  1.00  0.00     0.017 C 
ATOM     37  C   UNL     1      -4.256 -10.372   1.081  1.00  0.00     0.010 C 
ATOM     38  C   UNL     1      -6.147 -11.967   0.993  1.00  0.00     0.010 C 
ENDBRANCH  35  36
BRANCH  35  39
ATOM     39  C   UNL     1      -6.457 -10.505  -1.444  1.00  0.00     0.329 C 
ATOM     40  O   UNL     1      -7.447 -11.134  -1.800  1.00  0.00    -0.250 OA
BRANCH  39  41
ATOM     41  O   UNL     1      -5.321 -10.397  -2.196  1.00  0.00    -0.458 OA
BRANCH  41  42
ATOM     42  C   UNL     1      -5.004 -11.527  -3.045  1.00  0.00     0.205 CG0
ATOM     43  C   UNL     1      -4.207 -12.519  -2.201  1.00  0.00     0.056 C 
ATOM     44  G   UNL     1      -4.209 -11.018  -4.264  1.00  0.00     0.000 G0
ENDBRANCH  41  42
ENDBRANCH  39  41
ENDBRANCH  35  39
ENDBRANCH  33  35
ENDBRANCH  23  31
ENDBRANCH  21  23
ENDBRANCH  19  21
ENDBRANCH  14  19
ENDBRANCH   7  14
ENDBRANCH   2   5
BRANCH   3  45
ATOM     45  C   UNL     1      -1.665   0.396   7.945  1.00  0.00     0.171 C 
BRANCH  45  46
ATOM     46  N   UNL     1      -2.109   0.997   9.195  1.00  0.00    -0.342 N 
ATOM     47  C   UNL     1      -1.424   0.837  10.373  1.00  0.00     0.247 C 
ATOM     48  O   UNL     1      -0.351   0.237  10.446  1.00  0.00    -0.273 OA
ATOM     49  H   UNL     1      -2.964   1.550   9.168  1.00  0.00     0.164 HD
BRANCH  47  50
ATOM     50  C   UNL     1      -2.108   1.438  11.610  1.00  0.00     0.212 CG0
ATOM     51  G   UNL     1      -2.447   2.907  11.288  1.00  0.00     0.000 G0
BRANCH  50  52
ATOM     52  N   UNL     1      -3.288   0.610  11.843  1.00  0.00    -0.339 N 
ATOM     53  C   UNL     1      -3.400  -0.268  12.894  1.00  0.00     0.243 C 
ATOM     54  O   UNL     1      -2.488  -0.463  13.693  1.00  0.00    -0.273 OA
ATOM     55  H   UNL     1      -4.034   0.645  11.152  1.00  0.00     0.164 HD
BRANCH  53  56
ATOM     56  C   UNL     1      -4.701  -1.095  12.886  1.00  0.00     0.182 C 
BRANCH  56  57
ATOM     57  N   UNL     1      -4.877  -1.786  11.604  1.00  0.00    -0.344 N 
ATOM     58  C   UNL     1      -4.477  -3.084  11.407  1.00  0.00     0.220 C 
ATOM     59  O   UNL     1      -3.880  -3.731  12.261  1.00  0.00    -0.275 OA
ATOM     60  H   UNL     1      -5.455  -1.323  10.907  1.00  0.00     0.164 HD
BRANCH  58  61
ATOM     61  C   UNL     1      -4.811  -3.614  10.025  1.00  0.00     0.100 C 
BRANCH  61  62
ATOM     62  C   UNL     1      -4.982  -5.132   9.971  1.00  0.00     0.010 C 
BRANCH  62  63
ATOM     63  C   UNL     1      -5.752  -5.634   8.743  1.00  0.00     0.000 C 
BRANCH  63  64
ATOM     64  C   UNL     1      -5.525  -7.110   8.421  1.00  0.00    -0.003 C 
ATOM     65  C   UNL     1      -4.064  -7.497   8.593  1.00  0.00     0.004 C 
ENDBRANCH  63  64
ENDBRANCH  62  63
ENDBRANCH  61  62
ENDBRANCH  58  61
ENDBRANCH  56  57
BRANCH  56  66
ATOM     66  C   UNL     1      -5.912  -0.237  13.250  1.00  0.00     0.157 C 
BRANCH  66  67
ATOM     67  C   UNL     1      -6.659   0.198  12.022  1.00  0.00     0.305 C 
ATOM     68  O   UNL     1      -6.418   1.172  11.324  1.00  0.00    -0.252 OA
BRANCH  67  69
ATOM     69  O   UNL     1      -7.652  -0.651  11.699  1.00  0.00    -0.481 OA
ATOM     70  H   UNL     1      -7.967  -1.006  12.557  1.00  0.00     0.296 HD
ENDBRANCH  67  69
ENDBRANCH  66  67
ENDBRANCH  56  66
ENDBRANCH  53  56
ENDBRANCH  50  52
ENDBRANCH  47  50
ENDBRANCH  45  46
BRANCH  45  71
ATOM     71  C   UNL     1      -1.545   1.438   6.827  1.00  0.00     0.037 C 
BRANCH  71  72
ATOM     72  C   UNL     1      -2.909   1.989   6.404  1.00  0.00     0.026 C 
BRANCH  72  73
ATOM     73  C   UNL     1      -3.292   3.222   7.219  1.00  0.00     0.146 C 
BRANCH  73  74
ATOM     74  N   UNL     1      -3.775   4.239   6.289  1.00  0.00    -0.254 NA
ATOM     75  C   UNL     1      -4.891   4.811   6.554  1.00  0.00     0.185 C 
ATOM     76  N   UNL     1      -5.361   5.752   5.719  1.00  0.00    -0.370 N 
ATOM     77  N   UNL     1      -5.717   4.611   7.596  1.00  0.00    -0.370 N 
ATOM     78  H   UNL     1      -4.803   5.959   4.903  1.00  0.00     0.159 HD
ATOM     79  H   UNL     1      -6.287   6.136   5.782  1.00  0.00     0.159 HD
ATOM     80  H   UNL     1      -5.490   3.934   8.309  1.00  0.00     0.159 HD
ATOM     81  H   UNL     1      -6.514   5.204   7.760  1.00  0.00     0.159 HD
ENDBRANCH  73  74
ENDBRANCH  72  73
ENDBRANCH  71  72
ENDBRANCH  45  71
ENDBRANCH   3  45
TORSDOF 20
ENDMDL
MODEL 45
REMARK VINA RESULT:    -4.978      3.745      6.664
REMARK INTER + INTRA:         -21.441
REMARK INTER:                 -14.460
REMARK INTRA:                  -6.980
REMARK UNBOUND:                -7.151
REMARK SMILES CCCCCC(=O)N[C@H](CC(=O)O)C(=O)N[C@H]1C(=O)N[C@H](CCCN=C(N)N)C(=O)N[C@@H]2CC[C@H](O)N(C2=O)[C@@H](CC(C)C)C(=O)N(C)[C@@H](Cc2ccccc2)C(=O)N[C@H](C(C)C)C(=O)O[C@@H]1C
REMARK SMILES IDX 30 1 31 2 29 3 32 5 35 6 37 7 34 8 38 9 33 10 39 11 36 12
REMARK SMILES IDX 40 14 41 15 42 16 43 17 44 18 45 19 46 20 47 21 48 22 49 23
REMARK SMILES IDX 50 24 51 25 52 26 56 27 53 28 55 29 54 30 57 31 58 32 59 33
REMARK SMILES IDX 60 35 61 36 62 37 63 38 64 39 65 40 66 41 67 42 68 43 21 45
REMARK SMILES IDX 20 46 18 47 19 48 17 50 16 52 14 53 15 54 9 56 8 57 6 58
REMARK SMILES IDX 7 59 5 61 4 62 3 63 2 64 1 65 10 66 11 67 12 68 13 69 22 71
REMARK SMILES IDX 23 72 24 73 25 74 26 75 27 76 28 77
REMARK H PARENT 31 4 36 13 59 34 20 49 16 55 8 60 13 70 27 78 27 79 28 80
REMARK H PARENT 28 81
REMARK Flexibility Score:  259.900
ROOT
ATOM      1  O   UNL     1       1.881   6.682   8.210  1.00  0.00    -0.273 OA
ATOM      2  N   UNL     1       3.836   7.705   7.607  1.00  0.00    -0.343 N 
ATOM      3  C   UNL     1       2.574   7.699   8.162  1.00  0.00     0.243 C 
ATOM      4  H   UNL     1       4.383   8.557   7.598  1.00  0.00     0.164 HD
ENDROOT
BRANCH   2   5
ATOM      5  C   UNL     1       4.359   6.518   6.939  1.00  0.00     0.171 C 
ATOM      6  C   UNL     1       7.045   5.480   6.599  1.00  0.00     0.214 C 
ATOM      7  N   UNL     1       6.495   6.368   5.601  1.00  0.00    -0.303 N 
ATOM      8  C   UNL     1       5.991   4.640   7.303  1.00  0.00     0.057 C 
ATOM      9  C   UNL     1       5.239   6.940   5.727  1.00  0.00     0.247 C 
ATOM     10  C   UNL     1       4.963   5.543   7.949  1.00  0.00     0.040 C 
ATOM     11  O   UNL     1       4.810   7.767   4.912  1.00  0.00    -0.272 OA
BRANCH   6  12
ATOM     12  O   UNL     1       7.752   6.264   7.531  1.00  0.00    -0.373 OA
ATOM     13  H   UNL     1       8.690   6.275   7.244  1.00  0.00     0.213 HD
ENDBRANCH   6  12
BRANCH   7  14
ATOM     14  C   UNL     1       7.389   6.768   4.494  1.00  0.00     0.177 C 
BRANCH  14  15
ATOM     15  C   UNL     1       8.236   8.028   4.759  1.00  0.00     0.038 C 
BRANCH  15  16
ATOM     16  C   UNL     1       8.541   8.998   3.595  1.00  0.00    -0.015 C 
ATOM     17  C   UNL     1       9.473  10.139   4.015  1.00  0.00     0.007 C 
ATOM     18  C   UNL     1       7.235   9.611   3.075  1.00  0.00     0.007 C 
ENDBRANCH  15  16
ENDBRANCH  14  15
BRANCH  14  19
ATOM     19  C   UNL     1       7.865   5.506   3.696  1.00  0.00     0.245 C 
ATOM     20  O   UNL     1       9.086   5.273   3.694  1.00  0.00    -0.272 OA
BRANCH  19  21
ATOM     21  N   UNL     1       7.028   4.723   2.921  1.00  0.00    -0.332 N 
ATOM     22  C   UNL     1       6.123   3.704   3.423  1.00  0.00     0.147 C 
BRANCH  21  23
ATOM     23  C   UNL     1       7.057   4.924   1.446  1.00  0.00     0.178 C 
BRANCH  23  24
ATOM     24  C   UNL     1       7.466   6.341   0.995  1.00  0.00     0.070 C 
BRANCH  24  25
ATOM     25  C   UNL     1       6.553   7.041   0.015  1.00  0.00    -0.045 A 
ATOM     26  C   UNL     1       6.842   7.047  -1.356  1.00  0.00     0.004 A 
ATOM     27  C   UNL     1       5.402   7.703   0.468  1.00  0.00     0.004 A 
ATOM     28  C   UNL     1       6.003   7.711  -2.253  1.00  0.00     0.000 A 
ATOM     29  C   UNL     1       4.564   8.365  -0.430  1.00  0.00     0.000 A 
ATOM     30  C   UNL     1       4.867   8.371  -1.790  1.00  0.00     0.000 A 
ENDBRANCH  24  25
ENDBRANCH  23  24
BRANCH  23  31
ATOM     31  C   UNL     1       7.764   3.772   0.693  1.00  0.00     0.243 C 
ATOM     32  O   UNL     1       7.192   2.994  -0.066  1.00  0.00    -0.273 OA
ATOM     33  N   UNL     1       9.075   3.573   1.092  1.00  0.00    -0.341 N 
ATOM     34  H   UNL     1       9.496   4.251   1.732  1.00  0.00     0.164 HD
BRANCH  33  35
ATOM     35  C   UNL     1       9.900   2.465   0.602  1.00  0.00     0.194 C 
BRANCH  35  36
ATOM     36  C   UNL     1      10.591   1.642   1.726  1.00  0.00     0.017 C 
ATOM     37  C   UNL     1       9.628   0.605   2.331  1.00  0.00     0.010 C 
ATOM     38  C   UNL     1      11.113   2.510   2.877  1.00  0.00     0.010 C 
ENDBRANCH  35  36
BRANCH  35  39
ATOM     39  C   UNL     1      10.908   2.910  -0.494  1.00  0.00     0.329 C 
ATOM     40  O   UNL     1      11.203   4.078  -0.722  1.00  0.00    -0.250 OA
BRANCH  39  41
ATOM     41  O   UNL     1      11.498   1.847  -1.121  1.00  0.00    -0.458 OA
BRANCH  41  42
ATOM     42  C   UNL     1      12.521   2.164  -2.094  1.00  0.00     0.205 CG0
ATOM     43  C   UNL     1      11.908   1.965  -3.479  1.00  0.00     0.056 C 
ATOM     44  G   UNL     1      13.735   1.245  -1.849  1.00  0.00     0.000 G0
ENDBRANCH  41  42
ENDBRANCH  39  41
ENDBRANCH  35  39
ENDBRANCH  33  35
ENDBRANCH  23  31
ENDBRANCH  21  23
ENDBRANCH  19  21
ENDBRANCH  14  19
ENDBRANCH   7  14
ENDBRANCH   2   5
BRANCH   3  45
ATOM     45  C   UNL     1       2.102   9.042   8.734  1.00  0.00     0.171 C 
BRANCH  45  46
ATOM     46  N   UNL     1       0.651   8.942   8.827  1.00  0.00    -0.342 N 
ATOM     47  C   UNL     1       0.003   8.719  10.016  1.00  0.00     0.247 C 
ATOM     48  O   UNL     1       0.591   8.661  11.097  1.00  0.00    -0.273 OA
ATOM     49  H   UNL     1       0.121   9.040   7.963  1.00  0.00     0.164 HD
BRANCH  47  50
ATOM     50  C   UNL     1      -1.515   8.519   9.902  1.00  0.00     0.212 CG0
ATOM     51  G   UNL     1      -2.140   9.881   9.542  1.00  0.00     0.000 G0
BRANCH  50  52
ATOM     52  N   UNL     1      -1.697   7.508   8.864  1.00  0.00    -0.339 N 
ATOM     53  C   UNL     1      -1.985   7.811   7.555  1.00  0.00     0.243 C 
ATOM     54  O   UNL     1      -2.164   8.962   7.167  1.00  0.00    -0.273 OA
ATOM     55  H   UNL     1      -1.670   6.530   9.146  1.00  0.00     0.164 HD
BRANCH  53  56
ATOM     56  C   UNL     1      -2.218   6.577   6.661  1.00  0.00     0.182 C 
BRANCH  56  57
ATOM     57  N   UNL     1      -3.397   5.824   7.101  1.00  0.00    -0.344 N 
ATOM     58  C   UNL     1      -4.216   5.159   6.221  1.00  0.00     0.220 C 
ATOM     59  O   UNL     1      -4.063   5.208   5.006  1.00  0.00    -0.275 OA
ATOM     60  H   UNL     1      -3.502   5.674   8.101  1.00  0.00     0.164 HD
BRANCH  58  61
ATOM     61  C   UNL     1      -5.340   4.400   6.902  1.00  0.00     0.100 C 
BRANCH  61  62
ATOM     62  C   UNL     1      -5.284   4.454   8.429  1.00  0.00     0.010 C 
BRANCH  62  63
ATOM     63  C   UNL     1      -4.967   3.108   9.093  1.00  0.00     0.000 C 
BRANCH  63  64
ATOM     64  C   UNL     1      -3.629   2.501   8.672  1.00  0.00    -0.003 C 
ATOM     65  C   UNL     1      -2.465   3.173   9.385  1.00  0.00     0.004 C 
ENDBRANCH  63  64
ENDBRANCH  62  63
ENDBRANCH  61  62
ENDBRANCH  58  61
ENDBRANCH  56  57
BRANCH  56  66
ATOM     66  C   UNL     1      -0.971   5.699   6.581  1.00  0.00     0.157 C 
BRANCH  66  67
ATOM     67  C   UNL     1      -0.334   5.781   5.224  1.00  0.00     0.305 C 
ATOM     68  O   UNL     1       0.832   5.543   4.946  1.00  0.00    -0.252 OA
BRANCH  67  69
ATOM     69  O   UNL     1      -1.217   6.113   4.264  1.00  0.00    -0.481 OA
ATOM     70  H   UNL     1      -1.572   5.257   3.943  1.00  0.00     0.296 HD
ENDBRANCH  67  69
ENDBRANCH  66  67
ENDBRANCH  56  66
ENDBRANCH  53  56
ENDBRANCH  50  52
ENDBRANCH  47  50
ENDBRANCH  45  46
BRANCH  45  71
ATOM     71  C   UNL     1       2.531  10.193   7.819  1.00  0.00     0.037 C 
BRANCH  71  72
ATOM     72  C   UNL     1       1.551  10.406   6.663  1.00  0.00     0.026 C 
BRANCH  72  73
ATOM     73  C   UNL     1       2.207  10.122   5.313  1.00  0.00     0.146 C 
BRANCH  73  74
ATOM     74  N   UNL     1       1.375   9.152   4.608  1.00  0.00    -0.254 NA
ATOM     75  C   UNL     1       1.778   8.736   3.464  1.00  0.00     0.185 C 
ATOM     76  N   UNL     1       1.035   7.842   2.792  1.00  0.00    -0.370 N 
ATOM     77  N   UNL     1       2.892   9.068   2.789  1.00  0.00    -0.370 N 
ATOM     78  H   UNL     1       0.173   7.544   3.227  1.00  0.00     0.159 HD
ATOM     79  H   UNL     1       1.210   7.583   1.837  1.00  0.00     0.159 HD
ATOM     80  H   UNL     1       3.549   9.728   3.176  1.00  0.00     0.159 HD
ATOM     81  H   UNL     1       3.163   8.587   1.947  1.00  0.00     0.159 HD
ENDBRANCH  73  74
ENDBRANCH  72  73
ENDBRANCH  71  72
ENDBRANCH  45  71
ENDBRANCH   3  45
TORSDOF 20
ENDMDL
MODEL 46
REMARK VINA RESULT:    -4.919     11.020     13.699
REMARK INTER + INTRA:         -21.271
REMARK INTER:                 -15.323
REMARK INTRA:                  -5.949
REMARK UNBOUND:                -7.151
REMARK SMILES CCCCCC(=O)N[C@H](CC(=O)O)C(=O)N[C@H]1C(=O)N[C@H](CCCN=C(N)N)C(=O)N[C@@H]2CC[C@H](O)N(C2=O)[C@@H](CC(C)C)C(=O)N(C)[C@@H](Cc2ccccc2)C(=O)N[C@H](C(C)C)C(=O)O[C@@H]1C
REMARK SMILES IDX 30 1 31 2 29 3 32 5 35 6 37 7 34 8 38 9 33 10 39 11 36 12
REMARK SMILES IDX 40 14 41 15 42 16 43 17 44 18 45 19 46 20 47 21 48 22 49 23
REMARK SMILES IDX 50 24 51 25 52 26 56 27 53 28 55 29 54 30 57 31 58 32 59 33
REMARK SMILES IDX 60 35 61 36 62 37 63 38 64 39 65 40 66 41 67 42 68 43 21 45
REMARK SMILES IDX 20 46 18 47 19 48 17 50 16 52 14 53 15 54 9 56 8 57 6 58
REMARK SMILES IDX 7 59 5 61 4 62 3 63 2 64 1 65 10 66 11 67 12 68 13 69 22 71
REMARK SMILES IDX 23 72 24 73 25 74 26 75 27 76 28 77
REMARK H PARENT 31 4 36 13 59 34 20 49 16 55 8 60 13 70 27 78 27 79 28 80
REMARK H PARENT 28 81
REMARK Flexibility Score:  259.900
ROOT
ATOM      1  O   UNL     1      -3.842  -0.748   8.433  1.00  0.00    -0.273 OA
ATOM      2  N   UNL     1      -2.430  -1.381   6.749  1.00  0.00    -0.343 N 
ATOM      3  C   UNL     1      -2.795  -0.577   7.807  1.00  0.00     0.243 C 
ATOM      4  H   UNL     1      -1.555  -1.220   6.266  1.00  0.00     0.164 HD
ENDROOT
BRANCH   2   5
ATOM      5  C   UNL     1      -3.339  -2.405   6.247  1.00  0.00     0.171 C 
ATOM      6  C   UNL     1      -2.940  -4.731   4.563  1.00  0.00     0.214 C 
ATOM      7  N   UNL     1      -3.287  -3.467   3.957  1.00  0.00    -0.303 N 
ATOM      8  C   UNL     1      -3.499  -4.899   5.967  1.00  0.00     0.057 C 
ATOM      9  C   UNL     1      -3.442  -2.306   4.698  1.00  0.00     0.247 C 
ATOM     10  C   UNL     1      -3.014  -3.771   6.850  1.00  0.00     0.040 C 
ATOM     11  O   UNL     1      -3.654  -1.210   4.163  1.00  0.00    -0.272 OA
BRANCH   6  12
ATOM     12  O   UNL     1      -1.535  -4.830   4.578  1.00  0.00    -0.373 OA
ATOM     13  H   UNL     1      -1.252  -5.045   3.663  1.00  0.00     0.213 HD
ENDBRANCH   6  12
BRANCH   7  14
ATOM     14  C   UNL     1      -3.328  -3.420   2.480  1.00  0.00     0.177 C 
BRANCH  14  15
ATOM     15  C   UNL     1      -1.968  -3.195   1.792  1.00  0.00     0.038 C 
BRANCH  15  16
ATOM     16  C   UNL     1      -1.734  -1.906   0.974  1.00  0.00    -0.015 C 
ATOM     17  C   UNL     1      -0.646  -1.016   1.584  1.00  0.00     0.007 C 
ATOM     18  C   UNL     1      -3.033  -1.094   0.901  1.00  0.00     0.007 C 
ENDBRANCH  15  16
ENDBRANCH  14  15
BRANCH  14  19
ATOM     19  C   UNL     1      -4.477  -4.341   1.940  1.00  0.00     0.245 C 
ATOM     20  O   UNL     1      -5.639  -4.021   2.243  1.00  0.00    -0.272 OA
BRANCH  19  21
ATOM     21  N   UNL     1      -4.260  -5.523   1.255  1.00  0.00    -0.332 N 
ATOM     22  C   UNL     1      -3.234  -6.502   1.568  1.00  0.00     0.147 C 
BRANCH  21  23
ATOM     23  C   UNL     1      -5.138  -5.825   0.091  1.00  0.00     0.178 C 
BRANCH  23  24
ATOM     24  C   UNL     1      -4.415  -5.856  -1.271  1.00  0.00     0.070 C 
BRANCH  24  25
ATOM     25  C   UNL     1      -4.483  -4.605  -2.115  1.00  0.00    -0.045 A 
ATOM     26  C   UNL     1      -3.768  -3.456  -1.753  1.00  0.00     0.004 A 
ATOM     27  C   UNL     1      -5.269  -4.576  -3.277  1.00  0.00     0.004 A 
ATOM     28  C   UNL     1      -3.849  -2.297  -2.529  1.00  0.00     0.000 A 
ATOM     29  C   UNL     1      -5.348  -3.418  -4.052  1.00  0.00     0.000 A 
ATOM     30  C   UNL     1      -4.640  -2.278  -3.676  1.00  0.00     0.000 A 
ENDBRANCH  24  25
ENDBRANCH  23  24
BRANCH  23  31
ATOM     31  C   UNL     1      -6.095  -7.013   0.348  1.00  0.00     0.243 C 
ATOM     32  O   UNL     1      -6.983  -7.008   1.197  1.00  0.00    -0.273 OA
ATOM     33  N   UNL     1      -5.746  -8.163  -0.339  1.00  0.00    -0.341 N 
ATOM     34  H   UNL     1      -4.994  -8.106  -1.029  1.00  0.00     0.164 HD
BRANCH  33  35
ATOM     35  C   UNL     1      -6.438  -9.442  -0.158  1.00  0.00     0.194 C 
BRANCH  35  36
ATOM     36  C   UNL     1      -6.027 -10.210   1.130  1.00  0.00     0.017 C 
ATOM     37  C   UNL     1      -4.714 -10.985   0.923  1.00  0.00     0.010 C 
ATOM     38  C   UNL     1      -7.085 -11.217   1.597  1.00  0.00     0.010 C 
ENDBRANCH  35  36
BRANCH  35  39
ATOM     39  C   UNL     1      -6.365 -10.345  -1.421  1.00  0.00     0.329 C 
ATOM     40  O   UNL     1      -7.236 -11.143  -1.746  1.00  0.00    -0.250 OA
BRANCH  39  41
ATOM     41  O   UNL     1      -5.257 -10.088  -2.180  1.00  0.00    -0.458 OA
BRANCH  41  42
ATOM     42  C   UNL     1      -4.790 -11.171  -3.020  1.00  0.00     0.205 CG0
ATOM     43  C   UNL     1      -3.347 -11.468  -2.618  1.00  0.00     0.056 C 
ATOM     44  G   UNL     1      -4.913 -10.737  -4.495  1.00  0.00     0.000 G0
ENDBRANCH  41  42
ENDBRANCH  39  41
ENDBRANCH  35  39
ENDBRANCH  33  35
ENDBRANCH  23  31
ENDBRANCH  21  23
ENDBRANCH  19  21
ENDBRANCH  14  19
ENDBRANCH   7  14
ENDBRANCH   2   5
BRANCH   3  45
ATOM     45  C   UNL     1      -1.797   0.532   8.165  1.00  0.00     0.171 C 
BRANCH  45  46
ATOM     46  N   UNL     1      -2.379   1.235   9.301  1.00  0.00    -0.342 N 
ATOM     47  C   UNL     1      -1.797   1.236  10.543  1.00  0.00     0.247 C 
ATOM     48  O   UNL     1      -0.708   0.708  10.772  1.00  0.00    -0.273 OA
ATOM     49  H   UNL     1      -3.253   1.734   9.141  1.00  0.00     0.164 HD
BRANCH  47  50
ATOM     50  C   UNL     1      -2.616   1.924  11.644  1.00  0.00     0.212 CG0
ATOM     51  G   UNL     1      -2.117   1.389  13.002  1.00  0.00     0.000 G0
BRANCH  50  52
ATOM     52  N   UNL     1      -2.384   3.355  11.467  1.00  0.00    -0.339 N 
ATOM     53  C   UNL     1      -3.360   4.236  11.070  1.00  0.00     0.243 C 
ATOM     54  O   UNL     1      -4.498   3.876  10.781  1.00  0.00    -0.273 OA
ATOM     55  H   UNL     1      -1.432   3.697  11.584  1.00  0.00     0.164 HD
BRANCH  53  56
ATOM     56  C   UNL     1      -2.858   5.680  10.868  1.00  0.00     0.182 C 
BRANCH  56  57
ATOM     57  N   UNL     1      -2.782   6.015   9.442  1.00  0.00    -0.344 N 
ATOM     58  C   UNL     1      -3.644   6.904   8.848  1.00  0.00     0.220 C 
ATOM     59  O   UNL     1      -4.581   7.421   9.447  1.00  0.00    -0.275 OA
ATOM     60  H   UNL     1      -1.962   5.690   8.936  1.00  0.00     0.164 HD
BRANCH  58  61
ATOM     61  C   UNL     1      -3.343   7.144   7.380  1.00  0.00     0.100 C 
BRANCH  61  62
ATOM     62  C   UNL     1      -3.501   5.898   6.507  1.00  0.00     0.010 C 
BRANCH  62  63
ATOM     63  C   UNL     1      -4.879   5.232   6.607  1.00  0.00     0.000 C 
BRANCH  63  64
ATOM     64  C   UNL     1      -4.978   3.886   5.891  1.00  0.00    -0.003 C 
ATOM     65  C   UNL     1      -4.215   3.900   4.575  1.00  0.00     0.004 C 
ENDBRANCH  63  64
ENDBRANCH  62  63
ENDBRANCH  61  62
ENDBRANCH  58  61
ENDBRANCH  56  57
BRANCH  56  66
ATOM     66  C   UNL     1      -1.532   5.918  11.588  1.00  0.00     0.157 C 
BRANCH  66  67
ATOM     67  C   UNL     1      -1.291   7.383  11.812  1.00  0.00     0.305 C 
ATOM     68  O   UNL     1      -2.068   8.297  11.583  1.00  0.00    -0.252 OA
BRANCH  67  69
ATOM     69  O   UNL     1      -0.088   7.624  12.368  1.00  0.00    -0.481 OA
ATOM     70  H   UNL     1      -0.291   8.033  13.236  1.00  0.00     0.296 HD
ENDBRANCH  67  69
ENDBRANCH  66  67
ENDBRANCH  56  66
ENDBRANCH  53  56
ENDBRANCH  50  52
ENDBRANCH  47  50
ENDBRANCH  45  46
BRANCH  45  71
ATOM     71  C   UNL     1      -1.586   1.467   6.969  1.00  0.00     0.037 C 
BRANCH  71  72
ATOM     72  C   UNL     1      -1.625   2.942   7.377  1.00  0.00     0.026 C 
BRANCH  72  73
ATOM     73  C   UNL     1      -0.260   3.606   7.208  1.00  0.00     0.146 C 
BRANCH  73  74
ATOM     74  N   UNL     1      -0.220   4.773   8.084  1.00  0.00    -0.254 NA
ATOM     75  C   UNL     1       0.241   5.868   7.602  1.00  0.00     0.185 C 
ATOM     76  N   UNL     1       0.290   6.959   8.384  1.00  0.00    -0.370 N 
ATOM     77  N   UNL     1       0.711   6.116   6.368  1.00  0.00    -0.370 N 
ATOM     78  H   UNL     1      -0.039   6.857   9.333  1.00  0.00     0.159 HD
ATOM     79  H   UNL     1       0.767   7.805   8.125  1.00  0.00     0.159 HD
ATOM     80  H   UNL     1       0.732   5.388   5.670  1.00  0.00     0.159 HD
ATOM     81  H   UNL     1       0.941   7.049   6.068  1.00  0.00     0.159 HD
ENDBRANCH  73  74
ENDBRANCH  72  73
ENDBRANCH  71  72
ENDBRANCH  45  71
ENDBRANCH   3  45
TORSDOF 20
ENDMDL
MODEL 47
REMARK VINA RESULT:    -4.897     10.989     14.934
REMARK INTER + INTRA:         -21.208
REMARK INTER:                 -15.943
REMARK INTRA:                  -5.265
REMARK UNBOUND:                -7.151
REMARK SMILES CCCCCC(=O)N[C@H](CC(=O)O)C(=O)N[C@H]1C(=O)N[C@H](CCCN=C(N)N)C(=O)N[C@@H]2CC[C@H](O)N(C2=O)[C@@H](CC(C)C)C(=O)N(C)[C@@H](Cc2ccccc2)C(=O)N[C@H](C(C)C)C(=O)O[C@@H]1C
REMARK SMILES IDX 30 1 31 2 29 3 32 5 35 6 37 7 34 8 38 9 33 10 39 11 36 12
REMARK SMILES IDX 40 14 41 15 42 16 43 17 44 18 45 19 46 20 47 21 48 22 49 23
REMARK SMILES IDX 50 24 51 25 52 26 56 27 53 28 55 29 54 30 57 31 58 32 59 33
REMARK SMILES IDX 60 35 61 36 62 37 63 38 64 39 65 40 66 41 67 42 68 43 21 45
REMARK SMILES IDX 20 46 18 47 19 48 17 50 16 52 14 53 15 54 9 56 8 57 6 58
REMARK SMILES IDX 7 59 5 61 4 62 3 63 2 64 1 65 10 66 11 67 12 68 13 69 22 71
REMARK SMILES IDX 23 72 24 73 25 74 26 75 27 76 28 77
REMARK H PARENT 31 4 36 13 59 34 20 49 16 55 8 60 13 70 27 78 27 79 28 80
REMARK H PARENT 28 81
REMARK Flexibility Score:  259.900
ROOT
ATOM      1  O   UNL     1       3.085  -2.070   3.463  1.00  0.00    -0.273 OA
ATOM      2  N   UNL     1       1.748  -0.502   2.471  1.00  0.00    -0.343 N 
ATOM      3  C   UNL     1       2.109  -1.321   3.519  1.00  0.00     0.243 C 
ATOM      4  H   UNL     1       0.947   0.111   2.557  1.00  0.00     0.164 HD
ENDROOT
BRANCH   2   5
ATOM      5  C   UNL     1       2.449  -0.579   1.193  1.00  0.00     0.171 C 
ATOM      6  C   UNL     1       1.959   0.639  -1.392  1.00  0.00     0.214 C 
ATOM      7  N   UNL     1       1.390  -0.656  -1.097  1.00  0.00    -0.303 N 
ATOM      8  C   UNL     1       3.271   0.898  -0.668  1.00  0.00     0.057 C 
ATOM      9  C   UNL     1       1.543  -1.271   0.135  1.00  0.00     0.247 C 
ATOM     10  C   UNL     1       3.067   0.770   0.825  1.00  0.00     0.040 C 
ATOM     11  O   UNL     1       0.981  -2.339   0.409  1.00  0.00    -0.272 OA
BRANCH   6  12
ATOM     12  O   UNL     1       1.005   1.617  -1.048  1.00  0.00    -0.373 OA
ATOM     13  H   UNL     1       0.441   1.758  -1.838  1.00  0.00     0.213 HD
ENDBRANCH   6  12
BRANCH   7  14
ATOM     14  C   UNL     1       0.504  -1.247  -2.121  1.00  0.00     0.177 C 
BRANCH  14  15
ATOM     15  C   UNL     1      -0.943  -0.716  -2.123  1.00  0.00     0.038 C 
BRANCH  15  16
ATOM     16  C   UNL     1      -2.049  -1.516  -1.399  1.00  0.00    -0.015 C 
ATOM     17  C   UNL     1      -3.409  -1.388  -2.090  1.00  0.00     0.007 C 
ATOM     18  C   UNL     1      -2.193  -1.014   0.043  1.00  0.00     0.007 C 
ENDBRANCH  15  16
ENDBRANCH  14  15
BRANCH  14  19
ATOM     19  C   UNL     1       1.329  -1.635  -3.396  1.00  0.00     0.245 C 
ATOM     20  O   UNL     1       2.324  -2.358  -3.220  1.00  0.00    -0.272 OA
BRANCH  19  21
ATOM     21  N   UNL     1       1.077  -1.132  -4.660  1.00  0.00    -0.332 N 
ATOM     22  C   UNL     1       1.304   0.238  -5.083  1.00  0.00     0.147 C 
BRANCH  21  23
ATOM     23  C   UNL     1       0.514  -2.061  -5.679  1.00  0.00     0.178 C 
BRANCH  23  24
ATOM     24  C   UNL     1      -0.950  -1.777  -6.074  1.00  0.00     0.070 C 
BRANCH  24  25
ATOM     25  C   UNL     1      -2.013  -2.652  -5.452  1.00  0.00    -0.045 A 
ATOM     26  C   UNL     1      -1.663  -3.735  -4.634  1.00  0.00     0.004 A 
ATOM     27  C   UNL     1      -3.371  -2.394  -5.690  1.00  0.00     0.004 A 
ATOM     28  C   UNL     1      -2.650  -4.550  -4.077  1.00  0.00     0.000 A 
ATOM     29  C   UNL     1      -4.357  -3.209  -5.132  1.00  0.00     0.000 A 
ATOM     30  C   UNL     1      -3.996  -4.288  -4.328  1.00  0.00     0.000 A 
ENDBRANCH  24  25
ENDBRANCH  23  24
BRANCH  23  31
ATOM     31  C   UNL     1       1.473  -2.305  -6.869  1.00  0.00     0.243 C 
ATOM     32  O   UNL     1       2.675  -2.530  -6.747  1.00  0.00    -0.273 OA
ATOM     33  N   UNL     1       0.896  -2.065  -8.104  1.00  0.00    -0.341 N 
ATOM     34  H   UNL     1      -0.109  -1.877  -8.141  1.00  0.00     0.164 HD
BRANCH  33  35
ATOM     35  C   UNL     1       1.647  -2.117  -9.361  1.00  0.00     0.194 C 
BRANCH  35  36
ATOM     36  C   UNL     1       2.272  -0.758  -9.784  1.00  0.00     0.017 C 
ATOM     37  C   UNL     1       1.778  -0.324 -11.175  1.00  0.00     0.010 C 
ATOM     38  C   UNL     1       3.805  -0.786  -9.830  1.00  0.00     0.010 C 
ENDBRANCH  35  36
BRANCH  35  39
ATOM     39  C   UNL     1       0.835  -2.767 -10.516  1.00  0.00     0.329 C 
ATOM     40  O   UNL     1      -0.340  -2.514 -10.756  1.00  0.00    -0.250 OA
BRANCH  39  41
ATOM     41  O   UNL     1       1.603  -3.591 -11.292  1.00  0.00    -0.458 OA
BRANCH  41  42
ATOM     42  C   UNL     1       0.918  -4.699 -11.923  1.00  0.00     0.205 CG0
ATOM     43  C   UNL     1       0.805  -5.814 -10.885  1.00  0.00     0.056 C 
ATOM     44  G   UNL     1       1.721  -5.130 -13.166  1.00  0.00     0.000 G0
ENDBRANCH  41  42
ENDBRANCH  39  41
ENDBRANCH  35  39
ENDBRANCH  33  35
ENDBRANCH  23  31
ENDBRANCH  21  23
ENDBRANCH  19  21
ENDBRANCH  14  19
ENDBRANCH   7  14
ENDBRANCH   2   5
BRANCH   3  45
ATOM     45  C   UNL     1       1.223  -1.219   4.767  1.00  0.00     0.171 C 
BRANCH  45  46
ATOM     46  N   UNL     1       2.116  -0.841   5.854  1.00  0.00    -0.342 N 
ATOM     47  C   UNL     1       2.055   0.387   6.464  1.00  0.00     0.247 C 
ATOM     48  O   UNL     1       1.198   1.228   6.188  1.00  0.00    -0.273 OA
ATOM     49  H   UNL     1       2.805  -1.529   6.153  1.00  0.00     0.164 HD
BRANCH  47  50
ATOM     50  C   UNL     1       3.154   0.654   7.502  1.00  0.00     0.212 CG0
ATOM     51  G   UNL     1       2.569   1.598   8.570  1.00  0.00     0.000 G0
BRANCH  50  52
ATOM     52  N   UNL     1       3.518  -0.659   8.029  1.00  0.00    -0.339 N 
ATOM     53  C   UNL     1       3.283  -1.044   9.327  1.00  0.00     0.243 C 
ATOM     54  O   UNL     1       2.793  -0.289  10.163  1.00  0.00    -0.273 OA
ATOM     55  H   UNL     1       4.028  -1.290   7.415  1.00  0.00     0.164 HD
BRANCH  53  56
ATOM     56  C   UNL     1       3.833  -2.442   9.676  1.00  0.00     0.182 C 
BRANCH  56  57
ATOM     57  N   UNL     1       2.910  -3.494   9.238  1.00  0.00    -0.344 N 
ATOM     58  C   UNL     1       3.344  -4.651   8.638  1.00  0.00     0.220 C 
ATOM     59  O   UNL     1       4.521  -4.852   8.359  1.00  0.00    -0.275 OA
ATOM     60  H   UNL     1       1.943  -3.413   9.540  1.00  0.00     0.164 HD
BRANCH  58  61
ATOM     61  C   UNL     1       2.222  -5.623   8.323  1.00  0.00     0.100 C 
BRANCH  61  62
ATOM     62  C   UNL     1       2.538  -6.576   7.170  1.00  0.00     0.010 C 
BRANCH  62  63
ATOM     63  C   UNL     1       2.532  -8.059   7.562  1.00  0.00     0.000 C 
BRANCH  63  64
ATOM     64  C   UNL     1       1.139  -8.682   7.638  1.00  0.00    -0.003 C 
ATOM     65  C   UNL     1       0.741  -8.979   9.077  1.00  0.00     0.004 C 
ENDBRANCH  63  64
ENDBRANCH  62  63
ENDBRANCH  61  62
ENDBRANCH  58  61
ENDBRANCH  56  57
BRANCH  56  66
ATOM     66  C   UNL     1       4.174  -2.555  11.161  1.00  0.00     0.157 C 
BRANCH  66  67
ATOM     67  C   UNL     1       5.641  -2.801  11.364  1.00  0.00     0.305 C 
ATOM     68  O   UNL     1       6.546  -2.515  10.594  1.00  0.00    -0.252 OA
BRANCH  67  69
ATOM     69  O   UNL     1       5.906  -3.354  12.563  1.00  0.00    -0.481 OA
ATOM     70  H   UNL     1       6.870  -3.227  12.690  1.00  0.00     0.296 HD
ENDBRANCH  67  69
ENDBRANCH  66  67
ENDBRANCH  56  66
ENDBRANCH  53  56
ENDBRANCH  50  52
ENDBRANCH  47  50
ENDBRANCH  45  46
BRANCH  45  71
ATOM     71  C   UNL     1       0.533  -2.560   5.043  1.00  0.00     0.037 C 
BRANCH  71  72
ATOM     72  C   UNL     1      -0.068  -2.619   6.449  1.00  0.00     0.026 C 
BRANCH  72  73
ATOM     73  C   UNL     1      -1.385  -1.850   6.528  1.00  0.00     0.146 C 
BRANCH  73  74
ATOM     74  N   UNL     1      -2.066  -1.996   5.246  1.00  0.00    -0.254 NA
ATOM     75  C   UNL     1      -2.821  -1.036   4.855  1.00  0.00     0.185 C 
ATOM     76  N   UNL     1      -3.460  -1.141   3.679  1.00  0.00    -0.370 N 
ATOM     77  N   UNL     1      -3.092   0.129   5.469  1.00  0.00    -0.370 N 
ATOM     78  H   UNL     1      -3.316  -1.992   3.154  1.00  0.00     0.159 HD
ATOM     79  H   UNL     1      -4.173  -0.501   3.377  1.00  0.00     0.159 HD
ATOM     80  H   UNL     1      -2.677   0.347   6.362  1.00  0.00     0.159 HD
ATOM     81  H   UNL     1      -3.611   0.859   5.010  1.00  0.00     0.159 HD
ENDBRANCH  73  74
ENDBRANCH  72  73
ENDBRANCH  71  72
ENDBRANCH  45  71
ENDBRANCH   3  45
TORSDOF 20
ENDMDL
MODEL 48
REMARK VINA RESULT:    -4.897      4.720     14.437
REMARK INTER + INTRA:         -21.208
REMARK INTER:                 -15.170
REMARK INTRA:                  -6.038
REMARK UNBOUND:                -7.151
REMARK SMILES CCCCCC(=O)N[C@H](CC(=O)O)C(=O)N[C@H]1C(=O)N[C@H](CCCN=C(N)N)C(=O)N[C@@H]2CC[C@H](O)N(C2=O)[C@@H](CC(C)C)C(=O)N(C)[C@@H](Cc2ccccc2)C(=O)N[C@H](C(C)C)C(=O)O[C@@H]1C
REMARK SMILES IDX 30 1 31 2 29 3 32 5 35 6 37 7 34 8 38 9 33 10 39 11 36 12
REMARK SMILES IDX 40 14 41 15 42 16 43 17 44 18 45 19 46 20 47 21 48 22 49 23
REMARK SMILES IDX 50 24 51 25 52 26 56 27 53 28 55 29 54 30 57 31 58 32 59 33
REMARK SMILES IDX 60 35 61 36 62 37 63 38 64 39 65 40 66 41 67 42 68 43 21 45
REMARK SMILES IDX 20 46 18 47 19 48 17 50 16 52 14 53 15 54 9 56 8 57 6 58
REMARK SMILES IDX 7 59 5 61 4 62 3 63 2 64 1 65 10 66 11 67 12 68 13 69 22 71
REMARK SMILES IDX 23 72 24 73 25 74 26 75 27 76 28 77
REMARK H PARENT 31 4 36 13 59 34 20 49 16 55 8 60 13 70 27 78 27 79 28 80
REMARK H PARENT 28 81
REMARK Flexibility Score:  259.900
ROOT
ATOM      1  O   UNL     1      10.106   9.590   4.181  1.00  0.00    -0.273 OA
ATOM      2  N   UNL     1       8.868   7.824   4.940  1.00  0.00    -0.343 N 
ATOM      3  C   UNL     1       9.791   8.403   4.096  1.00  0.00     0.243 C 
ATOM      4  H   UNL     1       8.644   6.840   4.851  1.00  0.00     0.164 HD
ENDROOT
BRANCH   2   5
ATOM      5  C   UNL     1       8.131   8.635   5.903  1.00  0.00     0.171 C 
ATOM      6  C   UNL     1       6.137   7.982   7.903  1.00  0.00     0.214 C 
ATOM      7  N   UNL     1       5.714   8.344   6.571  1.00  0.00    -0.303 N 
ATOM      8  C   UNL     1       7.441   8.641   8.321  1.00  0.00     0.057 C 
ATOM      9  C   UNL     1       6.615   8.619   5.555  1.00  0.00     0.247 C 
ATOM     10  C   UNL     1       8.533   8.288   7.335  1.00  0.00     0.040 C 
ATOM     11  O   UNL     1       6.246   8.844   4.394  1.00  0.00    -0.272 OA
BRANCH   6  12
ATOM     12  O   UNL     1       6.258   6.579   7.949  1.00  0.00    -0.373 OA
ATOM     13  H   UNL     1       6.761   6.360   8.763  1.00  0.00     0.213 HD
ENDBRANCH   6  12
BRANCH   7  14
ATOM     14  C   UNL     1       4.265   8.270   6.284  1.00  0.00     0.177 C 
BRANCH  14  15
ATOM     15  C   UNL     1       3.694   6.845   6.154  1.00  0.00     0.038 C 
BRANCH  15  16
ATOM     16  C   UNL     1       2.965   6.433   4.856  1.00  0.00    -0.015 C 
ATOM     17  C   UNL     1       1.645   7.185   4.663  1.00  0.00     0.007 C 
ATOM     18  C   UNL     1       2.661   4.930   4.887  1.00  0.00     0.007 C 
ENDBRANCH  15  16
ENDBRANCH  14  15
BRANCH  14  19
ATOM     19  C   UNL     1       3.521   9.491   6.927  1.00  0.00     0.245 C 
ATOM     20  O   UNL     1       3.767  10.611   6.450  1.00  0.00    -0.272 OA
BRANCH  19  21
ATOM     21  N   UNL     1       2.711   9.398   8.045  1.00  0.00    -0.332 N 
ATOM     22  C   UNL     1       3.161   9.493   9.422  1.00  0.00     0.147 C 
BRANCH  21  23
ATOM     23  C   UNL     1       1.255   9.171   7.832  1.00  0.00     0.178 C 
BRANCH  23  24
ATOM     24  C   UNL     1       0.653   8.019   8.662  1.00  0.00     0.070 C 
BRANCH  24  25
ATOM     25  C   UNL     1      -0.040   6.912   7.903  1.00  0.00    -0.045 A 
ATOM     26  C   UNL     1       0.466   5.606   7.916  1.00  0.00     0.004 A 
ATOM     27  C   UNL     1      -1.204   7.180   7.166  1.00  0.00     0.004 A 
ATOM     28  C   UNL     1      -0.171   4.592   7.197  1.00  0.00     0.000 A 
ATOM     29  C   UNL     1      -1.840   6.165   6.449  1.00  0.00     0.000 A 
ATOM     30  C   UNL     1      -1.321   4.872   6.463  1.00  0.00     0.000 A 
ENDBRANCH  24  25
ENDBRANCH  23  24
BRANCH  23  31
ATOM     31  C   UNL     1       0.431  10.481   7.842  1.00  0.00     0.243 C 
ATOM     32  O   UNL     1       0.677  11.452   7.132  1.00  0.00    -0.273 OA
ATOM     33  N   UNL     1      -0.505  10.538   8.861  1.00  0.00    -0.341 N 
ATOM     34  H   UNL     1      -0.661   9.698   9.424  1.00  0.00     0.164 HD
BRANCH  33  35
ATOM     35  C   UNL     1      -1.314  11.728   9.136  1.00  0.00     0.194 C 
BRANCH  35  36
ATOM     36  C   UNL     1      -1.015  12.397  10.508  1.00  0.00     0.017 C 
ATOM     37  C   UNL     1       0.434  12.910  10.575  1.00  0.00     0.010 C 
ATOM     38  C   UNL     1      -1.223  11.453  11.699  1.00  0.00     0.010 C 
ENDBRANCH  35  36
BRANCH  35  39
ATOM     39  C   UNL     1      -2.835  11.476   8.934  1.00  0.00     0.329 C 
ATOM     40  O   UNL     1      -3.331  10.368   8.771  1.00  0.00    -0.250 OA
BRANCH  39  41
ATOM     41  O   UNL     1      -3.571  12.623   9.044  1.00  0.00    -0.458 OA
BRANCH  41  42
ATOM     42  C   UNL     1      -4.548  12.861   8.003  1.00  0.00     0.205 CG0
ATOM     43  C   UNL     1      -3.781  13.235   6.737  1.00  0.00     0.056 C 
ATOM     44  G   UNL     1      -5.500  13.980   8.468  1.00  0.00     0.000 G0
ENDBRANCH  41  42
ENDBRANCH  39  41
ENDBRANCH  35  39
ENDBRANCH  33  35
ENDBRANCH  23  31
ENDBRANCH  21  23
ENDBRANCH  19  21
ENDBRANCH  14  19
ENDBRANCH   7  14
ENDBRANCH   2   5
BRANCH   3  45
ATOM     45  C   UNL     1      10.415   7.460   3.059  1.00  0.00     0.171 C 
BRANCH  45  46
ATOM     46  N   UNL     1      11.857   7.612   3.205  1.00  0.00    -0.342 N 
ATOM     47  C   UNL     1      12.687   6.549   3.456  1.00  0.00     0.247 C 
ATOM     48  O   UNL     1      12.288   5.385   3.504  1.00  0.00    -0.273 OA
ATOM     49  H   UNL     1      12.237   8.552   3.117  1.00  0.00     0.164 HD
BRANCH  47  50
ATOM     50  C   UNL     1      14.157   6.916   3.704  1.00  0.00     0.212 CG0
ATOM     51  G   UNL     1      14.759   7.366   2.358  1.00  0.00     0.000 G0
BRANCH  50  52
ATOM     52  N   UNL     1      14.130   7.978   4.707  1.00  0.00    -0.339 N 
ATOM     53  C   UNL     1      14.780   7.893   5.914  1.00  0.00     0.243 C 
ATOM     54  O   UNL     1      15.395   6.891   6.266  1.00  0.00    -0.273 OA
ATOM     55  H   UNL     1      13.545   8.790   4.520  1.00  0.00     0.164 HD
BRANCH  53  56
ATOM     56  C   UNL     1      14.536   9.099   6.844  1.00  0.00     0.182 C 
BRANCH  56  57
ATOM     57  N   UNL     1      15.803   9.656   7.329  1.00  0.00    -0.344 N 
ATOM     58  C   UNL     1      16.721  10.235   6.488  1.00  0.00     0.220 C 
ATOM     59  O   UNL     1      16.581  10.263   5.270  1.00  0.00    -0.275 OA
ATOM     60  H   UNL     1      15.911   9.745   8.335  1.00  0.00     0.164 HD
BRANCH  58  61
ATOM     61  C   UNL     1      17.931  10.796   7.213  1.00  0.00     0.100 C 
BRANCH  61  62
ATOM     62  C   UNL     1      19.248  10.125   6.824  1.00  0.00     0.010 C 
BRANCH  62  63
ATOM     63  C   UNL     1      20.452  10.570   7.665  1.00  0.00     0.000 C 
BRANCH  63  64
ATOM     64  C   UNL     1      20.753   9.664   8.857  1.00  0.00    -0.003 C 
ATOM     65  C   UNL     1      20.343   8.225   8.578  1.00  0.00     0.004 C 
ENDBRANCH  63  64
ENDBRANCH  62  63
ENDBRANCH  61  62
ENDBRANCH  58  61
ENDBRANCH  56  57
BRANCH  56  66
ATOM     66  C   UNL     1      13.588   8.741   7.987  1.00  0.00     0.157 C 
BRANCH  66  67
ATOM     67  C   UNL     1      12.280   9.467   7.857  1.00  0.00     0.305 C 
ATOM     68  O   UNL     1      11.665  10.035   8.747  1.00  0.00    -0.252 OA
BRANCH  67  69
ATOM     69  O   UNL     1      11.829   9.486   6.588  1.00  0.00    -0.481 OA
ATOM     70  H   UNL     1      10.875   9.699   6.665  1.00  0.00     0.296 HD
ENDBRANCH  67  69
ENDBRANCH  66  67
ENDBRANCH  56  66
ENDBRANCH  53  56
ENDBRANCH  50  52
ENDBRANCH  47  50
ENDBRANCH  45  46
BRANCH  45  71
ATOM     71  C   UNL     1       9.948   7.834   1.648  1.00  0.00     0.037 C 
BRANCH  71  72
ATOM     72  C   UNL     1       8.556   7.278   1.336  1.00  0.00     0.026 C 
BRANCH  72  73
ATOM     73  C   UNL     1       7.802   8.172   0.355  1.00  0.00     0.146 C 
BRANCH  73  74
ATOM     74  N   UNL     1       6.959   9.077   1.132  1.00  0.00    -0.254 NA
ATOM     75  C   UNL     1       5.694   9.041   0.927  1.00  0.00     0.185 C 
ATOM     76  N   UNL     1       4.893   9.860   1.628  1.00  0.00    -0.370 N 
ATOM     77  N   UNL     1       4.998   8.269   0.075  1.00  0.00    -0.370 N 
ATOM     78  H   UNL     1       5.339  10.481   2.288  1.00  0.00     0.159 HD
ATOM     79  H   UNL     1       3.919   9.991   1.421  1.00  0.00     0.159 HD
ATOM     80  H   UNL     1       5.469   7.600  -0.515  1.00  0.00     0.159 HD
ATOM     81  H   UNL     1       3.991   8.247   0.084  1.00  0.00     0.159 HD
ENDBRANCH  73  74
ENDBRANCH  72  73
ENDBRANCH  71  72
ENDBRANCH  45  71
ENDBRANCH   3  45
TORSDOF 20
ENDMDL
MODEL 49
REMARK VINA RESULT:    -4.882      3.456      5.286
REMARK INTER + INTRA:         -21.166
REMARK INTER:                 -15.602
REMARK INTRA:                  -5.563
REMARK UNBOUND:                -7.151
REMARK SMILES CCCCCC(=O)N[C@H](CC(=O)O)C(=O)N[C@H]1C(=O)N[C@H](CCCN=C(N)N)C(=O)N[C@@H]2CC[C@H](O)N(C2=O)[C@@H](CC(C)C)C(=O)N(C)[C@@H](Cc2ccccc2)C(=O)N[C@H](C(C)C)C(=O)O[C@@H]1C
REMARK SMILES IDX 30 1 31 2 29 3 32 5 35 6 37 7 34 8 38 9 33 10 39 11 36 12
REMARK SMILES IDX 40 14 41 15 42 16 43 17 44 18 45 19 46 20 47 21 48 22 49 23
REMARK SMILES IDX 50 24 51 25 52 26 56 27 53 28 55 29 54 30 57 31 58 32 59 33
REMARK SMILES IDX 60 35 61 36 62 37 63 38 64 39 65 40 66 41 67 42 68 43 21 45
REMARK SMILES IDX 20 46 18 47 19 48 17 50 16 52 14 53 15 54 9 56 8 57 6 58
REMARK SMILES IDX 7 59 5 61 4 62 3 63 2 64 1 65 10 66 11 67 12 68 13 69 22 71
REMARK SMILES IDX 23 72 24 73 25 74 26 75 27 76 28 77
REMARK H PARENT 31 4 36 13 59 34 20 49 16 55 8 60 13 70 27 78 27 79 28 80
REMARK H PARENT 28 81
REMARK Flexibility Score:  259.900
ROOT
ATOM      1  O   UNL     1       0.621   9.728   7.545  1.00  0.00    -0.273 OA
ATOM      2  N   UNL     1       2.689   9.093   8.288  1.00  0.00    -0.343 N 
ATOM      3  C   UNL     1       1.538   9.849   8.357  1.00  0.00     0.243 C 
ATOM      4  H   UNL     1       3.416   9.210   8.983  1.00  0.00     0.164 HD
ENDROOT
BRANCH   2   5
ATOM      5  C   UNL     1       2.918   8.191   7.165  1.00  0.00     0.171 C 
ATOM      6  C   UNL     1       4.926   6.164   6.652  1.00  0.00     0.214 C 
ATOM      7  N   UNL     1       5.157   7.520   6.212  1.00  0.00    -0.303 N 
ATOM      8  C   UNL     1       3.454   5.783   6.680  1.00  0.00     0.057 C 
ATOM      9  C   UNL     1       4.263   8.547   6.469  1.00  0.00     0.247 C 
ATOM     10  C   UNL     1       2.695   6.737   7.576  1.00  0.00     0.040 C 
ATOM     11  O   UNL     1       4.508   9.721   6.165  1.00  0.00    -0.272 OA
BRANCH   6  12
ATOM     12  O   UNL     1       5.495   6.024   7.934  1.00  0.00    -0.373 OA
ATOM     13  H   UNL     1       4.939   6.545   8.553  1.00  0.00     0.213 HD
ENDBRANCH   6  12
BRANCH   7  14
ATOM     14  C   UNL     1       6.469   7.810   5.595  1.00  0.00     0.177 C 
BRANCH  14  15
ATOM     15  C   UNL     1       7.689   7.583   6.510  1.00  0.00     0.038 C 
BRANCH  15  16
ATOM     16  C   UNL     1       8.598   8.777   6.876  1.00  0.00    -0.015 C 
ATOM     17  C   UNL     1       8.558   9.106   8.371  1.00  0.00     0.007 C 
ATOM     18  C   UNL     1       8.156  10.023   6.098  1.00  0.00     0.007 C 
ENDBRANCH  15  16
ENDBRANCH  14  15
BRANCH  14  19
ATOM     19  C   UNL     1       6.423   7.517   4.056  1.00  0.00     0.245 C 
ATOM     20  O   UNL     1       6.769   6.381   3.692  1.00  0.00    -0.272 OA
BRANCH  19  21
ATOM     21  N   UNL     1       6.132   8.472   3.098  1.00  0.00    -0.332 N 
ATOM     22  C   UNL     1       6.059   9.903   3.330  1.00  0.00     0.147 C 
BRANCH  21  23
ATOM     23  C   UNL     1       5.858   8.005   1.711  1.00  0.00     0.178 C 
BRANCH  23  24
ATOM     24  C   UNL     1       4.519   8.490   1.119  1.00  0.00     0.070 C 
BRANCH  24  25
ATOM     25  C   UNL     1       3.358   7.525   1.161  1.00  0.00    -0.045 A 
ATOM     26  C   UNL     1       3.545   6.193   1.553  1.00  0.00     0.004 A 
ATOM     27  C   UNL     1       2.070   7.951   0.802  1.00  0.00     0.004 A 
ATOM     28  C   UNL     1       2.470   5.303   1.573  1.00  0.00     0.000 A 
ATOM     29  C   UNL     1       0.996   7.060   0.824  1.00  0.00     0.000 A 
ATOM     30  C   UNL     1       1.197   5.736   1.207  1.00  0.00     0.000 A 
ENDBRANCH  24  25
ENDBRANCH  23  24
BRANCH  23  31
ATOM     31  C   UNL     1       7.079   8.154   0.771  1.00  0.00     0.243 C 
ATOM     32  O   UNL     1       8.241   8.231   1.162  1.00  0.00    -0.273 OA
ATOM     33  N   UNL     1       6.735   8.383  -0.550  1.00  0.00    -0.341 N 
ATOM     34  H   UNL     1       5.749   8.312  -0.814  1.00  0.00     0.164 HD
BRANCH  33  35
ATOM     35  C   UNL     1       7.722   8.672  -1.594  1.00  0.00     0.194 C 
BRANCH  35  36
ATOM     36  C   UNL     1       7.410   9.947  -2.427  1.00  0.00     0.017 C 
ATOM     37  C   UNL     1       8.072  11.193  -1.811  1.00  0.00     0.010 C 
ATOM     38  C   UNL     1       5.909  10.238  -2.549  1.00  0.00     0.010 C 
ENDBRANCH  35  36
BRANCH  35  39
ATOM     39  C   UNL     1       8.010   7.443  -2.501  1.00  0.00     0.329 C 
ATOM     40  O   UNL     1       7.249   6.491  -2.628  1.00  0.00    -0.250 OA
BRANCH  39  41
ATOM     41  O   UNL     1       9.170   7.581  -3.211  1.00  0.00    -0.458 OA
BRANCH  41  42
ATOM     42  C   UNL     1       9.283   6.788  -4.417  1.00  0.00     0.205 CG0
ATOM     43  C   UNL     1      10.409   5.780  -4.194  1.00  0.00     0.056 C 
ATOM     44  G   UNL     1       9.563   7.732  -5.603  1.00  0.00     0.000 G0
ENDBRANCH  41  42
ENDBRANCH  39  41
ENDBRANCH  35  39
ENDBRANCH  33  35
ENDBRANCH  23  31
ENDBRANCH  21  23
ENDBRANCH  19  21
ENDBRANCH  14  19
ENDBRANCH   7  14
ENDBRANCH   2   5
BRANCH   3  45
ATOM     45  C   UNL     1       1.471  10.837   9.529  1.00  0.00     0.171 C 
BRANCH  45  46
ATOM     46  N   UNL     1       0.773  10.134  10.598  1.00  0.00    -0.342 N 
ATOM     47  C   UNL     1       1.416   9.284  11.462  1.00  0.00     0.247 C 
ATOM     48  O   UNL     1       2.635   9.111  11.446  1.00  0.00    -0.273 OA
ATOM     49  H   UNL     1      -0.230  10.293  10.682  1.00  0.00     0.164 HD
BRANCH  47  50
ATOM     50  C   UNL     1       0.499   8.538  12.442  1.00  0.00     0.212 CG0
ATOM     51  G   UNL     1       1.084   8.716  13.857  1.00  0.00     0.000 G0
BRANCH  50  52
ATOM     52  N   UNL     1      -0.819   9.145  12.282  1.00  0.00    -0.339 N 
ATOM     53  C   UNL     1      -1.763   9.178  13.280  1.00  0.00     0.243 C 
ATOM     54  O   UNL     1      -1.588   8.648  14.374  1.00  0.00    -0.273 OA
ATOM     55  H   UNL     1      -1.066   9.503  11.361  1.00  0.00     0.164 HD
BRANCH  53  56
ATOM     56  C   UNL     1      -3.110   9.794  12.850  1.00  0.00     0.182 C 
BRANCH  56  57
ATOM     57  N   UNL     1      -3.559   9.237  11.570  1.00  0.00    -0.344 N 
ATOM     58  C   UNL     1      -4.156   8.004  11.473  1.00  0.00     0.220 C 
ATOM     59  O   UNL     1      -4.289   7.253  12.434  1.00  0.00    -0.275 OA
ATOM     60  H   UNL     1      -3.560   9.864  10.770  1.00  0.00     0.164 HD
BRANCH  58  61
ATOM     61  C   UNL     1      -4.592   7.656  10.061  1.00  0.00     0.100 C 
BRANCH  61  62
ATOM     62  C   UNL     1      -3.650   6.688   9.346  1.00  0.00     0.010 C 
BRANCH  62  63
ATOM     63  C   UNL     1      -2.274   6.545  10.010  1.00  0.00     0.000 C 
BRANCH  63  64
ATOM     64  C   UNL     1      -1.126   7.159   9.211  1.00  0.00    -0.003 C 
ATOM     65  C   UNL     1      -0.977   6.493   7.851  1.00  0.00     0.004 C 
ENDBRANCH  63  64
ENDBRANCH  62  63
ENDBRANCH  61  62
ENDBRANCH  58  61
ENDBRANCH  56  57
BRANCH  56  66
ATOM     66  C   UNL     1      -3.045  11.320  12.824  1.00  0.00     0.157 C 
BRANCH  66  67
ATOM     67  C   UNL     1      -4.168  11.898  12.012  1.00  0.00     0.305 C 
ATOM     68  O   UNL     1      -4.086  12.398  10.900  1.00  0.00    -0.252 OA
BRANCH  67  69
ATOM     69  O   UNL     1      -5.360  11.770  12.624  1.00  0.00    -0.481 OA
ATOM     70  H   UNL     1      -5.978  12.307  12.083  1.00  0.00     0.296 HD
ENDBRANCH  67  69
ENDBRANCH  66  67
ENDBRANCH  56  66
ENDBRANCH  53  56
ENDBRANCH  50  52
ENDBRANCH  47  50
ENDBRANCH  45  46
BRANCH  45  71
ATOM     71  C   UNL     1       0.728  12.111   9.112  1.00  0.00     0.037 C 
BRANCH  71  72
ATOM     72  C   UNL     1      -0.759  12.056   9.474  1.00  0.00     0.026 C 
BRANCH  72  73
ATOM     73  C   UNL     1      -1.614  12.787   8.442  1.00  0.00     0.146 C 
BRANCH  73  74
ATOM     74  N   UNL     1      -0.873  12.815   7.185  1.00  0.00    -0.254 NA
ATOM     75  C   UNL     1      -1.497  12.489   6.114  1.00  0.00     0.185 C 
ATOM     76  N   UNL     1      -0.842  12.506   4.942  1.00  0.00    -0.370 N 
ATOM     77  N   UNL     1      -2.778  12.111   5.964  1.00  0.00    -0.370 N 
ATOM     78  H   UNL     1       0.132  12.773   4.966  1.00  0.00     0.159 HD
ATOM     79  H   UNL     1      -1.219  12.127   4.091  1.00  0.00     0.159 HD
ATOM     80  H   UNL     1      -3.394  12.056   6.762  1.00  0.00     0.159 HD
ATOM     81  H   UNL     1      -3.191  11.989   5.054  1.00  0.00     0.159 HD
ENDBRANCH  73  74
ENDBRANCH  72  73
ENDBRANCH  71  72
ENDBRANCH  45  71
ENDBRANCH   3  45
TORSDOF 20
ENDMDL
MODEL 50
REMARK VINA RESULT:    -4.875      4.356      6.239
REMARK INTER + INTRA:         -21.147
REMARK INTER:                 -15.397
REMARK INTRA:                  -5.749
REMARK UNBOUND:                -7.151
REMARK SMILES CCCCCC(=O)N[C@H](CC(=O)O)C(=O)N[C@H]1C(=O)N[C@H](CCCN=C(N)N)C(=O)N[C@@H]2CC[C@H](O)N(C2=O)[C@@H](CC(C)C)C(=O)N(C)[C@@H](Cc2ccccc2)C(=O)N[C@H](C(C)C)C(=O)O[C@@H]1C
REMARK SMILES IDX 30 1 31 2 29 3 32 5 35 6 37 7 34 8 38 9 33 10 39 11 36 12
REMARK SMILES IDX 40 14 41 15 42 16 43 17 44 18 45 19 46 20 47 21 48 22 49 23
REMARK SMILES IDX 50 24 51 25 52 26 56 27 53 28 55 29 54 30 57 31 58 32 59 33
REMARK SMILES IDX 60 35 61 36 62 37 63 38 64 39 65 40 66 41 67 42 68 43 21 45
REMARK SMILES IDX 20 46 18 47 19 48 17 50 16 52 14 53 15 54 9 56 8 57 6 58
REMARK SMILES IDX 7 59 5 61 4 62 3 63 2 64 1 65 10 66 11 67 12 68 13 69 22 71
REMARK SMILES IDX 23 72 24 73 25 74 26 75 27 76 28 77
REMARK H PARENT 31 4 36 13 59 34 20 49 16 55 8 60 13 70 27 78 27 79 28 80
REMARK H PARENT 28 81
REMARK Flexibility Score:  259.900
ROOT
ATOM      1  O   UNL     1      -0.308   7.474  10.136  1.00  0.00    -0.273 OA
ATOM      2  N   UNL     1      -0.665   7.910   7.919  1.00  0.00    -0.343 N 
ATOM      3  C   UNL     1      -0.876   7.196   9.079  1.00  0.00     0.243 C 
ATOM      4  H   UNL     1      -1.160   7.662   7.071  1.00  0.00     0.164 HD
ENDROOT
BRANCH   2   5
ATOM      5  C   UNL     1       0.341   8.965   7.869  1.00  0.00     0.171 C 
ATOM      6  C   UNL     1       1.764  10.221   5.678  1.00  0.00     0.214 C 
ATOM      7  N   UNL     1       2.337   9.065   6.326  1.00  0.00    -0.303 N 
ATOM      8  C   UNL     1       0.901  11.065   6.603  1.00  0.00     0.057 C 
ATOM      9  C   UNL     1       1.687   8.386   7.344  1.00  0.00     0.247 C 
ATOM     10  C   UNL     1      -0.208  10.216   7.185  1.00  0.00     0.040 C 
ATOM     11  O   UNL     1       2.144   7.346   7.835  1.00  0.00    -0.272 OA
BRANCH   6  12
ATOM     12  O   UNL     1       1.009   9.769   4.578  1.00  0.00    -0.373 OA
ATOM     13  H   UNL     1       0.139   9.479   4.926  1.00  0.00     0.213 HD
ENDBRANCH   6  12
BRANCH   7  14
ATOM     14  C   UNL     1       3.594   8.532   5.759  1.00  0.00     0.177 C 
BRANCH  14  15
ATOM     15  C   UNL     1       4.760   8.402   6.757  1.00  0.00     0.038 C 
BRANCH  15  16
ATOM     16  C   UNL     1       5.738   7.213   6.634  1.00  0.00    -0.015 C 
ATOM     17  C   UNL     1       5.374   6.057   7.571  1.00  0.00     0.007 C 
ATOM     18  C   UNL     1       7.162   7.674   6.972  1.00  0.00     0.007 C 
ENDBRANCH  15  16
ENDBRANCH  14  15
BRANCH  14  19
ATOM     19  C   UNL     1       3.283   7.533   4.591  1.00  0.00     0.245 C 
ATOM     20  O   UNL     1       2.710   6.474   4.899  1.00  0.00    -0.272 OA
BRANCH  19  21
ATOM     21  N   UNL     1       3.707   7.715   3.287  1.00  0.00    -0.332 N 
ATOM     22  C   UNL     1       2.843   7.977   2.149  1.00  0.00     0.147 C 
BRANCH  21  23
ATOM     23  C   UNL     1       5.167   7.627   3.011  1.00  0.00     0.178 C 
BRANCH  23  24
ATOM     24  C   UNL     1       5.656   6.236   2.559  1.00  0.00     0.070 C 
BRANCH  24  25
ATOM     25  C   UNL     1       6.456   5.431   3.556  1.00  0.00    -0.045 A 
ATOM     26  C   UNL     1       7.795   5.744   3.822  1.00  0.00     0.004 A 
ATOM     27  C   UNL     1       5.867   4.349   4.228  1.00  0.00     0.004 A 
ATOM     28  C   UNL     1       8.533   4.984   4.732  1.00  0.00     0.000 A 
ATOM     29  C   UNL     1       6.605   3.591   5.138  1.00  0.00     0.000 A 
ATOM     30  C   UNL     1       7.939   3.908   5.387  1.00  0.00     0.000 A 
ENDBRANCH  24  25
ENDBRANCH  23  24
BRANCH  23  31
ATOM     31  C   UNL     1       5.693   8.810   2.163  1.00  0.00     0.243 C 
ATOM     32  O   UNL     1       5.597   9.989   2.493  1.00  0.00    -0.273 OA
ATOM     33  N   UNL     1       6.123   8.437   0.900  1.00  0.00    -0.341 N 
ATOM     34  H   UNL     1       6.176   7.439   0.681  1.00  0.00     0.164 HD
BRANCH  33  35
ATOM     35  C   UNL     1       6.551   9.403  -0.116  1.00  0.00     0.194 C 
BRANCH  35  36
ATOM     36  C   UNL     1       5.415   9.865  -1.071  1.00  0.00     0.017 C 
ATOM     37  C   UNL     1       4.408   8.731  -1.332  1.00  0.00     0.010 C 
ATOM     38  C   UNL     1       5.929  10.345  -2.434  1.00  0.00     0.010 C 
ENDBRANCH  35  36
BRANCH  35  39
ATOM     39  C   UNL     1       7.810   8.931  -0.896  1.00  0.00     0.329 C 
ATOM     40  O   UNL     1       8.807   9.621  -1.071  1.00  0.00    -0.250 OA
BRANCH  39  41
ATOM     41  O   UNL     1       7.716   7.626  -1.294  1.00  0.00    -0.458 OA
BRANCH  41  42
ATOM     42  C   UNL     1       8.043   7.352  -2.677  1.00  0.00     0.205 CG0
ATOM     43  C   UNL     1       7.765   5.871  -2.925  1.00  0.00     0.056 C 
ATOM     44  G   UNL     1       9.519   7.724  -2.917  1.00  0.00     0.000 G0
ENDBRANCH  41  42
ENDBRANCH  39  41
ENDBRANCH  35  39
ENDBRANCH  33  35
ENDBRANCH  23  31
ENDBRANCH  21  23
ENDBRANCH  19  21
ENDBRANCH  14  19
ENDBRANCH   7  14
ENDBRANCH   2   5
BRANCH   3  45
ATOM     45  C   UNL     1      -1.882   6.043   8.966  1.00  0.00     0.171 C 
BRANCH  45  46
ATOM     46  N   UNL     1      -2.293   5.744  10.332  1.00  0.00    -0.342 N 
ATOM     47  C   UNL     1      -3.416   6.292  10.899  1.00  0.00     0.247 C 
ATOM     48  O   UNL     1      -4.195   7.014  10.276  1.00  0.00    -0.273 OA
ATOM     49  H   UNL     1      -1.706   5.105  10.865  1.00  0.00     0.164 HD
BRANCH  47  50
ATOM     50  C   UNL     1      -3.621   5.961  12.384  1.00  0.00     0.212 CG0
ATOM     51  G   UNL     1      -4.633   6.975  12.953  1.00  0.00     0.000 G0
BRANCH  50  52
ATOM     52  N   UNL     1      -4.105   4.583  12.413  1.00  0.00    -0.339 N 
ATOM     53  C   UNL     1      -4.084   3.799  13.541  1.00  0.00     0.243 C 
ATOM     54  O   UNL     1      -3.604   4.181  14.605  1.00  0.00    -0.273 OA
ATOM     55  H   UNL     1      -4.412   4.172  11.535  1.00  0.00     0.164 HD
BRANCH  53  56
ATOM     56  C   UNL     1      -4.566   2.353  13.308  1.00  0.00     0.182 C 
BRANCH  56  57
ATOM     57  N   UNL     1      -3.746   1.681  12.294  1.00  0.00    -0.344 N 
ATOM     58  C   UNL     1      -2.792   0.748  12.619  1.00  0.00     0.220 C 
ATOM     59  O   UNL     1      -2.509   0.465  13.778  1.00  0.00    -0.275 OA
ATOM     60  H   UNL     1      -4.017   1.810  11.323  1.00  0.00     0.164 HD
BRANCH  58  61
ATOM     61  C   UNL     1      -2.107   0.141  11.409  1.00  0.00     0.100 C 
BRANCH  61  62
ATOM     62  C   UNL     1      -0.845  -0.652  11.748  1.00  0.00     0.010 C 
BRANCH  62  63
ATOM     63  C   UNL     1      -1.060  -2.168  11.833  1.00  0.00     0.000 C 
BRANCH  63  64
ATOM     64  C   UNL     1       0.229  -2.977  11.969  1.00  0.00    -0.003 C 
ATOM     65  C   UNL     1       1.084  -2.469  13.121  1.00  0.00     0.004 C 
ENDBRANCH  63  64
ENDBRANCH  62  63
ENDBRANCH  61  62
ENDBRANCH  58  61
ENDBRANCH  56  57
BRANCH  56  66
ATOM     66  C   UNL     1      -6.055   2.306  12.968  1.00  0.00     0.157 C 
BRANCH  66  67
ATOM     67  C   UNL     1      -6.272   1.994  11.516  1.00  0.00     0.305 C 
ATOM     68  O   UNL     1      -6.050   2.730  10.567  1.00  0.00    -0.252 OA
BRANCH  67  69
ATOM     69  O   UNL     1      -6.714   0.736  11.324  1.00  0.00    -0.481 OA
ATOM     70  H   UNL     1      -6.361   0.478  10.446  1.00  0.00     0.296 HD
ENDBRANCH  67  69
ENDBRANCH  66  67
ENDBRANCH  56  66
ENDBRANCH  53  56
ENDBRANCH  50  52
ENDBRANCH  47  50
ENDBRANCH  45  46
BRANCH  45  71
ATOM     71  C   UNL     1      -1.230   4.829   8.294  1.00  0.00     0.037 C 
BRANCH  71  72
ATOM     72  C   UNL     1      -2.106   4.249   7.180  1.00  0.00     0.026 C 
BRANCH  72  73
ATOM     73  C   UNL     1      -2.609   5.341   6.237  1.00  0.00     0.146 C 
BRANCH  73  74
ATOM     74  N   UNL     1      -3.941   4.957   5.780  1.00  0.00    -0.254 NA
ATOM     75  C   UNL     1      -4.949   5.360   6.463  1.00  0.00     0.185 C 
ATOM     76  N   UNL     1      -6.187   5.024   6.066  1.00  0.00    -0.370 N 
ATOM     77  N   UNL     1      -4.968   6.110   7.578  1.00  0.00    -0.370 N 
ATOM     78  H   UNL     1      -6.262   4.452   5.237  1.00  0.00     0.159 HD
ATOM     79  H   UNL     1      -7.008   5.178   6.624  1.00  0.00     0.159 HD
ATOM     80  H   UNL     1      -4.108   6.440   7.990  1.00  0.00     0.159 HD
ATOM     81  H   UNL     1      -5.828   6.462   7.963  1.00  0.00     0.159 HD
ENDBRANCH  73  74
ENDBRANCH  72  73
ENDBRANCH  71  72
ENDBRANCH  45  71
ENDBRANCH   3  45
TORSDOF 20
ENDMDL
