MODEL 1
REMARK VINA RESULT:    -7.918      0.000      0.000
REMARK INTER + INTRA:         -24.157
REMARK INTER:                 -19.721
REMARK INTRA:                  -4.436
REMARK UNBOUND:                -4.436
REMARK SMILES CCCCCCC[C@H](N)[C@H](O)C(=O)N[C@H](C)C(=O)N(C)[C@H](CC(C)C)C(=O)N[C@@H](Cc1ccc(O)cc1)C(=O)N[C@@H](Cc1ccc(O)cc1)C(=O)O
REMARK SMILES IDX 18 1 17 2 15 3 16 4 14 5 12 6 13 7 10 9 11 10 8 12 9 13 7 16
REMARK SMILES IDX 6 17 5 18 4 19 3 20 2 21 1 22 19 23 20 24 21 25 22 26 23 27
REMARK SMILES IDX 24 28 25 29 26 30 27 31 28 32 29 34 30 35 31 36 32 37 37 38
REMARK SMILES IDX 33 39 36 40 34 41 35 42 38 44 39 45 40 46 41 48 42 49 43 50
REMARK SMILES IDX 44 51 49 52 45 53 48 54 46 55 47 56 50 58 51 59 52 60
REMARK H PARENT 14 8 11 11 9 14 9 15 28 33 35 43 40 47 47 57 52 61
ROOT
ATOM      1  O   UNL     1      12.814   0.771 -11.366  1.00  0.00    -0.272 OA
ATOM      2  C   UNL     1      12.747   1.692 -12.194  1.00  0.00     0.245 C 
ENDROOT
BRANCH   2   3
ATOM      3  C   UNL     1      12.054   1.418 -13.552  1.00  0.00     0.168 C 
ATOM      4  C   UNL     1      13.014   0.740 -14.523  1.00  0.00     0.041 C 
BRANCH   3   5
ATOM      5  N   UNL     1      10.787   0.710 -13.460  1.00  0.00    -0.342 N 
ATOM      6  C   UNL     1       9.587   1.378 -13.331  1.00  0.00     0.251 C 
ATOM      7  O   UNL     1       9.498   2.598 -13.244  1.00  0.00    -0.272 OA
ATOM      8  H   UNL     1      10.737  -0.306 -13.486  1.00  0.00     0.164 HD
BRANCH   6   9
ATOM      9  C   UNL     1       8.373   0.437 -13.396  1.00  0.00     0.219 C 
BRANCH   9  10
ATOM     10  O   UNL     1       8.383  -0.550 -12.358  1.00  0.00    -0.382 OA
ATOM     11  H   UNL     1       7.509  -0.990 -12.449  1.00  0.00     0.211 HD
ENDBRANCH   9  10
BRANCH   9  12
ATOM     12  C   UNL     1       7.019   1.192 -13.426  1.00  0.00     0.089 C 
BRANCH  12  13
ATOM     13  N   UNL     1       7.034   2.135 -14.568  1.00  0.00    -0.325 NA
ATOM     14  H   UNL     1       7.292   1.630 -15.417  1.00  0.00     0.119 HD
ATOM     15  H   UNL     1       7.784   2.816 -14.425  1.00  0.00     0.119 HD
ENDBRANCH  12  13
BRANCH  12  16
ATOM     16  C   UNL     1       5.750   0.307 -13.485  1.00  0.00     0.022 C 
BRANCH  16  17
ATOM     17  C   UNL     1       4.693   0.444 -12.381  1.00  0.00     0.002 C 
BRANCH  17  18
ATOM     18  C   UNL     1       5.085  -0.158 -11.034  1.00  0.00     0.000 C 
BRANCH  18  19
ATOM     19  C   UNL     1       3.891  -0.550 -10.153  1.00  0.00    -0.000 C 
BRANCH  19  20
ATOM     20  C   UNL     1       2.991   0.612  -9.724  1.00  0.00    -0.000 C 
BRANCH  20  21
ATOM     21  C   UNL     1       2.769   0.671  -8.210  1.00  0.00    -0.003 C 
ATOM     22  C   UNL     1       3.875   1.452  -7.518  1.00  0.00     0.004 C 
ENDBRANCH  20  21
ENDBRANCH  19  20
ENDBRANCH  18  19
ENDBRANCH  17  18
ENDBRANCH  16  17
ENDBRANCH  12  16
ENDBRANCH   9  12
ENDBRANCH   6   9
ENDBRANCH   3   5
ENDBRANCH   2   3
BRANCH   2  23
ATOM     23  N   UNL     1      13.176   2.970 -11.850  1.00  0.00    -0.332 N 
ATOM     24  C   UNL     1      14.350   3.256 -11.039  1.00  0.00     0.147 C 
BRANCH  23  25
ATOM     25  C   UNL     1      12.501   4.168 -12.421  1.00  0.00     0.174 C 
BRANCH  25  26
ATOM     26  C   UNL     1      13.497   5.203 -12.994  1.00  0.00     0.038 C 
BRANCH  26  27
ATOM     27  C   UNL     1      13.239   5.700 -14.434  1.00  0.00    -0.015 C 
ATOM     28  C   UNL     1      14.527   5.836 -15.246  1.00  0.00     0.007 C 
ATOM     29  C   UNL     1      12.213   4.860 -15.192  1.00  0.00     0.007 C 
ENDBRANCH  26  27
ENDBRANCH  25  26
BRANCH  25  30
ATOM     30  C   UNL     1      11.510   4.761 -11.393  1.00  0.00     0.243 C 
ATOM     31  O   UNL     1      11.304   5.971 -11.313  1.00  0.00    -0.273 OA
ATOM     32  N   UNL     1      10.886   3.852 -10.579  1.00  0.00    -0.342 N 
ATOM     33  H   UNL     1      11.001   2.860 -10.800  1.00  0.00     0.164 HD
BRANCH  32  34
ATOM     34  C   UNL     1       9.937   4.235  -9.530  1.00  0.00     0.175 C 
BRANCH  34  35
ATOM     35  C   UNL     1       8.818   3.193  -9.380  1.00  0.00     0.070 C 
BRANCH  35  36
ATOM     36  C   UNL     1       7.567   3.565 -10.143  1.00  0.00    -0.045 A 
ATOM     37  C   UNL     1       6.314   3.112  -9.700  1.00  0.00     0.007 A 
ATOM     38  C   UNL     1       7.638   4.341 -11.307  1.00  0.00     0.007 A 
ATOM     39  C   UNL     1       5.155   3.439 -10.405  1.00  0.00     0.046 A 
ATOM     40  C   UNL     1       6.478   4.667 -12.014  1.00  0.00     0.046 A 
ATOM     41  C   UNL     1       5.246   4.213 -11.555  1.00  0.00     0.115 A 
BRANCH  41  42
ATOM     42  O   UNL     1       4.091   4.507 -12.216  1.00  0.00    -0.508 OA
ATOM     43  H   UNL     1       3.467   3.774 -12.081  1.00  0.00     0.293 HD
ENDBRANCH  41  42
ENDBRANCH  35  36
ENDBRANCH  34  35
BRANCH  34  44
ATOM     44  C   UNL     1      10.727   4.426  -8.216  1.00  0.00     0.243 C 
ATOM     45  O   UNL     1      11.921   4.710  -8.159  1.00  0.00    -0.273 OA
ATOM     46  N   UNL     1       9.997   4.119  -7.087  1.00  0.00    -0.341 N 
ATOM     47  H   UNL     1       9.046   3.776  -7.192  1.00  0.00     0.164 HD
BRANCH  46  48
ATOM     48  C   UNL     1      10.553   4.159  -5.732  1.00  0.00     0.196 C 
BRANCH  48  49
ATOM     49  C   UNL     1      10.995   5.582  -5.350  1.00  0.00     0.072 C 
BRANCH  49  50
ATOM     50  C   UNL     1      12.076   5.591  -4.293  1.00  0.00    -0.045 A 
ATOM     51  C   UNL     1      12.122   6.627  -3.348  1.00  0.00     0.007 A 
ATOM     52  C   UNL     1      13.053   4.589  -4.253  1.00  0.00     0.007 A 
ATOM     53  C   UNL     1      13.122   6.653  -2.377  1.00  0.00     0.046 A 
ATOM     54  C   UNL     1      14.056   4.615  -3.281  1.00  0.00     0.046 A 
ATOM     55  C   UNL     1      14.081   5.648  -2.350  1.00  0.00     0.115 A 
BRANCH  55  56
ATOM     56  O   UNL     1      15.043   5.711  -1.386  1.00  0.00    -0.508 OA
ATOM     57  H   UNL     1      14.766   6.360  -0.719  1.00  0.00     0.293 HD
ENDBRANCH  55  56
ENDBRANCH  49  50
ENDBRANCH  48  49
BRANCH  48  58
ATOM     58  C   UNL     1       9.490   3.667  -4.741  1.00  0.00     0.326 C 
ATOM     59  O   UNL     1       8.945   4.312  -3.860  1.00  0.00    -0.250 OA
BRANCH  58  60
ATOM     60  O   UNL     1       9.145   2.367  -4.919  1.00  0.00    -0.480 OA
ATOM     61  H   UNL     1       9.561   1.916  -4.153  1.00  0.00     0.296 HD
ENDBRANCH  58  60
ENDBRANCH  48  58
ENDBRANCH  46  48
ENDBRANCH  34  44
ENDBRANCH  32  34
ENDBRANCH  25  30
ENDBRANCH  23  25
ENDBRANCH   2  23
TORSDOF 28
ENDMDL
MODEL 2
REMARK VINA RESULT:    -7.450      2.147      3.529
REMARK INTER + INTRA:         -22.991
REMARK INTER:                 -18.194
REMARK INTRA:                  -4.797
REMARK UNBOUND:                -4.436
REMARK SMILES CCCCCCC[C@H](N)[C@H](O)C(=O)N[C@H](C)C(=O)N(C)[C@H](CC(C)C)C(=O)N[C@@H](Cc1ccc(O)cc1)C(=O)N[C@@H](Cc1ccc(O)cc1)C(=O)O
REMARK SMILES IDX 18 1 17 2 15 3 16 4 14 5 12 6 13 7 10 9 11 10 8 12 9 13 7 16
REMARK SMILES IDX 6 17 5 18 4 19 3 20 2 21 1 22 19 23 20 24 21 25 22 26 23 27
REMARK SMILES IDX 24 28 25 29 26 30 27 31 28 32 29 34 30 35 31 36 32 37 37 38
REMARK SMILES IDX 33 39 36 40 34 41 35 42 38 44 39 45 40 46 41 48 42 49 43 50
REMARK SMILES IDX 44 51 49 52 45 53 48 54 46 55 47 56 50 58 51 59 52 60
REMARK H PARENT 14 8 11 11 9 14 9 15 28 33 35 43 40 47 47 57 52 61
ROOT
ATOM      1  O   UNL     1      11.121   2.289 -13.694  1.00  0.00    -0.272 OA
ATOM      2  C   UNL     1       9.960   2.540 -13.338  1.00  0.00     0.245 C 
ENDROOT
BRANCH   2   3
ATOM      3  C   UNL     1       8.923   2.936 -14.418  1.00  0.00     0.168 C 
ATOM      4  C   UNL     1       9.602   3.161 -15.764  1.00  0.00     0.041 C 
BRANCH   3   5
ATOM      5  N   UNL     1       7.784   2.038 -14.529  1.00  0.00    -0.342 N 
ATOM      6  C   UNL     1       6.528   2.396 -14.086  1.00  0.00     0.251 C 
ATOM      7  O   UNL     1       6.285   3.464 -13.534  1.00  0.00    -0.272 OA
ATOM      8  H   UNL     1       7.870   1.111 -14.938  1.00  0.00     0.164 HD
BRANCH   6   9
ATOM      9  C   UNL     1       5.454   1.353 -14.434  1.00  0.00     0.219 C 
BRANCH   9  10
ATOM     10  O   UNL     1       5.309   1.160 -15.846  1.00  0.00    -0.382 OA
ATOM     11  H   UNL     1       6.143   1.524 -16.216  1.00  0.00     0.211 HD
ENDBRANCH   9  10
BRANCH   9  12
ATOM     12  C   UNL     1       5.666  -0.003 -13.712  1.00  0.00     0.089 C 
BRANCH  12  13
ATOM     13  N   UNL     1       6.537  -0.851 -14.557  1.00  0.00    -0.325 NA
ATOM     14  H   UNL     1       6.452  -0.556 -15.532  1.00  0.00     0.119 HD
ATOM     15  H   UNL     1       6.185  -1.811 -14.538  1.00  0.00     0.119 HD
ENDBRANCH  12  13
BRANCH  12  16
ATOM     16  C   UNL     1       6.233   0.075 -12.275  1.00  0.00     0.022 C 
BRANCH  16  17
ATOM     17  C   UNL     1       5.278  -0.091 -11.085  1.00  0.00     0.002 C 
BRANCH  17  18
ATOM     18  C   UNL     1       3.898   0.536 -11.273  1.00  0.00     0.000 C 
BRANCH  18  19
ATOM     19  C   UNL     1       3.876   2.060 -11.097  1.00  0.00    -0.000 C 
BRANCH  19  20
ATOM     20  C   UNL     1       2.480   2.687 -11.039  1.00  0.00    -0.000 C 
BRANCH  20  21
ATOM     21  C   UNL     1       2.511   4.217 -11.005  1.00  0.00    -0.003 C 
ATOM     22  C   UNL     1       3.933   4.741 -10.882  1.00  0.00     0.004 C 
ENDBRANCH  20  21
ENDBRANCH  19  20
ENDBRANCH  18  19
ENDBRANCH  17  18
ENDBRANCH  16  17
ENDBRANCH  12  16
ENDBRANCH   9  12
ENDBRANCH   6   9
ENDBRANCH   3   5
ENDBRANCH   2   3
BRANCH   2  23
ATOM     23  N   UNL     1       9.582   2.346 -12.013  1.00  0.00    -0.332 N 
ATOM     24  C   UNL     1       9.355   1.046 -11.401  1.00  0.00     0.147 C 
BRANCH  23  25
ATOM     25  C   UNL     1       9.507   3.501 -11.077  1.00  0.00     0.174 C 
BRANCH  25  26
ATOM     26  C   UNL     1      10.867   3.830 -10.416  1.00  0.00     0.038 C 
BRANCH  26  27
ATOM     27  C   UNL     1      11.445   5.240 -10.668  1.00  0.00    -0.015 C 
ATOM     28  C   UNL     1      12.198   5.335 -11.994  1.00  0.00     0.007 C 
ATOM     29  C   UNL     1      10.403   6.351 -10.561  1.00  0.00     0.007 C 
ENDBRANCH  26  27
ENDBRANCH  25  26
BRANCH  25  30
ATOM     30  C   UNL     1       8.358   3.292 -10.064  1.00  0.00     0.243 C 
ATOM     31  O   UNL     1       7.176   3.358 -10.399  1.00  0.00    -0.273 OA
ATOM     32  N   UNL     1       8.745   3.036  -8.774  1.00  0.00    -0.342 N 
ATOM     33  H   UNL     1       9.738   2.857  -8.603  1.00  0.00     0.164 HD
BRANCH  32  34
ATOM     34  C   UNL     1       7.794   2.838  -7.676  1.00  0.00     0.175 C 
BRANCH  34  35
ATOM     35  C   UNL     1       7.020   1.521  -7.837  1.00  0.00     0.070 C 
BRANCH  35  36
ATOM     36  C   UNL     1       5.524   1.703  -7.721  1.00  0.00    -0.045 A 
ATOM     37  C   UNL     1       4.977   2.994  -7.654  1.00  0.00     0.007 A 
ATOM     38  C   UNL     1       4.667   0.596  -7.655  1.00  0.00     0.007 A 
ATOM     39  C   UNL     1       3.599   3.172  -7.532  1.00  0.00     0.046 A 
ATOM     40  C   UNL     1       3.287   0.774  -7.532  1.00  0.00     0.046 A 
ATOM     41  C   UNL     1       2.765   2.062  -7.473  1.00  0.00     0.115 A 
BRANCH  41  42
ATOM     42  O   UNL     1       1.425   2.279  -7.351  1.00  0.00    -0.508 OA
ATOM     43  H   UNL     1       1.265   3.236  -7.402  1.00  0.00     0.293 HD
ENDBRANCH  41  42
ENDBRANCH  35  36
ENDBRANCH  34  35
BRANCH  34  44
ATOM     44  C   UNL     1       8.580   2.887  -6.347  1.00  0.00     0.243 C 
ATOM     45  O   UNL     1       8.309   2.216  -5.355  1.00  0.00    -0.273 OA
ATOM     46  N   UNL     1       9.555   3.862  -6.321  1.00  0.00    -0.341 N 
ATOM     47  H   UNL     1       9.664   4.472  -7.128  1.00  0.00     0.164 HD
BRANCH  46  48
ATOM     48  C   UNL     1      10.383   4.143  -5.147  1.00  0.00     0.196 C 
BRANCH  48  49
ATOM     49  C   UNL     1      11.528   5.111  -5.487  1.00  0.00     0.072 C 
BRANCH  49  50
ATOM     50  C   UNL     1      12.497   5.294  -4.341  1.00  0.00    -0.045 A 
ATOM     51  C   UNL     1      13.476   4.321  -4.092  1.00  0.00     0.007 A 
ATOM     52  C   UNL     1      12.420   6.414  -3.504  1.00  0.00     0.007 A 
ATOM     53  C   UNL     1      14.366   4.471  -3.029  1.00  0.00     0.046 A 
ATOM     54  C   UNL     1      13.311   6.564  -2.438  1.00  0.00     0.046 A 
ATOM     55  C   UNL     1      14.278   5.591  -2.211  1.00  0.00     0.115 A 
BRANCH  55  56
ATOM     56  O   UNL     1      15.166   5.700  -1.182  1.00  0.00    -0.508 OA
ATOM     57  H   UNL     1      14.695   5.524  -0.351  1.00  0.00     0.293 HD
ENDBRANCH  55  56
ENDBRANCH  49  50
ENDBRANCH  48  49
BRANCH  48  58
ATOM     58  C   UNL     1       9.502   4.753  -4.048  1.00  0.00     0.326 C 
ATOM     59  O   UNL     1       9.149   4.226  -3.006  1.00  0.00    -0.250 OA
BRANCH  58  60
ATOM     60  O   UNL     1       9.111   6.026  -4.313  1.00  0.00    -0.480 OA
ATOM     61  H   UNL     1       8.145   5.939  -4.465  1.00  0.00     0.296 HD
ENDBRANCH  58  60
ENDBRANCH  48  58
ENDBRANCH  46  48
ENDBRANCH  34  44
ENDBRANCH  32  34
ENDBRANCH  25  30
ENDBRANCH  23  25
ENDBRANCH   2  23
TORSDOF 28
ENDMDL
MODEL 3
REMARK VINA RESULT:    -7.126      4.057      7.993
REMARK INTER + INTRA:         -22.186
REMARK INTER:                 -18.620
REMARK INTRA:                  -3.566
REMARK UNBOUND:                -4.436
REMARK SMILES CCCCCCC[C@H](N)[C@H](O)C(=O)N[C@H](C)C(=O)N(C)[C@H](CC(C)C)C(=O)N[C@@H](Cc1ccc(O)cc1)C(=O)N[C@@H](Cc1ccc(O)cc1)C(=O)O
REMARK SMILES IDX 18 1 17 2 15 3 16 4 14 5 12 6 13 7 10 9 11 10 8 12 9 13 7 16
REMARK SMILES IDX 6 17 5 18 4 19 3 20 2 21 1 22 19 23 20 24 21 25 22 26 23 27
REMARK SMILES IDX 24 28 25 29 26 30 27 31 28 32 29 34 30 35 31 36 32 37 37 38
REMARK SMILES IDX 33 39 36 40 34 41 35 42 38 44 39 45 40 46 41 48 42 49 43 50
REMARK SMILES IDX 44 51 49 52 45 53 48 54 46 55 47 56 50 58 51 59 52 60
REMARK H PARENT 14 8 11 11 9 14 9 15 28 33 35 43 40 47 47 57 52 61
ROOT
ATOM      1  O   UNL     1       4.757  -0.569  -9.943  1.00  0.00    -0.272 OA
ATOM      2  C   UNL     1       5.043   0.458  -9.309  1.00  0.00     0.245 C 
ENDROOT
BRANCH   2   3
ATOM      3  C   UNL     1       4.043   0.972  -8.243  1.00  0.00     0.168 C 
ATOM      4  C   UNL     1       4.558   2.250  -7.589  1.00  0.00     0.041 C 
BRANCH   3   5
ATOM      5  N   UNL     1       2.673   1.117  -8.710  1.00  0.00    -0.342 N 
ATOM      6  C   UNL     1       2.192   2.314  -9.198  1.00  0.00     0.251 C 
ATOM      7  O   UNL     1       2.857   3.344  -9.237  1.00  0.00    -0.272 OA
ATOM      8  H   UNL     1       2.016   0.341  -8.694  1.00  0.00     0.164 HD
BRANCH   6   9
ATOM      9  C   UNL     1       0.768   2.197  -9.764  1.00  0.00     0.219 C 
BRANCH   9  10
ATOM     10  O   UNL     1      -0.241   2.464  -8.783  1.00  0.00    -0.382 OA
ATOM     11  H   UNL     1      -0.547   1.569  -8.517  1.00  0.00     0.211 HD
ENDBRANCH   9  10
BRANCH   9  12
ATOM     12  C   UNL     1       0.545   3.060 -11.033  1.00  0.00     0.089 C 
BRANCH  12  13
ATOM     13  N   UNL     1      -0.411   2.353 -11.917  1.00  0.00    -0.325 NA
ATOM     14  H   UNL     1      -0.860   3.031 -12.536  1.00  0.00     0.119 HD
ATOM     15  H   UNL     1      -1.168   1.970 -11.347  1.00  0.00     0.119 HD
ENDBRANCH  12  13
BRANCH  12  16
ATOM     16  C   UNL     1       0.069   4.512 -10.790  1.00  0.00     0.022 C 
BRANCH  16  17
ATOM     17  C   UNL     1       0.114   5.517 -11.950  1.00  0.00     0.002 C 
BRANCH  17  18
ATOM     18  C   UNL     1      -1.186   6.281 -12.191  1.00  0.00     0.000 C 
BRANCH  18  19
ATOM     19  C   UNL     1      -2.423   5.623 -11.565  1.00  0.00    -0.000 C 
BRANCH  19  20
ATOM     20  C   UNL     1      -3.190   6.496 -10.568  1.00  0.00    -0.000 C 
BRANCH  20  21
ATOM     21  C   UNL     1      -2.603   6.449  -9.155  1.00  0.00    -0.003 C 
ATOM     22  C   UNL     1      -2.809   5.085  -8.514  1.00  0.00     0.004 C 
ENDBRANCH  20  21
ENDBRANCH  19  20
ENDBRANCH  18  19
ENDBRANCH  17  18
ENDBRANCH  16  17
ENDBRANCH  12  16
ENDBRANCH   9  12
ENDBRANCH   6   9
ENDBRANCH   3   5
ENDBRANCH   2   3
BRANCH   2  23
ATOM     23  N   UNL     1       6.289   1.053  -9.473  1.00  0.00    -0.332 N 
ATOM     24  C   UNL     1       7.381   0.961  -8.516  1.00  0.00     0.147 C 
BRANCH  23  25
ATOM     25  C   UNL     1       6.630   1.741 -10.748  1.00  0.00     0.174 C 
BRANCH  25  26
ATOM     26  C   UNL     1       5.422   2.471 -11.381  1.00  0.00     0.038 C 
BRANCH  26  27
ATOM     27  C   UNL     1       5.488   4.014 -11.436  1.00  0.00    -0.015 C 
ATOM     28  C   UNL     1       6.766   4.521 -12.103  1.00  0.00     0.007 C 
ATOM     29  C   UNL     1       4.258   4.651 -12.079  1.00  0.00     0.007 C 
ENDBRANCH  26  27
ENDBRANCH  25  26
BRANCH  25  30
ATOM     30  C   UNL     1       7.336   0.758 -11.711  1.00  0.00     0.243 C 
ATOM     31  O   UNL     1       7.681  -0.367 -11.353  1.00  0.00    -0.273 OA
ATOM     32  N   UNL     1       7.556   1.227 -12.981  1.00  0.00    -0.342 N 
ATOM     33  H   UNL     1       7.117   2.113 -13.241  1.00  0.00     0.164 HD
BRANCH  32  34
ATOM     34  C   UNL     1       8.235   0.445 -14.017  1.00  0.00     0.175 C 
BRANCH  34  35
ATOM     35  C   UNL     1       7.354   0.286 -15.266  1.00  0.00     0.070 C 
BRANCH  35  36
ATOM     36  C   UNL     1       6.222   1.289 -15.313  1.00  0.00    -0.045 A 
ATOM     37  C   UNL     1       4.915   0.886 -15.002  1.00  0.00     0.007 A 
ATOM     38  C   UNL     1       6.455   2.618 -15.689  1.00  0.00     0.007 A 
ATOM     39  C   UNL     1       3.862   1.800 -15.057  1.00  0.00     0.046 A 
ATOM     40  C   UNL     1       5.402   3.534 -15.745  1.00  0.00     0.046 A 
ATOM     41  C   UNL     1       4.114   3.116 -15.427  1.00  0.00     0.115 A 
BRANCH  41  42
ATOM     42  O   UNL     1       3.057   3.977 -15.471  1.00  0.00    -0.508 OA
ATOM     43  H   UNL     1       3.251   4.727 -14.884  1.00  0.00     0.293 HD
ENDBRANCH  41  42
ENDBRANCH  35  36
ENDBRANCH  34  35
BRANCH  34  44
ATOM     44  C   UNL     1       9.576   1.142 -14.342  1.00  0.00     0.243 C 
ATOM     45  O   UNL     1       9.862   1.619 -15.436  1.00  0.00    -0.273 OA
ATOM     46  N   UNL     1      10.495   1.068 -13.316  1.00  0.00    -0.341 N 
ATOM     47  H   UNL     1      10.251   0.558 -12.470  1.00  0.00     0.164 HD
BRANCH  46  48
ATOM     48  C   UNL     1      11.857   1.596 -13.416  1.00  0.00     0.196 C 
BRANCH  48  49
ATOM     49  C   UNL     1      12.366   2.094 -12.052  1.00  0.00     0.072 C 
BRANCH  49  50
ATOM     50  C   UNL     1      11.757   3.418 -11.652  1.00  0.00    -0.045 A 
ATOM     51  C   UNL     1      12.301   4.614 -12.142  1.00  0.00     0.007 A 
ATOM     52  C   UNL     1      10.664   3.475 -10.778  1.00  0.00     0.007 A 
ATOM     53  C   UNL     1      11.756   5.843 -11.770  1.00  0.00     0.046 A 
ATOM     54  C   UNL     1      10.118   4.705 -10.404  1.00  0.00     0.046 A 
ATOM     55  C   UNL     1      10.669   5.880 -10.905  1.00  0.00     0.115 A 
BRANCH  55  56
ATOM     56  O   UNL     1      10.167   7.101 -10.563  1.00  0.00    -0.508 OA
ATOM     57  H   UNL     1       9.944   7.087  -9.619  1.00  0.00     0.293 HD
ENDBRANCH  55  56
ENDBRANCH  49  50
ENDBRANCH  48  49
BRANCH  48  58
ATOM     58  C   UNL     1      12.785   0.491 -13.939  1.00  0.00     0.326 C 
ATOM     59  O   UNL     1      13.526  -0.223 -13.284  1.00  0.00    -0.250 OA
BRANCH  58  60
ATOM     60  O   UNL     1      12.722   0.324 -15.284  1.00  0.00    -0.480 OA
ATOM     61  H   UNL     1      12.492   1.220 -15.613  1.00  0.00     0.296 HD
ENDBRANCH  58  60
ENDBRANCH  48  58
ENDBRANCH  46  48
ENDBRANCH  34  44
ENDBRANCH  32  34
ENDBRANCH  25  30
ENDBRANCH  23  25
ENDBRANCH   2  23
TORSDOF 28
ENDMDL
MODEL 4
REMARK VINA RESULT:    -7.070      9.241     14.994
REMARK INTER + INTRA:         -22.045
REMARK INTER:                 -17.945
REMARK INTRA:                  -4.099
REMARK UNBOUND:                -4.436
REMARK SMILES CCCCCCC[C@H](N)[C@H](O)C(=O)N[C@H](C)C(=O)N(C)[C@H](CC(C)C)C(=O)N[C@@H](Cc1ccc(O)cc1)C(=O)N[C@@H](Cc1ccc(O)cc1)C(=O)O
REMARK SMILES IDX 18 1 17 2 15 3 16 4 14 5 12 6 13 7 10 9 11 10 8 12 9 13 7 16
REMARK SMILES IDX 6 17 5 18 4 19 3 20 2 21 1 22 19 23 20 24 21 25 22 26 23 27
REMARK SMILES IDX 24 28 25 29 26 30 27 31 28 32 29 34 30 35 31 36 32 37 37 38
REMARK SMILES IDX 33 39 36 40 34 41 35 42 38 44 39 45 40 46 41 48 42 49 43 50
REMARK SMILES IDX 44 51 49 52 45 53 48 54 46 55 47 56 50 58 51 59 52 60
REMARK H PARENT 14 8 11 11 9 14 9 15 28 33 35 43 40 47 47 57 52 61
ROOT
ATOM      1  O   UNL     1      -3.493   3.427  -7.837  1.00  0.00    -0.272 OA
ATOM      2  C   UNL     1      -4.228   4.388  -8.112  1.00  0.00     0.245 C 
ENDROOT
BRANCH   2   3
ATOM      3  C   UNL     1      -3.593   5.647  -8.753  1.00  0.00     0.168 C 
ATOM      4  C   UNL     1      -2.871   6.484  -7.703  1.00  0.00     0.041 C 
BRANCH   3   5
ATOM      5  N   UNL     1      -2.751   5.384  -9.910  1.00  0.00    -0.342 N 
ATOM      6  C   UNL     1      -2.548   6.330 -10.893  1.00  0.00     0.251 C 
ATOM      7  O   UNL     1      -3.086   7.432 -10.892  1.00  0.00    -0.272 OA
ATOM      8  H   UNL     1      -2.279   4.492 -10.038  1.00  0.00     0.164 HD
BRANCH   6   9
ATOM      9  C   UNL     1      -1.513   5.887 -11.939  1.00  0.00     0.219 C 
BRANCH   9  10
ATOM     10  O   UNL     1      -1.662   6.574 -13.188  1.00  0.00    -0.382 OA
ATOM     11  H   UNL     1      -1.050   7.339 -13.105  1.00  0.00     0.211 HD
ENDBRANCH   9  10
BRANCH   9  12
ATOM     12  C   UNL     1      -0.052   5.982 -11.429  1.00  0.00     0.089 C 
BRANCH  12  13
ATOM     13  N   UNL     1      -0.050   6.738 -10.155  1.00  0.00    -0.325 NA
ATOM     14  H   UNL     1      -0.862   6.461  -9.599  1.00  0.00     0.119 HD
ATOM     15  H   UNL     1      -0.192   7.730 -10.359  1.00  0.00     0.119 HD
ENDBRANCH  12  13
BRANCH  12  16
ATOM     16  C   UNL     1       0.692   4.637 -11.250  1.00  0.00     0.022 C 
BRANCH  16  17
ATOM     17  C   UNL     1       2.160   4.532 -11.686  1.00  0.00     0.002 C 
BRANCH  17  18
ATOM     18  C   UNL     1       3.064   3.760 -10.727  1.00  0.00     0.000 C 
BRANCH  18  19
ATOM     19  C   UNL     1       2.775   2.254 -10.672  1.00  0.00    -0.000 C 
BRANCH  19  20
ATOM     20  C   UNL     1       3.569   1.478  -9.618  1.00  0.00    -0.000 C 
BRANCH  20  21
ATOM     21  C   UNL     1       3.477  -0.040  -9.795  1.00  0.00    -0.003 C 
ATOM     22  C   UNL     1       4.327  -0.514 -10.963  1.00  0.00     0.004 C 
ENDBRANCH  20  21
ENDBRANCH  19  20
ENDBRANCH  18  19
ENDBRANCH  17  18
ENDBRANCH  16  17
ENDBRANCH  12  16
ENDBRANCH   9  12
ENDBRANCH   6   9
ENDBRANCH   3   5
ENDBRANCH   2   3
BRANCH   2  23
ATOM     23  N   UNL     1      -5.606   4.276  -7.956  1.00  0.00    -0.332 N 
ATOM     24  C   UNL     1      -6.491   5.383  -7.626  1.00  0.00     0.147 C 
BRANCH  23  25
ATOM     25  C   UNL     1      -6.294   2.991  -8.255  1.00  0.00     0.174 C 
BRANCH  25  26
ATOM     26  C   UNL     1      -7.639   3.185  -8.993  1.00  0.00     0.038 C 
BRANCH  26  27
ATOM     27  C   UNL     1      -7.712   2.692 -10.456  1.00  0.00    -0.015 C 
ATOM     28  C   UNL     1      -8.337   3.728 -11.390  1.00  0.00     0.007 C 
ATOM     29  C   UNL     1      -6.370   2.215 -11.003  1.00  0.00     0.007 C 
ENDBRANCH  26  27
ENDBRANCH  25  26
BRANCH  25  30
ATOM     30  C   UNL     1      -6.407   2.137  -6.970  1.00  0.00     0.243 C 
ATOM     31  O   UNL     1      -7.342   2.271  -6.182  1.00  0.00    -0.273 OA
ATOM     32  N   UNL     1      -5.398   1.231  -6.769  1.00  0.00    -0.342 N 
ATOM     33  H   UNL     1      -4.737   1.081  -7.535  1.00  0.00     0.164 HD
BRANCH  32  34
ATOM     34  C   UNL     1      -5.327   0.358  -5.594  1.00  0.00     0.175 C 
BRANCH  34  35
ATOM     35  C   UNL     1      -5.190  -1.117  -6.002  1.00  0.00     0.070 C 
BRANCH  35  36
ATOM     36  C   UNL     1      -5.189  -2.054  -4.815  1.00  0.00    -0.045 A 
ATOM     37  C   UNL     1      -6.309  -2.118  -3.971  1.00  0.00     0.007 A 
ATOM     38  C   UNL     1      -4.072  -2.849  -4.527  1.00  0.00     0.007 A 
ATOM     39  C   UNL     1      -6.312  -2.969  -2.865  1.00  0.00     0.046 A 
ATOM     40  C   UNL     1      -4.074  -3.700  -3.420  1.00  0.00     0.046 A 
ATOM     41  C   UNL     1      -5.196  -3.754  -2.599  1.00  0.00     0.115 A 
BRANCH  41  42
ATOM     42  O   UNL     1      -5.239  -4.569  -1.507  1.00  0.00    -0.508 OA
ATOM     43  H   UNL     1      -5.133  -5.487  -1.809  1.00  0.00     0.293 HD
ENDBRANCH  41  42
ENDBRANCH  35  36
ENDBRANCH  34  35
BRANCH  34  44
ATOM     44  C   UNL     1      -4.142   0.828  -4.720  1.00  0.00     0.243 C 
ATOM     45  O   UNL     1      -4.261   1.403  -3.642  1.00  0.00    -0.273 OA
ATOM     46  N   UNL     1      -2.914   0.660  -5.324  1.00  0.00    -0.341 N 
ATOM     47  H   UNL     1      -2.875   0.285  -6.269  1.00  0.00     0.164 HD
BRANCH  46  48
ATOM     48  C   UNL     1      -1.652   1.092  -4.718  1.00  0.00     0.196 C 
BRANCH  48  49
ATOM     49  C   UNL     1      -0.737  -0.107  -4.417  1.00  0.00     0.072 C 
BRANCH  49  50
ATOM     50  C   UNL     1      -0.676  -0.436  -2.942  1.00  0.00    -0.045 A 
ATOM     51  C   UNL     1      -1.749  -1.101  -2.330  1.00  0.00     0.007 A 
ATOM     52  C   UNL     1       0.430  -0.069  -2.166  1.00  0.00     0.007 A 
ATOM     53  C   UNL     1      -1.710  -1.399  -0.968  1.00  0.00     0.046 A 
ATOM     54  C   UNL     1       0.468  -0.365  -0.802  1.00  0.00     0.046 A 
ATOM     55  C   UNL     1      -0.603  -1.030  -0.214  1.00  0.00     0.115 A 
BRANCH  55  56
ATOM     56  O   UNL     1      -0.605  -1.337   1.114  1.00  0.00    -0.508 OA
ATOM     57  H   UNL     1       0.312  -1.329   1.432  1.00  0.00     0.293 HD
ENDBRANCH  55  56
ENDBRANCH  49  50
ENDBRANCH  48  49
BRANCH  48  58
ATOM     58  C   UNL     1      -0.941   2.054  -5.679  1.00  0.00     0.326 C 
ATOM     59  O   UNL     1      -0.540   1.811  -6.806  1.00  0.00    -0.250 OA
BRANCH  58  60
ATOM     60  O   UNL     1      -0.777   3.302  -5.173  1.00  0.00    -0.480 OA
ATOM     61  H   UNL     1       0.106   3.568  -5.508  1.00  0.00     0.296 HD
ENDBRANCH  58  60
ENDBRANCH  48  58
ENDBRANCH  46  48
ENDBRANCH  34  44
ENDBRANCH  32  34
ENDBRANCH  25  30
ENDBRANCH  23  25
ENDBRANCH   2  23
TORSDOF 28
ENDMDL
MODEL 5
REMARK VINA RESULT:    -6.987      6.346     11.786
REMARK INTER + INTRA:         -21.839
REMARK INTER:                 -18.121
REMARK INTRA:                  -3.718
REMARK UNBOUND:                -4.436
REMARK SMILES CCCCCCC[C@H](N)[C@H](O)C(=O)N[C@H](C)C(=O)N(C)[C@H](CC(C)C)C(=O)N[C@@H](Cc1ccc(O)cc1)C(=O)N[C@@H](Cc1ccc(O)cc1)C(=O)O
REMARK SMILES IDX 18 1 17 2 15 3 16 4 14 5 12 6 13 7 10 9 11 10 8 12 9 13 7 16
REMARK SMILES IDX 6 17 5 18 4 19 3 20 2 21 1 22 19 23 20 24 21 25 22 26 23 27
REMARK SMILES IDX 24 28 25 29 26 30 27 31 28 32 29 34 30 35 31 36 32 37 37 38
REMARK SMILES IDX 33 39 36 40 34 41 35 42 38 44 39 45 40 46 41 48 42 49 43 50
REMARK SMILES IDX 44 51 49 52 45 53 48 54 46 55 47 56 50 58 51 59 52 60
REMARK H PARENT 14 8 11 11 9 14 9 15 28 33 35 43 40 47 47 57 52 61
ROOT
ATOM      1  O   UNL     1       3.980   0.562  -7.166  1.00  0.00    -0.272 OA
ATOM      2  C   UNL     1       3.373   1.505  -7.696  1.00  0.00     0.245 C 
ENDROOT
BRANCH   2   3
ATOM      3  C   UNL     1       1.833   1.411  -7.833  1.00  0.00     0.168 C 
ATOM      4  C   UNL     1       1.447   0.608  -9.071  1.00  0.00     0.041 C 
BRANCH   3   5
ATOM      5  N   UNL     1       1.141   0.939  -6.644  1.00  0.00    -0.342 N 
ATOM      6  C   UNL     1      -0.080   1.453  -6.260  1.00  0.00     0.251 C 
ATOM      7  O   UNL     1      -0.649   2.361  -6.856  1.00  0.00    -0.272 OA
ATOM      8  H   UNL     1       1.532   0.212  -6.049  1.00  0.00     0.164 HD
BRANCH   6   9
ATOM      9  C   UNL     1      -0.687   0.708  -5.060  1.00  0.00     0.219 C 
BRANCH   9  10
ATOM     10  O   UNL     1      -1.193   1.597  -4.057  1.00  0.00    -0.382 OA
ATOM     11  H   UNL     1      -0.829   1.233  -3.220  1.00  0.00     0.211 HD
ENDBRANCH   9  10
BRANCH   9  12
ATOM     12  C   UNL     1      -1.763  -0.330  -5.469  1.00  0.00     0.089 C 
BRANCH  12  13
ATOM     13  N   UNL     1      -1.398  -0.886  -6.792  1.00  0.00    -0.325 NA
ATOM     14  H   UNL     1      -2.136  -0.666  -7.464  1.00  0.00     0.119 HD
ATOM     15  H   UNL     1      -1.387  -1.906  -6.731  1.00  0.00     0.119 HD
ENDBRANCH  12  13
BRANCH  12  16
ATOM     16  C   UNL     1      -2.015  -1.478  -4.462  1.00  0.00     0.022 C 
BRANCH  16  17
ATOM     17  C   UNL     1      -2.440  -2.856  -4.990  1.00  0.00     0.002 C 
BRANCH  17  18
ATOM     18  C   UNL     1      -3.831  -2.904  -5.619  1.00  0.00     0.000 C 
BRANCH  18  19
ATOM     19  C   UNL     1      -4.632  -4.164  -5.265  1.00  0.00    -0.000 C 
BRANCH  19  20
ATOM     20  C   UNL     1      -6.045  -3.907  -4.732  1.00  0.00    -0.000 C 
BRANCH  20  21
ATOM     21  C   UNL     1      -6.634  -5.111  -3.991  1.00  0.00    -0.003 C 
ATOM     22  C   UNL     1      -5.591  -6.197  -3.780  1.00  0.00     0.004 C 
ENDBRANCH  20  21
ENDBRANCH  19  20
ENDBRANCH  18  19
ENDBRANCH  17  18
ENDBRANCH  16  17
ENDBRANCH  12  16
ENDBRANCH   9  12
ENDBRANCH   6   9
ENDBRANCH   3   5
ENDBRANCH   2   3
BRANCH   2  23
ATOM     23  N   UNL     1       4.057   2.666  -8.041  1.00  0.00    -0.332 N 
ATOM     24  C   UNL     1       4.224   3.817  -7.166  1.00  0.00     0.147 C 
BRANCH  23  25
ATOM     25  C   UNL     1       4.792   2.748  -9.332  1.00  0.00     0.174 C 
BRANCH  25  26
ATOM     26  C   UNL     1       6.318   2.921  -9.146  1.00  0.00     0.038 C 
BRANCH  26  27
ATOM     27  C   UNL     1       7.234   2.185 -10.149  1.00  0.00    -0.015 C 
ATOM     28  C   UNL     1       6.480   1.138 -10.970  1.00  0.00     0.007 C 
ATOM     29  C   UNL     1       8.012   3.126 -11.065  1.00  0.00     0.007 C 
ENDBRANCH  26  27
ENDBRANCH  25  26
BRANCH  25  30
ATOM     30  C   UNL     1       4.152   3.821 -10.242  1.00  0.00     0.243 C 
ATOM     31  O   UNL     1       4.602   4.964 -10.317  1.00  0.00    -0.273 OA
ATOM     32  N   UNL     1       3.050   3.417 -10.952  1.00  0.00    -0.342 N 
ATOM     33  H   UNL     1       2.823   2.419 -10.946  1.00  0.00     0.164 HD
BRANCH  32  34
ATOM     34  C   UNL     1       2.299   4.306 -11.842  1.00  0.00     0.175 C 
BRANCH  34  35
ATOM     35  C   UNL     1       2.442   3.877 -13.310  1.00  0.00     0.070 C 
BRANCH  35  36
ATOM     36  C   UNL     1       3.883   3.687 -13.727  1.00  0.00    -0.045 A 
ATOM     37  C   UNL     1       4.359   2.405 -14.043  1.00  0.00     0.007 A 
ATOM     38  C   UNL     1       4.765   4.774 -13.781  1.00  0.00     0.007 A 
ATOM     39  C   UNL     1       5.690   2.218 -14.415  1.00  0.00     0.046 A 
ATOM     40  C   UNL     1       6.098   4.587 -14.153  1.00  0.00     0.046 A 
ATOM     41  C   UNL     1       6.549   3.309 -14.468  1.00  0.00     0.115 A 
BRANCH  41  42
ATOM     42  O   UNL     1       7.843   3.083 -14.833  1.00  0.00    -0.508 OA
ATOM     43  H   UNL     1       8.102   2.205 -14.508  1.00  0.00     0.293 HD
ENDBRANCH  41  42
ENDBRANCH  35  36
ENDBRANCH  34  35
BRANCH  34  44
ATOM     44  C   UNL     1       0.824   4.310 -11.382  1.00  0.00     0.243 C 
ATOM     45  O   UNL     1       0.265   3.363 -10.836  1.00  0.00    -0.273 OA
ATOM     46  N   UNL     1       0.134   5.443 -11.759  1.00  0.00    -0.341 N 
ATOM     47  H   UNL     1       0.611   6.150 -12.313  1.00  0.00     0.164 HD
BRANCH  46  48
ATOM     48  C   UNL     1      -1.292   5.643 -11.495  1.00  0.00     0.196 C 
BRANCH  48  49
ATOM     49  C   UNL     1      -1.568   5.792  -9.989  1.00  0.00     0.072 C 
BRANCH  49  50
ATOM     50  C   UNL     1      -2.785   5.016  -9.541  1.00  0.00    -0.045 A 
ATOM     51  C   UNL     1      -2.939   4.677  -8.188  1.00  0.00     0.007 A 
ATOM     52  C   UNL     1      -3.759   4.607 -10.461  1.00  0.00     0.007 A 
ATOM     53  C   UNL     1      -4.052   3.950  -7.765  1.00  0.00     0.046 A 
ATOM     54  C   UNL     1      -4.872   3.878 -10.037  1.00  0.00     0.046 A 
ATOM     55  C   UNL     1      -5.009   3.556  -8.691  1.00  0.00     0.115 A 
BRANCH  55  56
ATOM     56  O   UNL     1      -6.080   2.845  -8.237  1.00  0.00    -0.508 OA
ATOM     57  H   UNL     1      -5.767   1.976  -7.940  1.00  0.00     0.293 HD
ENDBRANCH  55  56
ENDBRANCH  49  50
ENDBRANCH  48  49
BRANCH  48  58
ATOM     58  C   UNL     1      -1.764   6.904 -12.232  1.00  0.00     0.326 C 
ATOM     59  O   UNL     1      -2.396   7.839 -11.767  1.00  0.00    -0.250 OA
BRANCH  58  60
ATOM     60  O   UNL     1      -1.399   6.935 -13.539  1.00  0.00    -0.480 OA
ATOM     61  H   UNL     1      -1.531   6.008 -13.833  1.00  0.00     0.296 HD
ENDBRANCH  58  60
ENDBRANCH  48  58
ENDBRANCH  46  48
ENDBRANCH  34  44
ENDBRANCH  32  34
ENDBRANCH  25  30
ENDBRANCH  23  25
ENDBRANCH   2  23
TORSDOF 28
ENDMDL
MODEL 6
REMARK VINA RESULT:    -6.968      5.815     11.475
REMARK INTER + INTRA:         -21.792
REMARK INTER:                 -17.679
REMARK INTRA:                  -4.113
REMARK UNBOUND:                -4.436
REMARK SMILES CCCCCCC[C@H](N)[C@H](O)C(=O)N[C@H](C)C(=O)N(C)[C@H](CC(C)C)C(=O)N[C@@H](Cc1ccc(O)cc1)C(=O)N[C@@H](Cc1ccc(O)cc1)C(=O)O
REMARK SMILES IDX 18 1 17 2 15 3 16 4 14 5 12 6 13 7 10 9 11 10 8 12 9 13 7 16
REMARK SMILES IDX 6 17 5 18 4 19 3 20 2 21 1 22 19 23 20 24 21 25 22 26 23 27
REMARK SMILES IDX 24 28 25 29 26 30 27 31 28 32 29 34 30 35 31 36 32 37 37 38
REMARK SMILES IDX 33 39 36 40 34 41 35 42 38 44 39 45 40 46 41 48 42 49 43 50
REMARK SMILES IDX 44 51 49 52 45 53 48 54 46 55 47 56 50 58 51 59 52 60
REMARK H PARENT 14 8 11 11 9 14 9 15 28 33 35 43 40 47 47 57 52 61
ROOT
ATOM      1  O   UNL     1       4.174   0.563  -7.213  1.00  0.00    -0.272 OA
ATOM      2  C   UNL     1       3.534   1.445  -7.805  1.00  0.00     0.245 C 
ENDROOT
BRANCH   2   3
ATOM      3  C   UNL     1       2.007   1.257  -7.988  1.00  0.00     0.168 C 
ATOM      4  C   UNL     1       1.709  -0.006  -8.789  1.00  0.00     0.041 C 
BRANCH   3   5
ATOM      5  N   UNL     1       1.233   1.314  -6.757  1.00  0.00    -0.342 N 
ATOM      6  C   UNL     1      -0.014   1.898  -6.708  1.00  0.00     0.251 C 
ATOM      7  O   UNL     1      -0.544   2.444  -7.671  1.00  0.00    -0.272 OA
ATOM      8  H   UNL     1       1.584   0.925  -5.885  1.00  0.00     0.164 HD
BRANCH   6   9
ATOM      9  C   UNL     1      -0.703   1.716  -5.347  1.00  0.00     0.219 C 
BRANCH   9  10
ATOM     10  O   UNL     1      -1.375   2.902  -4.904  1.00  0.00    -0.382 OA
ATOM     11  H   UNL     1      -1.165   3.561  -5.602  1.00  0.00     0.211 HD
ENDBRANCH   9  10
BRANCH   9  12
ATOM     12  C   UNL     1      -1.659   0.495  -5.306  1.00  0.00     0.089 C 
BRANCH  12  13
ATOM     13  N   UNL     1      -1.366  -0.366  -6.474  1.00  0.00    -0.325 NA
ATOM     14  H   UNL     1      -0.377  -0.280  -6.716  1.00  0.00     0.119 HD
ATOM     15  H   UNL     1      -1.872  -0.005  -7.287  1.00  0.00     0.119 HD
ENDBRANCH  12  13
BRANCH  12  16
ATOM     16  C   UNL     1      -1.630  -0.345  -4.006  1.00  0.00     0.022 C 
BRANCH  16  17
ATOM     17  C   UNL     1      -0.400  -1.212  -3.704  1.00  0.00     0.002 C 
BRANCH  17  18
ATOM     18  C   UNL     1       0.519  -0.668  -2.612  1.00  0.00     0.000 C 
BRANCH  18  19
ATOM     19  C   UNL     1      -0.162  -0.504  -1.247  1.00  0.00    -0.000 C 
BRANCH  19  20
ATOM     20  C   UNL     1       0.610   0.347  -0.234  1.00  0.00    -0.000 C 
BRANCH  20  21
ATOM     21  C   UNL     1       2.021   0.707  -0.705  1.00  0.00    -0.003 C 
ATOM     22  C   UNL     1       2.356   2.158  -0.396  1.00  0.00     0.004 C 
ENDBRANCH  20  21
ENDBRANCH  19  20
ENDBRANCH  18  19
ENDBRANCH  17  18
ENDBRANCH  16  17
ENDBRANCH  12  16
ENDBRANCH   9  12
ENDBRANCH   6   9
ENDBRANCH   3   5
ENDBRANCH   2   3
BRANCH   2  23
ATOM     23  N   UNL     1       4.163   2.627  -8.182  1.00  0.00    -0.332 N 
ATOM     24  C   UNL     1       4.196   3.838  -7.375  1.00  0.00     0.147 C 
BRANCH  23  25
ATOM     25  C   UNL     1       4.978   2.681  -9.427  1.00  0.00     0.174 C 
BRANCH  25  26
ATOM     26  C   UNL     1       6.486   2.890  -9.151  1.00  0.00     0.038 C 
BRANCH  26  27
ATOM     27  C   UNL     1       7.472   2.354 -10.212  1.00  0.00    -0.015 C 
ATOM     28  C   UNL     1       6.897   1.182 -11.006  1.00  0.00     0.007 C 
ATOM     29  C   UNL     1       7.996   3.435 -11.154  1.00  0.00     0.007 C 
ENDBRANCH  26  27
ENDBRANCH  25  26
BRANCH  25  30
ATOM     30  C   UNL     1       4.378   3.710 -10.412  1.00  0.00     0.243 C 
ATOM     31  O   UNL     1       4.837   4.845 -10.526  1.00  0.00    -0.273 OA
ATOM     32  N   UNL     1       3.301   3.275 -11.140  1.00  0.00    -0.342 N 
ATOM     33  H   UNL     1       3.067   2.280 -11.093  1.00  0.00     0.164 HD
BRANCH  32  34
ATOM     34  C   UNL     1       2.588   4.122 -12.101  1.00  0.00     0.175 C 
BRANCH  34  35
ATOM     35  C   UNL     1       2.729   3.583 -13.533  1.00  0.00     0.070 C 
BRANCH  35  36
ATOM     36  C   UNL     1       4.169   3.368 -13.938  1.00  0.00    -0.045 A 
ATOM     37  C   UNL     1       5.032   4.467 -14.072  1.00  0.00     0.007 A 
ATOM     38  C   UNL     1       4.657   2.083 -14.208  1.00  0.00     0.007 A 
ATOM     39  C   UNL     1       6.359   4.281 -14.459  1.00  0.00     0.046 A 
ATOM     40  C   UNL     1       5.986   1.895 -14.597  1.00  0.00     0.046 A 
ATOM     41  C   UNL     1       6.826   2.997 -14.717  1.00  0.00     0.115 A 
BRANCH  41  42
ATOM     42  O   UNL     1       8.128   2.859 -15.096  1.00  0.00    -0.508 OA
ATOM     43  H   UNL     1       8.680   2.867 -14.296  1.00  0.00     0.293 HD
ENDBRANCH  41  42
ENDBRANCH  35  36
ENDBRANCH  34  35
BRANCH  34  44
ATOM     44  C   UNL     1       1.110   4.208 -11.659  1.00  0.00     0.243 C 
ATOM     45  O   UNL     1       0.485   3.286 -11.143  1.00  0.00    -0.273 OA
ATOM     46  N   UNL     1       0.499   5.391 -12.016  1.00  0.00    -0.341 N 
ATOM     47  H   UNL     1       1.027   6.080 -12.547  1.00  0.00     0.164 HD
BRANCH  46  48
ATOM     48  C   UNL     1      -0.916   5.675 -11.765  1.00  0.00     0.196 C 
BRANCH  48  49
ATOM     49  C   UNL     1      -1.215   5.738 -10.258  1.00  0.00     0.072 C 
BRANCH  49  50
ATOM     50  C   UNL     1      -2.513   5.053  -9.894  1.00  0.00    -0.045 A 
ATOM     51  C   UNL     1      -2.856   4.877  -8.545  1.00  0.00     0.007 A 
ATOM     52  C   UNL     1      -3.376   4.569 -10.885  1.00  0.00     0.007 A 
ATOM     53  C   UNL     1      -4.045   4.235  -8.197  1.00  0.00     0.046 A 
ATOM     54  C   UNL     1      -4.565   3.925 -10.537  1.00  0.00     0.046 A 
ATOM     55  C   UNL     1      -4.890   3.764  -9.194  1.00  0.00     0.115 A 
BRANCH  55  56
ATOM     56  O   UNL     1      -6.041   3.141  -8.812  1.00  0.00    -0.508 OA
ATOM     57  H   UNL     1      -5.818   2.462  -8.155  1.00  0.00     0.293 HD
ENDBRANCH  55  56
ENDBRANCH  49  50
ENDBRANCH  48  49
BRANCH  48  58
ATOM     58  C   UNL     1      -1.280   7.016 -12.418  1.00  0.00     0.326 C 
ATOM     59  O   UNL     1      -1.513   7.224 -13.598  1.00  0.00    -0.250 OA
BRANCH  58  60
ATOM     60  O   UNL     1      -1.349   8.046 -11.537  1.00  0.00    -0.480 OA
ATOM     61  H   UNL     1      -1.230   8.838 -12.105  1.00  0.00     0.296 HD
ENDBRANCH  58  60
ENDBRANCH  48  58
ENDBRANCH  46  48
ENDBRANCH  34  44
ENDBRANCH  32  34
ENDBRANCH  25  30
ENDBRANCH  23  25
ENDBRANCH   2  23
TORSDOF 28
ENDMDL
MODEL 7
REMARK VINA RESULT:    -6.861      8.659     14.790
REMARK INTER + INTRA:         -21.526
REMARK INTER:                 -16.915
REMARK INTRA:                  -4.611
REMARK UNBOUND:                -4.436
REMARK SMILES CCCCCCC[C@H](N)[C@H](O)C(=O)N[C@H](C)C(=O)N(C)[C@H](CC(C)C)C(=O)N[C@@H](Cc1ccc(O)cc1)C(=O)N[C@@H](Cc1ccc(O)cc1)C(=O)O
REMARK SMILES IDX 18 1 17 2 15 3 16 4 14 5 12 6 13 7 10 9 11 10 8 12 9 13 7 16
REMARK SMILES IDX 6 17 5 18 4 19 3 20 2 21 1 22 19 23 20 24 21 25 22 26 23 27
REMARK SMILES IDX 24 28 25 29 26 30 27 31 28 32 29 34 30 35 31 36 32 37 37 38
REMARK SMILES IDX 33 39 36 40 34 41 35 42 38 44 39 45 40 46 41 48 42 49 43 50
REMARK SMILES IDX 44 51 49 52 45 53 48 54 46 55 47 56 50 58 51 59 52 60
REMARK H PARENT 14 8 11 11 9 14 9 15 28 33 35 43 40 47 47 57 52 61
ROOT
ATOM      1  O   UNL     1      -3.259   3.362  -7.530  1.00  0.00    -0.272 OA
ATOM      2  C   UNL     1      -4.054   4.258  -7.854  1.00  0.00     0.245 C 
ENDROOT
BRANCH   2   3
ATOM      3  C   UNL     1      -3.503   5.508  -8.584  1.00  0.00     0.168 C 
ATOM      4  C   UNL     1      -2.805   6.444  -7.604  1.00  0.00     0.041 C 
BRANCH   3   5
ATOM      5  N   UNL     1      -2.675   5.222  -9.745  1.00  0.00    -0.342 N 
ATOM      6  C   UNL     1      -2.548   6.116 -10.787  1.00  0.00     0.251 C 
ATOM      7  O   UNL     1      -3.147   7.185 -10.837  1.00  0.00    -0.272 OA
ATOM      8  H   UNL     1      -2.157   4.351  -9.833  1.00  0.00     0.164 HD
BRANCH   6   9
ATOM      9  C   UNL     1      -1.515   5.668 -11.833  1.00  0.00     0.219 C 
BRANCH   9  10
ATOM     10  O   UNL     1      -1.767   6.219 -13.131  1.00  0.00    -0.382 OA
ATOM     11  H   UNL     1      -2.231   5.494 -13.604  1.00  0.00     0.211 HD
ENDBRANCH   9  10
BRANCH   9  12
ATOM     12  C   UNL     1      -0.051   5.935 -11.396  1.00  0.00     0.089 C 
BRANCH  12  13
ATOM     13  N   UNL     1      -0.074   6.719 -10.140  1.00  0.00    -0.325 NA
ATOM     14  H   UNL     1      -1.044   6.883  -9.864  1.00  0.00     0.119 HD
ATOM     15  H   UNL     1       0.312   7.648 -10.322  1.00  0.00     0.119 HD
ENDBRANCH  12  13
BRANCH  12  16
ATOM     16  C   UNL     1       0.845   4.685 -11.225  1.00  0.00     0.022 C 
BRANCH  16  17
ATOM     17  C   UNL     1       2.232   4.664 -11.883  1.00  0.00     0.002 C 
BRANCH  17  18
ATOM     18  C   UNL     1       2.730   3.281 -12.295  1.00  0.00     0.000 C 
BRANCH  18  19
ATOM     19  C   UNL     1       3.986   2.820 -11.544  1.00  0.00    -0.000 C 
BRANCH  19  20
ATOM     20  C   UNL     1       4.514   3.802 -10.494  1.00  0.00    -0.000 C 
BRANCH  20  21
ATOM     21  C   UNL     1       5.485   3.157  -9.503  1.00  0.00    -0.003 C 
ATOM     22  C   UNL     1       4.975   3.267  -8.075  1.00  0.00     0.004 C 
ENDBRANCH  20  21
ENDBRANCH  19  20
ENDBRANCH  18  19
ENDBRANCH  17  18
ENDBRANCH  16  17
ENDBRANCH  12  16
ENDBRANCH   9  12
ENDBRANCH   6   9
ENDBRANCH   3   5
ENDBRANCH   2   3
BRANCH   2  23
ATOM     23  N   UNL     1      -5.420   4.075  -7.670  1.00  0.00    -0.332 N 
ATOM     24  C   UNL     1      -6.356   5.135  -7.324  1.00  0.00     0.147 C 
BRANCH  23  25
ATOM     25  C   UNL     1      -6.046   2.754  -7.951  1.00  0.00     0.174 C 
BRANCH  25  26
ATOM     26  C   UNL     1      -7.480   2.876  -8.519  1.00  0.00     0.038 C 
BRANCH  26  27
ATOM     27  C   UNL     1      -7.750   2.208  -9.885  1.00  0.00    -0.015 C 
ATOM     28  C   UNL     1      -9.041   2.707 -10.535  1.00  0.00     0.007 C 
ATOM     29  C   UNL     1      -6.580   2.322 -10.859  1.00  0.00     0.007 C 
ENDBRANCH  26  27
ENDBRANCH  25  26
BRANCH  25  30
ATOM     30  C   UNL     1      -5.946   1.842  -6.707  1.00  0.00     0.243 C 
ATOM     31  O   UNL     1      -6.627   2.038  -5.701  1.00  0.00    -0.273 OA
ATOM     32  N   UNL     1      -5.047   0.811  -6.798  1.00  0.00    -0.342 N 
ATOM     33  H   UNL     1      -4.625   0.630  -7.712  1.00  0.00     0.164 HD
BRANCH  32  34
ATOM     34  C   UNL     1      -4.799  -0.136  -5.707  1.00  0.00     0.175 C 
BRANCH  34  35
ATOM     35  C   UNL     1      -5.565  -1.450  -5.924  1.00  0.00     0.070 C 
BRANCH  35  36
ATOM     36  C   UNL     1      -5.901  -2.152  -4.627  1.00  0.00    -0.045 A 
ATOM     37  C   UNL     1      -6.396  -1.417  -3.539  1.00  0.00     0.007 A 
ATOM     38  C   UNL     1      -5.703  -3.531  -4.484  1.00  0.00     0.007 A 
ATOM     39  C   UNL     1      -6.696  -2.053  -2.334  1.00  0.00     0.046 A 
ATOM     40  C   UNL     1      -6.002  -4.169  -3.277  1.00  0.00     0.046 A 
ATOM     41  C   UNL     1      -6.497  -3.423  -2.213  1.00  0.00     0.115 A 
BRANCH  41  42
ATOM     42  O   UNL     1      -6.799  -4.006  -1.018  1.00  0.00    -0.508 OA
ATOM     43  H   UNL     1      -7.662  -3.668  -0.724  1.00  0.00     0.293 HD
ENDBRANCH  41  42
ENDBRANCH  35  36
ENDBRANCH  34  35
BRANCH  34  44
ATOM     44  C   UNL     1      -3.274  -0.366  -5.609  1.00  0.00     0.243 C 
ATOM     45  O   UNL     1      -2.746  -1.466  -5.478  1.00  0.00    -0.273 OA
ATOM     46  N   UNL     1      -2.546   0.804  -5.551  1.00  0.00    -0.341 N 
ATOM     47  H   UNL     1      -3.039   1.693  -5.545  1.00  0.00     0.164 HD
BRANCH  46  48
ATOM     48  C   UNL     1      -1.091   0.839  -5.388  1.00  0.00     0.196 C 
BRANCH  48  49
ATOM     49  C   UNL     1      -0.463   1.979  -6.208  1.00  0.00     0.072 C 
BRANCH  49  50
ATOM     50  C   UNL     1       0.625   1.495  -7.139  1.00  0.00    -0.045 A 
ATOM     51  C   UNL     1       0.484   1.659  -8.525  1.00  0.00     0.007 A 
ATOM     52  C   UNL     1       1.771   0.861  -6.641  1.00  0.00     0.007 A 
ATOM     53  C   UNL     1       1.475   1.205  -9.395  1.00  0.00     0.046 A 
ATOM     54  C   UNL     1       2.763   0.405  -7.512  1.00  0.00     0.046 A 
ATOM     55  C   UNL     1       2.607   0.582  -8.882  1.00  0.00     0.115 A 
BRANCH  55  56
ATOM     56  O   UNL     1       3.552   0.151  -9.766  1.00  0.00    -0.508 OA
ATOM     57  H   UNL     1       4.329  -0.141  -9.264  1.00  0.00     0.293 HD
ENDBRANCH  55  56
ENDBRANCH  49  50
ENDBRANCH  48  49
BRANCH  48  58
ATOM     58  C   UNL     1      -0.759   1.031  -3.902  1.00  0.00     0.326 C 
ATOM     59  O   UNL     1      -0.979   2.017  -3.217  1.00  0.00    -0.250 OA
BRANCH  58  60
ATOM     60  O   UNL     1      -0.169  -0.051  -3.335  1.00  0.00    -0.480 OA
ATOM     61  H   UNL     1      -0.593  -0.807  -3.796  1.00  0.00     0.296 HD
ENDBRANCH  58  60
ENDBRANCH  48  58
ENDBRANCH  46  48
ENDBRANCH  34  44
ENDBRANCH  32  34
ENDBRANCH  25  30
ENDBRANCH  23  25
ENDBRANCH   2  23
TORSDOF 28
ENDMDL
MODEL 8
REMARK VINA RESULT:    -6.828      9.684     15.922
REMARK INTER + INTRA:         -21.442
REMARK INTER:                 -16.843
REMARK INTRA:                  -4.598
REMARK UNBOUND:                -4.436
REMARK SMILES CCCCCCC[C@H](N)[C@H](O)C(=O)N[C@H](C)C(=O)N(C)[C@H](CC(C)C)C(=O)N[C@@H](Cc1ccc(O)cc1)C(=O)N[C@@H](Cc1ccc(O)cc1)C(=O)O
REMARK SMILES IDX 18 1 17 2 15 3 16 4 14 5 12 6 13 7 10 9 11 10 8 12 9 13 7 16
REMARK SMILES IDX 6 17 5 18 4 19 3 20 2 21 1 22 19 23 20 24 21 25 22 26 23 27
REMARK SMILES IDX 24 28 25 29 26 30 27 31 28 32 29 34 30 35 31 36 32 37 37 38
REMARK SMILES IDX 33 39 36 40 34 41 35 42 38 44 39 45 40 46 41 48 42 49 43 50
REMARK SMILES IDX 44 51 49 52 45 53 48 54 46 55 47 56 50 58 51 59 52 60
REMARK H PARENT 14 8 11 11 9 14 9 15 28 33 35 43 40 47 47 57 52 61
ROOT
ATOM      1  O   UNL     1      -4.882   2.467  -8.093  1.00  0.00    -0.272 OA
ATOM      2  C   UNL     1      -5.704   3.327  -8.441  1.00  0.00     0.245 C 
ENDROOT
BRANCH   2   3
ATOM      3  C   UNL     1      -5.626   3.887  -9.884  1.00  0.00     0.168 C 
ATOM      4  C   UNL     1      -7.021   4.167 -10.432  1.00  0.00     0.041 C 
BRANCH   3   5
ATOM      5  N   UNL     1      -4.739   5.028 -10.050  1.00  0.00    -0.342 N 
ATOM      6  C   UNL     1      -3.667   4.996 -10.916  1.00  0.00     0.251 C 
ATOM      7  O   UNL     1      -3.357   4.008 -11.573  1.00  0.00    -0.272 OA
ATOM      8  H   UNL     1      -4.875   5.893  -9.531  1.00  0.00     0.164 HD
BRANCH   6   9
ATOM      9  C   UNL     1      -2.959   6.355 -11.035  1.00  0.00     0.219 C 
BRANCH   9  10
ATOM     10  O   UNL     1      -3.862   7.461 -10.924  1.00  0.00    -0.382 OA
ATOM     11  H   UNL     1      -4.696   7.048 -10.608  1.00  0.00     0.211 HD
ENDBRANCH   9  10
BRANCH   9  12
ATOM     12  C   UNL     1      -1.773   6.512 -10.047  1.00  0.00     0.089 C 
BRANCH  12  13
ATOM     13  N   UNL     1      -1.808   5.381  -9.092  1.00  0.00    -0.325 NA
ATOM     14  H   UNL     1      -2.569   4.748  -9.348  1.00  0.00     0.119 HD
ATOM     15  H   UNL     1      -2.057   5.736  -8.166  1.00  0.00     0.119 HD
ENDBRANCH  12  13
BRANCH  12  16
ATOM     16  C   UNL     1      -0.368   6.625 -10.686  1.00  0.00     0.022 C 
BRANCH  16  17
ATOM     17  C   UNL     1       0.019   5.659 -11.815  1.00  0.00     0.002 C 
BRANCH  17  18
ATOM     18  C   UNL     1       0.875   4.471 -11.381  1.00  0.00     0.000 C 
BRANCH  18  19
ATOM     19  C   UNL     1       2.302   4.491 -11.944  1.00  0.00    -0.000 C 
BRANCH  19  20
ATOM     20  C   UNL     1       3.416   4.458 -10.894  1.00  0.00    -0.000 C 
BRANCH  20  21
ATOM     21  C   UNL     1       4.813   4.633 -11.495  1.00  0.00    -0.003 C 
ATOM     22  C   UNL     1       4.786   4.491 -13.009  1.00  0.00     0.004 C 
ENDBRANCH  20  21
ENDBRANCH  19  20
ENDBRANCH  18  19
ENDBRANCH  17  18
ENDBRANCH  16  17
ENDBRANCH  12  16
ENDBRANCH   9  12
ENDBRANCH   6   9
ENDBRANCH   3   5
ENDBRANCH   2   3
BRANCH   2  23
ATOM     23  N   UNL     1      -6.743   3.682  -7.587  1.00  0.00    -0.332 N 
ATOM     24  C   UNL     1      -7.032   5.043  -7.158  1.00  0.00     0.147 C 
BRANCH  23  25
ATOM     25  C   UNL     1      -7.735   2.663  -7.147  1.00  0.00     0.174 C 
BRANCH  25  26
ATOM     26  C   UNL     1      -9.158   3.243  -6.972  1.00  0.00     0.038 C 
BRANCH  26  27
ATOM     27  C   UNL     1     -10.279   2.620  -7.833  1.00  0.00    -0.015 C 
ATOM     28  C   UNL     1     -10.678   3.513  -9.007  1.00  0.00     0.007 C 
ATOM     29  C   UNL     1      -9.960   1.208  -8.316  1.00  0.00     0.007 C 
ENDBRANCH  26  27
ENDBRANCH  25  26
BRANCH  25  30
ATOM     30  C   UNL     1      -7.211   1.914  -5.900  1.00  0.00     0.243 C 
ATOM     31  O   UNL     1      -7.568   2.217  -4.762  1.00  0.00    -0.273 OA
ATOM     32  N   UNL     1      -6.320   0.901  -6.146  1.00  0.00    -0.342 N 
ATOM     33  H   UNL     1      -6.182   0.618  -7.120  1.00  0.00     0.164 HD
BRANCH  32  34
ATOM     34  C   UNL     1      -5.700   0.103  -5.085  1.00  0.00     0.175 C 
BRANCH  34  35
ATOM     35  C   UNL     1      -5.235  -1.263  -5.613  1.00  0.00     0.070 C 
BRANCH  35  36
ATOM     36  C   UNL     1      -5.130  -2.306  -4.524  1.00  0.00    -0.045 A 
ATOM     37  C   UNL     1      -6.173  -3.225  -4.329  1.00  0.00     0.007 A 
ATOM     38  C   UNL     1      -4.010  -2.358  -3.683  1.00  0.00     0.007 A 
ATOM     39  C   UNL     1      -6.091  -4.182  -3.317  1.00  0.00     0.046 A 
ATOM     40  C   UNL     1      -3.928  -3.315  -2.669  1.00  0.00     0.046 A 
ATOM     41  C   UNL     1      -4.970  -4.220  -2.497  1.00  0.00     0.115 A 
BRANCH  41  42
ATOM     42  O   UNL     1      -4.931  -5.169  -1.518  1.00  0.00    -0.508 OA
ATOM     43  H   UNL     1      -5.727  -5.721  -1.597  1.00  0.00     0.293 HD
ENDBRANCH  41  42
ENDBRANCH  35  36
ENDBRANCH  34  35
BRANCH  34  44
ATOM     44  C   UNL     1      -4.532   0.921  -4.491  1.00  0.00     0.243 C 
ATOM     45  O   UNL     1      -4.513   1.378  -3.352  1.00  0.00    -0.273 OA
ATOM     46  N   UNL     1      -3.544   1.213  -5.409  1.00  0.00    -0.341 N 
ATOM     47  H   UNL     1      -3.661   0.911  -6.373  1.00  0.00     0.164 HD
BRANCH  46  48
ATOM     48  C   UNL     1      -2.371   2.033  -5.097  1.00  0.00     0.196 C 
BRANCH  48  49
ATOM     49  C   UNL     1      -1.080   1.198  -5.128  1.00  0.00     0.072 C 
BRANCH  49  50
ATOM     50  C   UNL     1      -0.739   0.604  -3.780  1.00  0.00    -0.045 A 
ATOM     51  C   UNL     1      -0.121  -0.653  -3.706  1.00  0.00     0.007 A 
ATOM     52  C   UNL     1      -1.049   1.282  -2.594  1.00  0.00     0.007 A 
ATOM     53  C   UNL     1       0.187  -1.216  -2.467  1.00  0.00     0.046 A 
ATOM     54  C   UNL     1      -0.742   0.717  -1.354  1.00  0.00     0.046 A 
ATOM     55  C   UNL     1      -0.125  -0.528  -1.301  1.00  0.00     0.115 A 
BRANCH  55  56
ATOM     56  O   UNL     1       0.191  -1.114  -0.112  1.00  0.00    -0.508 OA
ATOM     57  H   UNL     1      -0.431  -1.842   0.045  1.00  0.00     0.293 HD
ENDBRANCH  55  56
ENDBRANCH  49  50
ENDBRANCH  48  49
BRANCH  48  58
ATOM     58  C   UNL     1      -2.272   3.172  -6.120  1.00  0.00     0.326 C 
ATOM     59  O   UNL     1      -1.446   3.297  -7.010  1.00  0.00    -0.250 OA
BRANCH  58  60
ATOM     60  O   UNL     1      -3.243   4.110  -5.982  1.00  0.00    -0.480 OA
ATOM     61  H   UNL     1      -3.380   4.152  -5.010  1.00  0.00     0.296 HD
ENDBRANCH  58  60
ENDBRANCH  48  58
ENDBRANCH  46  48
ENDBRANCH  34  44
ENDBRANCH  32  34
ENDBRANCH  25  30
ENDBRANCH  23  25
ENDBRANCH   2  23
TORSDOF 28
ENDMDL
MODEL 9
REMARK VINA RESULT:    -6.710      4.958      8.449
REMARK INTER + INTRA:         -21.149
REMARK INTER:                 -18.078
REMARK INTRA:                  -3.070
REMARK UNBOUND:                -4.436
REMARK SMILES CCCCCCC[C@H](N)[C@H](O)C(=O)N[C@H](C)C(=O)N(C)[C@H](CC(C)C)C(=O)N[C@@H](Cc1ccc(O)cc1)C(=O)N[C@@H](Cc1ccc(O)cc1)C(=O)O
REMARK SMILES IDX 18 1 17 2 15 3 16 4 14 5 12 6 13 7 10 9 11 10 8 12 9 13 7 16
REMARK SMILES IDX 6 17 5 18 4 19 3 20 2 21 1 22 19 23 20 24 21 25 22 26 23 27
REMARK SMILES IDX 24 28 25 29 26 30 27 31 28 32 29 34 30 35 31 36 32 37 37 38
REMARK SMILES IDX 33 39 36 40 34 41 35 42 38 44 39 45 40 46 41 48 42 49 43 50
REMARK SMILES IDX 44 51 49 52 45 53 48 54 46 55 47 56 50 58 51 59 52 60
REMARK H PARENT 14 8 11 11 9 14 9 15 28 33 35 43 40 47 47 57 52 61
ROOT
ATOM      1  O   UNL     1       4.056   0.534  -7.377  1.00  0.00    -0.272 OA
ATOM      2  C   UNL     1       3.366   1.470  -7.808  1.00  0.00     0.245 C 
ENDROOT
BRANCH   2   3
ATOM      3  C   UNL     1       1.833   1.273  -7.917  1.00  0.00     0.168 C 
ATOM      4  C   UNL     1       1.490   0.308  -9.047  1.00  0.00     0.041 C 
BRANCH   3   5
ATOM      5  N   UNL     1       1.175   0.905  -6.672  1.00  0.00    -0.342 N 
ATOM      6  C   UNL     1      -0.030   1.459  -6.295  1.00  0.00     0.251 C 
ATOM      7  O   UNL     1      -0.611   2.321  -6.946  1.00  0.00    -0.272 OA
ATOM      8  H   UNL     1       1.580   0.226  -6.032  1.00  0.00     0.164 HD
BRANCH   6   9
ATOM      9  C   UNL     1      -0.605   0.820  -5.021  1.00  0.00     0.219 C 
BRANCH   9  10
ATOM     10  O   UNL     1      -1.175   1.785  -4.128  1.00  0.00    -0.382 OA
ATOM     11  H   UNL     1      -0.607   2.577  -4.250  1.00  0.00     0.211 HD
ENDBRANCH   9  10
BRANCH   9  12
ATOM     12  C   UNL     1      -1.612  -0.322  -5.313  1.00  0.00     0.089 C 
BRANCH  12  13
ATOM     13  N   UNL     1      -1.463  -0.725  -6.730  1.00  0.00    -0.325 NA
ATOM     14  H   UNL     1      -2.230  -1.351  -6.984  1.00  0.00     0.119 HD
ATOM     15  H   UNL     1      -0.615  -1.290  -6.826  1.00  0.00     0.119 HD
ENDBRANCH  12  13
BRANCH  12  16
ATOM     16  C   UNL     1      -1.515  -1.564  -4.394  1.00  0.00     0.022 C 
BRANCH  16  17
ATOM     17  C   UNL     1      -2.581  -1.777  -3.311  1.00  0.00     0.002 C 
BRANCH  17  18
ATOM     18  C   UNL     1      -3.863  -2.452  -3.793  1.00  0.00     0.000 C 
BRANCH  18  19
ATOM     19  C   UNL     1      -3.988  -3.924  -3.377  1.00  0.00    -0.000 C 
BRANCH  19  20
ATOM     20  C   UNL     1      -4.274  -4.901  -4.522  1.00  0.00    -0.000 C 
BRANCH  20  21
ATOM     21  C   UNL     1      -5.445  -5.842  -4.229  1.00  0.00    -0.003 C 
ATOM     22  C   UNL     1      -6.766  -5.090  -4.198  1.00  0.00     0.004 C 
ENDBRANCH  20  21
ENDBRANCH  19  20
ENDBRANCH  18  19
ENDBRANCH  17  18
ENDBRANCH  16  17
ENDBRANCH  12  16
ENDBRANCH   9  12
ENDBRANCH   6   9
ENDBRANCH   3   5
ENDBRANCH   2   3
BRANCH   2  23
ATOM     23  N   UNL     1       3.952   2.704  -8.068  1.00  0.00    -0.332 N 
ATOM     24  C   UNL     1       3.961   3.826  -7.141  1.00  0.00     0.147 C 
BRANCH  23  25
ATOM     25  C   UNL     1       4.745   2.913  -9.310  1.00  0.00     0.174 C 
BRANCH  25  26
ATOM     26  C   UNL     1       4.163   2.161 -10.530  1.00  0.00     0.038 C 
BRANCH  26  27
ATOM     27  C   UNL     1       3.526   3.021 -11.644  1.00  0.00    -0.015 C 
ATOM     28  C   UNL     1       1.999   2.963 -11.627  1.00  0.00     0.007 C 
ATOM     29  C   UNL     1       4.009   4.469 -11.644  1.00  0.00     0.007 C 
ENDBRANCH  26  27
ENDBRANCH  25  26
BRANCH  25  30
ATOM     30  C   UNL     1       6.238   2.607  -9.046  1.00  0.00     0.243 C 
ATOM     31  O   UNL     1       6.676   2.440  -7.909  1.00  0.00    -0.273 OA
ATOM     32  N   UNL     1       7.036   2.542 -10.159  1.00  0.00    -0.342 N 
ATOM     33  H   UNL     1       6.576   2.550 -11.073  1.00  0.00     0.164 HD
BRANCH  32  34
ATOM     34  C   UNL     1       8.478   2.289 -10.098  1.00  0.00     0.175 C 
BRANCH  34  35
ATOM     35  C   UNL     1       8.976   1.585 -11.370  1.00  0.00     0.070 C 
BRANCH  35  36
ATOM     36  C   UNL     1       7.916   1.498 -12.444  1.00  0.00    -0.045 A 
ATOM     37  C   UNL     1       7.592   2.632 -13.204  1.00  0.00     0.007 A 
ATOM     38  C   UNL     1       7.228   0.300 -12.680  1.00  0.00     0.007 A 
ATOM     39  C   UNL     1       6.606   2.565 -14.188  1.00  0.00     0.046 A 
ATOM     40  C   UNL     1       6.239   0.232 -13.664  1.00  0.00     0.046 A 
ATOM     41  C   UNL     1       5.938   1.367 -14.411  1.00  0.00     0.115 A 
BRANCH  41  42
ATOM     42  O   UNL     1       4.978   1.344 -15.379  1.00  0.00    -0.508 OA
ATOM     43  H   UNL     1       4.502   2.191 -15.356  1.00  0.00     0.293 HD
ENDBRANCH  41  42
ENDBRANCH  35  36
ENDBRANCH  34  35
BRANCH  34  44
ATOM     44  C   UNL     1       9.191   3.641  -9.869  1.00  0.00     0.243 C 
ATOM     45  O   UNL     1       9.077   4.619 -10.603  1.00  0.00    -0.273 OA
ATOM     46  N   UNL     1      10.088   3.617  -8.822  1.00  0.00    -0.341 N 
ATOM     47  H   UNL     1      10.234   2.747  -8.316  1.00  0.00     0.164 HD
BRANCH  46  48
ATOM     48  C   UNL     1      10.930   4.759  -8.457  1.00  0.00     0.196 C 
BRANCH  48  49
ATOM     49  C   UNL     1      11.911   4.393  -7.330  1.00  0.00     0.072 C 
BRANCH  49  50
ATOM     50  C   UNL     1      11.366   4.713  -5.957  1.00  0.00    -0.045 A 
ATOM     51  C   UNL     1      11.817   5.852  -5.274  1.00  0.00     0.007 A 
ATOM     52  C   UNL     1      10.428   3.876  -5.341  1.00  0.00     0.007 A 
ATOM     53  C   UNL     1      11.331   6.151  -4.001  1.00  0.00     0.046 A 
ATOM     54  C   UNL     1       9.942   4.174  -4.065  1.00  0.00     0.046 A 
ATOM     55  C   UNL     1      10.398   5.311  -3.407  1.00  0.00     0.115 A 
BRANCH  55  56
ATOM     56  O   UNL     1       9.949   5.638  -2.161  1.00  0.00    -0.508 OA
ATOM     57  H   UNL     1       9.736   6.584  -2.151  1.00  0.00     0.293 HD
ENDBRANCH  55  56
ENDBRANCH  49  50
ENDBRANCH  48  49
BRANCH  48  58
ATOM     58  C   UNL     1      11.715   5.216  -9.694  1.00  0.00     0.326 C 
ATOM     59  O   UNL     1      12.653   4.646 -10.227  1.00  0.00    -0.250 OA
BRANCH  58  60
ATOM     60  O   UNL     1      11.263   6.382 -10.221  1.00  0.00    -0.480 OA
ATOM     61  H   UNL     1      11.372   6.251 -11.188  1.00  0.00     0.296 HD
ENDBRANCH  58  60
ENDBRANCH  48  58
ENDBRANCH  46  48
ENDBRANCH  34  44
ENDBRANCH  32  34
ENDBRANCH  25  30
ENDBRANCH  23  25
ENDBRANCH   2  23
TORSDOF 28
ENDMDL
MODEL 10
REMARK VINA RESULT:    -6.653      4.539      7.796
REMARK INTER + INTRA:         -21.008
REMARK INTER:                 -17.677
REMARK INTRA:                  -3.330
REMARK UNBOUND:                -4.436
REMARK SMILES CCCCCCC[C@H](N)[C@H](O)C(=O)N[C@H](C)C(=O)N(C)[C@H](CC(C)C)C(=O)N[C@@H](Cc1ccc(O)cc1)C(=O)N[C@@H](Cc1ccc(O)cc1)C(=O)O
REMARK SMILES IDX 18 1 17 2 15 3 16 4 14 5 12 6 13 7 10 9 11 10 8 12 9 13 7 16
REMARK SMILES IDX 6 17 5 18 4 19 3 20 2 21 1 22 19 23 20 24 21 25 22 26 23 27
REMARK SMILES IDX 24 28 25 29 26 30 27 31 28 32 29 34 30 35 31 36 32 37 37 38
REMARK SMILES IDX 33 39 36 40 34 41 35 42 38 44 39 45 40 46 41 48 42 49 43 50
REMARK SMILES IDX 44 51 49 52 45 53 48 54 46 55 47 56 50 58 51 59 52 60
REMARK H PARENT 14 8 11 11 9 14 9 15 28 33 35 43 40 47 47 57 52 61
ROOT
ATOM      1  O   UNL     1       3.453   0.525  -7.917  1.00  0.00    -0.272 OA
ATOM      2  C   UNL     1       3.060   1.568  -8.461  1.00  0.00     0.245 C 
ENDROOT
BRANCH   2   3
ATOM      3  C   UNL     1       1.610   1.621  -9.003  1.00  0.00     0.168 C 
ATOM      4  C   UNL     1       0.627   1.076  -7.973  1.00  0.00     0.041 C 
BRANCH   3   5
ATOM      5  N   UNL     1       1.196   2.918  -9.515  1.00  0.00    -0.342 N 
ATOM      6  C   UNL     1       0.482   3.043 -10.688  1.00  0.00     0.251 C 
ATOM      7  O   UNL     1       0.183   2.092 -11.402  1.00  0.00    -0.272 OA
ATOM      8  H   UNL     1       1.417   3.782  -9.026  1.00  0.00     0.164 HD
BRANCH   6   9
ATOM      9  C   UNL     1       0.031   4.488 -10.958  1.00  0.00     0.219 C 
BRANCH   9  10
ATOM     10  O   UNL     1       0.220   4.879 -12.323  1.00  0.00    -0.382 OA
ATOM     11  H   UNL     1       0.832   5.645 -12.261  1.00  0.00     0.211 HD
ENDBRANCH   9  10
BRANCH   9  12
ATOM     12  C   UNL     1      -1.424   4.767 -10.500  1.00  0.00     0.089 C 
BRANCH  12  13
ATOM     13  N   UNL     1      -1.756   3.831  -9.401  1.00  0.00    -0.325 NA
ATOM     14  H   UNL     1      -2.758   3.883  -9.206  1.00  0.00     0.119 HD
ATOM     15  H   UNL     1      -1.301   4.154  -8.544  1.00  0.00     0.119 HD
ENDBRANCH  12  13
BRANCH  12  16
ATOM     16  C   UNL     1      -1.733   6.221 -10.072  1.00  0.00     0.022 C 
BRANCH  16  17
ATOM     17  C   UNL     1      -2.932   6.490  -9.153  1.00  0.00     0.002 C 
BRANCH  17  18
ATOM     18  C   UNL     1      -4.269   6.662  -9.870  1.00  0.00     0.000 C 
BRANCH  18  19
ATOM     19  C   UNL     1      -5.384   5.749  -9.343  1.00  0.00    -0.000 C 
BRANCH  19  20
ATOM     20  C   UNL     1      -5.293   4.287  -9.792  1.00  0.00    -0.000 C 
BRANCH  20  21
ATOM     21  C   UNL     1      -6.546   3.807 -10.528  1.00  0.00    -0.003 C 
ATOM     22  C   UNL     1      -6.419   2.351 -10.948  1.00  0.00     0.004 C 
ENDBRANCH  20  21
ENDBRANCH  19  20
ENDBRANCH  18  19
ENDBRANCH  17  18
ENDBRANCH  16  17
ENDBRANCH  12  16
ENDBRANCH   9  12
ENDBRANCH   6   9
ENDBRANCH   3   5
ENDBRANCH   2   3
BRANCH   2  23
ATOM     23  N   UNL     1       3.872   2.698  -8.466  1.00  0.00    -0.332 N 
ATOM     24  C   UNL     1       3.997   3.630  -7.356  1.00  0.00     0.147 C 
BRANCH  23  25
ATOM     25  C   UNL     1       4.791   2.956  -9.608  1.00  0.00     0.174 C 
BRANCH  25  26
ATOM     26  C   UNL     1       4.317   2.296 -10.925  1.00  0.00     0.038 C 
BRANCH  26  27
ATOM     27  C   UNL     1       4.180   3.216 -12.159  1.00  0.00    -0.015 C 
ATOM     28  C   UNL     1       3.230   2.643 -13.211  1.00  0.00     0.007 C 
ATOM     29  C   UNL     1       3.792   4.650 -11.808  1.00  0.00     0.007 C 
ENDBRANCH  26  27
ENDBRANCH  25  26
BRANCH  25  30
ATOM     30  C   UNL     1       6.242   2.591  -9.217  1.00  0.00     0.243 C 
ATOM     31  O   UNL     1       6.560   2.350  -8.054  1.00  0.00    -0.273 OA
ATOM     32  N   UNL     1       7.144   2.560 -10.249  1.00  0.00    -0.342 N 
ATOM     33  H   UNL     1       6.777   2.632 -11.202  1.00  0.00     0.164 HD
BRANCH  32  34
ATOM     34  C   UNL     1       8.566   2.260 -10.062  1.00  0.00     0.175 C 
BRANCH  34  35
ATOM     35  C   UNL     1       9.138   1.491 -11.262  1.00  0.00     0.070 C 
BRANCH  35  36
ATOM     36  C   UNL     1       8.163   1.396 -12.414  1.00  0.00    -0.045 A 
ATOM     37  C   UNL     1       7.328   0.275 -12.535  1.00  0.00     0.007 A 
ATOM     38  C   UNL     1       8.094   2.405 -13.383  1.00  0.00     0.007 A 
ATOM     39  C   UNL     1       6.435   0.171 -13.602  1.00  0.00     0.046 A 
ATOM     40  C   UNL     1       7.201   2.302 -14.452  1.00  0.00     0.046 A 
ATOM     41  C   UNL     1       6.378   1.185 -14.551  1.00  0.00     0.115 A 
BRANCH  41  42
ATOM     42  O   UNL     1       5.494   1.044 -15.580  1.00  0.00    -0.508 OA
ATOM     43  H   UNL     1       5.695   0.214 -16.042  1.00  0.00     0.293 HD
ENDBRANCH  41  42
ENDBRANCH  35  36
ENDBRANCH  34  35
BRANCH  34  44
ATOM     44  C   UNL     1       9.309   3.594  -9.823  1.00  0.00     0.243 C 
ATOM     45  O   UNL     1       9.292   4.546 -10.598  1.00  0.00    -0.273 OA
ATOM     46  N   UNL     1      10.117   3.580  -8.706  1.00  0.00    -0.341 N 
ATOM     47  H   UNL     1      10.189   2.726  -8.159  1.00  0.00     0.164 HD
BRANCH  46  48
ATOM     48  C   UNL     1      10.970   4.705  -8.314  1.00  0.00     0.196 C 
BRANCH  48  49
ATOM     49  C   UNL     1      11.914   4.317  -7.163  1.00  0.00     0.072 C 
BRANCH  49  50
ATOM     50  C   UNL     1      11.400   4.763  -5.813  1.00  0.00    -0.045 A 
ATOM     51  C   UNL     1      12.060   5.787  -5.118  1.00  0.00     0.007 A 
ATOM     52  C   UNL     1      10.281   4.155  -5.231  1.00  0.00     0.007 A 
ATOM     53  C   UNL     1      11.603   6.198  -3.866  1.00  0.00     0.046 A 
ATOM     54  C   UNL     1       9.824   4.566  -3.977  1.00  0.00     0.046 A 
ATOM     55  C   UNL     1      10.489   5.585  -3.305  1.00  0.00     0.115 A 
BRANCH  55  56
ATOM     56  O   UNL     1      10.075   6.015  -2.079  1.00  0.00    -0.508 OA
ATOM     57  H   UNL     1       9.884   6.965  -2.136  1.00  0.00     0.293 HD
ENDBRANCH  55  56
ENDBRANCH  49  50
ENDBRANCH  48  49
BRANCH  48  58
ATOM     58  C   UNL     1      11.795   5.153  -9.528  1.00  0.00     0.326 C 
ATOM     59  O   UNL     1      12.780   4.604  -9.995  1.00  0.00    -0.250 OA
BRANCH  58  60
ATOM     60  O   UNL     1      11.324   6.281 -10.117  1.00  0.00    -0.480 OA
ATOM     61  H   UNL     1      10.424   6.022 -10.413  1.00  0.00     0.296 HD
ENDBRANCH  58  60
ENDBRANCH  48  58
ENDBRANCH  46  48
ENDBRANCH  34  44
ENDBRANCH  32  34
ENDBRANCH  25  30
ENDBRANCH  23  25
ENDBRANCH   2  23
TORSDOF 28
ENDMDL
MODEL 11
REMARK VINA RESULT:    -6.641      8.910     15.371
REMARK INTER + INTRA:         -20.977
REMARK INTER:                 -17.532
REMARK INTRA:                  -3.444
REMARK UNBOUND:                -4.436
REMARK SMILES CCCCCCC[C@H](N)[C@H](O)C(=O)N[C@H](C)C(=O)N(C)[C@H](CC(C)C)C(=O)N[C@@H](Cc1ccc(O)cc1)C(=O)N[C@@H](Cc1ccc(O)cc1)C(=O)O
REMARK SMILES IDX 18 1 17 2 15 3 16 4 14 5 12 6 13 7 10 9 11 10 8 12 9 13 7 16
REMARK SMILES IDX 6 17 5 18 4 19 3 20 2 21 1 22 19 23 20 24 21 25 22 26 23 27
REMARK SMILES IDX 24 28 25 29 26 30 27 31 28 32 29 34 30 35 31 36 32 37 37 38
REMARK SMILES IDX 33 39 36 40 34 41 35 42 38 44 39 45 40 46 41 48 42 49 43 50
REMARK SMILES IDX 44 51 49 52 45 53 48 54 46 55 47 56 50 58 51 59 52 60
REMARK H PARENT 14 8 11 11 9 14 9 15 28 33 35 43 40 47 47 57 52 61
ROOT
ATOM      1  O   UNL     1      -6.264   1.718  -9.733  1.00  0.00    -0.272 OA
ATOM      2  C   UNL     1      -5.896   2.552  -8.892  1.00  0.00     0.245 C 
ENDROOT
BRANCH   2   3
ATOM      3  C   UNL     1      -5.831   4.044  -9.307  1.00  0.00     0.168 C 
ATOM      4  C   UNL     1      -6.712   4.896  -8.400  1.00  0.00     0.041 C 
BRANCH   3   5
ATOM      5  N   UNL     1      -4.487   4.588  -9.424  1.00  0.00    -0.342 N 
ATOM      6  C   UNL     1      -3.757   4.478 -10.589  1.00  0.00     0.251 C 
ATOM      7  O   UNL     1      -4.158   3.888 -11.586  1.00  0.00    -0.272 OA
ATOM      8  H   UNL     1      -4.035   5.069  -8.651  1.00  0.00     0.164 HD
BRANCH   6   9
ATOM      9  C   UNL     1      -2.427   5.248 -10.531  1.00  0.00     0.219 C 
BRANCH   9  10
ATOM     10  O   UNL     1      -1.775   5.129  -9.261  1.00  0.00    -0.382 OA
ATOM     11  H   UNL     1      -0.964   5.673  -9.366  1.00  0.00     0.211 HD
ENDBRANCH   9  10
BRANCH   9  12
ATOM     12  C   UNL     1      -1.459   4.878 -11.684  1.00  0.00     0.089 C 
BRANCH  12  13
ATOM     13  N   UNL     1      -1.642   5.857 -12.780  1.00  0.00    -0.325 NA
ATOM     14  H   UNL     1      -1.930   6.754 -12.385  1.00  0.00     0.119 HD
ATOM     15  H   UNL     1      -2.427   5.558 -13.363  1.00  0.00     0.119 HD
ENDBRANCH  12  13
BRANCH  12  16
ATOM     16  C   UNL     1       0.038   4.776 -11.306  1.00  0.00     0.022 C 
BRANCH  16  17
ATOM     17  C   UNL     1       0.624   3.407 -10.935  1.00  0.00     0.002 C 
BRANCH  17  18
ATOM     18  C   UNL     1       2.079   3.196 -11.345  1.00  0.00     0.000 C 
BRANCH  18  19
ATOM     19  C   UNL     1       2.497   3.984 -12.593  1.00  0.00    -0.000 C 
BRANCH  19  20
ATOM     20  C   UNL     1       3.585   3.323 -13.445  1.00  0.00    -0.000 C 
BRANCH  20  21
ATOM     21  C   UNL     1       3.070   2.839 -14.803  1.00  0.00    -0.003 C 
ATOM     22  C   UNL     1       3.079   3.959 -15.832  1.00  0.00     0.004 C 
ENDBRANCH  20  21
ENDBRANCH  19  20
ENDBRANCH  18  19
ENDBRANCH  17  18
ENDBRANCH  16  17
ENDBRANCH  12  16
ENDBRANCH   9  12
ENDBRANCH   6   9
ENDBRANCH   3   5
ENDBRANCH   2   3
BRANCH   2  23
ATOM     23  N   UNL     1      -5.668   2.160  -7.578  1.00  0.00    -0.332 N 
ATOM     24  C   UNL     1      -4.595   2.672  -6.737  1.00  0.00     0.147 C 
BRANCH  23  25
ATOM     25  C   UNL     1      -6.625   1.251  -6.888  1.00  0.00     0.174 C 
BRANCH  25  26
ATOM     26  C   UNL     1      -7.807   2.005  -6.235  1.00  0.00     0.038 C 
BRANCH  26  27
ATOM     27  C   UNL     1      -9.197   1.337  -6.323  1.00  0.00    -0.015 C 
ATOM     28  C   UNL     1      -9.756   0.969  -4.948  1.00  0.00     0.007 C 
ATOM     29  C   UNL     1     -10.215   2.153  -7.116  1.00  0.00     0.007 C 
ENDBRANCH  26  27
ENDBRANCH  25  26
BRANCH  25  30
ATOM     30  C   UNL     1      -5.867   0.321  -5.914  1.00  0.00     0.243 C 
ATOM     31  O   UNL     1      -6.018   0.393  -4.696  1.00  0.00    -0.273 OA
ATOM     32  N   UNL     1      -5.014  -0.581  -6.497  1.00  0.00    -0.342 N 
ATOM     33  H   UNL     1      -5.049  -0.675  -7.516  1.00  0.00     0.164 HD
BRANCH  32  34
ATOM     34  C   UNL     1      -4.194  -1.522  -5.729  1.00  0.00     0.175 C 
BRANCH  34  35
ATOM     35  C   UNL     1      -4.606  -2.976  -6.006  1.00  0.00     0.070 C 
BRANCH  35  36
ATOM     36  C   UNL     1      -4.709  -3.804  -4.745  1.00  0.00    -0.045 A 
ATOM     37  C   UNL     1      -5.040  -5.166  -4.824  1.00  0.00     0.007 A 
ATOM     38  C   UNL     1      -4.500  -3.226  -3.486  1.00  0.00     0.007 A 
ATOM     39  C   UNL     1      -5.150  -5.935  -3.666  1.00  0.00     0.046 A 
ATOM     40  C   UNL     1      -4.612  -3.996  -2.325  1.00  0.00     0.046 A 
ATOM     41  C   UNL     1      -4.935  -5.345  -2.426  1.00  0.00     0.115 A 
BRANCH  41  42
ATOM     42  O   UNL     1      -5.056  -6.130  -1.319  1.00  0.00    -0.508 OA
ATOM     43  H   UNL     1      -4.694  -7.008  -1.526  1.00  0.00     0.293 HD
ENDBRANCH  41  42
ENDBRANCH  35  36
ENDBRANCH  34  35
BRANCH  34  44
ATOM     44  C   UNL     1      -2.712  -1.265  -6.082  1.00  0.00     0.243 C 
ATOM     45  O   UNL     1      -2.103  -1.837  -6.982  1.00  0.00    -0.273 OA
ATOM     46  N   UNL     1      -2.078  -0.413  -5.202  1.00  0.00    -0.341 N 
ATOM     47  H   UNL     1      -2.595  -0.055  -4.403  1.00  0.00     0.164 HD
BRANCH  46  48
ATOM     48  C   UNL     1      -0.656  -0.073  -5.293  1.00  0.00     0.196 C 
BRANCH  48  49
ATOM     49  C   UNL     1      -0.425   1.119  -6.236  1.00  0.00     0.072 C 
BRANCH  49  50
ATOM     50  C   UNL     1       0.750   0.908  -7.163  1.00  0.00    -0.045 A 
ATOM     51  C   UNL     1       1.946   1.608  -6.947  1.00  0.00     0.007 A 
ATOM     52  C   UNL     1       0.660   0.034  -8.254  1.00  0.00     0.007 A 
ATOM     53  C   UNL     1       3.033   1.432  -7.804  1.00  0.00     0.046 A 
ATOM     54  C   UNL     1       1.747  -0.142  -9.113  1.00  0.00     0.046 A 
ATOM     55  C   UNL     1       2.926   0.558  -8.879  1.00  0.00     0.115 A 
BRANCH  55  56
ATOM     56  O   UNL     1       4.010   0.415  -9.694  1.00  0.00    -0.508 OA
ATOM     57  H   UNL     1       3.976   1.108 -10.373  1.00  0.00     0.293 HD
ENDBRANCH  55  56
ENDBRANCH  49  50
ENDBRANCH  48  49
BRANCH  48  58
ATOM     58  C   UNL     1      -0.135   0.270  -3.891  1.00  0.00     0.326 C 
ATOM     59  O   UNL     1      -0.434   1.236  -3.207  1.00  0.00    -0.250 OA
BRANCH  58  60
ATOM     60  O   UNL     1       0.742  -0.642  -3.400  1.00  0.00    -0.480 OA
ATOM     61  H   UNL     1       0.162  -1.295  -2.953  1.00  0.00     0.296 HD
ENDBRANCH  58  60
ENDBRANCH  48  58
ENDBRANCH  46  48
ENDBRANCH  34  44
ENDBRANCH  32  34
ENDBRANCH  25  30
ENDBRANCH  23  25
ENDBRANCH   2  23
TORSDOF 28
ENDMDL
MODEL 12
REMARK VINA RESULT:    -6.592     10.680     16.608
REMARK INTER + INTRA:         -20.854
REMARK INTER:                 -18.001
REMARK INTRA:                  -2.853
REMARK UNBOUND:                -4.436
REMARK SMILES CCCCCCC[C@H](N)[C@H](O)C(=O)N[C@H](C)C(=O)N(C)[C@H](CC(C)C)C(=O)N[C@@H](Cc1ccc(O)cc1)C(=O)N[C@@H](Cc1ccc(O)cc1)C(=O)O
REMARK SMILES IDX 18 1 17 2 15 3 16 4 14 5 12 6 13 7 10 9 11 10 8 12 9 13 7 16
REMARK SMILES IDX 6 17 5 18 4 19 3 20 2 21 1 22 19 23 20 24 21 25 22 26 23 27
REMARK SMILES IDX 24 28 25 29 26 30 27 31 28 32 29 34 30 35 31 36 32 37 37 38
REMARK SMILES IDX 33 39 36 40 34 41 35 42 38 44 39 45 40 46 41 48 42 49 43 50
REMARK SMILES IDX 44 51 49 52 45 53 48 54 46 55 47 56 50 58 51 59 52 60
REMARK H PARENT 14 8 11 11 9 14 9 15 28 33 35 43 40 47 47 57 52 61
ROOT
ATOM      1  O   UNL     1      -4.293   2.504  -6.621  1.00  0.00    -0.272 OA
ATOM      2  C   UNL     1      -5.324   1.857  -6.856  1.00  0.00     0.245 C 
ENDROOT
BRANCH   2   3
ATOM      3  C   UNL     1      -5.624   0.604  -5.997  1.00  0.00     0.168 C 
ATOM      4  C   UNL     1      -7.110   0.263  -6.037  1.00  0.00     0.041 C 
BRANCH   3   5
ATOM      5  N   UNL     1      -4.795  -0.554  -6.295  1.00  0.00    -0.342 N 
ATOM      6  C   UNL     1      -4.849  -1.703  -5.534  1.00  0.00     0.251 C 
ATOM      7  O   UNL     1      -5.556  -1.823  -4.540  1.00  0.00    -0.272 OA
ATOM      8  H   UNL     1      -4.142  -0.560  -7.075  1.00  0.00     0.164 HD
BRANCH   6   9
ATOM      9  C   UNL     1      -3.995  -2.841  -6.115  1.00  0.00     0.219 C 
BRANCH   9  10
ATOM     10  O   UNL     1      -3.410  -2.503  -7.379  1.00  0.00    -0.382 OA
ATOM     11  H   UNL     1      -3.848  -1.657  -7.617  1.00  0.00     0.211 HD
ENDBRANCH   9  10
BRANCH   9  12
ATOM     12  C   UNL     1      -2.914  -3.357  -5.129  1.00  0.00     0.089 C 
BRANCH  12  13
ATOM     13  N   UNL     1      -2.747  -2.353  -4.053  1.00  0.00    -0.325 NA
ATOM     14  H   UNL     1      -3.580  -1.763  -4.012  1.00  0.00     0.119 HD
ATOM     15  H   UNL     1      -1.984  -1.721  -4.305  1.00  0.00     0.119 HD
ENDBRANCH  12  13
BRANCH  12  16
ATOM     16  C   UNL     1      -3.167  -4.756  -4.517  1.00  0.00     0.022 C 
BRANCH  16  17
ATOM     17  C   UNL     1      -4.040  -5.759  -5.283  1.00  0.00     0.002 C 
BRANCH  17  18
ATOM     18  C   UNL     1      -5.020  -6.551  -4.420  1.00  0.00     0.000 C 
BRANCH  18  19
ATOM     19  C   UNL     1      -5.742  -5.707  -3.361  1.00  0.00    -0.000 C 
BRANCH  19  20
ATOM     20  C   UNL     1      -7.080  -5.110  -3.807  1.00  0.00    -0.000 C 
BRANCH  20  21
ATOM     21  C   UNL     1      -7.641  -4.089  -2.814  1.00  0.00    -0.003 C 
ATOM     22  C   UNL     1      -6.957  -4.198  -1.460  1.00  0.00     0.004 C 
ENDBRANCH  20  21
ENDBRANCH  19  20
ENDBRANCH  18  19
ENDBRANCH  17  18
ENDBRANCH  16  17
ENDBRANCH  12  16
ENDBRANCH   9  12
ENDBRANCH   6   9
ENDBRANCH   3   5
ENDBRANCH   2   3
BRANCH   2  23
ATOM     23  N   UNL     1      -6.242   2.327  -7.789  1.00  0.00    -0.332 N 
ATOM     24  C   UNL     1      -6.321   1.874  -9.170  1.00  0.00     0.147 C 
BRANCH  23  25
ATOM     25  C   UNL     1      -7.320   3.266  -7.375  1.00  0.00     0.174 C 
BRANCH  25  26
ATOM     26  C   UNL     1      -8.731   2.783  -7.786  1.00  0.00     0.038 C 
BRANCH  26  27
ATOM     27  C   UNL     1      -9.865   2.977  -6.755  1.00  0.00    -0.015 C 
ATOM     28  C   UNL     1     -10.950   3.932  -7.253  1.00  0.00     0.007 C 
ATOM     29  C   UNL     1     -10.483   1.665  -6.278  1.00  0.00     0.007 C 
ENDBRANCH  26  27
ENDBRANCH  25  26
BRANCH  25  30
ATOM     30  C   UNL     1      -6.990   4.699  -7.853  1.00  0.00     0.243 C 
ATOM     31  O   UNL     1      -7.837   5.420  -8.379  1.00  0.00    -0.273 OA
ATOM     32  N   UNL     1      -5.696   5.107  -7.656  1.00  0.00    -0.342 N 
ATOM     33  H   UNL     1      -5.092   4.508  -7.087  1.00  0.00     0.164 HD
BRANCH  32  34
ATOM     34  C   UNL     1      -5.198   6.421  -8.070  1.00  0.00     0.175 C 
BRANCH  34  35
ATOM     35  C   UNL     1      -5.181   7.408  -6.893  1.00  0.00     0.070 C 
BRANCH  35  36
ATOM     36  C   UNL     1      -5.500   8.825  -7.314  1.00  0.00    -0.045 A 
ATOM     37  C   UNL     1      -4.489   9.649  -7.831  1.00  0.00     0.007 A 
ATOM     38  C   UNL     1      -6.795   9.342  -7.174  1.00  0.00     0.007 A 
ATOM     39  C   UNL     1      -4.771  10.962  -8.209  1.00  0.00     0.046 A 
ATOM     40  C   UNL     1      -7.078  10.657  -7.551  1.00  0.00     0.046 A 
ATOM     41  C   UNL     1      -6.062  11.455  -8.067  1.00  0.00     0.115 A 
BRANCH  41  42
ATOM     42  O   UNL     1      -6.295  12.744  -8.445  1.00  0.00    -0.508 OA
ATOM     43  H   UNL     1      -6.889  12.733  -9.214  1.00  0.00     0.293 HD
ENDBRANCH  41  42
ENDBRANCH  35  36
ENDBRANCH  34  35
BRANCH  34  44
ATOM     44  C   UNL     1      -3.792   6.229  -8.683  1.00  0.00     0.243 C 
ATOM     45  O   UNL     1      -2.869   5.639  -8.129  1.00  0.00    -0.273 OA
ATOM     46  N   UNL     1      -3.616   6.901  -9.874  1.00  0.00    -0.341 N 
ATOM     47  H   UNL     1      -4.375   7.473 -10.235  1.00  0.00     0.164 HD
BRANCH  46  48
ATOM     48  C   UNL     1      -2.348   6.923 -10.607  1.00  0.00     0.196 C 
BRANCH  48  49
ATOM     49  C   UNL     1      -2.248   5.744 -11.589  1.00  0.00     0.072 C 
BRANCH  49  50
ATOM     50  C   UNL     1      -0.994   4.924 -11.388  1.00  0.00    -0.045 A 
ATOM     51  C   UNL     1      -1.085   3.623 -10.872  1.00  0.00     0.007 A 
ATOM     52  C   UNL     1       0.268   5.451 -11.689  1.00  0.00     0.007 A 
ATOM     53  C   UNL     1       0.066   2.861 -10.670  1.00  0.00     0.046 A 
ATOM     54  C   UNL     1       1.421   4.689 -11.485  1.00  0.00     0.046 A 
ATOM     55  C   UNL     1       1.310   3.399 -10.978  1.00  0.00     0.115 A 
BRANCH  55  56
ATOM     56  O   UNL     1       2.410   2.624 -10.764  1.00  0.00    -0.508 OA
ATOM     57  H   UNL     1       3.183   3.205 -10.679  1.00  0.00     0.293 HD
ENDBRANCH  55  56
ENDBRANCH  49  50
ENDBRANCH  48  49
BRANCH  48  58
ATOM     58  C   UNL     1      -2.240   8.246 -11.378  1.00  0.00     0.326 C 
ATOM     59  O   UNL     1      -1.222   8.854 -11.664  1.00  0.00    -0.250 OA
BRANCH  58  60
ATOM     60  O   UNL     1      -3.440   8.742 -11.772  1.00  0.00    -0.480 OA
ATOM     61  H   UNL     1      -3.277   9.708 -11.832  1.00  0.00     0.296 HD
ENDBRANCH  58  60
ENDBRANCH  48  58
ENDBRANCH  46  48
ENDBRANCH  34  44
ENDBRANCH  32  34
ENDBRANCH  25  30
ENDBRANCH  23  25
ENDBRANCH   2  23
TORSDOF 28
ENDMDL
MODEL 13
REMARK VINA RESULT:    -6.551     11.525     15.430
REMARK INTER + INTRA:         -20.753
REMARK INTER:                 -17.377
REMARK INTRA:                  -3.375
REMARK UNBOUND:                -4.436
REMARK SMILES CCCCCCC[C@H](N)[C@H](O)C(=O)N[C@H](C)C(=O)N(C)[C@H](CC(C)C)C(=O)N[C@@H](Cc1ccc(O)cc1)C(=O)N[C@@H](Cc1ccc(O)cc1)C(=O)O
REMARK SMILES IDX 18 1 17 2 15 3 16 4 14 5 12 6 13 7 10 9 11 10 8 12 9 13 7 16
REMARK SMILES IDX 6 17 5 18 4 19 3 20 2 21 1 22 19 23 20 24 21 25 22 26 23 27
REMARK SMILES IDX 24 28 25 29 26 30 27 31 28 32 29 34 30 35 31 36 32 37 37 38
REMARK SMILES IDX 33 39 36 40 34 41 35 42 38 44 39 45 40 46 41 48 42 49 43 50
REMARK SMILES IDX 44 51 49 52 45 53 48 54 46 55 47 56 50 58 51 59 52 60
REMARK H PARENT 14 8 11 11 9 14 9 15 28 33 35 43 40 47 47 57 52 61
ROOT
ATOM      1  O   UNL     1      -3.433   2.769  -7.026  1.00  0.00    -0.272 OA
ATOM      2  C   UNL     1      -4.088   3.798  -7.249  1.00  0.00     0.245 C 
ENDROOT
BRANCH   2   3
ATOM      3  C   UNL     1      -3.332   5.076  -7.692  1.00  0.00     0.168 C 
ATOM      4  C   UNL     1      -2.896   5.895  -6.482  1.00  0.00     0.041 C 
BRANCH   3   5
ATOM      5  N   UNL     1      -2.232   4.845  -8.616  1.00  0.00    -0.342 N 
ATOM      6  C   UNL     1      -2.433   4.746  -9.976  1.00  0.00     0.251 C 
ATOM      7  O   UNL     1      -3.539   4.801 -10.503  1.00  0.00    -0.272 OA
ATOM      8  H   UNL     1      -1.273   4.748  -8.293  1.00  0.00     0.164 HD
BRANCH   6   9
ATOM      9  C   UNL     1      -1.118   4.646 -10.765  1.00  0.00     0.219 C 
BRANCH   9  10
ATOM     10  O   UNL     1      -0.975   3.393 -11.446  1.00  0.00    -0.382 OA
ATOM     11  H   UNL     1      -1.082   2.729 -10.730  1.00  0.00     0.211 HD
ENDBRANCH   9  10
BRANCH   9  12
ATOM     12  C   UNL     1      -0.902   5.831 -11.743  1.00  0.00     0.089 C 
BRANCH  12  13
ATOM     13  N   UNL     1      -1.880   5.708 -12.848  1.00  0.00    -0.325 NA
ATOM     14  H   UNL     1      -1.903   6.583 -13.376  1.00  0.00     0.119 HD
ATOM     15  H   UNL     1      -2.818   5.612 -12.452  1.00  0.00     0.119 HD
ENDBRANCH  12  13
BRANCH  12  16
ATOM     16  C   UNL     1      -0.979   7.246 -11.120  1.00  0.00     0.022 C 
BRANCH  16  17
ATOM     17  C   UNL     1      -1.519   8.406 -11.967  1.00  0.00     0.002 C 
BRANCH  17  18
ATOM     18  C   UNL     1      -2.760   9.094 -11.402  1.00  0.00     0.000 C 
BRANCH  18  19
ATOM     19  C   UNL     1      -3.332   8.418 -10.148  1.00  0.00    -0.000 C 
BRANCH  19  20
ATOM     20  C   UNL     1      -4.040   9.358  -9.168  1.00  0.00    -0.000 C 
BRANCH  20  21
ATOM     21  C   UNL     1      -4.622   8.630  -7.954  1.00  0.00    -0.003 C 
ATOM     22  C   UNL     1      -4.789   9.572  -6.771  1.00  0.00     0.004 C 
ENDBRANCH  20  21
ENDBRANCH  19  20
ENDBRANCH  18  19
ENDBRANCH  17  18
ENDBRANCH  16  17
ENDBRANCH  12  16
ENDBRANCH   9  12
ENDBRANCH   6   9
ENDBRANCH   3   5
ENDBRANCH   2   3
BRANCH   2  23
ATOM     23  N   UNL     1      -5.478   3.759  -7.217  1.00  0.00    -0.332 N 
ATOM     24  C   UNL     1      -6.336   4.933  -7.158  1.00  0.00     0.147 C 
BRANCH  23  25
ATOM     25  C   UNL     1      -6.196   2.465  -7.376  1.00  0.00     0.174 C 
BRANCH  25  26
ATOM     26  C   UNL     1      -7.734   2.630  -7.409  1.00  0.00     0.038 C 
BRANCH  26  27
ATOM     27  C   UNL     1      -8.414   2.576  -8.795  1.00  0.00    -0.015 C 
ATOM     28  C   UNL     1      -7.419   2.308  -9.924  1.00  0.00     0.007 C 
ATOM     29  C   UNL     1      -9.580   1.594  -8.862  1.00  0.00     0.007 C 
ENDBRANCH  26  27
ENDBRANCH  25  26
BRANCH  25  30
ATOM     30  C   UNL     1      -5.703   1.449  -6.320  1.00  0.00     0.243 C 
ATOM     31  O   UNL     1      -5.834   1.651  -5.113  1.00  0.00    -0.273 OA
ATOM     32  N   UNL     1      -5.108   0.318  -6.817  1.00  0.00    -0.342 N 
ATOM     33  H   UNL     1      -5.164   0.158  -7.826  1.00  0.00     0.164 HD
BRANCH  32  34
ATOM     34  C   UNL     1      -4.557  -0.739  -5.964  1.00  0.00     0.175 C 
BRANCH  34  35
ATOM     35  C   UNL     1      -5.005  -2.130  -6.439  1.00  0.00     0.070 C 
BRANCH  35  36
ATOM     36  C   UNL     1      -5.079  -3.136  -5.312  1.00  0.00    -0.045 A 
ATOM     37  C   UNL     1      -6.152  -3.100  -4.409  1.00  0.00     0.007 A 
ATOM     38  C   UNL     1      -4.076  -4.098  -5.140  1.00  0.00     0.007 A 
ATOM     39  C   UNL     1      -6.222  -4.015  -3.358  1.00  0.00     0.046 A 
ATOM     40  C   UNL     1      -4.144  -5.014  -4.088  1.00  0.00     0.046 A 
ATOM     41  C   UNL     1      -5.219  -4.965  -3.207  1.00  0.00     0.115 A 
BRANCH  41  42
ATOM     42  O   UNL     1      -5.324  -5.839  -2.165  1.00  0.00    -0.508 OA
ATOM     43  H   UNL     1      -4.813  -5.485  -1.418  1.00  0.00     0.293 HD
ENDBRANCH  41  42
ENDBRANCH  35  36
ENDBRANCH  34  35
BRANCH  34  44
ATOM     44  C   UNL     1      -3.018  -0.598  -5.960  1.00  0.00     0.243 C 
ATOM     45  O   UNL     1      -2.245  -1.416  -6.452  1.00  0.00    -0.273 OA
ATOM     46  N   UNL     1      -2.568   0.482  -5.231  1.00  0.00    -0.341 N 
ATOM     47  H   UNL     1      -3.243   1.066  -4.744  1.00  0.00     0.164 HD
BRANCH  46  48
ATOM     48  C   UNL     1      -1.149   0.782  -5.027  1.00  0.00     0.196 C 
BRANCH  48  49
ATOM     49  C   UNL     1      -0.385  -0.450  -4.512  1.00  0.00     0.072 C 
BRANCH  49  50
ATOM     50  C   UNL     1      -0.326  -0.508  -3.003  1.00  0.00    -0.045 A 
ATOM     51  C   UNL     1      -1.352  -1.141  -2.287  1.00  0.00     0.007 A 
ATOM     52  C   UNL     1       0.733   0.081  -2.299  1.00  0.00     0.007 A 
ATOM     53  C   UNL     1      -1.315  -1.190  -0.893  1.00  0.00     0.046 A 
ATOM     54  C   UNL     1       0.769   0.033  -0.904  1.00  0.00     0.046 A 
ATOM     55  C   UNL     1      -0.256  -0.604  -0.212  1.00  0.00     0.115 A 
BRANCH  55  56
ATOM     56  O   UNL     1      -0.258  -0.671   1.149  1.00  0.00    -0.508 OA
ATOM     57  H   UNL     1      -0.144  -1.599   1.410  1.00  0.00     0.293 HD
ENDBRANCH  55  56
ENDBRANCH  49  50
ENDBRANCH  48  49
BRANCH  48  58
ATOM     58  C   UNL     1      -0.540   1.245  -6.358  1.00  0.00     0.326 C 
ATOM     59  O   UNL     1       0.091   0.572  -7.157  1.00  0.00    -0.250 OA
BRANCH  58  60
ATOM     60  O   UNL     1      -0.772   2.554  -6.632  1.00  0.00    -0.480 OA
ATOM     61  H   UNL     1      -0.636   2.609  -7.603  1.00  0.00     0.296 HD
ENDBRANCH  58  60
ENDBRANCH  48  58
ENDBRANCH  46  48
ENDBRANCH  34  44
ENDBRANCH  32  34
ENDBRANCH  25  30
ENDBRANCH  23  25
ENDBRANCH   2  23
TORSDOF 28
ENDMDL
MODEL 14
REMARK VINA RESULT:    -6.541      9.699     16.398
REMARK INTER + INTRA:         -20.727
REMARK INTER:                 -17.524
REMARK INTRA:                  -3.204
REMARK UNBOUND:                -4.436
REMARK SMILES CCCCCCC[C@H](N)[C@H](O)C(=O)N[C@H](C)C(=O)N(C)[C@H](CC(C)C)C(=O)N[C@@H](Cc1ccc(O)cc1)C(=O)N[C@@H](Cc1ccc(O)cc1)C(=O)O
REMARK SMILES IDX 18 1 17 2 15 3 16 4 14 5 12 6 13 7 10 9 11 10 8 12 9 13 7 16
REMARK SMILES IDX 6 17 5 18 4 19 3 20 2 21 1 22 19 23 20 24 21 25 22 26 23 27
REMARK SMILES IDX 24 28 25 29 26 30 27 31 28 32 29 34 30 35 31 36 32 37 37 38
REMARK SMILES IDX 33 39 36 40 34 41 35 42 38 44 39 45 40 46 41 48 42 49 43 50
REMARK SMILES IDX 44 51 49 52 45 53 48 54 46 55 47 56 50 58 51 59 52 60
REMARK H PARENT 14 8 11 11 9 14 9 15 28 33 35 43 40 47 47 57 52 61
ROOT
ATOM      1  O   UNL     1      -1.860   4.459  -4.845  1.00  0.00    -0.272 OA
ATOM      2  C   UNL     1      -2.094   3.591  -5.699  1.00  0.00     0.245 C 
ENDROOT
BRANCH   2   3
ATOM      3  C   UNL     1      -2.978   3.967  -6.915  1.00  0.00     0.168 C 
ATOM      4  C   UNL     1      -4.239   4.695  -6.463  1.00  0.00     0.041 C 
BRANCH   3   5
ATOM      5  N   UNL     1      -2.287   4.686  -7.974  1.00  0.00    -0.342 N 
ATOM      6  C   UNL     1      -2.668   4.580  -9.295  1.00  0.00     0.251 C 
ATOM      7  O   UNL     1      -3.578   3.853  -9.680  1.00  0.00    -0.272 OA
ATOM      8  H   UNL     1      -1.494   5.293  -7.780  1.00  0.00     0.164 HD
BRANCH   6   9
ATOM      9  C   UNL     1      -1.891   5.534 -10.216  1.00  0.00     0.219 C 
BRANCH   9  10
ATOM     10  O   UNL     1      -1.103   6.485  -9.489  1.00  0.00    -0.382 OA
ATOM     11  H   UNL     1      -0.949   6.044  -8.624  1.00  0.00     0.211 HD
ENDBRANCH   9  10
BRANCH   9  12
ATOM     12  C   UNL     1      -1.027   4.794 -11.269  1.00  0.00     0.089 C 
BRANCH  12  13
ATOM     13  N   UNL     1      -1.855   4.564 -12.475  1.00  0.00    -0.325 NA
ATOM     14  H   UNL     1      -2.813   4.352 -12.189  1.00  0.00     0.119 HD
ATOM     15  H   UNL     1      -1.525   3.719 -12.947  1.00  0.00     0.119 HD
ENDBRANCH  12  13
BRANCH  12  16
ATOM     16  C   UNL     1       0.302   5.483 -11.661  1.00  0.00     0.022 C 
BRANCH  16  17
ATOM     17  C   UNL     1       1.631   4.818 -11.276  1.00  0.00     0.002 C 
BRANCH  17  18
ATOM     18  C   UNL     1       1.962   3.544 -12.050  1.00  0.00     0.000 C 
BRANCH  18  19
ATOM     19  C   UNL     1       3.103   2.720 -11.439  1.00  0.00    -0.000 C 
BRANCH  19  20
ATOM     20  C   UNL     1       2.989   2.470  -9.932  1.00  0.00    -0.000 C 
BRANCH  20  21
ATOM     21  C   UNL     1       1.860   1.502  -9.568  1.00  0.00    -0.003 C 
ATOM     22  C   UNL     1       2.327   0.457  -8.567  1.00  0.00     0.004 C 
ENDBRANCH  20  21
ENDBRANCH  19  20
ENDBRANCH  18  19
ENDBRANCH  17  18
ENDBRANCH  16  17
ENDBRANCH  12  16
ENDBRANCH   9  12
ENDBRANCH   6   9
ENDBRANCH   3   5
ENDBRANCH   2   3
BRANCH   2  23
ATOM     23  N   UNL     1      -1.471   2.350  -5.619  1.00  0.00    -0.332 N 
ATOM     24  C   UNL     1      -0.289   1.969  -6.377  1.00  0.00     0.147 C 
BRANCH  23  25
ATOM     25  C   UNL     1      -1.925   1.345  -4.619  1.00  0.00     0.174 C 
BRANCH  25  26
ATOM     26  C   UNL     1      -0.982   0.122  -4.524  1.00  0.00     0.038 C 
BRANCH  26  27
ATOM     27  C   UNL     1      -0.290  -0.124  -3.165  1.00  0.00    -0.015 C 
ATOM     28  C   UNL     1      -1.123  -1.007  -2.237  1.00  0.00     0.007 C 
ATOM     29  C   UNL     1       1.129  -0.672  -3.296  1.00  0.00     0.007 C 
ENDBRANCH  26  27
ENDBRANCH  25  26
BRANCH  25  30
ATOM     30  C   UNL     1      -3.403   0.971  -4.872  1.00  0.00     0.243 C 
ATOM     31  O   UNL     1      -4.330   1.632  -4.405  1.00  0.00    -0.273 OA
ATOM     32  N   UNL     1      -3.610  -0.143  -5.644  1.00  0.00    -0.342 N 
ATOM     33  H   UNL     1      -2.797  -0.554  -6.111  1.00  0.00     0.164 HD
BRANCH  32  34
ATOM     34  C   UNL     1      -4.943  -0.660  -5.964  1.00  0.00     0.175 C 
BRANCH  34  35
ATOM     35  C   UNL     1      -5.629  -1.246  -4.721  1.00  0.00     0.070 C 
BRANCH  35  36
ATOM     36  C   UNL     1      -5.531  -2.753  -4.653  1.00  0.00    -0.045 A 
ATOM     37  C   UNL     1      -6.171  -3.453  -3.619  1.00  0.00     0.007 A 
ATOM     38  C   UNL     1      -4.786  -3.468  -5.601  1.00  0.00     0.007 A 
ATOM     39  C   UNL     1      -6.075  -4.842  -3.541  1.00  0.00     0.046 A 
ATOM     40  C   UNL     1      -4.688  -4.859  -5.522  1.00  0.00     0.046 A 
ATOM     41  C   UNL     1      -5.335  -5.534  -4.493  1.00  0.00     0.115 A 
BRANCH  41  42
ATOM     42  O   UNL     1      -5.264  -6.891  -4.378  1.00  0.00    -0.508 OA
ATOM     43  H   UNL     1      -6.068  -7.273  -4.769  1.00  0.00     0.293 HD
ENDBRANCH  41  42
ENDBRANCH  35  36
ENDBRANCH  34  35
BRANCH  34  44
ATOM     44  C   UNL     1      -5.765   0.489  -6.590  1.00  0.00     0.243 C 
ATOM     45  O   UNL     1      -5.449   1.091  -7.612  1.00  0.00    -0.273 OA
ATOM     46  N   UNL     1      -6.839   0.878  -5.819  1.00  0.00    -0.341 N 
ATOM     47  H   UNL     1      -6.993   0.426  -4.921  1.00  0.00     0.164 HD
BRANCH  46  48
ATOM     48  C   UNL     1      -7.724   1.991  -6.172  1.00  0.00     0.196 C 
BRANCH  48  49
ATOM     49  C   UNL     1      -8.655   1.617  -7.338  1.00  0.00     0.072 C 
BRANCH  49  50
ATOM     50  C   UNL     1      -8.508   2.548  -8.521  1.00  0.00    -0.045 A 
ATOM     51  C   UNL     1      -7.911   3.806  -8.350  1.00  0.00     0.007 A 
ATOM     52  C   UNL     1      -8.979   2.183  -9.788  1.00  0.00     0.007 A 
ATOM     53  C   UNL     1      -7.782   4.678  -9.431  1.00  0.00     0.046 A 
ATOM     54  C   UNL     1      -8.851   3.057 -10.870  1.00  0.00     0.046 A 
ATOM     55  C   UNL     1      -8.252   4.298 -10.682  1.00  0.00     0.115 A 
BRANCH  55  56
ATOM     56  O   UNL     1      -8.108   5.181 -11.712  1.00  0.00    -0.508 OA
ATOM     57  H   UNL     1      -7.296   5.690 -11.567  1.00  0.00     0.293 HD
ENDBRANCH  55  56
ENDBRANCH  49  50
ENDBRANCH  48  49
BRANCH  48  58
ATOM     58  C   UNL     1      -8.564   2.370  -4.945  1.00  0.00     0.326 C 
ATOM     59  O   UNL     1      -8.178   2.488  -3.793  1.00  0.00    -0.250 OA
BRANCH  58  60
ATOM     60  O   UNL     1      -9.869   2.602  -5.233  1.00  0.00    -0.480 OA
ATOM     61  H   UNL     1     -10.038   2.017  -6.002  1.00  0.00     0.296 HD
ENDBRANCH  58  60
ENDBRANCH  48  58
ENDBRANCH  46  48
ENDBRANCH  34  44
ENDBRANCH  32  34
ENDBRANCH  25  30
ENDBRANCH  23  25
ENDBRANCH   2  23
TORSDOF 28
ENDMDL
MODEL 15
REMARK VINA RESULT:    -6.516     11.310     16.565
REMARK INTER + INTRA:         -20.665
REMARK INTER:                 -13.963
REMARK INTRA:                  -6.702
REMARK UNBOUND:                -4.436
REMARK SMILES CCCCCCC[C@H](N)[C@H](O)C(=O)N[C@H](C)C(=O)N(C)[C@H](CC(C)C)C(=O)N[C@@H](Cc1ccc(O)cc1)C(=O)N[C@@H](Cc1ccc(O)cc1)C(=O)O
REMARK SMILES IDX 18 1 17 2 15 3 16 4 14 5 12 6 13 7 10 9 11 10 8 12 9 13 7 16
REMARK SMILES IDX 6 17 5 18 4 19 3 20 2 21 1 22 19 23 20 24 21 25 22 26 23 27
REMARK SMILES IDX 24 28 25 29 26 30 27 31 28 32 29 34 30 35 31 36 32 37 37 38
REMARK SMILES IDX 33 39 36 40 34 41 35 42 38 44 39 45 40 46 41 48 42 49 43 50
REMARK SMILES IDX 44 51 49 52 45 53 48 54 46 55 47 56 50 58 51 59 52 60
REMARK H PARENT 14 8 11 11 9 14 9 15 28 33 35 43 40 47 47 57 52 61
ROOT
ATOM      1  O   UNL     1       4.473   5.618   6.500  1.00  0.00    -0.272 OA
ATOM      2  C   UNL     1       4.554   5.916   5.299  1.00  0.00     0.245 C 
ENDROOT
BRANCH   2   3
ATOM      3  C   UNL     1       4.916   7.373   4.920  1.00  0.00     0.168 C 
ATOM      4  C   UNL     1       6.422   7.596   5.000  1.00  0.00     0.041 C 
BRANCH   3   5
ATOM      5  N   UNL     1       4.368   7.829   3.652  1.00  0.00    -0.342 N 
ATOM      6  C   UNL     1       3.572   8.952   3.564  1.00  0.00     0.251 C 
ATOM      7  O   UNL     1       3.234   9.619   4.536  1.00  0.00    -0.272 OA
ATOM      8  H   UNL     1       4.550   7.336   2.781  1.00  0.00     0.164 HD
BRANCH   6   9
ATOM      9  C   UNL     1       3.227   9.324   2.113  1.00  0.00     0.219 C 
BRANCH   9  10
ATOM     10  O   UNL     1       4.144   8.763   1.166  1.00  0.00    -0.382 OA
ATOM     11  H   UNL     1       4.691   9.531   0.891  1.00  0.00     0.211 HD
ENDBRANCH   9  10
BRANCH   9  12
ATOM     12  C   UNL     1       1.763   8.985   1.729  1.00  0.00     0.089 C 
BRANCH  12  13
ATOM     13  N   UNL     1       1.770   7.769   0.884  1.00  0.00    -0.325 NA
ATOM     14  H   UNL     1       0.871   7.687   0.406  1.00  0.00     0.119 HD
ATOM     15  H   UNL     1       1.827   6.946   1.488  1.00  0.00     0.119 HD
ENDBRANCH  12  13
BRANCH  12  16
ATOM     16  C   UNL     1       0.777   8.807   2.908  1.00  0.00     0.022 C 
BRANCH  16  17
ATOM     17  C   UNL     1       0.352   7.390   3.319  1.00  0.00     0.002 C 
BRANCH  17  18
ATOM     18  C   UNL     1       0.548   7.062   4.798  1.00  0.00     0.000 C 
BRANCH  18  19
ATOM     19  C   UNL     1      -0.723   7.208   5.644  1.00  0.00    -0.000 C 
BRANCH  19  20
ATOM     20  C   UNL     1      -1.984   7.589   4.863  1.00  0.00    -0.000 C 
BRANCH  20  21
ATOM     21  C   UNL     1      -2.856   6.382   4.508  1.00  0.00    -0.003 C 
ATOM     22  C   UNL     1      -4.016   6.782   3.609  1.00  0.00     0.004 C 
ENDBRANCH  20  21
ENDBRANCH  19  20
ENDBRANCH  18  19
ENDBRANCH  17  18
ENDBRANCH  16  17
ENDBRANCH  12  16
ENDBRANCH   9  12
ENDBRANCH   6   9
ENDBRANCH   3   5
ENDBRANCH   2   3
BRANCH   2  23
ATOM     23  N   UNL     1       4.442   4.926   4.328  1.00  0.00    -0.332 N 
ATOM     24  C   UNL     1       5.536   4.073   3.888  1.00  0.00     0.147 C 
BRANCH  23  25
ATOM     25  C   UNL     1       3.113   4.588   3.750  1.00  0.00     0.174 C 
BRANCH  25  26
ATOM     26  C   UNL     1       2.537   3.262   4.301  1.00  0.00     0.038 C 
BRANCH  26  27
ATOM     27  C   UNL     1       1.007   3.068   4.200  1.00  0.00    -0.015 C 
ATOM     28  C   UNL     1       0.627   1.664   3.731  1.00  0.00     0.007 C 
ATOM     29  C   UNL     1       0.263   3.425   5.484  1.00  0.00     0.007 C 
ENDBRANCH  26  27
ENDBRANCH  25  26
BRANCH  25  30
ATOM     30  C   UNL     1       3.173   4.645   2.206  1.00  0.00     0.243 C 
ATOM     31  O   UNL     1       3.480   5.673   1.605  1.00  0.00    -0.273 OA
ATOM     32  N   UNL     1       2.855   3.480   1.557  1.00  0.00    -0.342 N 
ATOM     33  H   UNL     1       2.750   2.635   2.124  1.00  0.00     0.164 HD
BRANCH  32  34
ATOM     34  C   UNL     1       2.833   3.356   0.097  1.00  0.00     0.175 C 
BRANCH  34  35
ATOM     35  C   UNL     1       3.403   2.004  -0.359  1.00  0.00     0.070 C 
BRANCH  35  36
ATOM     36  C   UNL     1       4.914   1.971  -0.344  1.00  0.00    -0.045 A 
ATOM     37  C   UNL     1       5.642   3.170  -0.378  1.00  0.00     0.007 A 
ATOM     38  C   UNL     1       5.607   0.754  -0.322  1.00  0.00     0.007 A 
ATOM     39  C   UNL     1       7.037   3.150  -0.379  1.00  0.00     0.046 A 
ATOM     40  C   UNL     1       7.004   0.733  -0.324  1.00  0.00     0.046 A 
ATOM     41  C   UNL     1       7.707   1.933  -0.351  1.00  0.00     0.115 A 
BRANCH  41  42
ATOM     42  O   UNL     1       9.070   1.957  -0.357  1.00  0.00    -0.508 OA
ATOM     43  H   UNL     1       9.369   2.081  -1.273  1.00  0.00     0.293 HD
ENDBRANCH  41  42
ENDBRANCH  35  36
ENDBRANCH  34  35
BRANCH  34  44
ATOM     44  C   UNL     1       1.377   3.559  -0.379  1.00  0.00     0.243 C 
ATOM     45  O   UNL     1       0.636   2.653  -0.752  1.00  0.00    -0.273 OA
ATOM     46  N   UNL     1       1.010   4.884  -0.473  1.00  0.00    -0.341 N 
ATOM     47  H   UNL     1       1.697   5.604  -0.263  1.00  0.00     0.164 HD
BRANCH  46  48
ATOM     48  C   UNL     1      -0.298   5.325  -0.965  1.00  0.00     0.196 C 
BRANCH  48  49
ATOM     49  C   UNL     1      -1.246   5.669   0.196  1.00  0.00     0.072 C 
BRANCH  49  50
ATOM     50  C   UNL     1      -2.026   4.469   0.685  1.00  0.00    -0.045 A 
ATOM     51  C   UNL     1      -1.916   4.060   2.022  1.00  0.00     0.007 A 
ATOM     52  C   UNL     1      -2.847   3.741  -0.186  1.00  0.00     0.007 A 
ATOM     53  C   UNL     1      -2.621   2.947   2.480  1.00  0.00     0.046 A 
ATOM     54  C   UNL     1      -3.552   2.626   0.273  1.00  0.00     0.046 A 
ATOM     55  C   UNL     1      -3.433   2.239   1.603  1.00  0.00     0.115 A 
BRANCH  55  56
ATOM     56  O   UNL     1      -4.104   1.156   2.091  1.00  0.00    -0.508 OA
ATOM     57  H   UNL     1      -5.028   1.411   2.241  1.00  0.00     0.293 HD
ENDBRANCH  55  56
ENDBRANCH  49  50
ENDBRANCH  48  49
BRANCH  48  58
ATOM     58  C   UNL     1      -0.105   6.561  -1.855  1.00  0.00     0.326 C 
ATOM     59  O   UNL     1       0.151   6.580  -3.048  1.00  0.00    -0.250 OA
BRANCH  58  60
ATOM     60  O   UNL     1      -0.262   7.735  -1.193  1.00  0.00    -0.480 OA
ATOM     61  H   UNL     1       0.271   8.366  -1.723  1.00  0.00     0.296 HD
ENDBRANCH  58  60
ENDBRANCH  48  58
ENDBRANCH  46  48
ENDBRANCH  34  44
ENDBRANCH  32  34
ENDBRANCH  25  30
ENDBRANCH  23  25
ENDBRANCH   2  23
TORSDOF 28
ENDMDL
MODEL 16
REMARK VINA RESULT:    -6.446     12.259     17.244
REMARK INTER + INTRA:         -20.491
REMARK INTER:                 -15.288
REMARK INTRA:                  -5.203
REMARK UNBOUND:                -4.436
REMARK SMILES CCCCCCC[C@H](N)[C@H](O)C(=O)N[C@H](C)C(=O)N(C)[C@H](CC(C)C)C(=O)N[C@@H](Cc1ccc(O)cc1)C(=O)N[C@@H](Cc1ccc(O)cc1)C(=O)O
REMARK SMILES IDX 18 1 17 2 15 3 16 4 14 5 12 6 13 7 10 9 11 10 8 12 9 13 7 16
REMARK SMILES IDX 6 17 5 18 4 19 3 20 2 21 1 22 19 23 20 24 21 25 22 26 23 27
REMARK SMILES IDX 24 28 25 29 26 30 27 31 28 32 29 34 30 35 31 36 32 37 37 38
REMARK SMILES IDX 33 39 36 40 34 41 35 42 38 44 39 45 40 46 41 48 42 49 43 50
REMARK SMILES IDX 44 51 49 52 45 53 48 54 46 55 47 56 50 58 51 59 52 60
REMARK H PARENT 14 8 11 11 9 14 9 15 28 33 35 43 40 47 47 57 52 61
ROOT
ATOM      1  O   UNL     1       0.435   4.377   4.360  1.00  0.00    -0.272 OA
ATOM      2  C   UNL     1      -0.119   4.987   3.434  1.00  0.00     0.245 C 
ENDROOT
BRANCH   2   3
ATOM      3  C   UNL     1      -0.652   4.176   2.226  1.00  0.00     0.168 C 
ATOM      4  C   UNL     1      -0.864   5.081   1.017  1.00  0.00     0.041 C 
BRANCH   3   5
ATOM      5  N   UNL     1       0.128   2.996   1.890  1.00  0.00    -0.342 N 
ATOM      6  C   UNL     1      -0.467   1.824   1.474  1.00  0.00     0.251 C 
ATOM      7  O   UNL     1      -1.682   1.673   1.396  1.00  0.00    -0.272 OA
ATOM      8  H   UNL     1       1.144   2.989   1.950  1.00  0.00     0.164 HD
BRANCH   6   9
ATOM      9  C   UNL     1       0.554   0.761   1.038  1.00  0.00     0.219 C 
BRANCH   9  10
ATOM     10  O   UNL     1      -0.016  -0.552   0.957  1.00  0.00    -0.382 OA
ATOM     11  H   UNL     1      -0.880  -0.402   0.515  1.00  0.00     0.211 HD
ENDBRANCH   9  10
BRANCH   9  12
ATOM     12  C   UNL     1       1.287   1.125  -0.279  1.00  0.00     0.089 C 
BRANCH  12  13
ATOM     13  N   UNL     1       0.474   2.128  -1.005  1.00  0.00    -0.325 NA
ATOM     14  H   UNL     1       0.827   2.218  -1.960  1.00  0.00     0.119 HD
ATOM     15  H   UNL     1       0.621   3.045  -0.578  1.00  0.00     0.119 HD
ENDBRANCH  12  13
BRANCH  12  16
ATOM     16  C   UNL     1       2.742   1.629  -0.128  1.00  0.00     0.022 C 
BRANCH  16  17
ATOM     17  C   UNL     1       3.901   0.657  -0.390  1.00  0.00     0.002 C 
BRANCH  17  18
ATOM     18  C   UNL     1       4.996   0.658   0.673  1.00  0.00     0.000 C 
BRANCH  18  19
ATOM     19  C   UNL     1       5.769   1.979   0.773  1.00  0.00    -0.000 C 
BRANCH  19  20
ATOM     20  C   UNL     1       6.050   2.671  -0.564  1.00  0.00    -0.000 C 
BRANCH  20  21
ATOM     21  C   UNL     1       7.542   2.888  -0.826  1.00  0.00    -0.003 C 
ATOM     22  C   UNL     1       8.358   1.668  -0.428  1.00  0.00     0.004 C 
ENDBRANCH  20  21
ENDBRANCH  19  20
ENDBRANCH  18  19
ENDBRANCH  17  18
ENDBRANCH  16  17
ENDBRANCH  12  16
ENDBRANCH   9  12
ENDBRANCH   6   9
ENDBRANCH   3   5
ENDBRANCH   2   3
BRANCH   2  23
ATOM     23  N   UNL     1      -0.358   6.353   3.546  1.00  0.00    -0.332 N 
ATOM     24  C   UNL     1      -1.629   6.938   3.945  1.00  0.00     0.147 C 
BRANCH  23  25
ATOM     25  C   UNL     1       0.755   7.327   3.378  1.00  0.00     0.174 C 
BRANCH  25  26
ATOM     26  C   UNL     1       1.927   6.763   2.540  1.00  0.00     0.038 C 
BRANCH  26  27
ATOM     27  C   UNL     1       2.370   7.591   1.312  1.00  0.00    -0.015 C 
ATOM     28  C   UNL     1       1.191   8.029   0.445  1.00  0.00     0.007 C 
ATOM     29  C   UNL     1       3.247   8.788   1.672  1.00  0.00     0.007 C 
ENDBRANCH  26  27
ENDBRANCH  25  26
BRANCH  25  30
ATOM     30  C   UNL     1       1.187   7.884   4.754  1.00  0.00     0.243 C 
ATOM     31  O   UNL     1       1.110   9.082   5.023  1.00  0.00    -0.273 OA
ATOM     32  N   UNL     1       1.664   6.958   5.645  1.00  0.00    -0.342 N 
ATOM     33  H   UNL     1       1.565   5.969   5.401  1.00  0.00     0.164 HD
BRANCH  32  34
ATOM     34  C   UNL     1       2.143   7.308   6.985  1.00  0.00     0.175 C 
BRANCH  34  35
ATOM     35  C   UNL     1       1.253   6.692   8.076  1.00  0.00     0.070 C 
BRANCH  35  36
ATOM     36  C   UNL     1       0.998   7.640   9.226  1.00  0.00    -0.045 A 
ATOM     37  C   UNL     1       0.168   8.757   9.045  1.00  0.00     0.007 A 
ATOM     38  C   UNL     1       1.599   7.432  10.475  1.00  0.00     0.007 A 
ATOM     39  C   UNL     1      -0.062   9.644  10.097  1.00  0.00     0.046 A 
ATOM     40  C   UNL     1       1.371   8.321  11.528  1.00  0.00     0.046 A 
ATOM     41  C   UNL     1       0.540   9.419  11.330  1.00  0.00     0.115 A 
BRANCH  41  42
ATOM     42  O   UNL     1       0.292  10.311  12.330  1.00  0.00    -0.508 OA
ATOM     43  H   UNL     1      -0.549  10.069  12.753  1.00  0.00     0.293 HD
ENDBRANCH  41  42
ENDBRANCH  35  36
ENDBRANCH  34  35
BRANCH  34  44
ATOM     44  C   UNL     1       3.611   6.840   7.106  1.00  0.00     0.243 C 
ATOM     45  O   UNL     1       4.131   6.448   8.147  1.00  0.00    -0.273 OA
ATOM     46  N   UNL     1       4.343   7.026   5.952  1.00  0.00    -0.341 N 
ATOM     47  H   UNL     1       3.897   7.464   5.150  1.00  0.00     0.164 HD
BRANCH  46  48
ATOM     48  C   UNL     1       5.771   6.721   5.846  1.00  0.00     0.196 C 
BRANCH  48  49
ATOM     49  C   UNL     1       6.100   6.034   4.510  1.00  0.00     0.072 C 
BRANCH  49  50
ATOM     50  C   UNL     1       5.233   4.822   4.251  1.00  0.00    -0.045 A 
ATOM     51  C   UNL     1       5.270   3.734   5.135  1.00  0.00     0.007 A 
ATOM     52  C   UNL     1       4.404   4.757   3.124  1.00  0.00     0.007 A 
ATOM     53  C   UNL     1       4.485   2.605   4.899  1.00  0.00     0.046 A 
ATOM     54  C   UNL     1       3.619   3.626   2.887  1.00  0.00     0.046 A 
ATOM     55  C   UNL     1       3.666   2.560   3.778  1.00  0.00     0.115 A 
BRANCH  55  56
ATOM     56  O   UNL     1       2.916   1.438   3.582  1.00  0.00    -0.508 OA
ATOM     57  H   UNL     1       3.474   0.767   3.157  1.00  0.00     0.293 HD
ENDBRANCH  55  56
ENDBRANCH  49  50
ENDBRANCH  48  49
BRANCH  48  58
ATOM     58  C   UNL     1       6.571   8.026   5.964  1.00  0.00     0.326 C 
ATOM     59  O   UNL     1       6.925   8.586   6.989  1.00  0.00    -0.250 OA
BRANCH  58  60
ATOM     60  O   UNL     1       6.904   8.566   4.765  1.00  0.00    -0.480 OA
ATOM     61  H   UNL     1       6.758   9.528   4.902  1.00  0.00     0.296 HD
ENDBRANCH  58  60
ENDBRANCH  48  58
ENDBRANCH  46  48
ENDBRANCH  34  44
ENDBRANCH  32  34
ENDBRANCH  25  30
ENDBRANCH  23  25
ENDBRANCH   2  23
TORSDOF 28
ENDMDL
MODEL 17
REMARK VINA RESULT:    -6.431     15.987     20.812
REMARK INTER + INTRA:         -20.454
REMARK INTER:                 -14.667
REMARK INTRA:                  -5.787
REMARK UNBOUND:                -4.436
REMARK SMILES CCCCCCC[C@H](N)[C@H](O)C(=O)N[C@H](C)C(=O)N(C)[C@H](CC(C)C)C(=O)N[C@@H](Cc1ccc(O)cc1)C(=O)N[C@@H](Cc1ccc(O)cc1)C(=O)O
REMARK SMILES IDX 18 1 17 2 15 3 16 4 14 5 12 6 13 7 10 9 11 10 8 12 9 13 7 16
REMARK SMILES IDX 6 17 5 18 4 19 3 20 2 21 1 22 19 23 20 24 21 25 22 26 23 27
REMARK SMILES IDX 24 28 25 29 26 30 27 31 28 32 29 34 30 35 31 36 32 37 37 38
REMARK SMILES IDX 33 39 36 40 34 41 35 42 38 44 39 45 40 46 41 48 42 49 43 50
REMARK SMILES IDX 44 51 49 52 45 53 48 54 46 55 47 56 50 58 51 59 52 60
REMARK H PARENT 14 8 11 11 9 14 9 15 28 33 35 43 40 47 47 57 52 61
ROOT
ATOM      1  O   UNL     1       1.445   9.792   2.191  1.00  0.00    -0.272 OA
ATOM      2  C   UNL     1       1.484   9.234   3.298  1.00  0.00     0.245 C 
ENDROOT
BRANCH   2   3
ATOM      3  C   UNL     1       2.744   9.423   4.179  1.00  0.00     0.168 C 
ATOM      4  C   UNL     1       2.363   9.549   5.649  1.00  0.00     0.041 C 
BRANCH   3   5
ATOM      5  N   UNL     1       3.788   8.430   3.973  1.00  0.00    -0.342 N 
ATOM      6  C   UNL     1       4.892   8.687   3.188  1.00  0.00     0.251 C 
ATOM      7  O   UNL     1       5.058   9.738   2.578  1.00  0.00    -0.272 OA
ATOM      8  H   UNL     1       3.743   7.508   4.400  1.00  0.00     0.164 HD
BRANCH   6   9
ATOM      9  C   UNL     1       5.928   7.553   3.229  1.00  0.00     0.219 C 
BRANCH   9  10
ATOM     10  O   UNL     1       6.844   7.600   2.128  1.00  0.00    -0.382 OA
ATOM     11  H   UNL     1       7.556   8.197   2.446  1.00  0.00     0.211 HD
ENDBRANCH   9  10
BRANCH   9  12
ATOM     12  C   UNL     1       6.691   7.474   4.577  1.00  0.00     0.089 C 
BRANCH  12  13
ATOM     13  N   UNL     1       6.931   8.853   5.060  1.00  0.00    -0.325 NA
ATOM     14  H   UNL     1       6.784   9.508   4.290  1.00  0.00     0.119 HD
ATOM     15  H   UNL     1       7.918   8.950   5.309  1.00  0.00     0.119 HD
ENDBRANCH  12  13
BRANCH  12  16
ATOM     16  C   UNL     1       6.020   6.631   5.688  1.00  0.00     0.022 C 
BRANCH  16  17
ATOM     17  C   UNL     1       5.328   5.314   5.311  1.00  0.00     0.002 C 
BRANCH  17  18
ATOM     18  C   UNL     1       3.822   5.420   5.076  1.00  0.00     0.000 C 
BRANCH  18  19
ATOM     19  C   UNL     1       2.977   5.211   6.340  1.00  0.00    -0.000 C 
BRANCH  19  20
ATOM     20  C   UNL     1       2.926   6.407   7.294  1.00  0.00    -0.000 C 
BRANCH  20  21
ATOM     21  C   UNL     1       3.454   6.081   8.694  1.00  0.00    -0.003 C 
ATOM     22  C   UNL     1       3.167   4.636   9.072  1.00  0.00     0.004 C 
ENDBRANCH  20  21
ENDBRANCH  19  20
ENDBRANCH  18  19
ENDBRANCH  17  18
ENDBRANCH  16  17
ENDBRANCH  12  16
ENDBRANCH   9  12
ENDBRANCH   6   9
ENDBRANCH   3   5
ENDBRANCH   2   3
BRANCH   2  23
ATOM     23  N   UNL     1       0.366   8.560   3.777  1.00  0.00    -0.332 N 
ATOM     24  C   UNL     1      -0.911   9.189   4.080  1.00  0.00     0.147 C 
BRANCH  23  25
ATOM     25  C   UNL     1       0.376   7.075   3.890  1.00  0.00     0.174 C 
BRANCH  25  26
ATOM     26  C   UNL     1      -0.289   6.375   2.682  1.00  0.00     0.038 C 
BRANCH  26  27
ATOM     27  C   UNL     1       0.629   6.004   1.496  1.00  0.00    -0.015 C 
ATOM     28  C   UNL     1       0.481   6.967   0.319  1.00  0.00     0.007 C 
ATOM     29  C   UNL     1       2.097   5.855   1.888  1.00  0.00     0.007 C 
ENDBRANCH  26  27
ENDBRANCH  25  26
BRANCH  25  30
ATOM     30  C   UNL     1      -0.205   6.643   5.256  1.00  0.00     0.243 C 
ATOM     31  O   UNL     1      -0.460   5.467   5.511  1.00  0.00    -0.273 OA
ATOM     32  N   UNL     1      -0.420   7.654   6.157  1.00  0.00    -0.342 N 
ATOM     33  H   UNL     1      -0.052   8.581   5.925  1.00  0.00     0.164 HD
BRANCH  32  34
ATOM     34  C   UNL     1      -0.989   7.434   7.489  1.00  0.00     0.175 C 
BRANCH  34  35
ATOM     35  C   UNL     1      -0.230   8.232   8.560  1.00  0.00     0.070 C 
BRANCH  35  36
ATOM     36  C   UNL     1       0.182   7.381   9.741  1.00  0.00    -0.045 A 
ATOM     37  C   UNL     1      -0.228   6.042   9.817  1.00  0.00     0.007 A 
ATOM     38  C   UNL     1       0.953   7.919  10.780  1.00  0.00     0.007 A 
ATOM     39  C   UNL     1       0.135   5.253  10.909  1.00  0.00     0.046 A 
ATOM     40  C   UNL     1       1.316   7.130  11.874  1.00  0.00     0.046 A 
ATOM     41  C   UNL     1       0.905   5.802  11.928  1.00  0.00     0.115 A 
BRANCH  41  42
ATOM     42  O   UNL     1       1.235   4.999  12.978  1.00  0.00    -0.508 OA
ATOM     43  H   UNL     1       2.083   4.568  12.777  1.00  0.00     0.293 HD
ENDBRANCH  41  42
ENDBRANCH  35  36
ENDBRANCH  34  35
BRANCH  34  44
ATOM     44  C   UNL     1      -2.486   7.815   7.439  1.00  0.00     0.243 C 
ATOM     45  O   UNL     1      -3.246   7.523   6.519  1.00  0.00    -0.273 OA
ATOM     46  N   UNL     1      -2.878   8.638   8.473  1.00  0.00    -0.341 N 
ATOM     47  H   UNL     1      -2.183   8.948   9.148  1.00  0.00     0.164 HD
BRANCH  46  48
ATOM     48  C   UNL     1      -4.231   9.184   8.600  1.00  0.00     0.196 C 
BRANCH  48  49
ATOM     49  C   UNL     1      -4.623   9.371  10.076  1.00  0.00     0.072 C 
BRANCH  49  50
ATOM     50  C   UNL     1      -4.013   8.322  10.978  1.00  0.00    -0.045 A 
ATOM     51  C   UNL     1      -2.962   8.667  11.839  1.00  0.00     0.007 A 
ATOM     52  C   UNL     1      -4.468   6.998  10.953  1.00  0.00     0.007 A 
ATOM     53  C   UNL     1      -2.382   7.705  12.666  1.00  0.00     0.046 A 
ATOM     54  C   UNL     1      -3.887   6.034  11.780  1.00  0.00     0.046 A 
ATOM     55  C   UNL     1      -2.849   6.396  12.631  1.00  0.00     0.115 A 
BRANCH  55  56
ATOM     56  O   UNL     1      -2.254   5.486  13.454  1.00  0.00    -0.508 OA
ATOM     57  H   UNL     1      -1.796   5.966  14.162  1.00  0.00     0.293 HD
ENDBRANCH  55  56
ENDBRANCH  49  50
ENDBRANCH  48  49
BRANCH  48  58
ATOM     58  C   UNL     1      -4.294  10.535   7.875  1.00  0.00     0.326 C 
ATOM     59  O   UNL     1      -4.619  10.738   6.717  1.00  0.00    -0.250 OA
BRANCH  58  60
ATOM     60  O   UNL     1      -3.953  11.588   8.661  1.00  0.00    -0.480 OA
ATOM     61  H   UNL     1      -4.821  11.964   8.924  1.00  0.00     0.296 HD
ENDBRANCH  58  60
ENDBRANCH  48  58
ENDBRANCH  46  48
ENDBRANCH  34  44
ENDBRANCH  32  34
ENDBRANCH  25  30
ENDBRANCH  23  25
ENDBRANCH   2  23
TORSDOF 28
ENDMDL
MODEL 18
REMARK VINA RESULT:    -6.359     12.409     16.818
REMARK INTER + INTRA:         -20.274
REMARK INTER:                 -16.230
REMARK INTRA:                  -4.045
REMARK UNBOUND:                -4.436
REMARK SMILES CCCCCCC[C@H](N)[C@H](O)C(=O)N[C@H](C)C(=O)N(C)[C@H](CC(C)C)C(=O)N[C@@H](Cc1ccc(O)cc1)C(=O)N[C@@H](Cc1ccc(O)cc1)C(=O)O
REMARK SMILES IDX 18 1 17 2 15 3 16 4 14 5 12 6 13 7 10 9 11 10 8 12 9 13 7 16
REMARK SMILES IDX 6 17 5 18 4 19 3 20 2 21 1 22 19 23 20 24 21 25 22 26 23 27
REMARK SMILES IDX 24 28 25 29 26 30 27 31 28 32 29 34 30 35 31 36 32 37 37 38
REMARK SMILES IDX 33 39 36 40 34 41 35 42 38 44 39 45 40 46 41 48 42 49 43 50
REMARK SMILES IDX 44 51 49 52 45 53 48 54 46 55 47 56 50 58 51 59 52 60
REMARK H PARENT 14 8 11 11 9 14 9 15 28 33 35 43 40 47 47 57 52 61
ROOT
ATOM      1  O   UNL     1      -5.887   3.147  -6.285  1.00  0.00    -0.272 OA
ATOM      2  C   UNL     1      -6.636   3.434  -7.230  1.00  0.00     0.245 C 
ENDROOT
BRANCH   2   3
ATOM      3  C   UNL     1      -6.761   4.919  -7.652  1.00  0.00     0.168 C 
ATOM      4  C   UNL     1      -7.195   5.782  -6.472  1.00  0.00     0.041 C 
BRANCH   3   5
ATOM      5  N   UNL     1      -5.591   5.465  -8.322  1.00  0.00    -0.342 N 
ATOM      6  C   UNL     1      -4.450   5.809  -7.629  1.00  0.00     0.251 C 
ATOM      7  O   UNL     1      -4.347   5.722  -6.410  1.00  0.00    -0.272 OA
ATOM      8  H   UNL     1      -5.571   5.616  -9.328  1.00  0.00     0.164 HD
BRANCH   6   9
ATOM      9  C   UNL     1      -3.296   6.228  -8.554  1.00  0.00     0.219 C 
BRANCH   9  10
ATOM     10  O   UNL     1      -2.479   7.258  -7.986  1.00  0.00    -0.382 OA
ATOM     11  H   UNL     1      -1.825   6.763  -7.445  1.00  0.00     0.211 HD
ENDBRANCH   9  10
BRANCH   9  12
ATOM     12  C   UNL     1      -2.428   5.032  -9.025  1.00  0.00     0.089 C 
BRANCH  12  13
ATOM     13  N   UNL     1      -3.139   3.778  -8.689  1.00  0.00    -0.325 NA
ATOM     14  H   UNL     1      -3.527   3.853  -7.747  1.00  0.00     0.119 HD
ATOM     15  H   UNL     1      -2.459   3.015  -8.637  1.00  0.00     0.119 HD
ENDBRANCH  12  13
BRANCH  12  16
ATOM     16  C   UNL     1      -2.026   5.033 -10.519  1.00  0.00     0.022 C 
BRANCH  16  17
ATOM     17  C   UNL     1      -2.382   6.247 -11.388  1.00  0.00     0.002 C 
BRANCH  17  18
ATOM     18  C   UNL     1      -1.238   7.232 -11.619  1.00  0.00     0.000 C 
BRANCH  18  19
ATOM     19  C   UNL     1      -1.575   8.681 -11.241  1.00  0.00    -0.000 C 
BRANCH  19  20
ATOM     20  C   UNL     1      -2.860   9.233 -11.864  1.00  0.00    -0.000 C 
BRANCH  20  21
ATOM     21  C   UNL     1      -4.070   9.133 -10.931  1.00  0.00    -0.003 C 
ATOM     22  C   UNL     1      -3.863   9.950  -9.665  1.00  0.00     0.004 C 
ENDBRANCH  20  21
ENDBRANCH  19  20
ENDBRANCH  18  19
ENDBRANCH  17  18
ENDBRANCH  16  17
ENDBRANCH  12  16
ENDBRANCH   9  12
ENDBRANCH   6   9
ENDBRANCH   3   5
ENDBRANCH   2   3
BRANCH   2  23
ATOM     23  N   UNL     1      -7.246   2.423  -7.966  1.00  0.00    -0.332 N 
ATOM     24  C   UNL     1      -6.853   2.027  -9.310  1.00  0.00     0.147 C 
BRANCH  23  25
ATOM     25  C   UNL     1      -8.297   1.572  -7.344  1.00  0.00     0.174 C 
BRANCH  25  26
ATOM     26  C   UNL     1      -9.548   2.375  -6.917  1.00  0.00     0.038 C 
BRANCH  26  27
ATOM     27  C   UNL     1     -10.917   1.678  -7.083  1.00  0.00    -0.015 C 
ATOM     28  C   UNL     1     -11.619   1.443  -5.746  1.00  0.00     0.007 C 
ATOM     29  C   UNL     1     -11.848   2.392  -8.060  1.00  0.00     0.007 C 
ENDBRANCH  26  27
ENDBRANCH  25  26
BRANCH  25  30
ATOM     30  C   UNL     1      -7.687   0.720  -6.206  1.00  0.00     0.243 C 
ATOM     31  O   UNL     1      -8.240   0.604  -5.113  1.00  0.00    -0.273 OA
ATOM     32  N   UNL     1      -6.493   0.112  -6.495  1.00  0.00    -0.342 N 
ATOM     33  H   UNL     1      -6.170   0.140  -7.466  1.00  0.00     0.164 HD
BRANCH  32  34
ATOM     34  C   UNL     1      -5.757  -0.710  -5.531  1.00  0.00     0.175 C 
BRANCH  34  35
ATOM     35  C   UNL     1      -4.992  -1.844  -6.231  1.00  0.00     0.070 C 
BRANCH  35  36
ATOM     36  C   UNL     1      -5.164  -3.178  -5.541  1.00  0.00    -0.045 A 
ATOM     37  C   UNL     1      -4.132  -4.128  -5.583  1.00  0.00     0.007 A 
ATOM     38  C   UNL     1      -6.354  -3.495  -4.873  1.00  0.00     0.007 A 
ATOM     39  C   UNL     1      -4.286  -5.367  -4.961  1.00  0.00     0.046 A 
ATOM     40  C   UNL     1      -6.510  -4.736  -4.251  1.00  0.00     0.046 A 
ATOM     41  C   UNL     1      -5.472  -5.661  -4.300  1.00  0.00     0.115 A 
BRANCH  41  42
ATOM     42  O   UNL     1      -5.584  -6.884  -3.708  1.00  0.00    -0.508 OA
ATOM     43  H   UNL     1      -5.724  -7.548  -4.403  1.00  0.00     0.293 HD
ENDBRANCH  41  42
ENDBRANCH  35  36
ENDBRANCH  34  35
BRANCH  34  44
ATOM     44  C   UNL     1      -4.813   0.218  -4.733  1.00  0.00     0.243 C 
ATOM     45  O   UNL     1      -5.171   0.946  -3.812  1.00  0.00    -0.273 OA
ATOM     46  N   UNL     1      -3.530   0.257  -5.236  1.00  0.00    -0.341 N 
ATOM     47  H   UNL     1      -3.311  -0.276  -6.074  1.00  0.00     0.164 HD
BRANCH  46  48
ATOM     48  C   UNL     1      -2.476   1.115  -4.689  1.00  0.00     0.196 C 
BRANCH  48  49
ATOM     49  C   UNL     1      -1.161   0.340  -4.507  1.00  0.00     0.072 C 
BRANCH  49  50
ATOM     50  C   UNL     1      -0.993  -0.199  -3.104  1.00  0.00    -0.045 A 
ATOM     51  C   UNL     1       0.246  -0.086  -2.456  1.00  0.00     0.007 A 
ATOM     52  C   UNL     1      -2.053  -0.831  -2.442  1.00  0.00     0.007 A 
ATOM     53  C   UNL     1       0.417  -0.590  -1.166  1.00  0.00     0.046 A 
ATOM     54  C   UNL     1      -1.882  -1.337  -1.152  1.00  0.00     0.046 A 
ATOM     55  C   UNL     1      -0.648  -1.211  -0.524  1.00  0.00     0.115 A 
BRANCH  55  56
ATOM     56  O   UNL     1      -0.439  -1.693   0.734  1.00  0.00    -0.508 OA
ATOM     57  H   UNL     1      -0.169  -0.954   1.303  1.00  0.00     0.293 HD
ENDBRANCH  55  56
ENDBRANCH  49  50
ENDBRANCH  48  49
BRANCH  48  58
ATOM     58  C   UNL     1      -2.249   2.296  -5.643  1.00  0.00     0.326 C 
ATOM     59  O   UNL     1      -1.401   2.390  -6.515  1.00  0.00    -0.250 OA
BRANCH  58  60
ATOM     60  O   UNL     1      -3.126   3.316  -5.460  1.00  0.00    -0.480 OA
ATOM     61  H   UNL     1      -2.954   3.599  -4.536  1.00  0.00     0.296 HD
ENDBRANCH  58  60
ENDBRANCH  48  58
ENDBRANCH  46  48
ENDBRANCH  34  44
ENDBRANCH  32  34
ENDBRANCH  25  30
ENDBRANCH  23  25
ENDBRANCH   2  23
TORSDOF 28
ENDMDL
MODEL 19
REMARK VINA RESULT:    -6.347      9.254     15.782
REMARK INTER + INTRA:         -20.245
REMARK INTER:                 -16.742
REMARK INTRA:                  -3.503
REMARK UNBOUND:                -4.436
REMARK SMILES CCCCCCC[C@H](N)[C@H](O)C(=O)N[C@H](C)C(=O)N(C)[C@H](CC(C)C)C(=O)N[C@@H](Cc1ccc(O)cc1)C(=O)N[C@@H](Cc1ccc(O)cc1)C(=O)O
REMARK SMILES IDX 18 1 17 2 15 3 16 4 14 5 12 6 13 7 10 9 11 10 8 12 9 13 7 16
REMARK SMILES IDX 6 17 5 18 4 19 3 20 2 21 1 22 19 23 20 24 21 25 22 26 23 27
REMARK SMILES IDX 24 28 25 29 26 30 27 31 28 32 29 34 30 35 31 36 32 37 37 38
REMARK SMILES IDX 33 39 36 40 34 41 35 42 38 44 39 45 40 46 41 48 42 49 43 50
REMARK SMILES IDX 44 51 49 52 45 53 48 54 46 55 47 56 50 58 51 59 52 60
REMARK H PARENT 14 8 11 11 9 14 9 15 28 33 35 43 40 47 47 57 52 61
ROOT
ATOM      1  O   UNL     1       1.810   0.975  -0.924  1.00  0.00    -0.272 OA
ATOM      2  C   UNL     1       1.246   1.565   0.010  1.00  0.00     0.245 C 
ENDROOT
BRANCH   2   3
ATOM      3  C   UNL     1       1.879   2.870   0.552  1.00  0.00     0.168 C 
ATOM      4  C   UNL     1       3.269   3.084  -0.038  1.00  0.00     0.041 C 
BRANCH   3   5
ATOM      5  N   UNL     1       1.046   4.055   0.420  1.00  0.00    -0.342 N 
ATOM      6  C   UNL     1       0.784   4.884   1.490  1.00  0.00     0.251 C 
ATOM      7  O   UNL     1       1.190   4.670   2.627  1.00  0.00    -0.272 OA
ATOM      8  H   UNL     1       0.624   4.317  -0.468  1.00  0.00     0.164 HD
BRANCH   6   9
ATOM      9  C   UNL     1       0.003   6.146   1.087  1.00  0.00     0.219 C 
BRANCH   9  10
ATOM     10  O   UNL     1      -0.661   6.763   2.197  1.00  0.00    -0.382 OA
ATOM     11  H   UNL     1      -0.846   6.012   2.802  1.00  0.00     0.211 HD
ENDBRANCH   9  10
BRANCH   9  12
ATOM     12  C   UNL     1       0.868   7.178   0.319  1.00  0.00     0.089 C 
BRANCH  12  13
ATOM     13  N   UNL     1       0.091   7.668  -0.843  1.00  0.00    -0.325 NA
ATOM     14  H   UNL     1      -0.164   8.645  -0.689  1.00  0.00     0.119 HD
ATOM     15  H   UNL     1      -0.797   7.163  -0.883  1.00  0.00     0.119 HD
ENDBRANCH  12  13
BRANCH  12  16
ATOM     16  C   UNL     1       1.393   8.374   1.149  1.00  0.00     0.022 C 
BRANCH  16  17
ATOM     17  C   UNL     1       2.898   8.487   1.428  1.00  0.00     0.002 C 
BRANCH  17  18
ATOM     18  C   UNL     1       3.579   7.180   1.827  1.00  0.00     0.000 C 
BRANCH  18  19
ATOM     19  C   UNL     1       4.049   7.141   3.288  1.00  0.00    -0.000 C 
BRANCH  19  20
ATOM     20  C   UNL     1       3.994   8.483   4.024  1.00  0.00    -0.000 C 
BRANCH  20  21
ATOM     21  C   UNL     1       2.974   8.499   5.166  1.00  0.00    -0.003 C 
ATOM     22  C   UNL     1       1.992   9.651   5.016  1.00  0.00     0.004 C 
ENDBRANCH  20  21
ENDBRANCH  19  20
ENDBRANCH  18  19
ENDBRANCH  17  18
ENDBRANCH  16  17
ENDBRANCH  12  16
ENDBRANCH   9  12
ENDBRANCH   6   9
ENDBRANCH   3   5
ENDBRANCH   2   3
BRANCH   2  23
ATOM     23  N   UNL     1       0.010   1.121   0.467  1.00  0.00    -0.332 N 
ATOM     24  C   UNL     1      -0.192   0.346   1.683  1.00  0.00     0.147 C 
BRANCH  23  25
ATOM     25  C   UNL     1      -1.241   1.539  -0.224  1.00  0.00     0.174 C 
BRANCH  25  26
ATOM     26  C   UNL     1      -2.515   1.223   0.594  1.00  0.00     0.038 C 
BRANCH  26  27
ATOM     27  C   UNL     1      -3.555   2.357   0.736  1.00  0.00    -0.015 C 
ATOM     28  C   UNL     1      -2.905   3.737   0.840  1.00  0.00     0.007 C 
ATOM     29  C   UNL     1      -4.619   2.346  -0.358  1.00  0.00     0.007 C 
ENDBRANCH  26  27
ENDBRANCH  25  26
BRANCH  25  30
ATOM     30  C   UNL     1      -1.269   0.973  -1.662  1.00  0.00     0.243 C 
ATOM     31  O   UNL     1      -1.499   1.687  -2.637  1.00  0.00    -0.273 OA
ATOM     32  N   UNL     1      -1.027  -0.372  -1.775  1.00  0.00    -0.342 N 
ATOM     33  H   UNL     1      -0.706  -0.867  -0.939  1.00  0.00     0.164 HD
BRANCH  32  34
ATOM     34  C   UNL     1      -1.041  -1.084  -3.055  1.00  0.00     0.175 C 
BRANCH  34  35
ATOM     35  C   UNL     1      -2.450  -1.106  -3.668  1.00  0.00     0.070 C 
BRANCH  35  36
ATOM     36  C   UNL     1      -3.094  -2.473  -3.605  1.00  0.00    -0.045 A 
ATOM     37  C   UNL     1      -3.872  -2.832  -2.495  1.00  0.00     0.007 A 
ATOM     38  C   UNL     1      -2.906  -3.403  -4.636  1.00  0.00     0.007 A 
ATOM     39  C   UNL     1      -4.458  -4.096  -2.422  1.00  0.00     0.046 A 
ATOM     40  C   UNL     1      -3.492  -4.670  -4.564  1.00  0.00     0.046 A 
ATOM     41  C   UNL     1      -4.265  -5.004  -3.456  1.00  0.00     0.115 A 
BRANCH  41  42
ATOM     42  O   UNL     1      -4.852  -6.229  -3.345  1.00  0.00    -0.508 OA
ATOM     43  H   UNL     1      -4.928  -6.613  -4.235  1.00  0.00     0.293 HD
ENDBRANCH  41  42
ENDBRANCH  35  36
ENDBRANCH  34  35
BRANCH  34  44
ATOM     44  C   UNL     1      -0.015  -0.406  -3.991  1.00  0.00     0.243 C 
ATOM     45  O   UNL     1       1.197  -0.390  -3.796  1.00  0.00    -0.273 OA
ATOM     46  N   UNL     1      -0.597   0.305  -5.019  1.00  0.00    -0.341 N 
ATOM     47  H   UNL     1      -1.611   0.357  -5.072  1.00  0.00     0.164 HD
BRANCH  46  48
ATOM     48  C   UNL     1       0.170   1.085  -5.993  1.00  0.00     0.196 C 
BRANCH  48  49
ATOM     49  C   UNL     1       0.341   0.319  -7.315  1.00  0.00     0.072 C 
BRANCH  49  50
ATOM     50  C   UNL     1       1.753   0.392  -7.851  1.00  0.00    -0.045 A 
ATOM     51  C   UNL     1       2.029  -0.042  -9.156  1.00  0.00     0.007 A 
ATOM     52  C   UNL     1       2.802   0.870  -7.056  1.00  0.00     0.007 A 
ATOM     53  C   UNL     1       3.330   0.009  -9.657  1.00  0.00     0.046 A 
ATOM     54  C   UNL     1       4.105   0.920  -7.557  1.00  0.00     0.046 A 
ATOM     55  C   UNL     1       4.357   0.489  -8.855  1.00  0.00     0.115 A 
BRANCH  55  56
ATOM     56  O   UNL     1       5.615   0.521  -9.382  1.00  0.00    -0.508 OA
ATOM     57  H   UNL     1       5.612   1.122 -10.143  1.00  0.00     0.293 HD
ENDBRANCH  55  56
ENDBRANCH  49  50
ENDBRANCH  48  49
BRANCH  48  58
ATOM     58  C   UNL     1      -0.561   2.410  -6.257  1.00  0.00     0.326 C 
ATOM     59  O   UNL     1      -0.950   2.837  -7.332  1.00  0.00    -0.250 OA
BRANCH  58  60
ATOM     60  O   UNL     1      -0.783   3.138  -5.134  1.00  0.00    -0.480 OA
ATOM     61  H   UNL     1      -1.205   2.494  -4.526  1.00  0.00     0.296 HD
ENDBRANCH  58  60
ENDBRANCH  48  58
ENDBRANCH  46  48
ENDBRANCH  34  44
ENDBRANCH  32  34
ENDBRANCH  25  30
ENDBRANCH  23  25
ENDBRANCH   2  23
TORSDOF 28
ENDMDL
MODEL 20
REMARK VINA RESULT:    -6.306     14.740     19.884
REMARK INTER + INTRA:         -20.143
REMARK INTER:                 -16.596
REMARK INTRA:                  -3.546
REMARK UNBOUND:                -4.436
REMARK SMILES CCCCCCC[C@H](N)[C@H](O)C(=O)N[C@H](C)C(=O)N(C)[C@H](CC(C)C)C(=O)N[C@@H](Cc1ccc(O)cc1)C(=O)N[C@@H](Cc1ccc(O)cc1)C(=O)O
REMARK SMILES IDX 18 1 17 2 15 3 16 4 14 5 12 6 13 7 10 9 11 10 8 12 9 13 7 16
REMARK SMILES IDX 6 17 5 18 4 19 3 20 2 21 1 22 19 23 20 24 21 25 22 26 23 27
REMARK SMILES IDX 24 28 25 29 26 30 27 31 28 32 29 34 30 35 31 36 32 37 37 38
REMARK SMILES IDX 33 39 36 40 34 41 35 42 38 44 39 45 40 46 41 48 42 49 43 50
REMARK SMILES IDX 44 51 49 52 45 53 48 54 46 55 47 56 50 58 51 59 52 60
REMARK H PARENT 14 8 11 11 9 14 9 15 28 33 35 43 40 47 47 57 52 61
ROOT
ATOM      1  O   UNL     1       2.650  -0.809   6.924  1.00  0.00    -0.272 OA
ATOM      2  C   UNL     1       2.581   0.389   6.613  1.00  0.00     0.245 C 
ENDROOT
BRANCH   2   3
ATOM      3  C   UNL     1       3.878   1.120   6.185  1.00  0.00     0.168 C 
ATOM      4  C   UNL     1       5.035   0.754   7.109  1.00  0.00     0.041 C 
BRANCH   3   5
ATOM      5  N   UNL     1       4.234   0.963   4.784  1.00  0.00    -0.342 N 
ATOM      6  C   UNL     1       4.447   2.049   3.961  1.00  0.00     0.251 C 
ATOM      7  O   UNL     1       4.315   3.212   4.328  1.00  0.00    -0.272 OA
ATOM      8  H   UNL     1       4.338   0.046   4.356  1.00  0.00     0.164 HD
BRANCH   6   9
ATOM      9  C   UNL     1       4.949   1.647   2.565  1.00  0.00     0.219 C 
BRANCH   9  10
ATOM     10  O   UNL     1       3.928   1.041   1.763  1.00  0.00    -0.382 OA
ATOM     11  H   UNL     1       3.721   1.729   1.093  1.00  0.00     0.211 HD
ENDBRANCH   9  10
BRANCH   9  12
ATOM     12  C   UNL     1       5.627   2.816   1.802  1.00  0.00     0.089 C 
BRANCH  12  13
ATOM     13  N   UNL     1       6.879   3.171   2.508  1.00  0.00    -0.325 NA
ATOM     14  H   UNL     1       6.682   3.287   3.504  1.00  0.00     0.119 HD
ATOM     15  H   UNL     1       7.190   4.091   2.189  1.00  0.00     0.119 HD
ENDBRANCH  12  13
BRANCH  12  16
ATOM     16  C   UNL     1       5.914   2.569   0.302  1.00  0.00     0.022 C 
BRANCH  16  17
ATOM     17  C   UNL     1       6.793   1.378  -0.105  1.00  0.00     0.002 C 
BRANCH  17  18
ATOM     18  C   UNL     1       8.184   1.748  -0.616  1.00  0.00     0.000 C 
BRANCH  18  19
ATOM     19  C   UNL     1       8.179   2.797  -1.736  1.00  0.00    -0.000 C 
BRANCH  19  20
ATOM     20  C   UNL     1       9.502   3.542  -1.935  1.00  0.00    -0.000 C 
BRANCH  20  21
ATOM     21  C   UNL     1      10.571   2.693  -2.627  1.00  0.00    -0.003 C 
ATOM     22  C   UNL     1      10.778   3.130  -4.069  1.00  0.00     0.004 C 
ENDBRANCH  20  21
ENDBRANCH  19  20
ENDBRANCH  18  19
ENDBRANCH  17  18
ENDBRANCH  16  17
ENDBRANCH  12  16
ENDBRANCH   9  12
ENDBRANCH   6   9
ENDBRANCH   3   5
ENDBRANCH   2   3
BRANCH   2  23
ATOM     23  N   UNL     1       1.342   1.017   6.535  1.00  0.00    -0.332 N 
ATOM     24  C   UNL     1       0.610   1.248   5.299  1.00  0.00     0.147 C 
BRANCH  23  25
ATOM     25  C   UNL     1       0.610   1.391   7.777  1.00  0.00     0.174 C 
BRANCH  25  26
ATOM     26  C   UNL     1       1.555   1.743   8.950  1.00  0.00     0.038 C 
BRANCH  26  27
ATOM     27  C   UNL     1       1.741   3.242   9.274  1.00  0.00    -0.015 C 
ATOM     28  C   UNL     1       2.945   3.850   8.556  1.00  0.00     0.007 C 
ATOM     29  C   UNL     1       0.488   4.077   9.024  1.00  0.00     0.007 C 
ENDBRANCH  26  27
ENDBRANCH  25  26
BRANCH  25  30
ATOM     30  C   UNL     1      -0.436   0.307   8.125  1.00  0.00     0.243 C 
ATOM     31  O   UNL     1      -1.449   0.566   8.772  1.00  0.00    -0.273 OA
ATOM     32  N   UNL     1      -0.155  -0.956   7.670  1.00  0.00    -0.342 N 
ATOM     33  H   UNL     1       0.630  -1.062   7.022  1.00  0.00     0.164 HD
BRANCH  32  34
ATOM     34  C   UNL     1      -1.018  -2.111   7.929  1.00  0.00     0.175 C 
BRANCH  34  35
ATOM     35  C   UNL     1      -1.859  -2.467   6.694  1.00  0.00     0.070 C 
BRANCH  35  36
ATOM     36  C   UNL     1      -3.331  -2.610   7.010  1.00  0.00    -0.045 A 
ATOM     37  C   UNL     1      -3.933  -1.759   7.949  1.00  0.00     0.007 A 
ATOM     38  C   UNL     1      -4.106  -3.601   6.393  1.00  0.00     0.007 A 
ATOM     39  C   UNL     1      -5.287  -1.892   8.257  1.00  0.00     0.046 A 
ATOM     40  C   UNL     1      -5.462  -3.736   6.702  1.00  0.00     0.046 A 
ATOM     41  C   UNL     1      -6.041  -2.878   7.632  1.00  0.00     0.115 A 
BRANCH  41  42
ATOM     42  O   UNL     1      -7.359  -2.976   7.964  1.00  0.00    -0.508 OA
ATOM     43  H   UNL     1      -7.420  -3.225   8.901  1.00  0.00     0.293 HD
ENDBRANCH  41  42
ENDBRANCH  35  36
ENDBRANCH  34  35
BRANCH  34  44
ATOM     44  C   UNL     1      -0.122  -3.288   8.376  1.00  0.00     0.243 C 
ATOM     45  O   UNL     1      -0.536  -4.307   8.922  1.00  0.00    -0.273 OA
ATOM     46  N   UNL     1       1.226  -3.039   8.225  1.00  0.00    -0.341 N 
ATOM     47  H   UNL     1       1.525  -2.132   7.876  1.00  0.00     0.164 HD
BRANCH  46  48
ATOM     48  C   UNL     1       2.270  -3.978   8.642  1.00  0.00     0.196 C 
BRANCH  48  49
ATOM     49  C   UNL     1       3.333  -4.157   7.545  1.00  0.00     0.072 C 
BRANCH  49  50
ATOM     50  C   UNL     1       3.561  -5.608   7.186  1.00  0.00    -0.045 A 
ATOM     51  C   UNL     1       4.410  -5.939   6.120  1.00  0.00     0.007 A 
ATOM     52  C   UNL     1       2.918  -6.634   7.890  1.00  0.00     0.007 A 
ATOM     53  C   UNL     1       4.618  -7.274   5.772  1.00  0.00     0.046 A 
ATOM     54  C   UNL     1       3.125  -7.970   7.541  1.00  0.00     0.046 A 
ATOM     55  C   UNL     1       3.975  -8.279   6.484  1.00  0.00     0.115 A 
BRANCH  55  56
ATOM     56  O   UNL     1       4.203  -9.570   6.111  1.00  0.00    -0.508 OA
ATOM     57  H   UNL     1       4.921  -9.578   5.458  1.00  0.00     0.293 HD
ENDBRANCH  55  56
ENDBRANCH  49  50
ENDBRANCH  48  49
BRANCH  48  58
ATOM     58  C   UNL     1       2.934  -3.451   9.921  1.00  0.00     0.326 C 
ATOM     59  O   UNL     1       2.385  -3.141  10.966  1.00  0.00    -0.250 OA
BRANCH  58  60
ATOM     60  O   UNL     1       4.284  -3.350   9.828  1.00  0.00    -0.480 OA
ATOM     61  H   UNL     1       4.428  -3.108   8.887  1.00  0.00     0.296 HD
ENDBRANCH  58  60
ENDBRANCH  48  58
ENDBRANCH  46  48
ENDBRANCH  34  44
ENDBRANCH  32  34
ENDBRANCH  25  30
ENDBRANCH  23  25
ENDBRANCH   2  23
TORSDOF 28
ENDMDL
MODEL 21
REMARK VINA RESULT:    -6.290     11.656     16.776
REMARK INTER + INTRA:         -20.104
REMARK INTER:                 -14.293
REMARK INTRA:                  -5.810
REMARK UNBOUND:                -4.436
REMARK SMILES CCCCCCC[C@H](N)[C@H](O)C(=O)N[C@H](C)C(=O)N(C)[C@H](CC(C)C)C(=O)N[C@@H](Cc1ccc(O)cc1)C(=O)N[C@@H](Cc1ccc(O)cc1)C(=O)O
REMARK SMILES IDX 18 1 17 2 15 3 16 4 14 5 12 6 13 7 10 9 11 10 8 12 9 13 7 16
REMARK SMILES IDX 6 17 5 18 4 19 3 20 2 21 1 22 19 23 20 24 21 25 22 26 23 27
REMARK SMILES IDX 24 28 25 29 26 30 27 31 28 32 29 34 30 35 31 36 32 37 37 38
REMARK SMILES IDX 33 39 36 40 34 41 35 42 38 44 39 45 40 46 41 48 42 49 43 50
REMARK SMILES IDX 44 51 49 52 45 53 48 54 46 55 47 56 50 58 51 59 52 60
REMARK H PARENT 14 8 11 11 9 14 9 15 28 33 35 43 40 47 47 57 52 61
ROOT
ATOM      1  O   UNL     1       0.568   7.649   1.216  1.00  0.00    -0.272 OA
ATOM      2  C   UNL     1       1.027   7.819   2.355  1.00  0.00     0.245 C 
ENDROOT
BRANCH   2   3
ATOM      3  C   UNL     1       2.166   8.851   2.548  1.00  0.00     0.168 C 
ATOM      4  C   UNL     1       1.941   9.677   3.810  1.00  0.00     0.041 C 
BRANCH   3   5
ATOM      5  N   UNL     1       3.510   8.295   2.497  1.00  0.00    -0.342 N 
ATOM      6  C   UNL     1       4.622   9.092   2.326  1.00  0.00     0.251 C 
ATOM      7  O   UNL     1       4.565  10.306   2.164  1.00  0.00    -0.272 OA
ATOM      8  H   UNL     1       3.680   7.296   2.584  1.00  0.00     0.164 HD
BRANCH   6   9
ATOM      9  C   UNL     1       5.939   8.309   2.446  1.00  0.00     0.219 C 
BRANCH   9  10
ATOM     10  O   UNL     1       7.023   8.941   1.755  1.00  0.00    -0.382 OA
ATOM     11  H   UNL     1       7.239   9.714   2.323  1.00  0.00     0.211 HD
ENDBRANCH   9  10
BRANCH   9  12
ATOM     12  C   UNL     1       6.329   7.995   3.914  1.00  0.00     0.089 C 
BRANCH  12  13
ATOM     13  N   UNL     1       5.262   8.511   4.802  1.00  0.00    -0.325 NA
ATOM     14  H   UNL     1       4.354   8.357   4.359  1.00  0.00     0.119 HD
ATOM     15  H   UNL     1       5.354   9.526   4.876  1.00  0.00     0.119 HD
ENDBRANCH  12  13
BRANCH  12  16
ATOM     16  C   UNL     1       6.618   6.510   4.237  1.00  0.00     0.022 C 
BRANCH  16  17
ATOM     17  C   UNL     1       5.738   5.423   3.603  1.00  0.00     0.002 C 
BRANCH  17  18
ATOM     18  C   UNL     1       5.953   4.016   4.156  1.00  0.00     0.000 C 
BRANCH  18  19
ATOM     19  C   UNL     1       4.742   3.449   4.909  1.00  0.00    -0.000 C 
BRANCH  19  20
ATOM     20  C   UNL     1       4.497   1.950   4.711  1.00  0.00    -0.000 C 
BRANCH  20  21
ATOM     21  C   UNL     1       3.220   1.456   5.395  1.00  0.00    -0.003 C 
ATOM     22  C   UNL     1       2.260   2.602   5.671  1.00  0.00     0.004 C 
ENDBRANCH  20  21
ENDBRANCH  19  20
ENDBRANCH  18  19
ENDBRANCH  17  18
ENDBRANCH  16  17
ENDBRANCH  12  16
ENDBRANCH   9  12
ENDBRANCH   6   9
ENDBRANCH   3   5
ENDBRANCH   2   3
BRANCH   2  23
ATOM     23  N   UNL     1       0.441   7.183   3.444  1.00  0.00    -0.332 N 
ATOM     24  C   UNL     1      -0.835   7.562   4.033  1.00  0.00     0.147 C 
BRANCH  23  25
ATOM     25  C   UNL     1       1.051   5.950   4.012  1.00  0.00     0.174 C 
BRANCH  25  26
ATOM     26  C   UNL     1       2.349   6.230   4.805  1.00  0.00     0.038 C 
BRANCH  26  27
ATOM     27  C   UNL     1       2.231   6.281   6.345  1.00  0.00    -0.015 C 
ATOM     28  C   UNL     1       3.583   6.124   7.040  1.00  0.00     0.007 C 
ATOM     29  C   UNL     1       1.504   7.522   6.858  1.00  0.00     0.007 C 
ENDBRANCH  26  27
ENDBRANCH  25  26
BRANCH  25  30
ATOM     30  C   UNL     1       1.216   4.881   2.907  1.00  0.00     0.243 C 
ATOM     31  O   UNL     1       0.430   3.943   2.787  1.00  0.00    -0.273 OA
ATOM     32  N   UNL     1       2.297   5.046   2.079  1.00  0.00    -0.342 N 
ATOM     33  H   UNL     1       2.820   5.922   2.152  1.00  0.00     0.164 HD
BRANCH  32  34
ATOM     34  C   UNL     1       2.626   4.116   0.995  1.00  0.00     0.175 C 
BRANCH  34  35
ATOM     35  C   UNL     1       3.099   2.762   1.545  1.00  0.00     0.070 C 
BRANCH  35  36
ATOM     36  C   UNL     1       4.362   2.268   0.877  1.00  0.00    -0.045 A 
ATOM     37  C   UNL     1       4.490   0.915   0.531  1.00  0.00     0.007 A 
ATOM     38  C   UNL     1       5.426   3.142   0.617  1.00  0.00     0.007 A 
ATOM     39  C   UNL     1       5.658   0.447  -0.073  1.00  0.00     0.046 A 
ATOM     40  C   UNL     1       6.596   2.674   0.014  1.00  0.00     0.046 A 
ATOM     41  C   UNL     1       6.701   1.330  -0.327  1.00  0.00     0.115 A 
BRANCH  41  42
ATOM     42  O   UNL     1       7.825   0.833  -0.916  1.00  0.00    -0.508 OA
ATOM     43  H   UNL     1       7.984  -0.059  -0.564  1.00  0.00     0.293 HD
ENDBRANCH  41  42
ENDBRANCH  35  36
ENDBRANCH  34  35
BRANCH  34  44
ATOM     44  C   UNL     1       1.379   3.971   0.095  1.00  0.00     0.243 C 
ATOM     45  O   UNL     1       0.971   2.905  -0.358  1.00  0.00    -0.273 OA
ATOM     46  N   UNL     1       0.823   5.178  -0.273  1.00  0.00    -0.341 N 
ATOM     47  H   UNL     1       1.268   6.040   0.034  1.00  0.00     0.164 HD
BRANCH  46  48
ATOM     48  C   UNL     1      -0.324   5.296  -1.176  1.00  0.00     0.196 C 
BRANCH  48  49
ATOM     49  C   UNL     1      -1.646   5.372  -0.395  1.00  0.00     0.072 C 
BRANCH  49  50
ATOM     50  C   UNL     1      -2.338   4.032  -0.289  1.00  0.00    -0.045 A 
ATOM     51  C   UNL     1      -2.551   3.453   0.970  1.00  0.00     0.007 A 
ATOM     52  C   UNL     1      -2.753   3.343  -1.436  1.00  0.00     0.007 A 
ATOM     53  C   UNL     1      -3.176   2.210   1.079  1.00  0.00     0.046 A 
ATOM     54  C   UNL     1      -3.378   2.098  -1.326  1.00  0.00     0.046 A 
ATOM     55  C   UNL     1      -3.585   1.543  -0.068  1.00  0.00     0.115 A 
BRANCH  55  56
ATOM     56  O   UNL     1      -4.190   0.330   0.081  1.00  0.00    -0.508 OA
ATOM     57  H   UNL     1      -5.103   0.478   0.376  1.00  0.00     0.293 HD
ENDBRANCH  55  56
ENDBRANCH  49  50
ENDBRANCH  48  49
BRANCH  48  58
ATOM     58  C   UNL     1      -0.157   6.559  -2.032  1.00  0.00     0.326 C 
ATOM     59  O   UNL     1       0.129   6.617  -3.217  1.00  0.00    -0.250 OA
BRANCH  58  60
ATOM     60  O   UNL     1      -0.378   7.709  -1.347  1.00  0.00    -0.480 OA
ATOM     61  H   UNL     1      -1.342   7.858  -1.459  1.00  0.00     0.296 HD
ENDBRANCH  58  60
ENDBRANCH  48  58
ENDBRANCH  46  48
ENDBRANCH  34  44
ENDBRANCH  32  34
ENDBRANCH  25  30
ENDBRANCH  23  25
ENDBRANCH   2  23
TORSDOF 28
ENDMDL
MODEL 22
REMARK VINA RESULT:    -6.287      8.390     13.390
REMARK INTER + INTRA:         -20.095
REMARK INTER:                 -16.683
REMARK INTRA:                  -3.411
REMARK UNBOUND:                -4.436
REMARK SMILES CCCCCCC[C@H](N)[C@H](O)C(=O)N[C@H](C)C(=O)N(C)[C@H](CC(C)C)C(=O)N[C@@H](Cc1ccc(O)cc1)C(=O)N[C@@H](Cc1ccc(O)cc1)C(=O)O
REMARK SMILES IDX 18 1 17 2 15 3 16 4 14 5 12 6 13 7 10 9 11 10 8 12 9 13 7 16
REMARK SMILES IDX 6 17 5 18 4 19 3 20 2 21 1 22 19 23 20 24 21 25 22 26 23 27
REMARK SMILES IDX 24 28 25 29 26 30 27 31 28 32 29 34 30 35 31 36 32 37 37 38
REMARK SMILES IDX 33 39 36 40 34 41 35 42 38 44 39 45 40 46 41 48 42 49 43 50
REMARK SMILES IDX 44 51 49 52 45 53 48 54 46 55 47 56 50 58 51 59 52 60
REMARK H PARENT 14 8 11 11 9 14 9 15 28 33 35 43 40 47 47 57 52 61
ROOT
ATOM      1  O   UNL     1      -0.649   4.038  -3.357  1.00  0.00    -0.272 OA
ATOM      2  C   UNL     1      -1.402   3.109  -3.684  1.00  0.00     0.245 C 
ENDROOT
BRANCH   2   3
ATOM      3  C   UNL     1      -1.658   2.859  -5.191  1.00  0.00     0.168 C 
ATOM      4  C   UNL     1      -2.664   3.863  -5.744  1.00  0.00     0.041 C 
BRANCH   3   5
ATOM      5  N   UNL     1      -0.459   2.785  -6.011  1.00  0.00    -0.342 N 
ATOM      6  C   UNL     1      -0.042   1.604  -6.586  1.00  0.00     0.251 C 
ATOM      7  O   UNL     1      -0.614   0.532  -6.421  1.00  0.00    -0.272 OA
ATOM      8  H   UNL     1       0.118   3.603  -6.190  1.00  0.00     0.164 HD
BRANCH   6   9
ATOM      9  C   UNL     1       1.163   1.791  -7.522  1.00  0.00     0.219 C 
BRANCH   9  10
ATOM     10  O   UNL     1       2.096   2.763  -7.034  1.00  0.00    -0.382 OA
ATOM     11  H   UNL     1       2.171   3.404  -7.775  1.00  0.00     0.211 HD
ENDBRANCH   9  10
BRANCH   9  12
ATOM     12  C   UNL     1       1.882   0.460  -7.863  1.00  0.00     0.089 C 
BRANCH  12  13
ATOM     13  N   UNL     1       0.966  -0.372  -8.676  1.00  0.00    -0.325 NA
ATOM     14  H   UNL     1       0.291   0.234  -9.147  1.00  0.00     0.119 HD
ATOM     15  H   UNL     1       0.407  -0.957  -8.050  1.00  0.00     0.119 HD
ENDBRANCH  12  13
BRANCH  12  16
ATOM     16  C   UNL     1       3.251   0.592  -8.573  1.00  0.00     0.022 C 
BRANCH  16  17
ATOM     17  C   UNL     1       3.304   0.556 -10.106  1.00  0.00     0.002 C 
BRANCH  17  18
ATOM     18  C   UNL     1       4.386  -0.347 -10.694  1.00  0.00     0.000 C 
BRANCH  18  19
ATOM     19  C   UNL     1       4.929   0.128 -12.048  1.00  0.00    -0.000 C 
BRANCH  19  20
ATOM     20  C   UNL     1       6.154   1.044 -11.973  1.00  0.00    -0.000 C 
BRANCH  20  21
ATOM     21  C   UNL     1       7.470   0.308 -12.237  1.00  0.00    -0.003 C 
ATOM     22  C   UNL     1       8.283   0.150 -10.961  1.00  0.00     0.004 C 
ENDBRANCH  20  21
ENDBRANCH  19  20
ENDBRANCH  18  19
ENDBRANCH  17  18
ENDBRANCH  16  17
ENDBRANCH  12  16
ENDBRANCH   9  12
ENDBRANCH   6   9
ENDBRANCH   3   5
ENDBRANCH   2   3
BRANCH   2  23
ATOM     23  N   UNL     1      -1.900   2.244  -2.716  1.00  0.00    -0.332 N 
ATOM     24  C   UNL     1      -3.025   2.541  -1.842  1.00  0.00     0.147 C 
BRANCH  23  25
ATOM     25  C   UNL     1      -1.367   0.859  -2.601  1.00  0.00     0.174 C 
BRANCH  25  26
ATOM     26  C   UNL     1      -2.476  -0.198  -2.384  1.00  0.00     0.038 C 
BRANCH  26  27
ATOM     27  C   UNL     1      -2.831  -1.098  -3.589  1.00  0.00    -0.015 C 
ATOM     28  C   UNL     1      -3.540  -0.330  -4.704  1.00  0.00     0.007 C 
ATOM     29  C   UNL     1      -1.635  -1.868  -4.144  1.00  0.00     0.007 C 
ENDBRANCH  26  27
ENDBRANCH  25  26
BRANCH  25  30
ATOM     30  C   UNL     1      -0.244   0.807  -1.540  1.00  0.00     0.243 C 
ATOM     31  O   UNL     1       0.216  -0.259  -1.132  1.00  0.00    -0.273 OA
ATOM     32  N   UNL     1       0.198   2.022  -1.084  1.00  0.00    -0.342 N 
ATOM     33  H   UNL     1      -0.132   2.859  -1.571  1.00  0.00     0.164 HD
BRANCH  32  34
ATOM     34  C   UNL     1       1.236   2.165  -0.059  1.00  0.00     0.175 C 
BRANCH  34  35
ATOM     35  C   UNL     1       2.641   2.007  -0.662  1.00  0.00     0.070 C 
BRANCH  35  36
ATOM     36  C   UNL     1       3.740   2.299   0.334  1.00  0.00    -0.045 A 
ATOM     37  C   UNL     1       4.558   3.426   0.166  1.00  0.00     0.007 A 
ATOM     38  C   UNL     1       3.974   1.443   1.418  1.00  0.00     0.007 A 
ATOM     39  C   UNL     1       5.584   3.697   1.072  1.00  0.00     0.046 A 
ATOM     40  C   UNL     1       5.002   1.712   2.325  1.00  0.00     0.046 A 
ATOM     41  C   UNL     1       5.798   2.838   2.144  1.00  0.00     0.115 A 
BRANCH  41  42
ATOM     42  O   UNL     1       6.812   3.137   3.004  1.00  0.00    -0.508 OA
ATOM     43  H   UNL     1       6.517   2.931   3.907  1.00  0.00     0.293 HD
ENDBRANCH  41  42
ENDBRANCH  35  36
ENDBRANCH  34  35
BRANCH  34  44
ATOM     44  C   UNL     1       1.051   3.540   0.621  1.00  0.00     0.243 C 
ATOM     45  O   UNL     1       1.103   3.727   1.833  1.00  0.00    -0.273 OA
ATOM     46  N   UNL     1       0.688   4.541  -0.255  1.00  0.00    -0.341 N 
ATOM     47  H   UNL     1       0.543   4.312  -1.235  1.00  0.00     0.164 HD
BRANCH  46  48
ATOM     48  C   UNL     1       0.391   5.912   0.167  1.00  0.00     0.196 C 
BRANCH  48  49
ATOM     49  C   UNL     1       1.665   6.773   0.206  1.00  0.00     0.072 C 
BRANCH  49  50
ATOM     50  C   UNL     1       1.695   7.714   1.389  1.00  0.00    -0.045 A 
ATOM     51  C   UNL     1       2.781   8.584   1.563  1.00  0.00     0.007 A 
ATOM     52  C   UNL     1       0.660   7.719   2.333  1.00  0.00     0.007 A 
ATOM     53  C   UNL     1       2.826   9.447   2.658  1.00  0.00     0.046 A 
ATOM     54  C   UNL     1       0.705   8.582   3.430  1.00  0.00     0.046 A 
ATOM     55  C   UNL     1       1.789   9.441   3.582  1.00  0.00     0.115 A 
BRANCH  55  56
ATOM     56  O   UNL     1       1.872  10.298   4.639  1.00  0.00    -0.508 OA
ATOM     57  H   UNL     1       1.655  11.191   4.327  1.00  0.00     0.293 HD
ENDBRANCH  55  56
ENDBRANCH  49  50
ENDBRANCH  48  49
BRANCH  48  58
ATOM     58  C   UNL     1      -0.617   6.529  -0.812  1.00  0.00     0.326 C 
ATOM     59  O   UNL     1      -1.715   6.091  -1.115  1.00  0.00    -0.250 OA
BRANCH  58  60
ATOM     60  O   UNL     1      -0.195   7.696  -1.361  1.00  0.00    -0.480 OA
ATOM     61  H   UNL     1       0.698   7.474  -1.704  1.00  0.00     0.296 HD
ENDBRANCH  58  60
ENDBRANCH  48  58
ENDBRANCH  46  48
ENDBRANCH  34  44
ENDBRANCH  32  34
ENDBRANCH  25  30
ENDBRANCH  23  25
ENDBRANCH   2  23
TORSDOF 28
ENDMDL
MODEL 23
REMARK VINA RESULT:    -6.286     18.301     22.185
REMARK INTER + INTRA:         -20.094
REMARK INTER:                 -16.263
REMARK INTRA:                  -3.830
REMARK UNBOUND:                -4.436
REMARK SMILES CCCCCCC[C@H](N)[C@H](O)C(=O)N[C@H](C)C(=O)N(C)[C@H](CC(C)C)C(=O)N[C@@H](Cc1ccc(O)cc1)C(=O)N[C@@H](Cc1ccc(O)cc1)C(=O)O
REMARK SMILES IDX 18 1 17 2 15 3 16 4 14 5 12 6 13 7 10 9 11 10 8 12 9 13 7 16
REMARK SMILES IDX 6 17 5 18 4 19 3 20 2 21 1 22 19 23 20 24 21 25 22 26 23 27
REMARK SMILES IDX 24 28 25 29 26 30 27 31 28 32 29 34 30 35 31 36 32 37 37 38
REMARK SMILES IDX 33 39 36 40 34 41 35 42 38 44 39 45 40 46 41 48 42 49 43 50
REMARK SMILES IDX 44 51 49 52 45 53 48 54 46 55 47 56 50 58 51 59 52 60
REMARK H PARENT 14 8 11 11 9 14 9 15 28 33 35 43 40 47 47 57 52 61
ROOT
ATOM      1  O   UNL     1      -3.141  -1.649   4.707  1.00  0.00    -0.272 OA
ATOM      2  C   UNL     1      -3.651  -1.830   5.822  1.00  0.00     0.245 C 
ENDROOT
BRANCH   2   3
ATOM      3  C   UNL     1      -5.016  -2.557   5.904  1.00  0.00     0.168 C 
ATOM      4  C   UNL     1      -5.444  -2.746   7.355  1.00  0.00     0.041 C 
BRANCH   3   5
ATOM      5  N   UNL     1      -6.074  -1.964   5.100  1.00  0.00    -0.342 N 
ATOM      6  C   UNL     1      -6.878  -2.726   4.279  1.00  0.00     0.251 C 
ATOM      7  O   UNL     1      -6.741  -3.936   4.131  1.00  0.00    -0.272 OA
ATOM      8  H   UNL     1      -6.260  -0.964   5.112  1.00  0.00     0.164 HD
BRANCH   6   9
ATOM      9  C   UNL     1      -8.014  -1.912   3.638  1.00  0.00     0.219 C 
BRANCH   9  10
ATOM     10  O   UNL     1      -8.117  -2.124   2.225  1.00  0.00    -0.382 OA
ATOM     11  H   UNL     1      -7.463  -2.836   2.050  1.00  0.00     0.211 HD
ENDBRANCH   9  10
BRANCH   9  12
ATOM     12  C   UNL     1      -9.385  -2.131   4.330  1.00  0.00     0.089 C 
BRANCH  12  13
ATOM     13  N   UNL     1      -9.146  -2.743   5.657  1.00  0.00    -0.325 NA
ATOM     14  H   UNL     1     -10.029  -2.786   6.171  1.00  0.00     0.119 HD
ATOM     15  H   UNL     1      -8.548  -2.122   6.205  1.00  0.00     0.119 HD
ENDBRANCH  12  13
BRANCH  12  16
ATOM     16  C   UNL     1     -10.279  -0.876   4.476  1.00  0.00     0.022 C 
BRANCH  16  17
ATOM     17  C   UNL     1     -10.254  -0.091   5.795  1.00  0.00     0.002 C 
BRANCH  17  18
ATOM     18  C   UNL     1      -9.586   1.280   5.716  1.00  0.00     0.000 C 
BRANCH  18  19
ATOM     19  C   UNL     1      -8.501   1.508   6.777  1.00  0.00    -0.000 C 
BRANCH  19  20
ATOM     20  C   UNL     1      -7.725   0.255   7.193  1.00  0.00    -0.000 C 
BRANCH  20  21
ATOM     21  C   UNL     1      -7.738   0.015   8.705  1.00  0.00    -0.003 C 
ATOM     22  C   UNL     1      -8.849  -0.943   9.105  1.00  0.00     0.004 C 
ENDBRANCH  20  21
ENDBRANCH  19  20
ENDBRANCH  18  19
ENDBRANCH  17  18
ENDBRANCH  16  17
ENDBRANCH  12  16
ENDBRANCH   9  12
ENDBRANCH   6   9
ENDBRANCH   3   5
ENDBRANCH   2   3
BRANCH   2  23
ATOM     23  N   UNL     1      -2.946  -1.493   6.973  1.00  0.00    -0.332 N 
ATOM     24  C   UNL     1      -3.154  -0.275   7.742  1.00  0.00     0.147 C 
BRANCH  23  25
ATOM     25  C   UNL     1      -1.987  -2.458   7.576  1.00  0.00     0.174 C 
BRANCH  25  26
ATOM     26  C   UNL     1      -2.166  -2.609   9.105  1.00  0.00     0.038 C 
BRANCH  26  27
ATOM     27  C   UNL     1      -2.814  -3.919   9.608  1.00  0.00    -0.015 C 
ATOM     28  C   UNL     1      -2.584  -5.089   8.652  1.00  0.00     0.007 C 
ATOM     29  C   UNL     1      -2.400  -4.295  11.028  1.00  0.00     0.007 C 
ENDBRANCH  26  27
ENDBRANCH  25  26
BRANCH  25  30
ATOM     30  C   UNL     1      -0.542  -2.109   7.150  1.00  0.00     0.243 C 
ATOM     31  O   UNL     1      -0.197  -2.096   5.970  1.00  0.00    -0.273 OA
ATOM     32  N   UNL     1       0.325  -1.823   8.174  1.00  0.00    -0.342 N 
ATOM     33  H   UNL     1      -0.069  -1.716   9.112  1.00  0.00     0.164 HD
BRANCH  32  34
ATOM     34  C   UNL     1       1.737  -1.497   7.960  1.00  0.00     0.175 C 
BRANCH  34  35
ATOM     35  C   UNL     1       2.192  -0.354   8.880  1.00  0.00     0.070 C 
BRANCH  35  36
ATOM     36  C   UNL     1       3.223   0.543   8.231  1.00  0.00    -0.045 A 
ATOM     37  C   UNL     1       4.588   0.345   8.490  1.00  0.00     0.007 A 
ATOM     38  C   UNL     1       2.834   1.592   7.388  1.00  0.00     0.007 A 
ATOM     39  C   UNL     1       5.545   1.177   7.907  1.00  0.00     0.046 A 
ATOM     40  C   UNL     1       3.791   2.426   6.805  1.00  0.00     0.046 A 
ATOM     41  C   UNL     1       5.140   2.209   7.069  1.00  0.00     0.115 A 
BRANCH  41  42
ATOM     42  O   UNL     1       6.106   3.000   6.523  1.00  0.00    -0.508 OA
ATOM     43  H   UNL     1       6.460   2.550   5.738  1.00  0.00     0.293 HD
ENDBRANCH  41  42
ENDBRANCH  35  36
ENDBRANCH  34  35
BRANCH  34  44
ATOM     44  C   UNL     1       2.564  -2.783   8.185  1.00  0.00     0.243 C 
ATOM     45  O   UNL     1       2.388  -3.567   9.114  1.00  0.00    -0.273 OA
ATOM     46  N   UNL     1       3.623  -2.915   7.313  1.00  0.00    -0.341 N 
ATOM     47  H   UNL     1       3.798  -2.178   6.633  1.00  0.00     0.164 HD
BRANCH  46  48
ATOM     48  C   UNL     1       4.587  -4.016   7.375  1.00  0.00     0.196 C 
BRANCH  48  49
ATOM     49  C   UNL     1       4.500  -4.907   6.124  1.00  0.00     0.072 C 
BRANCH  49  50
ATOM     50  C   UNL     1       4.116  -6.332   6.451  1.00  0.00    -0.045 A 
ATOM     51  C   UNL     1       3.234  -6.593   7.509  1.00  0.00     0.007 A 
ATOM     52  C   UNL     1       4.646  -7.406   5.724  1.00  0.00     0.007 A 
ATOM     53  C   UNL     1       2.882  -7.905   7.829  1.00  0.00     0.046 A 
ATOM     54  C   UNL     1       4.295  -8.720   6.045  1.00  0.00     0.046 A 
ATOM     55  C   UNL     1       3.414  -8.958   7.094  1.00  0.00     0.115 A 
BRANCH  55  56
ATOM     56  O   UNL     1       3.047 -10.225   7.440  1.00  0.00    -0.508 OA
ATOM     57  H   UNL     1       2.080 -10.289   7.385  1.00  0.00     0.293 HD
ENDBRANCH  55  56
ENDBRANCH  49  50
ENDBRANCH  48  49
BRANCH  48  58
ATOM     58  C   UNL     1       6.002  -3.434   7.495  1.00  0.00     0.326 C 
ATOM     59  O   UNL     1       6.463  -2.797   8.429  1.00  0.00    -0.250 OA
BRANCH  58  60
ATOM     60  O   UNL     1       6.790  -3.700   6.423  1.00  0.00    -0.480 OA
ATOM     61  H   UNL     1       6.224  -4.275   5.864  1.00  0.00     0.296 HD
ENDBRANCH  58  60
ENDBRANCH  48  58
ENDBRANCH  46  48
ENDBRANCH  34  44
ENDBRANCH  32  34
ENDBRANCH  25  30
ENDBRANCH  23  25
ENDBRANCH   2  23
TORSDOF 28
ENDMDL
MODEL 24
REMARK VINA RESULT:    -6.278     12.799     17.827
REMARK INTER + INTRA:         -20.074
REMARK INTER:                 -15.573
REMARK INTRA:                  -4.501
REMARK UNBOUND:                -4.436
REMARK SMILES CCCCCCC[C@H](N)[C@H](O)C(=O)N[C@H](C)C(=O)N(C)[C@H](CC(C)C)C(=O)N[C@@H](Cc1ccc(O)cc1)C(=O)N[C@@H](Cc1ccc(O)cc1)C(=O)O
REMARK SMILES IDX 18 1 17 2 15 3 16 4 14 5 12 6 13 7 10 9 11 10 8 12 9 13 7 16
REMARK SMILES IDX 6 17 5 18 4 19 3 20 2 21 1 22 19 23 20 24 21 25 22 26 23 27
REMARK SMILES IDX 24 28 25 29 26 30 27 31 28 32 29 34 30 35 31 36 32 37 37 38
REMARK SMILES IDX 33 39 36 40 34 41 35 42 38 44 39 45 40 46 41 48 42 49 43 50
REMARK SMILES IDX 44 51 49 52 45 53 48 54 46 55 47 56 50 58 51 59 52 60
REMARK H PARENT 14 8 11 11 9 14 9 15 28 33 35 43 40 47 47 57 52 61
ROOT
ATOM      1  O   UNL     1       3.089   6.989   2.945  1.00  0.00    -0.272 OA
ATOM      2  C   UNL     1       1.883   7.138   2.697  1.00  0.00     0.245 C 
ENDROOT
BRANCH   2   3
ATOM      3  C   UNL     1       1.164   6.065   1.842  1.00  0.00     0.168 C 
ATOM      4  C   UNL     1       0.857   6.599   0.447  1.00  0.00     0.041 C 
BRANCH   3   5
ATOM      5  N   UNL     1       1.834   4.774   1.793  1.00  0.00    -0.342 N 
ATOM      6  C   UNL     1       1.165   3.597   2.053  1.00  0.00     0.251 C 
ATOM      7  O   UNL     1      -0.015   3.548   2.382  1.00  0.00    -0.272 OA
ATOM      8  H   UNL     1       2.822   4.691   1.565  1.00  0.00     0.164 HD
BRANCH   6   9
ATOM      9  C   UNL     1       2.033   2.353   1.803  1.00  0.00     0.219 C 
BRANCH   9  10
ATOM     10  O   UNL     1       1.789   1.309   2.754  1.00  0.00    -0.382 OA
ATOM     11  H   UNL     1       1.555   1.794   3.575  1.00  0.00     0.211 HD
ENDBRANCH   9  10
BRANCH   9  12
ATOM     12  C   UNL     1       1.922   1.814   0.353  1.00  0.00     0.089 C 
BRANCH  12  13
ATOM     13  N   UNL     1       1.155   2.793  -0.451  1.00  0.00    -0.325 NA
ATOM     14  H   UNL     1       1.296   3.728  -0.066  1.00  0.00     0.119 HD
ATOM     15  H   UNL     1       0.156   2.605  -0.336  1.00  0.00     0.119 HD
ENDBRANCH  12  13
BRANCH  12  16
ATOM     16  C   UNL     1       3.259   1.480  -0.350  1.00  0.00     0.022 C 
BRANCH  16  17
ATOM     17  C   UNL     1       4.265   0.560   0.355  1.00  0.00     0.002 C 
BRANCH  17  18
ATOM     18  C   UNL     1       5.642   0.485  -0.302  1.00  0.00     0.000 C 
BRANCH  18  19
ATOM     19  C   UNL     1       6.407   1.815  -0.302  1.00  0.00    -0.000 C 
BRANCH  19  20
ATOM     20  C   UNL     1       7.925   1.692  -0.463  1.00  0.00    -0.000 C 
BRANCH  20  21
ATOM     21  C   UNL     1       8.480   2.559  -1.597  1.00  0.00    -0.003 C 
ATOM     22  C   UNL     1       9.994   2.671  -1.519  1.00  0.00     0.004 C 
ENDBRANCH  20  21
ENDBRANCH  19  20
ENDBRANCH  18  19
ENDBRANCH  17  18
ENDBRANCH  16  17
ENDBRANCH  12  16
ENDBRANCH   9  12
ENDBRANCH   6   9
ENDBRANCH   3   5
ENDBRANCH   2   3
BRANCH   2  23
ATOM     23  N   UNL     1       1.176   8.184   3.281  1.00  0.00    -0.332 N 
ATOM     24  C   UNL     1       1.067   9.522   2.719  1.00  0.00     0.147 C 
BRANCH  23  25
ATOM     25  C   UNL     1       0.355   7.947   4.499  1.00  0.00     0.174 C 
BRANCH  25  26
ATOM     26  C   UNL     1      -1.026   8.642   4.440  1.00  0.00     0.038 C 
BRANCH  26  27
ATOM     27  C   UNL     1      -2.264   7.767   4.736  1.00  0.00    -0.015 C 
ATOM     28  C   UNL     1      -2.255   7.205   6.158  1.00  0.00     0.007 C 
ATOM     29  C   UNL     1      -3.588   8.469   4.445  1.00  0.00     0.007 C 
ENDBRANCH  26  27
ENDBRANCH  25  26
BRANCH  25  30
ATOM     30  C   UNL     1       1.171   8.293   5.766  1.00  0.00     0.243 C 
ATOM     31  O   UNL     1       1.647   9.412   5.947  1.00  0.00    -0.273 OA
ATOM     32  N   UNL     1       1.331   7.271   6.666  1.00  0.00    -0.342 N 
ATOM     33  H   UNL     1       0.789   6.416   6.513  1.00  0.00     0.164 HD
BRANCH  32  34
ATOM     34  C   UNL     1       2.097   7.408   7.908  1.00  0.00     0.175 C 
BRANCH  34  35
ATOM     35  C   UNL     1       1.292   6.909   9.118  1.00  0.00     0.070 C 
BRANCH  35  36
ATOM     36  C   UNL     1       0.558   8.022   9.831  1.00  0.00    -0.045 A 
ATOM     37  C   UNL     1       1.093   8.577  11.004  1.00  0.00     0.007 A 
ATOM     38  C   UNL     1      -0.669   8.498   9.350  1.00  0.00     0.007 A 
ATOM     39  C   UNL     1       0.416   9.594  11.677  1.00  0.00     0.046 A 
ATOM     40  C   UNL     1      -1.348   9.516  10.024  1.00  0.00     0.046 A 
ATOM     41  C   UNL     1      -0.797  10.056  11.182  1.00  0.00     0.115 A 
BRANCH  41  42
ATOM     42  O   UNL     1      -1.428  11.050  11.871  1.00  0.00    -0.508 OA
ATOM     43  H   UNL     1      -2.378  11.002  11.672  1.00  0.00     0.293 HD
ENDBRANCH  41  42
ENDBRANCH  35  36
ENDBRANCH  34  35
BRANCH  34  44
ATOM     44  C   UNL     1       3.425   6.637   7.739  1.00  0.00     0.243 C 
ATOM     45  O   UNL     1       3.779   5.701   8.452  1.00  0.00    -0.273 OA
ATOM     46  N   UNL     1       4.257   7.179   6.784  1.00  0.00    -0.341 N 
ATOM     47  H   UNL     1       3.969   8.026   6.300  1.00  0.00     0.164 HD
BRANCH  46  48
ATOM     48  C   UNL     1       5.597   6.662   6.494  1.00  0.00     0.196 C 
BRANCH  48  49
ATOM     49  C   UNL     1       5.778   6.386   4.992  1.00  0.00     0.072 C 
BRANCH  49  50
ATOM     50  C   UNL     1       5.483   4.950   4.624  1.00  0.00    -0.045 A 
ATOM     51  C   UNL     1       4.976   4.070   5.592  1.00  0.00     0.007 A 
ATOM     52  C   UNL     1       5.728   4.472   3.331  1.00  0.00     0.007 A 
ATOM     53  C   UNL     1       4.713   2.739   5.269  1.00  0.00     0.046 A 
ATOM     54  C   UNL     1       5.466   3.139   3.007  1.00  0.00     0.046 A 
ATOM     55  C   UNL     1       4.959   2.284   3.979  1.00  0.00     0.115 A 
BRANCH  55  56
ATOM     56  O   UNL     1       4.690   0.975   3.704  1.00  0.00    -0.508 OA
ATOM     57  H   UNL     1       5.446   0.602   3.224  1.00  0.00     0.293 HD
ENDBRANCH  55  56
ENDBRANCH  49  50
ENDBRANCH  48  49
BRANCH  48  58
ATOM     58  C   UNL     1       6.640   7.688   6.959  1.00  0.00     0.326 C 
ATOM     59  O   UNL     1       7.253   7.692   8.013  1.00  0.00    -0.250 OA
BRANCH  58  60
ATOM     60  O   UNL     1       6.875   8.669   6.051  1.00  0.00    -0.480 OA
ATOM     61  H   UNL     1       6.353   8.385   5.270  1.00  0.00     0.296 HD
ENDBRANCH  58  60
ENDBRANCH  48  58
ENDBRANCH  46  48
ENDBRANCH  34  44
ENDBRANCH  32  34
ENDBRANCH  25  30
ENDBRANCH  23  25
ENDBRANCH   2  23
TORSDOF 28
ENDMDL
MODEL 25
REMARK VINA RESULT:    -6.263     13.453     17.821
REMARK INTER + INTRA:         -20.035
REMARK INTER:                 -16.837
REMARK INTRA:                  -3.198
REMARK UNBOUND:                -4.436
REMARK SMILES CCCCCCC[C@H](N)[C@H](O)C(=O)N[C@H](C)C(=O)N(C)[C@H](CC(C)C)C(=O)N[C@@H](Cc1ccc(O)cc1)C(=O)N[C@@H](Cc1ccc(O)cc1)C(=O)O
REMARK SMILES IDX 18 1 17 2 15 3 16 4 14 5 12 6 13 7 10 9 11 10 8 12 9 13 7 16
REMARK SMILES IDX 6 17 5 18 4 19 3 20 2 21 1 22 19 23 20 24 21 25 22 26 23 27
REMARK SMILES IDX 24 28 25 29 26 30 27 31 28 32 29 34 30 35 31 36 32 37 37 38
REMARK SMILES IDX 33 39 36 40 34 41 35 42 38 44 39 45 40 46 41 48 42 49 43 50
REMARK SMILES IDX 44 51 49 52 45 53 48 54 46 55 47 56 50 58 51 59 52 60
REMARK H PARENT 14 8 11 11 9 14 9 15 28 33 35 43 40 47 47 57 52 61
ROOT
ATOM      1  O   UNL     1      -3.492   2.196  -3.173  1.00  0.00    -0.272 OA
ATOM      2  C   UNL     1      -3.086   1.839  -2.058  1.00  0.00     0.245 C 
ENDROOT
BRANCH   2   3
ATOM      3  C   UNL     1      -2.586   2.921  -1.069  1.00  0.00     0.168 C 
ATOM      4  C   UNL     1      -2.410   2.339   0.329  1.00  0.00     0.041 C 
BRANCH   3   5
ATOM      5  N   UNL     1      -1.404   3.648  -1.506  1.00  0.00    -0.342 N 
ATOM      6  C   UNL     1      -1.343   5.025  -1.474  1.00  0.00     0.251 C 
ATOM      7  O   UNL     1      -2.278   5.736  -1.121  1.00  0.00    -0.272 OA
ATOM      8  H   UNL     1      -0.577   3.168  -1.853  1.00  0.00     0.164 HD
BRANCH   6   9
ATOM      9  C   UNL     1       0.047   5.567  -1.845  1.00  0.00     0.219 C 
BRANCH   9  10
ATOM     10  O   UNL     1       0.059   6.240  -3.110  1.00  0.00    -0.382 OA
ATOM     11  H   UNL     1       0.423   5.567  -3.726  1.00  0.00     0.211 HD
ENDBRANCH   9  10
BRANCH   9  12
ATOM     12  C   UNL     1       0.666   6.462  -0.739  1.00  0.00     0.089 C 
BRANCH  12  13
ATOM     13  N   UNL     1       0.007   7.787  -0.787  1.00  0.00    -0.325 NA
ATOM     14  H   UNL     1      -1.003   7.657  -0.864  1.00  0.00     0.119 HD
ATOM     15  H   UNL     1       0.281   8.262  -1.651  1.00  0.00     0.119 HD
ENDBRANCH  12  13
BRANCH  12  16
ATOM     16  C   UNL     1       0.616   5.895   0.699  1.00  0.00     0.022 C 
BRANCH  16  17
ATOM     17  C   UNL     1       0.542   6.869   1.884  1.00  0.00     0.002 C 
BRANCH  17  18
ATOM     18  C   UNL     1       1.892   7.267   2.476  1.00  0.00     0.000 C 
BRANCH  18  19
ATOM     19  C   UNL     1       2.603   8.391   1.712  1.00  0.00    -0.000 C 
BRANCH  19  20
ATOM     20  C   UNL     1       2.602   9.754   2.411  1.00  0.00    -0.000 C 
BRANCH  20  21
ATOM     21  C   UNL     1       1.734   9.780   3.672  1.00  0.00    -0.003 C 
ATOM     22  C   UNL     1       0.426  10.516   3.429  1.00  0.00     0.004 C 
ENDBRANCH  20  21
ENDBRANCH  19  20
ENDBRANCH  18  19
ENDBRANCH  17  18
ENDBRANCH  16  17
ENDBRANCH  12  16
ENDBRANCH   9  12
ENDBRANCH   6   9
ENDBRANCH   3   5
ENDBRANCH   2   3
BRANCH   2  23
ATOM     23  N   UNL     1      -3.199   0.508  -1.670  1.00  0.00    -0.332 N 
ATOM     24  C   UNL     1      -4.235  -0.011  -0.789  1.00  0.00     0.147 C 
BRANCH  23  25
ATOM     25  C   UNL     1      -2.304  -0.525  -2.260  1.00  0.00     0.174 C 
BRANCH  25  26
ATOM     26  C   UNL     1      -0.804  -0.169  -2.127  1.00  0.00     0.038 C 
BRANCH  26  27
ATOM     27  C   UNL     1      -0.053  -0.749  -0.908  1.00  0.00    -0.015 C 
ATOM     28  C   UNL     1       0.605   0.337  -0.057  1.00  0.00     0.007 C 
ATOM     29  C   UNL     1      -0.916  -1.661  -0.040  1.00  0.00     0.007 C 
ENDBRANCH  26  27
ENDBRANCH  25  26
BRANCH  25  30
ATOM     30  C   UNL     1      -2.741  -0.843  -3.709  1.00  0.00     0.243 C 
ATOM     31  O   UNL     1      -1.923  -1.040  -4.606  1.00  0.00    -0.273 OA
ATOM     32  N   UNL     1      -4.094  -0.884  -3.925  1.00  0.00    -0.342 N 
ATOM     33  H   UNL     1      -4.706  -0.851  -3.105  1.00  0.00     0.164 HD
BRANCH  32  34
ATOM     34  C   UNL     1      -4.689  -1.143  -5.238  1.00  0.00     0.175 C 
BRANCH  34  35
ATOM     35  C   UNL     1      -5.889  -2.097  -5.130  1.00  0.00     0.070 C 
BRANCH  35  36
ATOM     36  C   UNL     1      -5.698  -3.159  -4.070  1.00  0.00    -0.045 A 
ATOM     37  C   UNL     1      -4.707  -4.139  -4.230  1.00  0.00     0.007 A 
ATOM     38  C   UNL     1      -6.516  -3.195  -2.933  1.00  0.00     0.007 A 
ATOM     39  C   UNL     1      -4.533  -5.131  -3.264  1.00  0.00     0.046 A 
ATOM     40  C   UNL     1      -6.343  -4.188  -1.966  1.00  0.00     0.046 A 
ATOM     41  C   UNL     1      -5.351  -5.148  -2.141  1.00  0.00     0.115 A 
BRANCH  41  42
ATOM     42  O   UNL     1      -5.150  -6.135  -1.223  1.00  0.00    -0.508 OA
ATOM     43  H   UNL     1      -5.848  -6.802  -1.335  1.00  0.00     0.293 HD
ENDBRANCH  41  42
ENDBRANCH  35  36
ENDBRANCH  34  35
BRANCH  34  44
ATOM     44  C   UNL     1      -5.085   0.214  -5.861  1.00  0.00     0.243 C 
ATOM     45  O   UNL     1      -4.308   0.960  -6.450  1.00  0.00    -0.273 OA
ATOM     46  N   UNL     1      -6.383   0.587  -5.584  1.00  0.00    -0.341 N 
ATOM     47  H   UNL     1      -6.954  -0.012  -4.992  1.00  0.00     0.164 HD
BRANCH  46  48
ATOM     48  C   UNL     1      -6.963   1.863  -6.010  1.00  0.00     0.196 C 
BRANCH  48  49
ATOM     49  C   UNL     1      -7.528   1.772  -7.438  1.00  0.00     0.072 C 
BRANCH  49  50
ATOM     50  C   UNL     1      -6.668   2.494  -8.450  1.00  0.00    -0.045 A 
ATOM     51  C   UNL     1      -6.725   2.129  -9.803  1.00  0.00     0.007 A 
ATOM     52  C   UNL     1      -5.793   3.514  -8.056  1.00  0.00     0.007 A 
ATOM     53  C   UNL     1      -5.927   2.779 -10.745  1.00  0.00     0.046 A 
ATOM     54  C   UNL     1      -4.992   4.164  -8.999  1.00  0.00     0.046 A 
ATOM     55  C   UNL     1      -5.067   3.791 -10.336  1.00  0.00     0.115 A 
BRANCH  55  56
ATOM     56  O   UNL     1      -4.303   4.399 -11.287  1.00  0.00    -0.508 OA
ATOM     57  H   UNL     1      -3.838   3.713 -11.791  1.00  0.00     0.293 HD
ENDBRANCH  55  56
ENDBRANCH  49  50
ENDBRANCH  48  49
BRANCH  48  58
ATOM     58  C   UNL     1      -8.085   2.251  -5.037  1.00  0.00     0.326 C 
ATOM     59  O   UNL     1      -9.208   2.637  -5.319  1.00  0.00    -0.250 OA
BRANCH  58  60
ATOM     60  O   UNL     1      -7.739   2.120  -3.732  1.00  0.00    -0.480 OA
ATOM     61  H   UNL     1      -6.810   2.437  -3.711  1.00  0.00     0.296 HD
ENDBRANCH  58  60
ENDBRANCH  48  58
ENDBRANCH  46  48
ENDBRANCH  34  44
ENDBRANCH  32  34
ENDBRANCH  25  30
ENDBRANCH  23  25
ENDBRANCH   2  23
TORSDOF 28
ENDMDL
MODEL 26
REMARK VINA RESULT:    -6.260     11.716     17.222
REMARK INTER + INTRA:         -20.029
REMARK INTER:                 -16.791
REMARK INTRA:                  -3.239
REMARK UNBOUND:                -4.436
REMARK SMILES CCCCCCC[C@H](N)[C@H](O)C(=O)N[C@H](C)C(=O)N(C)[C@H](CC(C)C)C(=O)N[C@@H](Cc1ccc(O)cc1)C(=O)N[C@@H](Cc1ccc(O)cc1)C(=O)O
REMARK SMILES IDX 18 1 17 2 15 3 16 4 14 5 12 6 13 7 10 9 11 10 8 12 9 13 7 16
REMARK SMILES IDX 6 17 5 18 4 19 3 20 2 21 1 22 19 23 20 24 21 25 22 26 23 27
REMARK SMILES IDX 24 28 25 29 26 30 27 31 28 32 29 34 30 35 31 36 32 37 37 38
REMARK SMILES IDX 33 39 36 40 34 41 35 42 38 44 39 45 40 46 41 48 42 49 43 50
REMARK SMILES IDX 44 51 49 52 45 53 48 54 46 55 47 56 50 58 51 59 52 60
REMARK H PARENT 14 8 11 11 9 14 9 15 28 33 35 43 40 47 47 57 52 61
ROOT
ATOM      1  O   UNL     1      -3.787   2.574  -5.645  1.00  0.00    -0.272 OA
ATOM      2  C   UNL     1      -3.933   1.349  -5.522  1.00  0.00     0.245 C 
ENDROOT
BRANCH   2   3
ATOM      3  C   UNL     1      -2.896   0.559  -4.685  1.00  0.00     0.168 C 
ATOM      4  C   UNL     1      -1.692   1.432  -4.351  1.00  0.00     0.041 C 
BRANCH   3   5
ATOM      5  N   UNL     1      -3.435  -0.097  -3.504  1.00  0.00    -0.342 N 
ATOM      6  C   UNL     1      -4.094   0.607  -2.518  1.00  0.00     0.251 C 
ATOM      7  O   UNL     1      -4.238   1.824  -2.537  1.00  0.00    -0.272 OA
ATOM      8  H   UNL     1      -3.346  -1.100  -3.360  1.00  0.00     0.164 HD
BRANCH   6   9
ATOM      9  C   UNL     1      -4.700  -0.307  -1.440  1.00  0.00     0.219 C 
BRANCH   9  10
ATOM     10  O   UNL     1      -5.835   0.280  -0.793  1.00  0.00    -0.382 OA
ATOM     11  H   UNL     1      -6.564  -0.348  -0.991  1.00  0.00     0.211 HD
ENDBRANCH   9  10
BRANCH   9  12
ATOM     12  C   UNL     1      -5.039  -1.726  -1.965  1.00  0.00     0.089 C 
BRANCH  12  13
ATOM     13  N   UNL     1      -3.930  -2.637  -1.599  1.00  0.00    -0.325 NA
ATOM     14  H   UNL     1      -4.156  -3.105  -0.720  1.00  0.00     0.119 HD
ATOM     15  H   UNL     1      -3.096  -2.079  -1.397  1.00  0.00     0.119 HD
ENDBRANCH  12  13
BRANCH  12  16
ATOM     16  C   UNL     1      -6.389  -2.318  -1.496  1.00  0.00     0.022 C 
BRANCH  16  17
ATOM     17  C   UNL     1      -7.382  -2.836  -2.546  1.00  0.00     0.002 C 
BRANCH  17  18
ATOM     18  C   UNL     1      -7.458  -4.357  -2.667  1.00  0.00     0.000 C 
BRANCH  18  19
ATOM     19  C   UNL     1      -7.179  -4.885  -4.080  1.00  0.00    -0.000 C 
BRANCH  19  20
ATOM     20  C   UNL     1      -6.090  -5.958  -4.170  1.00  0.00    -0.000 C 
BRANCH  20  21
ATOM     21  C   UNL     1      -5.184  -5.997  -2.936  1.00  0.00    -0.003 C 
ATOM     22  C   UNL     1      -3.733  -5.732  -3.304  1.00  0.00     0.004 C 
ENDBRANCH  20  21
ENDBRANCH  19  20
ENDBRANCH  18  19
ENDBRANCH  17  18
ENDBRANCH  16  17
ENDBRANCH  12  16
ENDBRANCH   9  12
ENDBRANCH   6   9
ENDBRANCH   3   5
ENDBRANCH   2   3
BRANCH   2  23
ATOM     23  N   UNL     1      -5.073   0.730  -6.025  1.00  0.00    -0.332 N 
ATOM     24  C   UNL     1      -5.198  -0.699  -6.269  1.00  0.00     0.147 C 
BRANCH  23  25
ATOM     25  C   UNL     1      -6.323   1.512  -6.230  1.00  0.00     0.174 C 
BRANCH  25  26
ATOM     26  C   UNL     1      -7.602   0.656  -6.071  1.00  0.00     0.038 C 
BRANCH  26  27
ATOM     27  C   UNL     1      -8.951   1.410  -6.054  1.00  0.00    -0.015 C 
ATOM     28  C   UNL     1      -9.694   1.309  -7.385  1.00  0.00     0.007 C 
ATOM     29  C   UNL     1      -9.861   0.999  -4.899  1.00  0.00     0.007 C 
ENDBRANCH  26  27
ENDBRANCH  25  26
BRANCH  25  30
ATOM     30  C   UNL     1      -6.254   2.284  -7.568  1.00  0.00     0.243 C 
ATOM     31  O   UNL     1      -6.258   1.705  -8.653  1.00  0.00    -0.273 OA
ATOM     32  N   UNL     1      -6.182   3.649  -7.462  1.00  0.00    -0.342 N 
ATOM     33  H   UNL     1      -6.327   4.061  -6.536  1.00  0.00     0.164 HD
BRANCH  32  34
ATOM     34  C   UNL     1      -6.083   4.539  -8.621  1.00  0.00     0.175 C 
BRANCH  34  35
ATOM     35  C   UNL     1      -7.396   5.302  -8.854  1.00  0.00     0.070 C 
BRANCH  35  36
ATOM     36  C   UNL     1      -8.327   4.587  -9.807  1.00  0.00    -0.045 A 
ATOM     37  C   UNL     1      -9.714   4.633  -9.600  1.00  0.00     0.007 A 
ATOM     38  C   UNL     1      -7.824   3.854 -10.889  1.00  0.00     0.007 A 
ATOM     39  C   UNL     1     -10.581   3.965 -10.466  1.00  0.00     0.046 A 
ATOM     40  C   UNL     1      -8.690   3.183 -11.756  1.00  0.00     0.046 A 
ATOM     41  C   UNL     1     -10.062   3.246 -11.536  1.00  0.00     0.115 A 
BRANCH  41  42
ATOM     42  O   UNL     1     -10.943   2.605 -12.357  1.00  0.00    -0.508 OA
ATOM     43  H   UNL     1     -11.704   3.191 -12.504  1.00  0.00     0.293 HD
ENDBRANCH  41  42
ENDBRANCH  35  36
ENDBRANCH  34  35
BRANCH  34  44
ATOM     44  C   UNL     1      -4.892   5.497  -8.390  1.00  0.00     0.243 C 
ATOM     45  O   UNL     1      -4.169   5.477  -7.398  1.00  0.00    -0.273 OA
ATOM     46  N   UNL     1      -4.785   6.481  -9.350  1.00  0.00    -0.341 N 
ATOM     47  H   UNL     1      -5.480   6.526 -10.091  1.00  0.00     0.164 HD
BRANCH  46  48
ATOM     48  C   UNL     1      -3.777   7.543  -9.306  1.00  0.00     0.196 C 
BRANCH  48  49
ATOM     49  C   UNL     1      -3.084   7.714 -10.668  1.00  0.00     0.072 C 
BRANCH  49  50
ATOM     50  C   UNL     1      -2.064   6.632 -10.942  1.00  0.00    -0.045 A 
ATOM     51  C   UNL     1      -2.487   5.316 -11.178  1.00  0.00     0.007 A 
ATOM     52  C   UNL     1      -0.693   6.918 -10.944  1.00  0.00     0.007 A 
ATOM     53  C   UNL     1      -1.555   4.307 -11.419  1.00  0.00     0.046 A 
ATOM     54  C   UNL     1       0.241   5.907 -11.184  1.00  0.00     0.046 A 
ATOM     55  C   UNL     1      -0.198   4.610 -11.421  1.00  0.00     0.115 A 
BRANCH  55  56
ATOM     56  O   UNL     1       0.681   3.595 -11.658  1.00  0.00    -0.508 OA
ATOM     57  H   UNL     1       0.931   3.201 -10.807  1.00  0.00     0.293 HD
ENDBRANCH  55  56
ENDBRANCH  49  50
ENDBRANCH  48  49
BRANCH  48  58
ATOM     58  C   UNL     1      -4.456   8.859  -8.904  1.00  0.00     0.326 C 
ATOM     59  O   UNL     1      -3.913   9.918  -8.631  1.00  0.00    -0.250 OA
BRANCH  58  60
ATOM     60  O   UNL     1      -5.810   8.785  -8.880  1.00  0.00    -0.480 OA
ATOM     61  H   UNL     1      -5.994   7.891  -9.243  1.00  0.00     0.296 HD
ENDBRANCH  58  60
ENDBRANCH  48  58
ENDBRANCH  46  48
ENDBRANCH  34  44
ENDBRANCH  32  34
ENDBRANCH  25  30
ENDBRANCH  23  25
ENDBRANCH   2  23
TORSDOF 28
ENDMDL
MODEL 27
REMARK VINA RESULT:    -6.256     12.439     16.631
REMARK INTER + INTRA:         -20.019
REMARK INTER:                 -15.772
REMARK INTRA:                  -4.247
REMARK UNBOUND:                -4.436
REMARK SMILES CCCCCCC[C@H](N)[C@H](O)C(=O)N[C@H](C)C(=O)N(C)[C@H](CC(C)C)C(=O)N[C@@H](Cc1ccc(O)cc1)C(=O)N[C@@H](Cc1ccc(O)cc1)C(=O)O
REMARK SMILES IDX 18 1 17 2 15 3 16 4 14 5 12 6 13 7 10 9 11 10 8 12 9 13 7 16
REMARK SMILES IDX 6 17 5 18 4 19 3 20 2 21 1 22 19 23 20 24 21 25 22 26 23 27
REMARK SMILES IDX 24 28 25 29 26 30 27 31 28 32 29 34 30 35 31 36 32 37 37 38
REMARK SMILES IDX 33 39 36 40 34 41 35 42 38 44 39 45 40 46 41 48 42 49 43 50
REMARK SMILES IDX 44 51 49 52 45 53 48 54 46 55 47 56 50 58 51 59 52 60
REMARK H PARENT 14 8 11 11 9 14 9 15 28 33 35 43 40 47 47 57 52 61
ROOT
ATOM      1  O   UNL     1      -2.071   1.004  -2.810  1.00  0.00    -0.272 OA
ATOM      2  C   UNL     1      -1.067   0.294  -2.654  1.00  0.00     0.245 C 
ENDROOT
BRANCH   2   3
ATOM      3  C   UNL     1      -0.349  -0.260  -3.910  1.00  0.00     0.168 C 
ATOM      4  C   UNL     1       1.090  -0.647  -3.585  1.00  0.00     0.041 C 
BRANCH   3   5
ATOM      5  N   UNL     1      -1.056  -1.329  -4.597  1.00  0.00    -0.342 N 
ATOM      6  C   UNL     1      -1.933  -1.076  -5.630  1.00  0.00     0.251 C 
ATOM      7  O   UNL     1      -2.214   0.054  -6.018  1.00  0.00    -0.272 OA
ATOM      8  H   UNL     1      -0.931  -2.306  -4.341  1.00  0.00     0.164 HD
BRANCH   6   9
ATOM      9  C   UNL     1      -2.453  -2.359  -6.298  1.00  0.00     0.219 C 
BRANCH   9  10
ATOM     10  O   UNL     1      -2.063  -3.545  -5.594  1.00  0.00    -0.382 OA
ATOM     11  H   UNL     1      -1.162  -3.332  -5.264  1.00  0.00     0.211 HD
ENDBRANCH   9  10
BRANCH   9  12
ATOM     12  C   UNL     1      -3.984  -2.342  -6.541  1.00  0.00     0.089 C 
BRANCH  12  13
ATOM     13  N   UNL     1      -4.352  -3.564  -7.294  1.00  0.00    -0.325 NA
ATOM     14  H   UNL     1      -5.111  -3.344  -7.941  1.00  0.00     0.119 HD
ATOM     15  H   UNL     1      -4.745  -4.247  -6.643  1.00  0.00     0.119 HD
ENDBRANCH  12  13
BRANCH  12  16
ATOM     16  C   UNL     1      -4.870  -2.209  -5.280  1.00  0.00     0.022 C 
BRANCH  16  17
ATOM     17  C   UNL     1      -5.022  -3.415  -4.343  1.00  0.00     0.002 C 
BRANCH  17  18
ATOM     18  C   UNL     1      -6.341  -4.173  -4.477  1.00  0.00     0.000 C 
BRANCH  18  19
ATOM     19  C   UNL     1      -6.289  -5.614  -3.951  1.00  0.00    -0.000 C 
BRANCH  19  20
ATOM     20  C   UNL     1      -4.948  -6.037  -3.344  1.00  0.00    -0.000 C 
BRANCH  20  21
ATOM     21  C   UNL     1      -3.896  -6.386  -4.400  1.00  0.00    -0.003 C 
ATOM     22  C   UNL     1      -4.530  -7.028  -5.624  1.00  0.00     0.004 C 
ENDBRANCH  20  21
ENDBRANCH  19  20
ENDBRANCH  18  19
ENDBRANCH  17  18
ENDBRANCH  16  17
ENDBRANCH  12  16
ENDBRANCH   9  12
ENDBRANCH   6   9
ENDBRANCH   3   5
ENDBRANCH   2   3
BRANCH   2  23
ATOM     23  N   UNL     1      -0.536   0.108  -1.382  1.00  0.00    -0.332 N 
ATOM     24  C   UNL     1      -0.268  -1.190  -0.780  1.00  0.00     0.147 C 
BRANCH  23  25
ATOM     25  C   UNL     1      -0.077   1.277  -0.582  1.00  0.00     0.174 C 
BRANCH  25  26
ATOM     26  C   UNL     1       1.210   0.986   0.225  1.00  0.00     0.038 C 
BRANCH  26  27
ATOM     27  C   UNL     1       2.110   2.194   0.567  1.00  0.00    -0.015 C 
ATOM     28  C   UNL     1       3.573   1.798   0.759  1.00  0.00     0.007 C 
ATOM     29  C   UNL     1       1.991   3.343  -0.432  1.00  0.00     0.007 C 
ENDBRANCH  26  27
ENDBRANCH  25  26
BRANCH  25  30
ATOM     30  C   UNL     1      -1.240   1.822   0.279  1.00  0.00     0.243 C 
ATOM     31  O   UNL     1      -1.317   1.595   1.485  1.00  0.00    -0.273 OA
ATOM     32  N   UNL     1      -2.176   2.565  -0.392  1.00  0.00    -0.342 N 
ATOM     33  H   UNL     1      -1.969   2.828  -1.359  1.00  0.00     0.164 HD
BRANCH  32  34
ATOM     34  C   UNL     1      -3.359   3.138   0.256  1.00  0.00     0.175 C 
BRANCH  34  35
ATOM     35  C   UNL     1      -3.515   4.629  -0.082  1.00  0.00     0.070 C 
BRANCH  35  36
ATOM     36  C   UNL     1      -2.202   5.377  -0.045  1.00  0.00    -0.045 A 
ATOM     37  C   UNL     1      -1.703   5.977  -1.212  1.00  0.00     0.007 A 
ATOM     38  C   UNL     1      -1.457   5.464   1.138  1.00  0.00     0.007 A 
ATOM     39  C   UNL     1      -0.485   6.657  -1.191  1.00  0.00     0.046 A 
ATOM     40  C   UNL     1      -0.237   6.145   1.159  1.00  0.00     0.046 A 
ATOM     41  C   UNL     1       0.237   6.737  -0.007  1.00  0.00     0.115 A 
BRANCH  41  42
ATOM     42  O   UNL     1       1.424   7.408  -0.030  1.00  0.00    -0.508 OA
ATOM     43  H   UNL     1       1.361   8.114  -0.694  1.00  0.00     0.293 HD
ENDBRANCH  41  42
ENDBRANCH  35  36
ENDBRANCH  34  35
BRANCH  34  44
ATOM     44  C   UNL     1      -4.591   2.315  -0.182  1.00  0.00     0.243 C 
ATOM     45  O   UNL     1      -5.558   2.076   0.537  1.00  0.00    -0.273 OA
ATOM     46  N   UNL     1      -4.457   1.749  -1.432  1.00  0.00    -0.341 N 
ATOM     47  H   UNL     1      -3.587   1.880  -1.943  1.00  0.00     0.164 HD
BRANCH  46  48
ATOM     48  C   UNL     1      -5.464   0.872  -2.032  1.00  0.00     0.196 C 
BRANCH  48  49
ATOM     49  C   UNL     1      -5.373   0.883  -3.568  1.00  0.00     0.072 C 
BRANCH  49  50
ATOM     50  C   UNL     1      -6.730   0.969  -4.230  1.00  0.00    -0.045 A 
ATOM     51  C   UNL     1      -7.837   1.424  -3.499  1.00  0.00     0.007 A 
ATOM     52  C   UNL     1      -6.906   0.582  -5.564  1.00  0.00     0.007 A 
ATOM     53  C   UNL     1      -9.096   1.495  -4.096  1.00  0.00     0.046 A 
ATOM     54  C   UNL     1      -8.167   0.652  -6.161  1.00  0.00     0.046 A 
ATOM     55  C   UNL     1      -9.252   1.110  -5.421  1.00  0.00     0.115 A 
BRANCH  55  56
ATOM     56  O   UNL     1     -10.499   1.193  -5.967  1.00  0.00    -0.508 OA
ATOM     57  H   UNL     1     -10.495   0.716  -6.812  1.00  0.00     0.293 HD
ENDBRANCH  55  56
ENDBRANCH  49  50
ENDBRANCH  48  49
BRANCH  48  58
ATOM     58  C   UNL     1      -5.254  -0.558  -1.515  1.00  0.00     0.326 C 
ATOM     59  O   UNL     1      -6.004  -1.203  -0.800  1.00  0.00    -0.250 OA
BRANCH  58  60
ATOM     60  O   UNL     1      -4.096  -1.123  -1.941  1.00  0.00    -0.480 OA
ATOM     61  H   UNL     1      -3.929  -0.676  -2.799  1.00  0.00     0.296 HD
ENDBRANCH  58  60
ENDBRANCH  48  58
ENDBRANCH  46  48
ENDBRANCH  34  44
ENDBRANCH  32  34
ENDBRANCH  25  30
ENDBRANCH  23  25
ENDBRANCH   2  23
TORSDOF 28
ENDMDL
MODEL 28
REMARK VINA RESULT:    -6.253     13.431     18.056
REMARK INTER + INTRA:         -20.010
REMARK INTER:                 -16.704
REMARK INTRA:                  -3.306
REMARK UNBOUND:                -4.436
REMARK SMILES CCCCCCC[C@H](N)[C@H](O)C(=O)N[C@H](C)C(=O)N(C)[C@H](CC(C)C)C(=O)N[C@@H](Cc1ccc(O)cc1)C(=O)N[C@@H](Cc1ccc(O)cc1)C(=O)O
REMARK SMILES IDX 18 1 17 2 15 3 16 4 14 5 12 6 13 7 10 9 11 10 8 12 9 13 7 16
REMARK SMILES IDX 6 17 5 18 4 19 3 20 2 21 1 22 19 23 20 24 21 25 22 26 23 27
REMARK SMILES IDX 24 28 25 29 26 30 27 31 28 32 29 34 30 35 31 36 32 37 37 38
REMARK SMILES IDX 33 39 36 40 34 41 35 42 38 44 39 45 40 46 41 48 42 49 43 50
REMARK SMILES IDX 44 51 49 52 45 53 48 54 46 55 47 56 50 58 51 59 52 60
REMARK H PARENT 14 8 11 11 9 14 9 15 28 33 35 43 40 47 47 57 52 61
ROOT
ATOM      1  O   UNL     1      -0.646   2.953  -2.721  1.00  0.00    -0.272 OA
ATOM      2  C   UNL     1      -0.345   2.261  -1.737  1.00  0.00     0.245 C 
ENDROOT
BRANCH   2   3
ATOM      3  C   UNL     1       0.291   2.957  -0.508  1.00  0.00     0.168 C 
ATOM      4  C   UNL     1       1.472   2.150   0.021  1.00  0.00     0.041 C 
BRANCH   3   5
ATOM      5  N   UNL     1       0.637   4.355  -0.709  1.00  0.00    -0.342 N 
ATOM      6  C   UNL     1      -0.192   5.377  -0.297  1.00  0.00     0.251 C 
ATOM      7  O   UNL     1      -1.287   5.191   0.224  1.00  0.00    -0.272 OA
ATOM      8  H   UNL     1       1.505   4.633  -1.162  1.00  0.00     0.164 HD
BRANCH   6   9
ATOM      9  C   UNL     1       0.439   6.766  -0.482  1.00  0.00     0.219 C 
BRANCH   9  10
ATOM     10  O   UNL     1      -0.422   7.677  -1.175  1.00  0.00    -0.382 OA
ATOM     11  H   UNL     1      -0.836   7.120  -1.871  1.00  0.00     0.211 HD
ENDBRANCH   9  10
BRANCH   9  12
ATOM     12  C   UNL     1       0.943   7.388   0.847  1.00  0.00     0.089 C 
BRANCH  12  13
ATOM     13  N   UNL     1       1.091   6.303   1.844  1.00  0.00    -0.325 NA
ATOM     14  H   UNL     1       0.447   5.544   1.613  1.00  0.00     0.119 HD
ATOM     15  H   UNL     1       0.782   6.647   2.756  1.00  0.00     0.119 HD
ENDBRANCH  12  13
BRANCH  12  16
ATOM     16  C   UNL     1       2.251   8.210   0.757  1.00  0.00     0.022 C 
BRANCH  16  17
ATOM     17  C   UNL     1       2.885   8.747   2.048  1.00  0.00     0.002 C 
BRANCH  17  18
ATOM     18  C   UNL     1       2.166   9.941   2.671  1.00  0.00     0.000 C 
BRANCH  18  19
ATOM     19  C   UNL     1       1.228   9.571   3.828  1.00  0.00    -0.000 C 
BRANCH  19  20
ATOM     20  C   UNL     1       1.805   9.790   5.229  1.00  0.00    -0.000 C 
BRANCH  20  21
ATOM     21  C   UNL     1       2.939   8.819   5.569  1.00  0.00    -0.003 C 
ATOM     22  C   UNL     1       2.425   7.617   6.345  1.00  0.00     0.004 C 
ENDBRANCH  20  21
ENDBRANCH  19  20
ENDBRANCH  18  19
ENDBRANCH  17  18
ENDBRANCH  16  17
ENDBRANCH  12  16
ENDBRANCH   9  12
ENDBRANCH   6   9
ENDBRANCH   3   5
ENDBRANCH   2   3
BRANCH   2  23
ATOM     23  N   UNL     1      -0.689   0.914  -1.703  1.00  0.00    -0.332 N 
ATOM     24  C   UNL     1       0.013  -0.136  -2.426  1.00  0.00     0.147 C 
BRANCH  23  25
ATOM     25  C   UNL     1      -1.761   0.435  -0.787  1.00  0.00     0.174 C 
BRANCH  25  26
ATOM     26  C   UNL     1      -1.215  -0.404   0.392  1.00  0.00     0.038 C 
BRANCH  26  27
ATOM     27  C   UNL     1      -1.718  -0.036   1.805  1.00  0.00    -0.015 C 
ATOM     28  C   UNL     1      -0.822  -0.595   2.909  1.00  0.00     0.007 C 
ATOM     29  C   UNL     1      -1.939   1.462   2.000  1.00  0.00     0.007 C 
ENDBRANCH  26  27
ENDBRANCH  25  26
BRANCH  25  30
ATOM     30  C   UNL     1      -2.872  -0.275  -1.594  1.00  0.00     0.243 C 
ATOM     31  O   UNL     1      -3.421  -1.296  -1.184  1.00  0.00    -0.273 OA
ATOM     32  N   UNL     1      -3.197   0.305  -2.793  1.00  0.00    -0.342 N 
ATOM     33  H   UNL     1      -2.800   1.225  -2.998  1.00  0.00     0.164 HD
BRANCH  32  34
ATOM     34  C   UNL     1      -4.207  -0.245  -3.702  1.00  0.00     0.175 C 
BRANCH  34  35
ATOM     35  C   UNL     1      -4.712   0.821  -4.686  1.00  0.00     0.070 C 
BRANCH  35  36
ATOM     36  C   UNL     1      -6.220   0.842  -4.802  1.00  0.00    -0.045 A 
ATOM     37  C   UNL     1      -6.832   0.599  -6.041  1.00  0.00     0.007 A 
ATOM     38  C   UNL     1      -7.022   1.124  -3.688  1.00  0.00     0.007 A 
ATOM     39  C   UNL     1      -8.222   0.630  -6.160  1.00  0.00     0.046 A 
ATOM     40  C   UNL     1      -8.414   1.157  -3.807  1.00  0.00     0.046 A 
ATOM     41  C   UNL     1      -9.001   0.908  -5.043  1.00  0.00     0.115 A 
BRANCH  41  42
ATOM     42  O   UNL     1     -10.355   0.931  -5.203  1.00  0.00    -0.508 OA
ATOM     43  H   UNL     1     -10.730   1.533  -4.538  1.00  0.00     0.293 HD
ENDBRANCH  41  42
ENDBRANCH  35  36
ENDBRANCH  34  35
BRANCH  34  44
ATOM     44  C   UNL     1      -3.584  -1.457  -4.432  1.00  0.00     0.243 C 
ATOM     45  O   UNL     1      -2.392  -1.566  -4.703  1.00  0.00    -0.273 OA
ATOM     46  N   UNL     1      -4.518  -2.367  -4.880  1.00  0.00    -0.341 N 
ATOM     47  H   UNL     1      -5.506  -2.173  -4.733  1.00  0.00     0.164 HD
BRANCH  46  48
ATOM     48  C   UNL     1      -4.174  -3.560  -5.657  1.00  0.00     0.196 C 
BRANCH  48  49
ATOM     49  C   UNL     1      -5.159  -4.708  -5.386  1.00  0.00     0.072 C 
BRANCH  49  50
ATOM     50  C   UNL     1      -5.758  -4.647  -3.998  1.00  0.00    -0.045 A 
ATOM     51  C   UNL     1      -7.014  -4.054  -3.804  1.00  0.00     0.007 A 
ATOM     52  C   UNL     1      -5.066  -5.156  -2.892  1.00  0.00     0.007 A 
ATOM     53  C   UNL     1      -7.570  -3.980  -2.527  1.00  0.00     0.046 A 
ATOM     54  C   UNL     1      -5.622  -5.081  -1.613  1.00  0.00     0.046 A 
ATOM     55  C   UNL     1      -6.871  -4.494  -1.442  1.00  0.00     0.115 A 
BRANCH  55  56
ATOM     56  O   UNL     1      -7.448  -4.399  -0.210  1.00  0.00    -0.508 OA
ATOM     57  H   UNL     1      -6.790  -4.652   0.456  1.00  0.00     0.293 HD
ENDBRANCH  55  56
ENDBRANCH  49  50
ENDBRANCH  48  49
BRANCH  48  58
ATOM     58  C   UNL     1      -4.193  -3.206  -7.150  1.00  0.00     0.326 C 
ATOM     59  O   UNL     1      -5.047  -3.503  -7.969  1.00  0.00    -0.250 OA
BRANCH  58  60
ATOM     60  O   UNL     1      -3.125  -2.469  -7.546  1.00  0.00    -0.480 OA
ATOM     61  H   UNL     1      -2.407  -2.773  -6.949  1.00  0.00     0.296 HD
ENDBRANCH  58  60
ENDBRANCH  48  58
ENDBRANCH  46  48
ENDBRANCH  34  44
ENDBRANCH  32  34
ENDBRANCH  25  30
ENDBRANCH  23  25
ENDBRANCH   2  23
TORSDOF 28
ENDMDL
MODEL 29
REMARK VINA RESULT:    -6.226     10.006     15.764
REMARK INTER + INTRA:         -19.943
REMARK INTER:                 -16.574
REMARK INTRA:                  -3.369
REMARK UNBOUND:                -4.436
REMARK SMILES CCCCCCC[C@H](N)[C@H](O)C(=O)N[C@H](C)C(=O)N(C)[C@H](CC(C)C)C(=O)N[C@@H](Cc1ccc(O)cc1)C(=O)N[C@@H](Cc1ccc(O)cc1)C(=O)O
REMARK SMILES IDX 18 1 17 2 15 3 16 4 14 5 12 6 13 7 10 9 11 10 8 12 9 13 7 16
REMARK SMILES IDX 6 17 5 18 4 19 3 20 2 21 1 22 19 23 20 24 21 25 22 26 23 27
REMARK SMILES IDX 24 28 25 29 26 30 27 31 28 32 29 34 30 35 31 36 32 37 37 38
REMARK SMILES IDX 33 39 36 40 34 41 35 42 38 44 39 45 40 46 41 48 42 49 43 50
REMARK SMILES IDX 44 51 49 52 45 53 48 54 46 55 47 56 50 58 51 59 52 60
REMARK H PARENT 14 8 11 11 9 14 9 15 28 33 35 43 40 47 47 57 52 61
ROOT
ATOM      1  O   UNL     1      -8.505   1.757  -9.023  1.00  0.00    -0.272 OA
ATOM      2  C   UNL     1      -7.637   2.450  -8.472  1.00  0.00     0.245 C 
ENDROOT
BRANCH   2   3
ATOM      3  C   UNL     1      -7.407   2.276  -6.950  1.00  0.00     0.168 C 
ATOM      4  C   UNL     1      -8.702   2.501  -6.177  1.00  0.00     0.041 C 
BRANCH   3   5
ATOM      5  N   UNL     1      -6.757   1.032  -6.568  1.00  0.00    -0.342 N 
ATOM      6  C   UNL     1      -5.385   0.898  -6.567  1.00  0.00     0.251 C 
ATOM      7  O   UNL     1      -4.618   1.787  -6.921  1.00  0.00    -0.272 OA
ATOM      8  H   UNL     1      -7.291   0.212  -6.288  1.00  0.00     0.164 HD
BRANCH   6   9
ATOM      9  C   UNL     1      -4.920  -0.450  -5.994  1.00  0.00     0.219 C 
BRANCH   9  10
ATOM     10  O   UNL     1      -3.668  -0.881  -6.542  1.00  0.00    -0.382 OA
ATOM     11  H   UNL     1      -3.849  -0.952  -7.505  1.00  0.00     0.211 HD
ENDBRANCH   9  10
BRANCH   9  12
ATOM     12  C   UNL     1      -4.879  -0.472  -4.444  1.00  0.00     0.089 C 
BRANCH  12  13
ATOM     13  N   UNL     1      -5.153   0.897  -3.950  1.00  0.00    -0.325 NA
ATOM     14  H   UNL     1      -4.809   0.985  -2.992  1.00  0.00     0.119 HD
ATOM     15  H   UNL     1      -6.166   1.028  -3.882  1.00  0.00     0.119 HD
ENDBRANCH  12  13
BRANCH  12  16
ATOM     16  C   UNL     1      -5.823  -1.485  -3.754  1.00  0.00     0.022 C 
BRANCH  16  17
ATOM     17  C   UNL     1      -5.370  -2.163  -2.454  1.00  0.00     0.002 C 
BRANCH  17  18
ATOM     18  C   UNL     1      -3.999  -2.831  -2.519  1.00  0.00     0.000 C 
BRANCH  18  19
ATOM     19  C   UNL     1      -4.017  -4.236  -3.138  1.00  0.00    -0.000 C 
BRANCH  19  20
ATOM     20  C   UNL     1      -5.167  -5.135  -2.675  1.00  0.00    -0.000 C 
BRANCH  20  21
ATOM     21  C   UNL     1      -5.979  -5.715  -3.836  1.00  0.00    -0.003 C 
ATOM     22  C   UNL     1      -7.326  -5.021  -3.971  1.00  0.00     0.004 C 
ENDBRANCH  20  21
ENDBRANCH  19  20
ENDBRANCH  18  19
ENDBRANCH  17  18
ENDBRANCH  16  17
ENDBRANCH  12  16
ENDBRANCH   9  12
ENDBRANCH   6   9
ENDBRANCH   3   5
ENDBRANCH   2   3
BRANCH   2  23
ATOM     23  N   UNL     1      -6.813   3.270  -9.235  1.00  0.00    -0.332 N 
ATOM     24  C   UNL     1      -6.144   2.857 -10.461  1.00  0.00     0.147 C 
BRANCH  23  25
ATOM     25  C   UNL     1      -6.663   4.711  -8.894  1.00  0.00     0.174 C 
BRANCH  25  26
ATOM     26  C   UNL     1      -7.722   5.605  -9.580  1.00  0.00     0.038 C 
BRANCH  26  27
ATOM     27  C   UNL     1      -8.347   6.731  -8.726  1.00  0.00    -0.015 C 
ATOM     28  C   UNL     1      -8.346   6.401  -7.234  1.00  0.00     0.007 C 
ATOM     29  C   UNL     1      -7.720   8.101  -8.973  1.00  0.00     0.007 C 
ENDBRANCH  26  27
ENDBRANCH  25  26
BRANCH  25  30
ATOM     30  C   UNL     1      -5.207   5.168  -9.144  1.00  0.00     0.243 C 
ATOM     31  O   UNL     1      -4.271   4.763  -8.456  1.00  0.00    -0.273 OA
ATOM     32  N   UNL     1      -5.033   6.056 -10.174  1.00  0.00    -0.342 N 
ATOM     33  H   UNL     1      -5.833   6.234 -10.787  1.00  0.00     0.164 HD
BRANCH  32  34
ATOM     34  C   UNL     1      -3.728   6.617 -10.537  1.00  0.00     0.175 C 
BRANCH  34  35
ATOM     35  C   UNL     1      -3.076   7.332  -9.344  1.00  0.00     0.070 C 
BRANCH  35  36
ATOM     36  C   UNL     1      -3.784   8.616  -8.974  1.00  0.00    -0.045 A 
ATOM     37  C   UNL     1      -3.940   9.632  -9.930  1.00  0.00     0.007 A 
ATOM     38  C   UNL     1      -4.271   8.821  -7.677  1.00  0.00     0.007 A 
ATOM     39  C   UNL     1      -4.580  10.826  -9.594  1.00  0.00     0.046 A 
ATOM     40  C   UNL     1      -4.910  10.016  -7.340  1.00  0.00     0.046 A 
ATOM     41  C   UNL     1      -5.060  11.008  -8.303  1.00  0.00     0.115 A 
BRANCH  41  42
ATOM     42  O   UNL     1      -5.676  12.190  -8.015  1.00  0.00    -0.508 OA
ATOM     43  H   UNL     1      -5.539  12.795  -8.763  1.00  0.00     0.293 HD
ENDBRANCH  41  42
ENDBRANCH  35  36
ENDBRANCH  34  35
BRANCH  34  44
ATOM     44  C   UNL     1      -2.845   5.467 -11.074  1.00  0.00     0.243 C 
ATOM     45  O   UNL     1      -3.279   4.457 -11.621  1.00  0.00    -0.273 OA
ATOM     46  N   UNL     1      -1.509   5.612 -10.766  1.00  0.00    -0.341 N 
ATOM     47  H   UNL     1      -1.214   6.410 -10.208  1.00  0.00     0.164 HD
BRANCH  46  48
ATOM     48  C   UNL     1      -0.491   4.618 -11.110  1.00  0.00     0.196 C 
BRANCH  48  49
ATOM     49  C   UNL     1       0.928   5.192 -10.957  1.00  0.00     0.072 C 
BRANCH  49  50
ATOM     50  C   UNL     1       1.995   4.254 -11.473  1.00  0.00    -0.045 A 
ATOM     51  C   UNL     1       2.942   3.718 -10.589  1.00  0.00     0.007 A 
ATOM     52  C   UNL     1       2.068   3.924 -12.833  1.00  0.00     0.007 A 
ATOM     53  C   UNL     1       3.939   2.862 -11.056  1.00  0.00     0.046 A 
ATOM     54  C   UNL     1       3.067   3.068 -13.301  1.00  0.00     0.046 A 
ATOM     55  C   UNL     1       3.994   2.543 -12.407  1.00  0.00     0.115 A 
BRANCH  55  56
ATOM     56  O   UNL     1       4.985   1.704 -12.824  1.00  0.00    -0.508 OA
ATOM     57  H   UNL     1       5.469   1.390 -12.043  1.00  0.00     0.293 HD
ENDBRANCH  55  56
ENDBRANCH  49  50
ENDBRANCH  48  49
BRANCH  48  58
ATOM     58  C   UNL     1      -0.654   3.398 -10.193  1.00  0.00     0.326 C 
ATOM     59  O   UNL     1      -0.191   2.281 -10.359  1.00  0.00    -0.250 OA
BRANCH  58  60
ATOM     60  O   UNL     1      -1.393   3.650  -9.083  1.00  0.00    -0.480 OA
ATOM     61  H   UNL     1      -1.542   2.757  -8.703  1.00  0.00     0.296 HD
ENDBRANCH  58  60
ENDBRANCH  48  58
ENDBRANCH  46  48
ENDBRANCH  34  44
ENDBRANCH  32  34
ENDBRANCH  25  30
ENDBRANCH  23  25
ENDBRANCH   2  23
TORSDOF 28
ENDMDL
MODEL 30
REMARK VINA RESULT:    -6.200     11.706     15.739
REMARK INTER + INTRA:         -19.878
REMARK INTER:                 -16.535
REMARK INTRA:                  -3.343
REMARK UNBOUND:                -4.436
REMARK SMILES CCCCCCC[C@H](N)[C@H](O)C(=O)N[C@H](C)C(=O)N(C)[C@H](CC(C)C)C(=O)N[C@@H](Cc1ccc(O)cc1)C(=O)N[C@@H](Cc1ccc(O)cc1)C(=O)O
REMARK SMILES IDX 18 1 17 2 15 3 16 4 14 5 12 6 13 7 10 9 11 10 8 12 9 13 7 16
REMARK SMILES IDX 6 17 5 18 4 19 3 20 2 21 1 22 19 23 20 24 21 25 22 26 23 27
REMARK SMILES IDX 24 28 25 29 26 30 27 31 28 32 29 34 30 35 31 36 32 37 37 38
REMARK SMILES IDX 33 39 36 40 34 41 35 42 38 44 39 45 40 46 41 48 42 49 43 50
REMARK SMILES IDX 44 51 49 52 45 53 48 54 46 55 47 56 50 58 51 59 52 60
REMARK H PARENT 14 8 11 11 9 14 9 15 28 33 35 43 40 47 47 57 52 61
ROOT
ATOM      1  O   UNL     1      -1.350  -1.277   0.504  1.00  0.00    -0.272 OA
ATOM      2  C   UNL     1      -2.081  -0.506  -0.135  1.00  0.00     0.245 C 
ENDROOT
BRANCH   2   3
ATOM      3  C   UNL     1      -2.579  -0.947  -1.534  1.00  0.00     0.168 C 
ATOM      4  C   UNL     1      -1.654  -0.424  -2.628  1.00  0.00     0.041 C 
BRANCH   3   5
ATOM      5  N   UNL     1      -2.831  -2.373  -1.672  1.00  0.00    -0.342 N 
ATOM      6  C   UNL     1      -4.048  -2.859  -2.099  1.00  0.00     0.251 C 
ATOM      7  O   UNL     1      -5.012  -2.143  -2.350  1.00  0.00    -0.272 OA
ATOM      8  H   UNL     1      -2.118  -3.066  -1.459  1.00  0.00     0.164 HD
BRANCH   6   9
ATOM      9  C   UNL     1      -4.040  -4.382  -2.306  1.00  0.00     0.219 C 
BRANCH   9  10
ATOM     10  O   UNL     1      -4.998  -5.057  -1.481  1.00  0.00    -0.382 OA
ATOM     11  H   UNL     1      -5.854  -4.882  -1.930  1.00  0.00     0.211 HD
ENDBRANCH   9  10
BRANCH   9  12
ATOM     12  C   UNL     1      -4.205  -4.795  -3.792  1.00  0.00     0.089 C 
BRANCH  12  13
ATOM     13  N   UNL     1      -3.289  -5.925  -4.067  1.00  0.00    -0.325 NA
ATOM     14  H   UNL     1      -2.824  -5.770  -4.964  1.00  0.00     0.119 HD
ATOM     15  H   UNL     1      -3.842  -6.776  -4.197  1.00  0.00     0.119 HD
ENDBRANCH  12  13
BRANCH  12  16
ATOM     16  C   UNL     1      -5.642  -5.154  -4.241  1.00  0.00     0.022 C 
BRANCH  16  17
ATOM     17  C   UNL     1      -6.539  -4.054  -4.824  1.00  0.00     0.002 C 
BRANCH  17  18
ATOM     18  C   UNL     1      -5.919  -3.255  -5.967  1.00  0.00     0.000 C 
BRANCH  18  19
ATOM     19  C   UNL     1      -5.758  -1.759  -5.668  1.00  0.00    -0.000 C 
BRANCH  19  20
ATOM     20  C   UNL     1      -4.344  -1.205  -5.866  1.00  0.00    -0.000 C 
BRANCH  20  21
ATOM     21  C   UNL     1      -3.374  -2.233  -6.454  1.00  0.00    -0.003 C 
ATOM     22  C   UNL     1      -2.161  -2.426  -5.557  1.00  0.00     0.004 C 
ENDBRANCH  20  21
ENDBRANCH  19  20
ENDBRANCH  18  19
ENDBRANCH  17  18
ENDBRANCH  16  17
ENDBRANCH  12  16
ENDBRANCH   9  12
ENDBRANCH   6   9
ENDBRANCH   3   5
ENDBRANCH   2   3
BRANCH   2  23
ATOM     23  N   UNL     1      -2.536   0.669   0.454  1.00  0.00    -0.332 N 
ATOM     24  C   UNL     1      -3.756   1.365   0.073  1.00  0.00     0.147 C 
BRANCH  23  25
ATOM     25  C   UNL     1      -1.837   1.234   1.640  1.00  0.00     0.174 C 
BRANCH  25  26
ATOM     26  C   UNL     1      -2.809   1.822   2.689  1.00  0.00     0.038 C 
BRANCH  26  27
ATOM     27  C   UNL     1      -3.236   0.891   3.847  1.00  0.00    -0.015 C 
ATOM     28  C   UNL     1      -4.671   0.388   3.693  1.00  0.00     0.007 C 
ATOM     29  C   UNL     1      -2.279  -0.277   4.071  1.00  0.00     0.007 C 
ENDBRANCH  26  27
ENDBRANCH  25  26
BRANCH  25  30
ATOM     30  C   UNL     1      -0.738   2.224   1.188  1.00  0.00     0.243 C 
ATOM     31  O   UNL     1      -0.946   3.078   0.328  1.00  0.00    -0.273 OA
ATOM     32  N   UNL     1       0.478   2.082   1.805  1.00  0.00    -0.342 N 
ATOM     33  H   UNL     1       0.532   1.447   2.606  1.00  0.00     0.164 HD
BRANCH  32  34
ATOM     34  C   UNL     1       1.642   2.913   1.484  1.00  0.00     0.175 C 
BRANCH  34  35
ATOM     35  C   UNL     1       2.084   2.716   0.026  1.00  0.00     0.070 C 
BRANCH  35  36
ATOM     36  C   UNL     1       3.512   2.231  -0.092  1.00  0.00    -0.045 A 
ATOM     37  C   UNL     1       4.571   3.150  -0.050  1.00  0.00     0.007 A 
ATOM     38  C   UNL     1       3.796   0.870  -0.265  1.00  0.00     0.007 A 
ATOM     39  C   UNL     1       5.891   2.713  -0.172  1.00  0.00     0.046 A 
ATOM     40  C   UNL     1       5.117   0.432  -0.388  1.00  0.00     0.046 A 
ATOM     41  C   UNL     1       6.153   1.359  -0.339  1.00  0.00     0.115 A 
BRANCH  41  42
ATOM     42  O   UNL     1       7.456   0.974  -0.457  1.00  0.00    -0.508 OA
ATOM     43  H   UNL     1       7.643   0.317   0.235  1.00  0.00     0.293 HD
ENDBRANCH  41  42
ENDBRANCH  35  36
ENDBRANCH  34  35
BRANCH  34  44
ATOM     44  C   UNL     1       1.276   4.384   1.782  1.00  0.00     0.243 C 
ATOM     45  O   UNL     1       1.021   4.823   2.900  1.00  0.00    -0.273 OA
ATOM     46  N   UNL     1       1.129   5.154   0.648  1.00  0.00    -0.341 N 
ATOM     47  H   UNL     1       1.236   4.716  -0.264  1.00  0.00     0.164 HD
BRANCH  46  48
ATOM     48  C   UNL     1       0.720   6.560   0.676  1.00  0.00     0.196 C 
BRANCH  48  49
ATOM     49  C   UNL     1       1.938   7.498   0.679  1.00  0.00     0.072 C 
BRANCH  49  50
ATOM     50  C   UNL     1       2.097   8.241   1.986  1.00  0.00    -0.045 A 
ATOM     51  C   UNL     1       3.019   7.788   2.941  1.00  0.00     0.007 A 
ATOM     52  C   UNL     1       1.318   9.370   2.273  1.00  0.00     0.007 A 
ATOM     53  C   UNL     1       3.164   8.458   4.156  1.00  0.00     0.046 A 
ATOM     54  C   UNL     1       1.463  10.040   3.490  1.00  0.00     0.046 A 
ATOM     55  C   UNL     1       2.387   9.578   4.421  1.00  0.00     0.115 A 
BRANCH  55  56
ATOM     56  O   UNL     1       2.558  10.203   5.621  1.00  0.00    -0.508 OA
ATOM     57  H   UNL     1       1.697  10.252   6.066  1.00  0.00     0.293 HD
ENDBRANCH  55  56
ENDBRANCH  49  50
ENDBRANCH  48  49
BRANCH  48  58
ATOM     58  C   UNL     1      -0.151   6.851  -0.555  1.00  0.00     0.326 C 
ATOM     59  O   UNL     1       0.110   7.597  -1.485  1.00  0.00    -0.250 OA
BRANCH  58  60
ATOM     60  O   UNL     1      -1.322   6.166  -0.564  1.00  0.00    -0.480 OA
ATOM     61  H   UNL     1      -1.924   6.755  -1.068  1.00  0.00     0.296 HD
ENDBRANCH  58  60
ENDBRANCH  48  58
ENDBRANCH  46  48
ENDBRANCH  34  44
ENDBRANCH  32  34
ENDBRANCH  25  30
ENDBRANCH  23  25
ENDBRANCH   2  23
TORSDOF 28
ENDMDL
MODEL 31
REMARK VINA RESULT:    -6.178     14.940     20.620
REMARK INTER + INTRA:         -19.824
REMARK INTER:                 -12.890
REMARK INTRA:                  -6.934
REMARK UNBOUND:                -4.436
REMARK SMILES CCCCCCC[C@H](N)[C@H](O)C(=O)N[C@H](C)C(=O)N(C)[C@H](CC(C)C)C(=O)N[C@@H](Cc1ccc(O)cc1)C(=O)N[C@@H](Cc1ccc(O)cc1)C(=O)O
REMARK SMILES IDX 18 1 17 2 15 3 16 4 14 5 12 6 13 7 10 9 11 10 8 12 9 13 7 16
REMARK SMILES IDX 6 17 5 18 4 19 3 20 2 21 1 22 19 23 20 24 21 25 22 26 23 27
REMARK SMILES IDX 24 28 25 29 26 30 27 31 28 32 29 34 30 35 31 36 32 37 37 38
REMARK SMILES IDX 33 39 36 40 34 41 35 42 38 44 39 45 40 46 41 48 42 49 43 50
REMARK SMILES IDX 44 51 49 52 45 53 48 54 46 55 47 56 50 58 51 59 52 60
REMARK H PARENT 14 8 11 11 9 14 9 15 28 33 35 43 40 47 47 57 52 61
ROOT
ATOM      1  O   UNL     1      -3.494   6.472   9.263  1.00  0.00    -0.272 OA
ATOM      2  C   UNL     1      -2.737   7.257   8.673  1.00  0.00     0.245 C 
ENDROOT
BRANCH   2   3
ATOM      3  C   UNL     1      -2.349   8.582   9.376  1.00  0.00     0.168 C 
ATOM      4  C   UNL     1      -3.571   9.237  10.010  1.00  0.00     0.041 C 
BRANCH   3   5
ATOM      5  N   UNL     1      -1.244   8.473  10.316  1.00  0.00    -0.342 N 
ATOM      6  C   UNL     1      -0.072   9.180  10.147  1.00  0.00     0.251 C 
ATOM      7  O   UNL     1       0.145   9.910   9.185  1.00  0.00    -0.272 OA
ATOM      8  H   UNL     1      -1.294   7.872  11.135  1.00  0.00     0.164 HD
BRANCH   6   9
ATOM      9  C   UNL     1       0.894   9.021  11.332  1.00  0.00     0.219 C 
BRANCH   9  10
ATOM     10  O   UNL     1       0.286   9.344  12.588  1.00  0.00    -0.382 OA
ATOM     11  H   UNL     1       1.051   9.542  13.171  1.00  0.00     0.211 HD
ENDBRANCH   9  10
BRANCH   9  12
ATOM     12  C   UNL     1       1.566   7.624  11.387  1.00  0.00     0.089 C 
BRANCH  12  13
ATOM     13  N   UNL     1       0.752   6.749  12.261  1.00  0.00    -0.325 NA
ATOM     14  H   UNL     1       0.502   7.260  13.110  1.00  0.00     0.119 HD
ATOM     15  H   UNL     1       1.331   5.969  12.581  1.00  0.00     0.119 HD
ENDBRANCH  12  13
BRANCH  12  16
ATOM     16  C   UNL     1       1.810   6.935  10.024  1.00  0.00     0.022 C 
BRANCH  16  17
ATOM     17  C   UNL     1       2.934   5.896   9.903  1.00  0.00     0.002 C 
BRANCH  17  18
ATOM     18  C   UNL     1       2.467   4.474   9.601  1.00  0.00     0.000 C 
BRANCH  18  19
ATOM     19  C   UNL     1       1.171   4.402   8.782  1.00  0.00    -0.000 C 
BRANCH  19  20
ATOM     20  C   UNL     1       0.568   3.002   8.641  1.00  0.00    -0.000 C 
BRANCH  20  21
ATOM     21  C   UNL     1       1.043   2.268   7.384  1.00  0.00    -0.003 C 
ATOM     22  C   UNL     1       0.909   3.143   6.147  1.00  0.00     0.004 C 
ENDBRANCH  20  21
ENDBRANCH  19  20
ENDBRANCH  18  19
ENDBRANCH  17  18
ENDBRANCH  16  17
ENDBRANCH  12  16
ENDBRANCH   9  12
ENDBRANCH   6   9
ENDBRANCH   3   5
ENDBRANCH   2   3
BRANCH   2  23
ATOM     23  N   UNL     1      -2.159   6.889   7.463  1.00  0.00    -0.332 N 
ATOM     24  C   UNL     1      -1.804   5.525   7.098  1.00  0.00     0.147 C 
BRANCH  23  25
ATOM     25  C   UNL     1      -1.979   7.894   6.380  1.00  0.00     0.174 C 
BRANCH  25  26
ATOM     26  C   UNL     1      -3.103   7.844   5.319  1.00  0.00     0.038 C 
BRANCH  26  27
ATOM     27  C   UNL     1      -3.905   9.144   5.086  1.00  0.00    -0.015 C 
ATOM     28  C   UNL     1      -5.092   8.938   4.145  1.00  0.00     0.007 C 
ATOM     29  C   UNL     1      -4.356   9.819   6.378  1.00  0.00     0.007 C 
ENDBRANCH  26  27
ENDBRANCH  25  26
BRANCH  25  30
ATOM     30  C   UNL     1      -0.557   7.786   5.784  1.00  0.00     0.243 C 
ATOM     31  O   UNL     1      -0.362   7.393   4.635  1.00  0.00    -0.273 OA
ATOM     32  N   UNL     1       0.467   8.149   6.621  1.00  0.00    -0.342 N 
ATOM     33  H   UNL     1       0.218   8.597   7.507  1.00  0.00     0.164 HD
BRANCH  32  34
ATOM     34  C   UNL     1       1.879   8.085   6.236  1.00  0.00     0.175 C 
BRANCH  34  35
ATOM     35  C   UNL     1       2.288   6.656   5.847  1.00  0.00     0.070 C 
BRANCH  35  36
ATOM     36  C   UNL     1       3.621   6.248   6.434  1.00  0.00    -0.045 A 
ATOM     37  C   UNL     1       4.469   7.219   6.989  1.00  0.00     0.007 A 
ATOM     38  C   UNL     1       4.037   4.911   6.412  1.00  0.00     0.007 A 
ATOM     39  C   UNL     1       5.707   6.855   7.520  1.00  0.00     0.046 A 
ATOM     40  C   UNL     1       5.277   4.546   6.942  1.00  0.00     0.046 A 
ATOM     41  C   UNL     1       6.100   5.522   7.493  1.00  0.00     0.115 A 
BRANCH  41  42
ATOM     42  O   UNL     1       7.318   5.209   8.019  1.00  0.00    -0.508 OA
ATOM     43  H   UNL     1       7.349   4.249   8.165  1.00  0.00     0.293 HD
ENDBRANCH  41  42
ENDBRANCH  35  36
ENDBRANCH  34  35
BRANCH  34  44
ATOM     44  C   UNL     1       2.106   9.085   5.080  1.00  0.00     0.243 C 
ATOM     45  O   UNL     1       2.026  10.305   5.192  1.00  0.00    -0.273 OA
ATOM     46  N   UNL     1       2.283   8.477   3.855  1.00  0.00    -0.341 N 
ATOM     47  H   UNL     1       2.225   7.463   3.794  1.00  0.00     0.164 HD
BRANCH  46  48
ATOM     48  C   UNL     1       2.449   9.219   2.604  1.00  0.00     0.196 C 
BRANCH  48  49
ATOM     49  C   UNL     1       3.930   9.318   2.203  1.00  0.00     0.072 C 
BRANCH  49  50
ATOM     50  C   UNL     1       4.747   8.146   2.699  1.00  0.00    -0.045 A 
ATOM     51  C   UNL     1       5.855   8.368   3.529  1.00  0.00     0.007 A 
ATOM     52  C   UNL     1       4.427   6.835   2.324  1.00  0.00     0.007 A 
ATOM     53  C   UNL     1       6.624   7.296   3.982  1.00  0.00     0.046 A 
ATOM     54  C   UNL     1       5.197   5.762   2.776  1.00  0.00     0.046 A 
ATOM     55  C   UNL     1       6.290   6.002   3.603  1.00  0.00     0.115 A 
BRANCH  55  56
ATOM     56  O   UNL     1       7.067   4.982   4.065  1.00  0.00    -0.508 OA
ATOM     57  H   UNL     1       7.279   4.396   3.321  1.00  0.00     0.293 HD
ENDBRANCH  55  56
ENDBRANCH  49  50
ENDBRANCH  48  49
BRANCH  48  58
ATOM     58  C   UNL     1       1.662   8.508   1.494  1.00  0.00     0.326 C 
ATOM     59  O   UNL     1       2.011   8.329   0.338  1.00  0.00    -0.250 OA
BRANCH  58  60
ATOM     60  O   UNL     1       0.458   8.034   1.902  1.00  0.00    -0.480 OA
ATOM     61  H   UNL     1       0.698   7.325   2.538  1.00  0.00     0.296 HD
ENDBRANCH  58  60
ENDBRANCH  48  58
ENDBRANCH  46  48
ENDBRANCH  34  44
ENDBRANCH  32  34
ENDBRANCH  25  30
ENDBRANCH  23  25
ENDBRANCH   2  23
TORSDOF 28
ENDMDL
MODEL 32
REMARK VINA RESULT:    -6.130     15.611     20.676
REMARK INTER + INTRA:         -19.703
REMARK INTER:                 -15.231
REMARK INTRA:                  -4.472
REMARK UNBOUND:                -4.436
REMARK SMILES CCCCCCC[C@H](N)[C@H](O)C(=O)N[C@H](C)C(=O)N(C)[C@H](CC(C)C)C(=O)N[C@@H](Cc1ccc(O)cc1)C(=O)N[C@@H](Cc1ccc(O)cc1)C(=O)O
REMARK SMILES IDX 18 1 17 2 15 3 16 4 14 5 12 6 13 7 10 9 11 10 8 12 9 13 7 16
REMARK SMILES IDX 6 17 5 18 4 19 3 20 2 21 1 22 19 23 20 24 21 25 22 26 23 27
REMARK SMILES IDX 24 28 25 29 26 30 27 31 28 32 29 34 30 35 31 36 32 37 37 38
REMARK SMILES IDX 33 39 36 40 34 41 35 42 38 44 39 45 40 46 41 48 42 49 43 50
REMARK SMILES IDX 44 51 49 52 45 53 48 54 46 55 47 56 50 58 51 59 52 60
REMARK H PARENT 14 8 11 11 9 14 9 15 28 33 35 43 40 47 47 57 52 61
ROOT
ATOM      1  O   UNL     1      -0.151   7.350   8.075  1.00  0.00    -0.272 OA
ATOM      2  C   UNL     1       0.729   6.593   8.510  1.00  0.00     0.245 C 
ENDROOT
BRANCH   2   3
ATOM      3  C   UNL     1       1.218   6.785   9.967  1.00  0.00     0.168 C 
ATOM      4  C   UNL     1       2.731   6.617  10.058  1.00  0.00     0.041 C 
BRANCH   3   5
ATOM      5  N   UNL     1       0.770   8.013  10.605  1.00  0.00    -0.342 N 
ATOM      6  C   UNL     1       0.533   8.085  11.961  1.00  0.00     0.251 C 
ATOM      7  O   UNL     1       0.639   7.125  12.718  1.00  0.00    -0.272 OA
ATOM      8  H   UNL     1       0.613   8.867  10.074  1.00  0.00     0.164 HD
BRANCH   6   9
ATOM      9  C   UNL     1       0.208   9.511  12.434  1.00  0.00     0.219 C 
BRANCH   9  10
ATOM     10  O   UNL     1       1.043  10.500  11.820  1.00  0.00    -0.382 OA
ATOM     11  H   UNL     1       0.924  11.290  12.392  1.00  0.00     0.211 HD
ENDBRANCH   9  10
BRANCH   9  12
ATOM     12  C   UNL     1      -1.291   9.879  12.273  1.00  0.00     0.089 C 
BRANCH  12  13
ATOM     13  N   UNL     1      -1.397  10.995  11.306  1.00  0.00    -0.325 NA
ATOM     14  H   UNL     1      -0.729  11.726  11.562  1.00  0.00     0.119 HD
ATOM     15  H   UNL     1      -2.318  11.430  11.402  1.00  0.00     0.119 HD
ENDBRANCH  12  13
BRANCH  12  16
ATOM     16  C   UNL     1      -2.232   8.723  11.856  1.00  0.00     0.022 C 
BRANCH  16  17
ATOM     17  C   UNL     1      -3.722   8.809  12.211  1.00  0.00     0.002 C 
BRANCH  17  18
ATOM     18  C   UNL     1      -4.677   8.464  11.070  1.00  0.00     0.000 C 
BRANCH  18  19
ATOM     19  C   UNL     1      -3.988   7.863   9.838  1.00  0.00    -0.000 C 
BRANCH  19  20
ATOM     20  C   UNL     1      -4.001   8.749   8.589  1.00  0.00    -0.000 C 
BRANCH  20  21
ATOM     21  C   UNL     1      -4.023  10.245   8.915  1.00  0.00    -0.003 C 
ATOM     22  C   UNL     1      -4.575  11.057   7.754  1.00  0.00     0.004 C 
ENDBRANCH  20  21
ENDBRANCH  19  20
ENDBRANCH  18  19
ENDBRANCH  17  18
ENDBRANCH  16  17
ENDBRANCH  12  16
ENDBRANCH   9  12
ENDBRANCH   6   9
ENDBRANCH   3   5
ENDBRANCH   2   3
BRANCH   2  23
ATOM     23  N   UNL     1       1.170   5.523   7.739  1.00  0.00    -0.332 N 
ATOM     24  C   UNL     1       0.841   4.128   7.996  1.00  0.00     0.147 C 
BRANCH  23  25
ATOM     25  C   UNL     1       1.930   5.766   6.482  1.00  0.00     0.174 C 
BRANCH  25  26
ATOM     26  C   UNL     1       2.989   6.884   6.625  1.00  0.00     0.038 C 
BRANCH  26  27
ATOM     27  C   UNL     1       4.460   6.494   6.356  1.00  0.00    -0.015 C 
ATOM     28  C   UNL     1       5.392   6.907   7.495  1.00  0.00     0.007 C 
ATOM     29  C   UNL     1       4.645   5.017   6.020  1.00  0.00     0.007 C 
ENDBRANCH  26  27
ENDBRANCH  25  26
BRANCH  25  30
ATOM     30  C   UNL     1       0.954   5.981   5.303  1.00  0.00     0.243 C 
ATOM     31  O   UNL     1       0.791   5.130   4.429  1.00  0.00    -0.273 OA
ATOM     32  N   UNL     1       0.291   7.182   5.293  1.00  0.00    -0.342 N 
ATOM     33  H   UNL     1       0.372   7.774   6.124  1.00  0.00     0.164 HD
BRANCH  32  34
ATOM     34  C   UNL     1      -0.651   7.569   4.240  1.00  0.00     0.175 C 
BRANCH  34  35
ATOM     35  C   UNL     1      -1.627   8.648   4.732  1.00  0.00     0.070 C 
BRANCH  35  36
ATOM     36  C   UNL     1      -3.075   8.261   4.534  1.00  0.00    -0.045 A 
ATOM     37  C   UNL     1      -4.094   9.182   4.821  1.00  0.00     0.007 A 
ATOM     38  C   UNL     1      -3.422   6.979   4.088  1.00  0.00     0.007 A 
ATOM     39  C   UNL     1      -5.433   8.829   4.654  1.00  0.00     0.046 A 
ATOM     40  C   UNL     1      -4.763   6.624   3.922  1.00  0.00     0.046 A 
ATOM     41  C   UNL     1      -5.757   7.554   4.206  1.00  0.00     0.115 A 
BRANCH  41  42
ATOM     42  O   UNL     1      -7.078   7.249   4.060  1.00  0.00    -0.508 OA
ATOM     43  H   UNL     1      -7.258   6.431   4.553  1.00  0.00     0.293 HD
ENDBRANCH  41  42
ENDBRANCH  35  36
ENDBRANCH  34  35
BRANCH  34  44
ATOM     44  C   UNL     1       0.167   8.045   3.018  1.00  0.00     0.243 C 
ATOM     45  O   UNL     1       0.549   9.199   2.846  1.00  0.00    -0.273 OA
ATOM     46  N   UNL     1       0.326   7.074   2.052  1.00  0.00    -0.341 N 
ATOM     47  H   UNL     1      -0.110   6.166   2.189  1.00  0.00     0.164 HD
BRANCH  46  48
ATOM     48  C   UNL     1       1.006   7.310   0.776  1.00  0.00     0.196 C 
BRANCH  48  49
ATOM     49  C   UNL     1       2.347   6.560   0.710  1.00  0.00     0.072 C 
BRANCH  49  50
ATOM     50  C   UNL     1       3.434   7.241   1.510  1.00  0.00    -0.045 A 
ATOM     51  C   UNL     1       3.554   8.638   1.479  1.00  0.00     0.007 A 
ATOM     52  C   UNL     1       4.344   6.495   2.270  1.00  0.00     0.007 A 
ATOM     53  C   UNL     1       4.562   9.276   2.203  1.00  0.00     0.046 A 
ATOM     54  C   UNL     1       5.354   7.134   2.994  1.00  0.00     0.046 A 
ATOM     55  C   UNL     1       5.453   8.521   2.955  1.00  0.00     0.115 A 
BRANCH  55  56
ATOM     56  O   UNL     1       6.424   9.183   3.646  1.00  0.00    -0.508 OA
ATOM     57  H   UNL     1       6.364   8.926   4.580  1.00  0.00     0.293 HD
ENDBRANCH  55  56
ENDBRANCH  49  50
ENDBRANCH  48  49
BRANCH  48  58
ATOM     58  C   UNL     1       0.097   6.841  -0.368  1.00  0.00     0.326 C 
ATOM     59  O   UNL     1      -0.593   5.835  -0.399  1.00  0.00    -0.250 OA
BRANCH  58  60
ATOM     60  O   UNL     1       0.088   7.684  -1.432  1.00  0.00    -0.480 OA
ATOM     61  H   UNL     1       0.986   7.574  -1.814  1.00  0.00     0.296 HD
ENDBRANCH  58  60
ENDBRANCH  48  58
ENDBRANCH  46  48
ENDBRANCH  34  44
ENDBRANCH  32  34
ENDBRANCH  25  30
ENDBRANCH  23  25
ENDBRANCH   2  23
TORSDOF 28
ENDMDL
MODEL 33
REMARK VINA RESULT:    -6.126     14.980     20.655
REMARK INTER + INTRA:         -19.694
REMARK INTER:                 -13.074
REMARK INTRA:                  -6.620
REMARK UNBOUND:                -4.436
REMARK SMILES CCCCCCC[C@H](N)[C@H](O)C(=O)N[C@H](C)C(=O)N(C)[C@H](CC(C)C)C(=O)N[C@@H](Cc1ccc(O)cc1)C(=O)N[C@@H](Cc1ccc(O)cc1)C(=O)O
REMARK SMILES IDX 18 1 17 2 15 3 16 4 14 5 12 6 13 7 10 9 11 10 8 12 9 13 7 16
REMARK SMILES IDX 6 17 5 18 4 19 3 20 2 21 1 22 19 23 20 24 21 25 22 26 23 27
REMARK SMILES IDX 24 28 25 29 26 30 27 31 28 32 29 34 30 35 31 36 32 37 37 38
REMARK SMILES IDX 33 39 36 40 34 41 35 42 38 44 39 45 40 46 41 48 42 49 43 50
REMARK SMILES IDX 44 51 49 52 45 53 48 54 46 55 47 56 50 58 51 59 52 60
REMARK H PARENT 14 8 11 11 9 14 9 15 28 33 35 43 40 47 47 57 52 61
ROOT
ATOM      1  O   UNL     1      -1.269   5.588   6.922  1.00  0.00    -0.272 OA
ATOM      2  C   UNL     1      -2.293   6.208   7.244  1.00  0.00     0.245 C 
ENDROOT
BRANCH   2   3
ATOM      3  C   UNL     1      -2.485   6.599   8.731  1.00  0.00     0.168 C 
ATOM      4  C   UNL     1      -2.583   5.356   9.609  1.00  0.00     0.041 C 
BRANCH   3   5
ATOM      5  N   UNL     1      -1.512   7.550   9.244  1.00  0.00    -0.342 N 
ATOM      6  C   UNL     1      -1.869   8.560  10.111  1.00  0.00     0.251 C 
ATOM      7  O   UNL     1      -3.021   8.760  10.480  1.00  0.00    -0.272 OA
ATOM      8  H   UNL     1      -0.530   7.507   8.981  1.00  0.00     0.164 HD
BRANCH   6   9
ATOM      9  C   UNL     1      -0.658   9.352  10.632  1.00  0.00     0.219 C 
BRANCH   9  10
ATOM     10  O   UNL     1      -0.987  10.705  10.971  1.00  0.00    -0.382 OA
ATOM     11  H   UNL     1      -0.827  11.198  10.136  1.00  0.00     0.211 HD
ENDBRANCH   9  10
BRANCH   9  12
ATOM     12  C   UNL     1       0.068   8.650  11.808  1.00  0.00     0.089 C 
BRANCH  12  13
ATOM     13  N   UNL     1      -0.772   7.522  12.270  1.00  0.00    -0.325 NA
ATOM     14  H   UNL     1      -1.325   7.822  13.075  1.00  0.00     0.119 HD
ATOM     15  H   UNL     1      -0.164   6.780  12.625  1.00  0.00     0.119 HD
ENDBRANCH  12  13
BRANCH  12  16
ATOM     16  C   UNL     1       1.507   8.159  11.520  1.00  0.00     0.022 C 
BRANCH  16  17
ATOM     17  C   UNL     1       1.709   6.811  10.814  1.00  0.00     0.002 C 
BRANCH  17  18
ATOM     18  C   UNL     1       1.954   6.902   9.310  1.00  0.00     0.000 C 
BRANCH  18  19
ATOM     19  C   UNL     1       3.130   6.050   8.816  1.00  0.00    -0.000 C 
BRANCH  19  20
ATOM     20  C   UNL     1       3.980   6.691   7.715  1.00  0.00    -0.000 C 
BRANCH  20  21
ATOM     21  C   UNL     1       5.483   6.626   8.004  1.00  0.00    -0.003 C 
ATOM     22  C   UNL     1       6.258   7.595   7.124  1.00  0.00     0.004 C 
ENDBRANCH  20  21
ENDBRANCH  19  20
ENDBRANCH  18  19
ENDBRANCH  17  18
ENDBRANCH  16  17
ENDBRANCH  12  16
ENDBRANCH   9  12
ENDBRANCH   6   9
ENDBRANCH   3   5
ENDBRANCH   2   3
BRANCH   2  23
ATOM     23  N   UNL     1      -3.179   6.644   6.265  1.00  0.00    -0.332 N 
ATOM     24  C   UNL     1      -4.028   5.769   5.471  1.00  0.00     0.147 C 
BRANCH  23  25
ATOM     25  C   UNL     1      -3.408   8.100   6.054  1.00  0.00     0.174 C 
BRANCH  25  26
ATOM     26  C   UNL     1      -4.875   8.432   5.691  1.00  0.00     0.038 C 
BRANCH  26  27
ATOM     27  C   UNL     1      -5.674   9.276   6.709  1.00  0.00    -0.015 C 
ATOM     28  C   UNL     1      -6.491   8.413   7.670  1.00  0.00     0.007 C 
ATOM     29  C   UNL     1      -4.813  10.272   7.481  1.00  0.00     0.007 C 
ENDBRANCH  26  27
ENDBRANCH  25  26
BRANCH  25  30
ATOM     30  C   UNL     1      -2.377   8.661   5.049  1.00  0.00     0.243 C 
ATOM     31  O   UNL     1      -2.566   9.715   4.444  1.00  0.00    -0.273 OA
ATOM     32  N   UNL     1      -1.247   7.905   4.874  1.00  0.00    -0.342 N 
ATOM     33  H   UNL     1      -1.098   7.120   5.514  1.00  0.00     0.164 HD
BRANCH  32  34
ATOM     34  C   UNL     1      -0.175   8.267   3.942  1.00  0.00     0.175 C 
BRANCH  34  35
ATOM     35  C   UNL     1       0.853   9.196   4.607  1.00  0.00     0.070 C 
BRANCH  35  36
ATOM     36  C   UNL     1       2.199   9.165   3.919  1.00  0.00    -0.045 A 
ATOM     37  C   UNL     1       2.330   9.655   2.611  1.00  0.00     0.007 A 
ATOM     38  C   UNL     1       3.323   8.630   4.562  1.00  0.00     0.007 A 
ATOM     39  C   UNL     1       3.565   9.618   1.963  1.00  0.00     0.046 A 
ATOM     40  C   UNL     1       4.560   8.592   3.913  1.00  0.00     0.046 A 
ATOM     41  C   UNL     1       4.669   9.088   2.619  1.00  0.00     0.115 A 
BRANCH  41  42
ATOM     42  O   UNL     1       5.857   9.068   1.949  1.00  0.00    -0.508 OA
ATOM     43  H   UNL     1       6.574   9.018   2.603  1.00  0.00     0.293 HD
ENDBRANCH  41  42
ENDBRANCH  35  36
ENDBRANCH  34  35
BRANCH  34  44
ATOM     44  C   UNL     1       0.473   6.962   3.427  1.00  0.00     0.243 C 
ATOM     45  O   UNL     1       0.610   6.677   2.241  1.00  0.00    -0.273 OA
ATOM     46  N   UNL     1       0.775   6.066   4.431  1.00  0.00    -0.341 N 
ATOM     47  H   UNL     1       0.535   6.301   5.391  1.00  0.00     0.164 HD
BRANCH  46  48
ATOM     48  C   UNL     1       1.334   4.736   4.181  1.00  0.00     0.196 C 
BRANCH  48  49
ATOM     49  C   UNL     1       2.681   4.550   4.900  1.00  0.00     0.072 C 
BRANCH  49  50
ATOM     50  C   UNL     1       3.862   4.895   4.021  1.00  0.00    -0.045 A 
ATOM     51  C   UNL     1       5.145   4.987   4.578  1.00  0.00     0.007 A 
ATOM     52  C   UNL     1       3.693   5.146   2.653  1.00  0.00     0.007 A 
ATOM     53  C   UNL     1       6.240   5.318   3.780  1.00  0.00     0.046 A 
ATOM     54  C   UNL     1       4.789   5.478   1.853  1.00  0.00     0.046 A 
ATOM     55  C   UNL     1       6.054   5.560   2.424  1.00  0.00     0.115 A 
BRANCH  55  56
ATOM     56  O   UNL     1       7.150   5.881   1.679  1.00  0.00    -0.508 OA
ATOM     57  H   UNL     1       7.777   6.356   2.247  1.00  0.00     0.293 HD
ENDBRANCH  55  56
ENDBRANCH  49  50
ENDBRANCH  48  49
BRANCH  48  58
ATOM     58  C   UNL     1       0.338   3.676   4.673  1.00  0.00     0.326 C 
ATOM     59  O   UNL     1       0.597   2.588   5.160  1.00  0.00    -0.250 OA
BRANCH  58  60
ATOM     60  O   UNL     1      -0.960   4.049   4.539  1.00  0.00    -0.480 OA
ATOM     61  H   UNL     1      -1.360   3.788   5.397  1.00  0.00     0.296 HD
ENDBRANCH  58  60
ENDBRANCH  48  58
ENDBRANCH  46  48
ENDBRANCH  34  44
ENDBRANCH  32  34
ENDBRANCH  25  30
ENDBRANCH  23  25
ENDBRANCH   2  23
TORSDOF 28
ENDMDL
MODEL 34
REMARK VINA RESULT:    -6.116     15.349     20.322
REMARK INTER + INTRA:         -19.669
REMARK INTER:                 -15.077
REMARK INTRA:                  -4.592
REMARK UNBOUND:                -4.436
REMARK SMILES CCCCCCC[C@H](N)[C@H](O)C(=O)N[C@H](C)C(=O)N(C)[C@H](CC(C)C)C(=O)N[C@@H](Cc1ccc(O)cc1)C(=O)N[C@@H](Cc1ccc(O)cc1)C(=O)O
REMARK SMILES IDX 18 1 17 2 15 3 16 4 14 5 12 6 13 7 10 9 11 10 8 12 9 13 7 16
REMARK SMILES IDX 6 17 5 18 4 19 3 20 2 21 1 22 19 23 20 24 21 25 22 26 23 27
REMARK SMILES IDX 24 28 25 29 26 30 27 31 28 32 29 34 30 35 31 36 32 37 37 38
REMARK SMILES IDX 33 39 36 40 34 41 35 42 38 44 39 45 40 46 41 48 42 49 43 50
REMARK SMILES IDX 44 51 49 52 45 53 48 54 46 55 47 56 50 58 51 59 52 60
REMARK H PARENT 14 8 11 11 9 14 9 15 28 33 35 43 40 47 47 57 52 61
ROOT
ATOM      1  O   UNL     1      -3.455   2.802   4.037  1.00  0.00    -0.272 OA
ATOM      2  C   UNL     1      -3.985   2.056   3.200  1.00  0.00     0.245 C 
ENDROOT
BRANCH   2   3
ATOM      3  C   UNL     1      -4.333   0.605   3.615  1.00  0.00     0.168 C 
ATOM      4  C   UNL     1      -3.359   0.096   4.673  1.00  0.00     0.041 C 
BRANCH   3   5
ATOM      5  N   UNL     1      -5.718   0.397   4.009  1.00  0.00    -0.342 N 
ATOM      6  C   UNL     1      -6.673  -0.033   3.112  1.00  0.00     0.251 C 
ATOM      7  O   UNL     1      -6.444  -0.232   1.924  1.00  0.00    -0.272 OA
ATOM      8  H   UNL     1      -6.035   0.563   4.961  1.00  0.00     0.164 HD
BRANCH   6   9
ATOM      9  C   UNL     1      -8.028  -0.320   3.779  1.00  0.00     0.219 C 
BRANCH   9  10
ATOM     10  O   UNL     1      -9.050   0.596   3.369  1.00  0.00    -0.382 OA
ATOM     11  H   UNL     1      -9.573   0.741   4.187  1.00  0.00     0.211 HD
ENDBRANCH   9  10
BRANCH   9  12
ATOM     12  C   UNL     1      -8.498  -1.787   3.598  1.00  0.00     0.089 C 
BRANCH  12  13
ATOM     13  N   UNL     1      -7.334  -2.602   3.178  1.00  0.00    -0.325 NA
ATOM     14  H   UNL     1      -7.519  -3.584   3.389  1.00  0.00     0.119 HD
ATOM     15  H   UNL     1      -6.529  -2.351   3.757  1.00  0.00     0.119 HD
ENDBRANCH  12  13
BRANCH  12  16
ATOM     16  C   UNL     1      -9.185  -2.434   4.824  1.00  0.00     0.022 C 
BRANCH  16  17
ATOM     17  C   UNL     1      -9.646  -1.539   5.982  1.00  0.00     0.002 C 
BRANCH  17  18
ATOM     18  C   UNL     1      -8.796  -1.631   7.247  1.00  0.00     0.000 C 
BRANCH  18  19
ATOM     19  C   UNL     1      -7.295  -1.807   6.979  1.00  0.00    -0.000 C 
BRANCH  19  20
ATOM     20  C   UNL     1      -6.585  -2.813   7.889  1.00  0.00    -0.000 C 
BRANCH  20  21
ATOM     21  C   UNL     1      -5.280  -3.346   7.291  1.00  0.00    -0.003 C 
ATOM     22  C   UNL     1      -5.529  -4.087   5.987  1.00  0.00     0.004 C 
ENDBRANCH  20  21
ENDBRANCH  19  20
ENDBRANCH  18  19
ENDBRANCH  17  18
ENDBRANCH  16  17
ENDBRANCH  12  16
ENDBRANCH   9  12
ENDBRANCH   6   9
ENDBRANCH   3   5
ENDBRANCH   2   3
BRANCH   2  23
ATOM     23  N   UNL     1      -4.366   2.561   1.961  1.00  0.00    -0.332 N 
ATOM     24  C   UNL     1      -5.616   3.258   1.703  1.00  0.00     0.147 C 
BRANCH  23  25
ATOM     25  C   UNL     1      -3.419   2.524   0.812  1.00  0.00     0.174 C 
BRANCH  25  26
ATOM     26  C   UNL     1      -3.462   3.812  -0.044  1.00  0.00     0.038 C 
BRANCH  26  27
ATOM     27  C   UNL     1      -2.376   4.875   0.236  1.00  0.00    -0.015 C 
ATOM     28  C   UNL     1      -1.300   4.371   1.198  1.00  0.00     0.007 C 
ATOM     29  C   UNL     1      -1.741   5.443  -1.030  1.00  0.00     0.007 C 
ENDBRANCH  26  27
ENDBRANCH  25  26
BRANCH  25  30
ATOM     30  C   UNL     1      -3.624   1.228  -0.005  1.00  0.00     0.243 C 
ATOM     31  O   UNL     1      -3.053   0.178   0.288  1.00  0.00    -0.273 OA
ATOM     32  N   UNL     1      -4.476   1.329  -1.075  1.00  0.00    -0.342 N 
ATOM     33  H   UNL     1      -5.018   2.192  -1.168  1.00  0.00     0.164 HD
BRANCH  32  34
ATOM     34  C   UNL     1      -4.767   0.211  -1.976  1.00  0.00     0.175 C 
BRANCH  34  35
ATOM     35  C   UNL     1      -5.897  -0.672  -1.423  1.00  0.00     0.070 C 
BRANCH  35  36
ATOM     36  C   UNL     1      -5.664  -2.144  -1.676  1.00  0.00    -0.045 A 
ATOM     37  C   UNL     1      -6.747  -3.037  -1.671  1.00  0.00     0.007 A 
ATOM     38  C   UNL     1      -4.373  -2.642  -1.894  1.00  0.00     0.007 A 
ATOM     39  C   UNL     1      -6.541  -4.399  -1.889  1.00  0.00     0.046 A 
ATOM     40  C   UNL     1      -4.166  -4.006  -2.111  1.00  0.00     0.046 A 
ATOM     41  C   UNL     1      -5.253  -4.873  -2.108  1.00  0.00     0.115 A 
BRANCH  41  42
ATOM     42  O   UNL     1      -5.095  -6.211  -2.314  1.00  0.00    -0.508 OA
ATOM     43  H   UNL     1      -5.895  -6.549  -2.750  1.00  0.00     0.293 HD
ENDBRANCH  41  42
ENDBRANCH  35  36
ENDBRANCH  34  35
BRANCH  34  44
ATOM     44  C   UNL     1      -5.116   0.794  -3.364  1.00  0.00     0.243 C 
ATOM     45  O   UNL     1      -4.375   1.523  -4.017  1.00  0.00    -0.273 OA
ATOM     46  N   UNL     1      -6.409   0.527  -3.762  1.00  0.00    -0.341 N 
ATOM     47  H   UNL     1      -7.024   0.016  -3.133  1.00  0.00     0.164 HD
BRANCH  46  48
ATOM     48  C   UNL     1      -6.989   1.031  -5.008  1.00  0.00     0.196 C 
BRANCH  48  49
ATOM     49  C   UNL     1      -7.189  -0.100  -6.031  1.00  0.00     0.072 C 
BRANCH  49  50
ATOM     50  C   UNL     1      -6.117  -1.162  -5.941  1.00  0.00    -0.045 A 
ATOM     51  C   UNL     1      -6.432  -2.431  -5.432  1.00  0.00     0.007 A 
ATOM     52  C   UNL     1      -4.801  -0.894  -6.340  1.00  0.00     0.007 A 
ATOM     53  C   UNL     1      -5.448  -3.415  -5.331  1.00  0.00     0.046 A 
ATOM     54  C   UNL     1      -3.816  -1.879  -6.238  1.00  0.00     0.046 A 
ATOM     55  C   UNL     1      -4.149  -3.132  -5.735  1.00  0.00     0.115 A 
BRANCH  55  56
ATOM     56  O   UNL     1      -3.217  -4.121  -5.619  1.00  0.00    -0.508 OA
ATOM     57  H   UNL     1      -3.606  -4.948  -5.944  1.00  0.00     0.293 HD
ENDBRANCH  55  56
ENDBRANCH  49  50
ENDBRANCH  48  49
BRANCH  48  58
ATOM     58  C   UNL     1      -8.340   1.691  -4.699  1.00  0.00     0.326 C 
ATOM     59  O   UNL     1      -9.451   1.223  -4.888  1.00  0.00    -0.250 OA
BRANCH  58  60
ATOM     60  O   UNL     1      -8.226   2.924  -4.144  1.00  0.00    -0.480 OA
ATOM     61  H   UNL     1      -7.608   3.388  -4.750  1.00  0.00     0.296 HD
ENDBRANCH  58  60
ENDBRANCH  48  58
ENDBRANCH  46  48
ENDBRANCH  34  44
ENDBRANCH  32  34
ENDBRANCH  25  30
ENDBRANCH  23  25
ENDBRANCH   2  23
TORSDOF 28
ENDMDL
MODEL 35
REMARK VINA RESULT:    -6.088      8.847     14.381
REMARK INTER + INTRA:         -19.601
REMARK INTER:                 -16.062
REMARK INTRA:                  -3.539
REMARK UNBOUND:                -4.436
REMARK SMILES CCCCCCC[C@H](N)[C@H](O)C(=O)N[C@H](C)C(=O)N(C)[C@H](CC(C)C)C(=O)N[C@@H](Cc1ccc(O)cc1)C(=O)N[C@@H](Cc1ccc(O)cc1)C(=O)O
REMARK SMILES IDX 18 1 17 2 15 3 16 4 14 5 12 6 13 7 10 9 11 10 8 12 9 13 7 16
REMARK SMILES IDX 6 17 5 18 4 19 3 20 2 21 1 22 19 23 20 24 21 25 22 26 23 27
REMARK SMILES IDX 24 28 25 29 26 30 27 31 28 32 29 34 30 35 31 36 32 37 37 38
REMARK SMILES IDX 33 39 36 40 34 41 35 42 38 44 39 45 40 46 41 48 42 49 43 50
REMARK SMILES IDX 44 51 49 52 45 53 48 54 46 55 47 56 50 58 51 59 52 60
REMARK H PARENT 14 8 11 11 9 14 9 15 28 33 35 43 40 47 47 57 52 61
ROOT
ATOM      1  O   UNL     1      -1.459  -1.684  -5.792  1.00  0.00    -0.272 OA
ATOM      2  C   UNL     1      -1.910  -0.695  -5.195  1.00  0.00     0.245 C 
ENDROOT
BRANCH   2   3
ATOM      3  C   UNL     1      -1.207   0.672  -5.388  1.00  0.00     0.168 C 
ATOM      4  C   UNL     1      -1.041   1.389  -4.052  1.00  0.00     0.041 C 
BRANCH   3   5
ATOM      5  N   UNL     1       0.042   0.617  -6.132  1.00  0.00    -0.342 N 
ATOM      6  C   UNL     1       0.358   1.553  -7.094  1.00  0.00     0.251 C 
ATOM      7  O   UNL     1      -0.394   2.465  -7.423  1.00  0.00    -0.272 OA
ATOM      8  H   UNL     1       0.730  -0.115  -5.972  1.00  0.00     0.164 HD
BRANCH   6   9
ATOM      9  C   UNL     1       1.782   1.381  -7.646  1.00  0.00     0.219 C 
BRANCH   9  10
ATOM     10  O   UNL     1       2.588   0.517  -6.835  1.00  0.00    -0.382 OA
ATOM     11  H   UNL     1       3.507   0.745  -7.098  1.00  0.00     0.211 HD
ENDBRANCH   9  10
BRANCH   9  12
ATOM     12  C   UNL     1       1.810   0.928  -9.129  1.00  0.00     0.089 C 
BRANCH  12  13
ATOM     13  N   UNL     1       1.507   2.100  -9.982  1.00  0.00    -0.325 NA
ATOM     14  H   UNL     1       0.962   2.776  -9.443  1.00  0.00     0.119 HD
ATOM     15  H   UNL     1       0.890   1.806 -10.743  1.00  0.00     0.119 HD
ENDBRANCH  12  13
BRANCH  12  16
ATOM     16  C   UNL     1       3.115   0.247  -9.606  1.00  0.00     0.022 C 
BRANCH  16  17
ATOM     17  C   UNL     1       3.972   0.940 -10.675  1.00  0.00     0.002 C 
BRANCH  17  18
ATOM     18  C   UNL     1       5.462   1.021 -10.353  1.00  0.00     0.000 C 
BRANCH  18  19
ATOM     19  C   UNL     1       5.780   1.004  -8.852  1.00  0.00    -0.000 C 
BRANCH  19  20
ATOM     20  C   UNL     1       6.139   2.365  -8.249  1.00  0.00    -0.000 C 
BRANCH  20  21
ATOM     21  C   UNL     1       4.965   3.027  -7.522  1.00  0.00    -0.003 C 
ATOM     22  C   UNL     1       4.259   4.036  -8.415  1.00  0.00     0.004 C 
ENDBRANCH  20  21
ENDBRANCH  19  20
ENDBRANCH  18  19
ENDBRANCH  17  18
ENDBRANCH  16  17
ENDBRANCH  12  16
ENDBRANCH   9  12
ENDBRANCH   6   9
ENDBRANCH   3   5
ENDBRANCH   2   3
BRANCH   2  23
ATOM     23  N   UNL     1      -3.093  -0.800  -4.471  1.00  0.00    -0.332 N 
ATOM     24  C   UNL     1      -4.094   0.252  -4.367  1.00  0.00     0.147 C 
BRANCH  23  25
ATOM     25  C   UNL     1      -3.474  -2.092  -3.838  1.00  0.00     0.174 C 
BRANCH  25  26
ATOM     26  C   UNL     1      -4.899  -2.554  -4.225  1.00  0.00     0.038 C 
BRANCH  26  27
ATOM     27  C   UNL     1      -5.008  -3.681  -5.276  1.00  0.00    -0.015 C 
ATOM     28  C   UNL     1      -4.753  -3.180  -6.698  1.00  0.00     0.007 C 
ATOM     29  C   UNL     1      -4.127  -4.889  -4.966  1.00  0.00     0.007 C 
ENDBRANCH  26  27
ENDBRANCH  25  26
BRANCH  25  30
ATOM     30  C   UNL     1      -3.234  -2.029  -2.312  1.00  0.00     0.243 C 
ATOM     31  O   UNL     1      -3.929  -2.660  -1.518  1.00  0.00    -0.273 OA
ATOM     32  N   UNL     1      -2.203  -1.221  -1.907  1.00  0.00    -0.342 N 
ATOM     33  H   UNL     1      -1.585  -0.843  -2.630  1.00  0.00     0.164 HD
BRANCH  32  34
ATOM     34  C   UNL     1      -1.848  -1.019  -0.499  1.00  0.00     0.175 C 
BRANCH  34  35
ATOM     35  C   UNL     1      -0.328  -1.100  -0.289  1.00  0.00     0.070 C 
BRANCH  35  36
ATOM     36  C   UNL     1       0.296   0.248  -0.009  1.00  0.00    -0.045 A 
ATOM     37  C   UNL     1       0.436   0.696   1.313  1.00  0.00     0.007 A 
ATOM     38  C   UNL     1       0.720   1.075  -1.058  1.00  0.00     0.007 A 
ATOM     39  C   UNL     1       0.998   1.945   1.580  1.00  0.00     0.046 A 
ATOM     40  C   UNL     1       1.282   2.326  -0.791  1.00  0.00     0.046 A 
ATOM     41  C   UNL     1       1.417   2.749   0.527  1.00  0.00     0.115 A 
BRANCH  41  42
ATOM     42  O   UNL     1       1.958   3.963   0.831  1.00  0.00    -0.508 OA
ATOM     43  H   UNL     1       1.380   4.654   0.467  1.00  0.00     0.293 HD
ENDBRANCH  41  42
ENDBRANCH  35  36
ENDBRANCH  34  35
BRANCH  34  44
ATOM     44  C   UNL     1      -2.421   0.345  -0.052  1.00  0.00     0.243 C 
ATOM     45  O   UNL     1      -2.871   0.575   1.067  1.00  0.00    -0.273 OA
ATOM     46  N   UNL     1      -2.507   1.266  -1.075  1.00  0.00    -0.341 N 
ATOM     47  H   UNL     1      -2.230   0.989  -2.013  1.00  0.00     0.164 HD
BRANCH  46  48
ATOM     48  C   UNL     1      -3.079   2.603  -0.908  1.00  0.00     0.196 C 
BRANCH  48  49
ATOM     49  C   UNL     1      -2.702   3.524  -2.081  1.00  0.00     0.072 C 
BRANCH  49  50
ATOM     50  C   UNL     1      -1.787   4.652  -1.664  1.00  0.00    -0.045 A 
ATOM     51  C   UNL     1      -1.609   4.942  -0.303  1.00  0.00     0.007 A 
ATOM     52  C   UNL     1      -1.124   5.433  -2.620  1.00  0.00     0.007 A 
ATOM     53  C   UNL     1      -0.777   5.989   0.093  1.00  0.00     0.046 A 
ATOM     54  C   UNL     1      -0.292   6.483  -2.223  1.00  0.00     0.046 A 
ATOM     55  C   UNL     1      -0.125   6.751  -0.869  1.00  0.00     0.115 A 
BRANCH  55  56
ATOM     56  O   UNL     1       0.678   7.766  -0.440  1.00  0.00    -0.508 OA
ATOM     57  H   UNL     1       1.600   7.468  -0.488  1.00  0.00     0.293 HD
ENDBRANCH  55  56
ENDBRANCH  49  50
ENDBRANCH  48  49
BRANCH  48  58
ATOM     58  C   UNL     1      -4.607   2.485  -0.817  1.00  0.00     0.326 C 
ATOM     59  O   UNL     1      -5.346   1.861  -1.562  1.00  0.00    -0.250 OA
BRANCH  58  60
ATOM     60  O   UNL     1      -5.140   3.157   0.234  1.00  0.00    -0.480 OA
ATOM     61  H   UNL     1      -4.351   3.504   0.704  1.00  0.00     0.296 HD
ENDBRANCH  58  60
ENDBRANCH  48  58
ENDBRANCH  46  48
ENDBRANCH  34  44
ENDBRANCH  32  34
ENDBRANCH  25  30
ENDBRANCH  23  25
ENDBRANCH   2  23
TORSDOF 28
ENDMDL
MODEL 36
REMARK VINA RESULT:    -6.073      2.937      8.781
REMARK INTER + INTRA:         -19.564
REMARK INTER:                 -15.379
REMARK INTRA:                  -4.185
REMARK UNBOUND:                -4.436
REMARK SMILES CCCCCCC[C@H](N)[C@H](O)C(=O)N[C@H](C)C(=O)N(C)[C@H](CC(C)C)C(=O)N[C@@H](Cc1ccc(O)cc1)C(=O)N[C@@H](Cc1ccc(O)cc1)C(=O)O
REMARK SMILES IDX 18 1 17 2 15 3 16 4 14 5 12 6 13 7 10 9 11 10 8 12 9 13 7 16
REMARK SMILES IDX 6 17 5 18 4 19 3 20 2 21 1 22 19 23 20 24 21 25 22 26 23 27
REMARK SMILES IDX 24 28 25 29 26 30 27 31 28 32 29 34 30 35 31 36 32 37 37 38
REMARK SMILES IDX 33 39 36 40 34 41 35 42 38 44 39 45 40 46 41 48 42 49 43 50
REMARK SMILES IDX 44 51 49 52 45 53 48 54 46 55 47 56 50 58 51 59 52 60
REMARK H PARENT 14 8 11 11 9 14 9 15 28 33 35 43 40 47 47 57 52 61
ROOT
ATOM      1  O   UNL     1      17.726   3.035  -7.087  1.00  0.00    -0.272 OA
ATOM      2  C   UNL     1      16.555   3.435  -7.162  1.00  0.00     0.245 C 
ENDROOT
BRANCH   2   3
ATOM      3  C   UNL     1      16.190   4.460  -8.265  1.00  0.00     0.168 C 
ATOM      4  C   UNL     1      17.347   5.421  -8.514  1.00  0.00     0.041 C 
BRANCH   3   5
ATOM      5  N   UNL     1      15.695   3.876  -9.501  1.00  0.00    -0.342 N 
ATOM      6  C   UNL     1      14.383   4.022  -9.902  1.00  0.00     0.251 C 
ATOM      7  O   UNL     1      13.536   4.610  -9.238  1.00  0.00    -0.272 OA
ATOM      8  H   UNL     1      16.297   3.336 -10.118  1.00  0.00     0.164 HD
BRANCH   6   9
ATOM      9  C   UNL     1      14.121   3.447 -11.303  1.00  0.00     0.219 C 
BRANCH   9  10
ATOM     10  O   UNL     1      13.694   2.079 -11.267  1.00  0.00    -0.382 OA
ATOM     11  H   UNL     1      13.671   1.820 -12.215  1.00  0.00     0.211 HD
ENDBRANCH   9  10
BRANCH   9  12
ATOM     12  C   UNL     1      13.142   4.308 -12.141  1.00  0.00     0.089 C 
BRANCH  12  13
ATOM     13  N   UNL     1      13.522   5.731 -11.989  1.00  0.00    -0.325 NA
ATOM     14  H   UNL     1      13.301   6.038 -11.039  1.00  0.00     0.119 HD
ATOM     15  H   UNL     1      12.929   6.299 -12.598  1.00  0.00     0.119 HD
ENDBRANCH  12  13
BRANCH  12  16
ATOM     16  C   UNL     1      13.034   3.945 -13.642  1.00  0.00     0.022 C 
BRANCH  16  17
ATOM     17  C   UNL     1      11.701   3.415 -14.188  1.00  0.00     0.002 C 
BRANCH  17  18
ATOM     18  C   UNL     1      11.472   1.918 -13.991  1.00  0.00     0.000 C 
BRANCH  18  19
ATOM     19  C   UNL     1      11.505   1.104 -15.291  1.00  0.00    -0.000 C 
BRANCH  19  20
ATOM     20  C   UNL     1      12.810   0.348 -15.552  1.00  0.00    -0.000 C 
BRANCH  20  21
ATOM     21  C   UNL     1      13.533  -0.063 -14.267  1.00  0.00    -0.003 C 
ATOM     22  C   UNL     1      14.979   0.408 -14.268  1.00  0.00     0.004 C 
ENDBRANCH  20  21
ENDBRANCH  19  20
ENDBRANCH  18  19
ENDBRANCH  17  18
ENDBRANCH  16  17
ENDBRANCH  12  16
ENDBRANCH   9  12
ENDBRANCH   6   9
ENDBRANCH   3   5
ENDBRANCH   2   3
BRANCH   2  23
ATOM     23  N   UNL     1      15.576   2.876  -6.347  1.00  0.00    -0.332 N 
ATOM     24  C   UNL     1      15.222   1.464  -6.331  1.00  0.00     0.147 C 
BRANCH  23  25
ATOM     25  C   UNL     1      14.895   3.704  -5.314  1.00  0.00     0.174 C 
BRANCH  25  26
ATOM     26  C   UNL     1      15.619   3.678  -3.948  1.00  0.00     0.038 C 
BRANCH  26  27
ATOM     27  C   UNL     1      14.925   4.404  -2.774  1.00  0.00    -0.015 C 
ATOM     28  C   UNL     1      14.547   3.452  -1.640  1.00  0.00     0.007 C 
ATOM     29  C   UNL     1      15.723   5.589  -2.236  1.00  0.00     0.007 C 
ENDBRANCH  26  27
ENDBRANCH  25  26
BRANCH  25  30
ATOM     30  C   UNL     1      13.398   3.327  -5.232  1.00  0.00     0.243 C 
ATOM     31  O   UNL     1      13.016   2.301  -4.671  1.00  0.00    -0.273 OA
ATOM     32  N   UNL     1      12.531   4.206  -5.828  1.00  0.00    -0.342 N 
ATOM     33  H   UNL     1      12.909   5.102  -6.148  1.00  0.00     0.164 HD
BRANCH  32  34
ATOM     34  C   UNL     1      11.081   3.997  -5.872  1.00  0.00     0.175 C 
BRANCH  34  35
ATOM     35  C   UNL     1      10.359   4.876  -4.839  1.00  0.00     0.070 C 
BRANCH  35  36
ATOM     36  C   UNL     1      10.015   4.126  -3.572  1.00  0.00    -0.045 A 
ATOM     37  C   UNL     1      10.923   4.099  -2.503  1.00  0.00     0.007 A 
ATOM     38  C   UNL     1       8.803   3.432  -3.454  1.00  0.00     0.007 A 
ATOM     39  C   UNL     1      10.620   3.398  -1.335  1.00  0.00     0.046 A 
ATOM     40  C   UNL     1       8.500   2.728  -2.285  1.00  0.00     0.046 A 
ATOM     41  C   UNL     1       9.412   2.720  -1.235  1.00  0.00     0.115 A 
BRANCH  41  42
ATOM     42  O   UNL     1       9.156   2.045  -0.079  1.00  0.00    -0.508 OA
ATOM     43  H   UNL     1       8.712   2.652   0.537  1.00  0.00     0.293 HD
ENDBRANCH  41  42
ENDBRANCH  35  36
ENDBRANCH  34  35
BRANCH  34  44
ATOM     44  C   UNL     1      10.599   4.285  -7.312  1.00  0.00     0.243 C 
ATOM     45  O   UNL     1      10.957   5.248  -7.984  1.00  0.00    -0.273 OA
ATOM     46  N   UNL     1       9.613   3.422  -7.742  1.00  0.00    -0.341 N 
ATOM     47  H   UNL     1       9.266   2.710  -7.104  1.00  0.00     0.164 HD
BRANCH  46  48
ATOM     48  C   UNL     1       8.954   3.538  -9.045  1.00  0.00     0.196 C 
BRANCH  48  49
ATOM     49  C   UNL     1       9.827   2.953 -10.169  1.00  0.00     0.072 C 
BRANCH  49  50
ATOM     50  C   UNL     1       9.026   2.585 -11.397  1.00  0.00    -0.045 A 
ATOM     51  C   UNL     1       8.778   1.237 -11.691  1.00  0.00     0.007 A 
ATOM     52  C   UNL     1       8.540   3.573 -12.263  1.00  0.00     0.007 A 
ATOM     53  C   UNL     1       8.051   0.885 -12.829  1.00  0.00     0.046 A 
ATOM     54  C   UNL     1       7.813   3.220 -13.402  1.00  0.00     0.046 A 
ATOM     55  C   UNL     1       7.574   1.878 -13.675  1.00  0.00     0.115 A 
BRANCH  55  56
ATOM     56  O   UNL     1       6.870   1.492 -14.777  1.00  0.00    -0.508 OA
ATOM     57  H   UNL     1       6.741   0.531 -14.737  1.00  0.00     0.293 HD
ENDBRANCH  55  56
ENDBRANCH  49  50
ENDBRANCH  48  49
BRANCH  48  58
ATOM     58  C   UNL     1       7.613   2.792  -8.995  1.00  0.00     0.326 C 
ATOM     59  O   UNL     1       6.542   3.168  -9.441  1.00  0.00    -0.250 OA
BRANCH  58  60
ATOM     60  O   UNL     1       7.690   1.581  -8.387  1.00  0.00    -0.480 OA
ATOM     61  H   UNL     1       8.042   0.996  -9.093  1.00  0.00     0.296 HD
ENDBRANCH  58  60
ENDBRANCH  48  58
ENDBRANCH  46  48
ENDBRANCH  34  44
ENDBRANCH  32  34
ENDBRANCH  25  30
ENDBRANCH  23  25
ENDBRANCH   2  23
TORSDOF 28
ENDMDL
MODEL 37
REMARK VINA RESULT:    -6.067     11.718     15.833
REMARK INTER + INTRA:         -19.548
REMARK INTER:                 -14.602
REMARK INTRA:                  -4.946
REMARK UNBOUND:                -4.436
REMARK SMILES CCCCCCC[C@H](N)[C@H](O)C(=O)N[C@H](C)C(=O)N(C)[C@H](CC(C)C)C(=O)N[C@@H](Cc1ccc(O)cc1)C(=O)N[C@@H](Cc1ccc(O)cc1)C(=O)O
REMARK SMILES IDX 18 1 17 2 15 3 16 4 14 5 12 6 13 7 10 9 11 10 8 12 9 13 7 16
REMARK SMILES IDX 6 17 5 18 4 19 3 20 2 21 1 22 19 23 20 24 21 25 22 26 23 27
REMARK SMILES IDX 24 28 25 29 26 30 27 31 28 32 29 34 30 35 31 36 32 37 37 38
REMARK SMILES IDX 33 39 36 40 34 41 35 42 38 44 39 45 40 46 41 48 42 49 43 50
REMARK SMILES IDX 44 51 49 52 45 53 48 54 46 55 47 56 50 58 51 59 52 60
REMARK H PARENT 14 8 11 11 9 14 9 15 28 33 35 43 40 47 47 57 52 61
ROOT
ATOM      1  O   UNL     1       1.704   2.228   3.683  1.00  0.00    -0.272 OA
ATOM      2  C   UNL     1       2.290   2.305   2.593  1.00  0.00     0.245 C 
ENDROOT
BRANCH   2   3
ATOM      3  C   UNL     1       1.466   2.125   1.294  1.00  0.00     0.168 C 
ATOM      4  C   UNL     1       0.709   0.801   1.311  1.00  0.00     0.041 C 
BRANCH   3   5
ATOM      5  N   UNL     1       0.595   3.243   0.963  1.00  0.00    -0.342 N 
ATOM      6  C   UNL     1       0.776   3.992  -0.180  1.00  0.00     0.251 C 
ATOM      7  O   UNL     1       1.693   3.807  -0.973  1.00  0.00    -0.272 OA
ATOM      8  H   UNL     1      -0.180   3.514   1.563  1.00  0.00     0.164 HD
BRANCH   6   9
ATOM      9  C   UNL     1      -0.342   5.025  -0.396  1.00  0.00     0.219 C 
BRANCH   9  10
ATOM     10  O   UNL     1      -1.401   4.901   0.561  1.00  0.00    -0.382 OA
ATOM     11  H   UNL     1      -2.109   4.436   0.063  1.00  0.00     0.211 HD
ENDBRANCH   9  10
BRANCH   9  12
ATOM     12  C   UNL     1       0.180   6.484  -0.454  1.00  0.00     0.089 C 
BRANCH  12  13
ATOM     13  N   UNL     1      -0.805   7.304  -1.196  1.00  0.00    -0.325 NA
ATOM     14  H   UNL     1      -0.528   8.286  -1.150  1.00  0.00     0.119 HD
ATOM     15  H   UNL     1      -1.706   7.258  -0.713  1.00  0.00     0.119 HD
ENDBRANCH  12  13
BRANCH  12  16
ATOM     16  C   UNL     1       0.501   7.144   0.909  1.00  0.00     0.022 C 
BRANCH  16  17
ATOM     17  C   UNL     1       1.717   8.074   1.020  1.00  0.00     0.002 C 
BRANCH  17  18
ATOM     18  C   UNL     1       1.635   9.112   2.137  1.00  0.00     0.000 C 
BRANCH  18  19
ATOM     19  C   UNL     1       2.957   9.840   2.412  1.00  0.00    -0.000 C 
BRANCH  19  20
ATOM     20  C   UNL     1       4.096   9.508   1.443  1.00  0.00    -0.000 C 
BRANCH  20  21
ATOM     21  C   UNL     1       5.479   9.577   2.097  1.00  0.00    -0.003 C 
ATOM     22  C   UNL     1       6.487  10.263   1.188  1.00  0.00     0.004 C 
ENDBRANCH  20  21
ENDBRANCH  19  20
ENDBRANCH  18  19
ENDBRANCH  17  18
ENDBRANCH  16  17
ENDBRANCH  12  16
ENDBRANCH   9  12
ENDBRANCH   6   9
ENDBRANCH   3   5
ENDBRANCH   2   3
BRANCH   2  23
ATOM     23  N   UNL     1       3.632   2.667   2.549  1.00  0.00    -0.332 N 
ATOM     24  C   UNL     1       4.697   1.980   3.265  1.00  0.00     0.147 C 
BRANCH  23  25
ATOM     25  C   UNL     1       4.090   3.744   1.629  1.00  0.00     0.174 C 
BRANCH  25  26
ATOM     26  C   UNL     1       5.538   3.533   1.127  1.00  0.00     0.038 C 
BRANCH  26  27
ATOM     27  C   UNL     1       5.710   2.836  -0.240  1.00  0.00    -0.015 C 
ATOM     28  C   UNL     1       7.172   2.763  -0.679  1.00  0.00     0.007 C 
ATOM     29  C   UNL     1       5.060   1.456  -0.305  1.00  0.00     0.007 C 
ENDBRANCH  26  27
ENDBRANCH  25  26
BRANCH  25  30
ATOM     30  C   UNL     1       3.850   5.130   2.272  1.00  0.00     0.243 C 
ATOM     31  O   UNL     1       4.348   6.155   1.810  1.00  0.00    -0.273 OA
ATOM     32  N   UNL     1       3.055   5.136   3.389  1.00  0.00    -0.342 N 
ATOM     33  H   UNL     1       2.566   4.269   3.627  1.00  0.00     0.164 HD
BRANCH  32  34
ATOM     34  C   UNL     1       2.743   6.353   4.144  1.00  0.00     0.175 C 
BRANCH  34  35
ATOM     35  C   UNL     1       1.681   6.084   5.222  1.00  0.00     0.070 C 
BRANCH  35  36
ATOM     36  C   UNL     1       0.312   6.594   4.833  1.00  0.00    -0.045 A 
ATOM     37  C   UNL     1      -0.601   5.739   4.197  1.00  0.00     0.007 A 
ATOM     38  C   UNL     1      -0.057   7.923   5.080  1.00  0.00     0.007 A 
ATOM     39  C   UNL     1      -1.862   6.204   3.822  1.00  0.00     0.046 A 
ATOM     40  C   UNL     1      -1.319   8.390   4.704  1.00  0.00     0.046 A 
ATOM     41  C   UNL     1      -2.211   7.524   4.079  1.00  0.00     0.115 A 
BRANCH  41  42
ATOM     42  O   UNL     1      -3.451   7.940   3.694  1.00  0.00    -0.508 OA
ATOM     43  H   UNL     1      -3.544   8.879   3.927  1.00  0.00     0.293 HD
ENDBRANCH  41  42
ENDBRANCH  35  36
ENDBRANCH  34  35
BRANCH  34  44
ATOM     44  C   UNL     1       4.058   6.891   4.751  1.00  0.00     0.243 C 
ATOM     45  O   UNL     1       4.295   8.079   4.950  1.00  0.00    -0.273 OA
ATOM     46  N   UNL     1       5.017   5.916   4.934  1.00  0.00    -0.341 N 
ATOM     47  H   UNL     1       4.814   4.963   4.644  1.00  0.00     0.164 HD
BRANCH  46  48
ATOM     48  C   UNL     1       6.365   6.196   5.432  1.00  0.00     0.196 C 
BRANCH  48  49
ATOM     49  C   UNL     1       6.591   5.571   6.819  1.00  0.00     0.072 C 
BRANCH  49  50
ATOM     50  C   UNL     1       5.300   5.347   7.573  1.00  0.00    -0.045 A 
ATOM     51  C   UNL     1       4.683   4.088   7.543  1.00  0.00     0.007 A 
ATOM     52  C   UNL     1       4.694   6.386   8.290  1.00  0.00     0.007 A 
ATOM     53  C   UNL     1       3.485   3.872   8.224  1.00  0.00     0.046 A 
ATOM     54  C   UNL     1       3.493   6.171   8.971  1.00  0.00     0.046 A 
ATOM     55  C   UNL     1       2.899   4.914   8.933  1.00  0.00     0.115 A 
BRANCH  55  56
ATOM     56  O   UNL     1       1.728   4.663   9.583  1.00  0.00    -0.508 OA
ATOM     57  H   UNL     1       1.933   4.411  10.497  1.00  0.00     0.293 HD
ENDBRANCH  55  56
ENDBRANCH  49  50
ENDBRANCH  48  49
BRANCH  48  58
ATOM     58  C   UNL     1       7.391   5.632   4.440  1.00  0.00     0.326 C 
ATOM     59  O   UNL     1       8.326   6.225   3.926  1.00  0.00    -0.250 OA
BRANCH  58  60
ATOM     60  O   UNL     1       7.197   4.321   4.148  1.00  0.00    -0.480 OA
ATOM     61  H   UNL     1       6.248   4.182   4.354  1.00  0.00     0.296 HD
ENDBRANCH  58  60
ENDBRANCH  48  58
ENDBRANCH  46  48
ENDBRANCH  34  44
ENDBRANCH  32  34
ENDBRANCH  25  30
ENDBRANCH  23  25
ENDBRANCH   2  23
TORSDOF 28
ENDMDL
MODEL 38
REMARK VINA RESULT:    -6.041     14.745     19.916
REMARK INTER + INTRA:         -19.482
REMARK INTER:                 -14.691
REMARK INTRA:                  -4.791
REMARK UNBOUND:                -4.436
REMARK SMILES CCCCCCC[C@H](N)[C@H](O)C(=O)N[C@H](C)C(=O)N(C)[C@H](CC(C)C)C(=O)N[C@@H](Cc1ccc(O)cc1)C(=O)N[C@@H](Cc1ccc(O)cc1)C(=O)O
REMARK SMILES IDX 18 1 17 2 15 3 16 4 14 5 12 6 13 7 10 9 11 10 8 12 9 13 7 16
REMARK SMILES IDX 6 17 5 18 4 19 3 20 2 21 1 22 19 23 20 24 21 25 22 26 23 27
REMARK SMILES IDX 24 28 25 29 26 30 27 31 28 32 29 34 30 35 31 36 32 37 37 38
REMARK SMILES IDX 33 39 36 40 34 41 35 42 38 44 39 45 40 46 41 48 42 49 43 50
REMARK SMILES IDX 44 51 49 52 45 53 48 54 46 55 47 56 50 58 51 59 52 60
REMARK H PARENT 14 8 11 11 9 14 9 15 28 33 35 43 40 47 47 57 52 61
ROOT
ATOM      1  O   UNL     1      -2.712  -0.934  -1.931  1.00  0.00    -0.272 OA
ATOM      2  C   UNL     1      -2.562   0.256  -1.616  1.00  0.00     0.245 C 
ENDROOT
BRANCH   2   3
ATOM      3  C   UNL     1      -2.605   1.329  -2.733  1.00  0.00     0.168 C 
ATOM      4  C   UNL     1      -1.230   1.957  -2.933  1.00  0.00     0.041 C 
BRANCH   3   5
ATOM      5  N   UNL     1      -3.184   0.881  -3.989  1.00  0.00    -0.342 N 
ATOM      6  C   UNL     1      -4.546   0.883  -4.205  1.00  0.00     0.251 C 
ATOM      7  O   UNL     1      -5.365   1.217  -3.355  1.00  0.00    -0.272 OA
ATOM      8  H   UNL     1      -2.606   0.547  -4.757  1.00  0.00     0.164 HD
BRANCH   6   9
ATOM      9  C   UNL     1      -4.920   0.505  -5.648  1.00  0.00     0.219 C 
BRANCH   9  10
ATOM     10  O   UNL     1      -4.410   1.435  -6.612  1.00  0.00    -0.382 OA
ATOM     11  H   UNL     1      -5.121   2.110  -6.680  1.00  0.00     0.211 HD
ENDBRANCH   9  10
BRANCH   9  12
ATOM     12  C   UNL     1      -4.522  -0.947  -6.020  1.00  0.00     0.089 C 
BRANCH  12  13
ATOM     13  N   UNL     1      -3.096  -0.953  -6.419  1.00  0.00    -0.325 NA
ATOM     14  H   UNL     1      -2.841  -1.890  -6.739  1.00  0.00     0.119 HD
ATOM     15  H   UNL     1      -2.520  -0.789  -5.591  1.00  0.00     0.119 HD
ENDBRANCH  12  13
BRANCH  12  16
ATOM     16  C   UNL     1      -4.774  -2.019  -4.932  1.00  0.00     0.022 C 
BRANCH  16  17
ATOM     17  C   UNL     1      -5.955  -2.985  -5.096  1.00  0.00     0.002 C 
BRANCH  17  18
ATOM     18  C   UNL     1      -6.597  -3.446  -3.789  1.00  0.00     0.000 C 
BRANCH  18  19
ATOM     19  C   UNL     1      -6.961  -4.936  -3.763  1.00  0.00    -0.000 C 
BRANCH  19  20
ATOM     20  C   UNL     1      -5.798  -5.884  -3.455  1.00  0.00    -0.000 C 
BRANCH  20  21
ATOM     21  C   UNL     1      -5.169  -6.490  -4.712  1.00  0.00    -0.003 C 
ATOM     22  C   UNL     1      -3.690  -6.149  -4.812  1.00  0.00     0.004 C 
ENDBRANCH  20  21
ENDBRANCH  19  20
ENDBRANCH  18  19
ENDBRANCH  17  18
ENDBRANCH  16  17
ENDBRANCH  12  16
ENDBRANCH   9  12
ENDBRANCH   6   9
ENDBRANCH   3   5
ENDBRANCH   2   3
BRANCH   2  23
ATOM     23  N   UNL     1      -2.481   0.615  -0.275  1.00  0.00    -0.332 N 
ATOM     24  C   UNL     1      -1.421   0.197   0.630  1.00  0.00     0.147 C 
BRANCH  23  25
ATOM     25  C   UNL     1      -3.448   1.591   0.300  1.00  0.00     0.174 C 
BRANCH  25  26
ATOM     26  C   UNL     1      -2.775   2.628   1.230  1.00  0.00     0.038 C 
BRANCH  26  27
ATOM     27  C   UNL     1      -2.280   3.938   0.576  1.00  0.00    -0.015 C 
ATOM     28  C   UNL     1      -0.787   3.900   0.249  1.00  0.00     0.007 C 
ATOM     29  C   UNL     1      -3.089   4.346  -0.653  1.00  0.00     0.007 C 
ENDBRANCH  26  27
ENDBRANCH  25  26
BRANCH  25  30
ATOM     30  C   UNL     1      -4.631   0.844   0.956  1.00  0.00     0.243 C 
ATOM     31  O   UNL     1      -5.383   0.119   0.306  1.00  0.00    -0.273 OA
ATOM     32  N   UNL     1      -4.789   1.049   2.303  1.00  0.00    -0.342 N 
ATOM     33  H   UNL     1      -4.044   1.548   2.796  1.00  0.00     0.164 HD
BRANCH  32  34
ATOM     34  C   UNL     1      -5.871   0.444   3.084  1.00  0.00     0.175 C 
BRANCH  34  35
ATOM     35  C   UNL     1      -5.386   0.029   4.482  1.00  0.00     0.070 C 
BRANCH  35  36
ATOM     36  C   UNL     1      -5.602  -1.441   4.763  1.00  0.00    -0.045 A 
ATOM     37  C   UNL     1      -6.634  -2.136   4.113  1.00  0.00     0.007 A 
ATOM     38  C   UNL     1      -4.797  -2.123   5.685  1.00  0.00     0.007 A 
ATOM     39  C   UNL     1      -6.849  -3.489   4.376  1.00  0.00     0.046 A 
ATOM     40  C   UNL     1      -5.013  -3.477   5.950  1.00  0.00     0.046 A 
ATOM     41  C   UNL     1      -6.037  -4.149   5.290  1.00  0.00     0.115 A 
BRANCH  41  42
ATOM     42  O   UNL     1      -6.283  -5.470   5.521  1.00  0.00    -0.508 OA
ATOM     43  H   UNL     1      -5.560  -5.824   6.065  1.00  0.00     0.293 HD
ENDBRANCH  41  42
ENDBRANCH  35  36
ENDBRANCH  34  35
BRANCH  34  44
ATOM     44  C   UNL     1      -7.035   1.459   3.155  1.00  0.00     0.243 C 
ATOM     45  O   UNL     1      -7.373   2.192   2.230  1.00  0.00    -0.273 OA
ATOM     46  N   UNL     1      -7.593   1.567   4.411  1.00  0.00    -0.341 N 
ATOM     47  H   UNL     1      -7.201   1.021   5.175  1.00  0.00     0.164 HD
BRANCH  46  48
ATOM     48  C   UNL     1      -8.664   2.511   4.738  1.00  0.00     0.196 C 
BRANCH  48  49
ATOM     49  C   UNL     1      -9.589   1.951   5.832  1.00  0.00     0.072 C 
BRANCH  49  50
ATOM     50  C   UNL     1      -9.068   0.664   6.432  1.00  0.00    -0.045 A 
ATOM     51  C   UNL     1      -9.669  -0.557   6.096  1.00  0.00     0.007 A 
ATOM     52  C   UNL     1      -8.002   0.673   7.341  1.00  0.00     0.007 A 
ATOM     53  C   UNL     1      -9.206  -1.749   6.653  1.00  0.00     0.046 A 
ATOM     54  C   UNL     1      -7.539  -0.521   7.900  1.00  0.00     0.046 A 
ATOM     55  C   UNL     1      -8.145  -1.722   7.550  1.00  0.00     0.115 A 
BRANCH  55  56
ATOM     56  O   UNL     1      -7.724  -2.909   8.074  1.00  0.00    -0.508 OA
ATOM     57  H   UNL     1      -8.329  -3.606   7.777  1.00  0.00     0.293 HD
ENDBRANCH  55  56
ENDBRANCH  49  50
ENDBRANCH  48  49
BRANCH  48  58
ATOM     58  C   UNL     1      -8.040   3.828   5.217  1.00  0.00     0.326 C 
ATOM     59  O   UNL     1      -6.861   4.047   5.447  1.00  0.00    -0.250 OA
BRANCH  58  60
ATOM     60  O   UNL     1      -8.941   4.830   5.371  1.00  0.00    -0.480 OA
ATOM     61  H   UNL     1      -8.394   5.641   5.291  1.00  0.00     0.296 HD
ENDBRANCH  58  60
ENDBRANCH  48  58
ENDBRANCH  46  48
ENDBRANCH  34  44
ENDBRANCH  32  34
ENDBRANCH  25  30
ENDBRANCH  23  25
ENDBRANCH   2  23
TORSDOF 28
ENDMDL
MODEL 39
REMARK VINA RESULT:    -6.032     12.354     17.653
REMARK INTER + INTRA:         -19.461
REMARK INTER:                 -15.919
REMARK INTRA:                  -3.543
REMARK UNBOUND:                -4.436
REMARK SMILES CCCCCCC[C@H](N)[C@H](O)C(=O)N[C@H](C)C(=O)N(C)[C@H](CC(C)C)C(=O)N[C@@H](Cc1ccc(O)cc1)C(=O)N[C@@H](Cc1ccc(O)cc1)C(=O)O
REMARK SMILES IDX 18 1 17 2 15 3 16 4 14 5 12 6 13 7 10 9 11 10 8 12 9 13 7 16
REMARK SMILES IDX 6 17 5 18 4 19 3 20 2 21 1 22 19 23 20 24 21 25 22 26 23 27
REMARK SMILES IDX 24 28 25 29 26 30 27 31 28 32 29 34 30 35 31 36 32 37 37 38
REMARK SMILES IDX 33 39 36 40 34 41 35 42 38 44 39 45 40 46 41 48 42 49 43 50
REMARK SMILES IDX 44 51 49 52 45 53 48 54 46 55 47 56 50 58 51 59 52 60
REMARK H PARENT 14 8 11 11 9 14 9 15 28 33 35 43 40 47 47 57 52 61
ROOT
ATOM      1  O   UNL     1      -0.619   2.958  -2.549  1.00  0.00    -0.272 OA
ATOM      2  C   UNL     1      -0.295   2.219  -1.609  1.00  0.00     0.245 C 
ENDROOT
BRANCH   2   3
ATOM      3  C   UNL     1       0.337   2.858  -0.347  1.00  0.00     0.168 C 
ATOM      4  C   UNL     1       1.505   2.018   0.159  1.00  0.00     0.041 C 
BRANCH   3   5
ATOM      5  N   UNL     1       0.700   4.260  -0.489  1.00  0.00    -0.342 N 
ATOM      6  C   UNL     1      -0.191   5.274  -0.208  1.00  0.00     0.251 C 
ATOM      7  O   UNL     1      -1.352   5.079   0.137  1.00  0.00    -0.272 OA
ATOM      8  H   UNL     1       1.625   4.546  -0.802  1.00  0.00     0.164 HD
BRANCH   6   9
ATOM      9  C   UNL     1       0.451   6.669  -0.291  1.00  0.00     0.219 C 
BRANCH   9  10
ATOM     10  O   UNL     1      -0.305   7.578  -1.100  1.00  0.00    -0.382 OA
ATOM     11  H   UNL     1      -0.607   7.022  -1.852  1.00  0.00     0.211 HD
ENDBRANCH   9  10
BRANCH   9  12
ATOM     12  C   UNL     1       0.746   7.286   1.101  1.00  0.00     0.089 C 
BRANCH  12  13
ATOM     13  N   UNL     1       0.156   6.407   2.137  1.00  0.00    -0.325 NA
ATOM     14  H   UNL     1       0.544   6.656   3.049  1.00  0.00     0.119 HD
ATOM     15  H   UNL     1       0.463   5.446   1.970  1.00  0.00     0.119 HD
ENDBRANCH  12  13
BRANCH  12  16
ATOM     16  C   UNL     1       2.236   7.557   1.420  1.00  0.00     0.022 C 
BRANCH  16  17
ATOM     17  C   UNL     1       3.242   6.402   1.327  1.00  0.00     0.002 C 
BRANCH  17  18
ATOM     18  C   UNL     1       4.040   6.138   2.602  1.00  0.00     0.000 C 
BRANCH  18  19
ATOM     19  C   UNL     1       5.065   5.003   2.474  1.00  0.00    -0.000 C 
BRANCH  19  20
ATOM     20  C   UNL     1       5.142   4.350   1.091  1.00  0.00    -0.000 C 
BRANCH  20  21
ATOM     21  C   UNL     1       4.986   2.828   1.137  1.00  0.00    -0.003 C 
ATOM     22  C   UNL     1       5.307   2.196  -0.209  1.00  0.00     0.004 C 
ENDBRANCH  20  21
ENDBRANCH  19  20
ENDBRANCH  18  19
ENDBRANCH  17  18
ENDBRANCH  16  17
ENDBRANCH  12  16
ENDBRANCH   9  12
ENDBRANCH   6   9
ENDBRANCH   3   5
ENDBRANCH   2   3
BRANCH   2  23
ATOM     23  N   UNL     1      -0.610   0.864  -1.647  1.00  0.00    -0.332 N 
ATOM     24  C   UNL     1       0.111  -0.129  -2.430  1.00  0.00     0.147 C 
BRANCH  23  25
ATOM     25  C   UNL     1      -1.666   0.313  -0.755  1.00  0.00     0.174 C 
BRANCH  25  26
ATOM     26  C   UNL     1      -1.097  -0.579   0.372  1.00  0.00     0.038 C 
BRANCH  26  27
ATOM     27  C   UNL     1      -1.045   0.033   1.790  1.00  0.00    -0.015 C 
ATOM     28  C   UNL     1      -2.210   0.984   2.059  1.00  0.00     0.007 C 
ATOM     29  C   UNL     1      -0.937  -1.011   2.899  1.00  0.00     0.007 C 
ENDBRANCH  26  27
ENDBRANCH  25  26
BRANCH  25  30
ATOM     30  C   UNL     1      -2.767  -0.374  -1.596  1.00  0.00     0.243 C 
ATOM     31  O   UNL     1      -3.259  -1.452  -1.266  1.00  0.00    -0.273 OA
ATOM     32  N   UNL     1      -3.150   0.293  -2.731  1.00  0.00    -0.342 N 
ATOM     33  H   UNL     1      -2.799   1.245  -2.862  1.00  0.00     0.164 HD
BRANCH  32  34
ATOM     34  C   UNL     1      -4.159  -0.221  -3.661  1.00  0.00     0.175 C 
BRANCH  34  35
ATOM     35  C   UNL     1      -4.659   0.881  -4.608  1.00  0.00     0.070 C 
BRANCH  35  36
ATOM     36  C   UNL     1      -6.165   0.900  -4.738  1.00  0.00    -0.045 A 
ATOM     37  C   UNL     1      -6.960   1.261  -3.640  1.00  0.00     0.007 A 
ATOM     38  C   UNL     1      -6.788   0.539  -5.940  1.00  0.00     0.007 A 
ATOM     39  C   UNL     1      -8.351   1.269  -3.746  1.00  0.00     0.046 A 
ATOM     40  C   UNL     1      -8.181   0.544  -6.047  1.00  0.00     0.046 A 
ATOM     41  C   UNL     1      -8.950   0.911  -4.948  1.00  0.00     0.115 A 
BRANCH  41  42
ATOM     42  O   UNL     1     -10.312   0.929  -5.009  1.00  0.00    -0.508 OA
ATOM     43  H   UNL     1     -10.618   0.036  -5.240  1.00  0.00     0.293 HD
ENDBRANCH  41  42
ENDBRANCH  35  36
ENDBRANCH  34  35
BRANCH  34  44
ATOM     44  C   UNL     1      -3.538  -1.407  -4.433  1.00  0.00     0.243 C 
ATOM     45  O   UNL     1      -2.363  -1.468  -4.785  1.00  0.00    -0.273 OA
ATOM     46  N   UNL     1      -4.462  -2.357  -4.816  1.00  0.00    -0.341 N 
ATOM     47  H   UNL     1      -5.444  -2.204  -4.602  1.00  0.00     0.164 HD
BRANCH  46  48
ATOM     48  C   UNL     1      -4.121  -3.536  -5.615  1.00  0.00     0.196 C 
BRANCH  48  49
ATOM     49  C   UNL     1      -5.096  -4.695  -5.346  1.00  0.00     0.072 C 
BRANCH  49  50
ATOM     50  C   UNL     1      -5.709  -4.630  -3.965  1.00  0.00    -0.045 A 
ATOM     51  C   UNL     1      -6.975  -4.053  -3.789  1.00  0.00     0.007 A 
ATOM     52  C   UNL     1      -5.022  -5.121  -2.848  1.00  0.00     0.007 A 
ATOM     53  C   UNL     1      -7.545  -3.976  -2.519  1.00  0.00     0.046 A 
ATOM     54  C   UNL     1      -5.593  -5.043  -1.575  1.00  0.00     0.046 A 
ATOM     55  C   UNL     1      -6.851  -4.472  -1.422  1.00  0.00     0.115 A 
BRANCH  55  56
ATOM     56  O   UNL     1      -7.443  -4.375  -0.197  1.00  0.00    -0.508 OA
ATOM     57  H   UNL     1      -8.396  -4.246  -0.327  1.00  0.00     0.293 HD
ENDBRANCH  55  56
ENDBRANCH  49  50
ENDBRANCH  48  49
BRANCH  48  58
ATOM     58  C   UNL     1      -4.166  -3.161  -7.103  1.00  0.00     0.326 C 
ATOM     59  O   UNL     1      -5.074  -3.371  -7.891  1.00  0.00    -0.250 OA
BRANCH  58  60
ATOM     60  O   UNL     1      -3.054  -2.514  -7.532  1.00  0.00    -0.480 OA
ATOM     61  H   UNL     1      -3.340  -2.109  -8.379  1.00  0.00     0.296 HD
ENDBRANCH  58  60
ENDBRANCH  48  58
ENDBRANCH  46  48
ENDBRANCH  34  44
ENDBRANCH  32  34
ENDBRANCH  25  30
ENDBRANCH  23  25
ENDBRANCH   2  23
TORSDOF 28
ENDMDL
MODEL 40
REMARK VINA RESULT:    -6.018     11.925     17.385
REMARK INTER + INTRA:         -19.425
REMARK INTER:                 -12.959
REMARK INTRA:                  -6.466
REMARK UNBOUND:                -4.436
REMARK SMILES CCCCCCC[C@H](N)[C@H](O)C(=O)N[C@H](C)C(=O)N(C)[C@H](CC(C)C)C(=O)N[C@@H](Cc1ccc(O)cc1)C(=O)N[C@@H](Cc1ccc(O)cc1)C(=O)O
REMARK SMILES IDX 18 1 17 2 15 3 16 4 14 5 12 6 13 7 10 9 11 10 8 12 9 13 7 16
REMARK SMILES IDX 6 17 5 18 4 19 3 20 2 21 1 22 19 23 20 24 21 25 22 26 23 27
REMARK SMILES IDX 24 28 25 29 26 30 27 31 28 32 29 34 30 35 31 36 32 37 37 38
REMARK SMILES IDX 33 39 36 40 34 41 35 42 38 44 39 45 40 46 41 48 42 49 43 50
REMARK SMILES IDX 44 51 49 52 45 53 48 54 46 55 47 56 50 58 51 59 52 60
REMARK H PARENT 14 8 11 11 9 14 9 15 28 33 35 43 40 47 47 57 52 61
ROOT
ATOM      1  O   UNL     1       2.702   2.769   6.220  1.00  0.00    -0.272 OA
ATOM      2  C   UNL     1       1.640   2.747   5.579  1.00  0.00     0.245 C 
ENDROOT
BRANCH   2   3
ATOM      3  C   UNL     1       0.931   4.090   5.274  1.00  0.00     0.168 C 
ATOM      4  C   UNL     1       0.404   4.728   6.554  1.00  0.00     0.041 C 
BRANCH   3   5
ATOM      5  N   UNL     1       1.713   5.028   4.483  1.00  0.00    -0.342 N 
ATOM      6  C   UNL     1       1.302   5.447   3.235  1.00  0.00     0.251 C 
ATOM      7  O   UNL     1       0.285   5.038   2.685  1.00  0.00    -0.272 OA
ATOM      8  H   UNL     1       2.594   5.410   4.820  1.00  0.00     0.164 HD
BRANCH   6   9
ATOM      9  C   UNL     1       2.208   6.542   2.648  1.00  0.00     0.219 C 
BRANCH   9  10
ATOM     10  O   UNL     1       2.756   6.181   1.374  1.00  0.00    -0.382 OA
ATOM     11  H   UNL     1       3.302   6.961   1.129  1.00  0.00     0.211 HD
ENDBRANCH   9  10
BRANCH   9  12
ATOM     12  C   UNL     1       1.518   7.929   2.578  1.00  0.00     0.089 C 
BRANCH  12  13
ATOM     13  N   UNL     1       0.420   7.856   1.587  1.00  0.00    -0.325 NA
ATOM     14  H   UNL     1       0.491   8.649   0.947  1.00  0.00     0.119 HD
ATOM     15  H   UNL     1      -0.472   7.983   2.071  1.00  0.00     0.119 HD
ENDBRANCH  12  13
BRANCH  12  16
ATOM     16  C   UNL     1       0.987   8.491   3.918  1.00  0.00     0.022 C 
BRANCH  16  17
ATOM     17  C   UNL     1      -0.521   8.718   4.088  1.00  0.00     0.002 C 
BRANCH  17  18
ATOM     18  C   UNL     1      -1.293   7.527   4.651  1.00  0.00     0.000 C 
BRANCH  18  19
ATOM     19  C   UNL     1      -2.647   7.282   3.972  1.00  0.00    -0.000 C 
BRANCH  19  20
ATOM     20  C   UNL     1      -3.433   6.081   4.504  1.00  0.00    -0.000 C 
BRANCH  20  21
ATOM     21  C   UNL     1      -2.639   4.773   4.451  1.00  0.00    -0.003 C 
ATOM     22  C   UNL     1      -3.531   3.571   4.719  1.00  0.00     0.004 C 
ENDBRANCH  20  21
ENDBRANCH  19  20
ENDBRANCH  18  19
ENDBRANCH  17  18
ENDBRANCH  16  17
ENDBRANCH  12  16
ENDBRANCH   9  12
ENDBRANCH   6   9
ENDBRANCH   3   5
ENDBRANCH   2   3
BRANCH   2  23
ATOM     23  N   UNL     1       1.174   1.550   5.048  1.00  0.00    -0.332 N 
ATOM     24  C   UNL     1       1.274   0.258   5.710  1.00  0.00     0.147 C 
BRANCH  23  25
ATOM     25  C   UNL     1       0.401   1.544   3.775  1.00  0.00     0.174 C 
BRANCH  25  26
ATOM     26  C   UNL     1      -0.410   0.243   3.569  1.00  0.00     0.038 C 
BRANCH  26  27
ATOM     27  C   UNL     1      -1.948   0.356   3.652  1.00  0.00    -0.015 C 
ATOM     28  C   UNL     1      -2.593   0.576   2.284  1.00  0.00     0.007 C 
ATOM     29  C   UNL     1      -2.606  -0.818   4.374  1.00  0.00     0.007 C 
ENDBRANCH  26  27
ENDBRANCH  25  26
BRANCH  25  30
ATOM     30  C   UNL     1       1.328   1.893   2.588  1.00  0.00     0.243 C 
ATOM     31  O   UNL     1       2.553   1.824   2.678  1.00  0.00    -0.273 OA
ATOM     32  N   UNL     1       0.695   2.287   1.438  1.00  0.00    -0.342 N 
ATOM     33  H   UNL     1      -0.322   2.183   1.397  1.00  0.00     0.164 HD
BRANCH  32  34
ATOM     34  C   UNL     1       1.413   2.682   0.223  1.00  0.00     0.175 C 
BRANCH  34  35
ATOM     35  C   UNL     1       2.198   1.502  -0.370  1.00  0.00     0.070 C 
BRANCH  35  36
ATOM     36  C   UNL     1       3.695   1.660  -0.220  1.00  0.00    -0.045 A 
ATOM     37  C   UNL     1       4.254   2.939  -0.077  1.00  0.00     0.007 A 
ATOM     38  C   UNL     1       4.542   0.545  -0.243  1.00  0.00     0.007 A 
ATOM     39  C   UNL     1       5.634   3.097   0.049  1.00  0.00     0.046 A 
ATOM     40  C   UNL     1       5.924   0.702  -0.119  1.00  0.00     0.046 A 
ATOM     41  C   UNL     1       6.458   1.978   0.028  1.00  0.00     0.115 A 
BRANCH  41  42
ATOM     42  O   UNL     1       7.802   2.175   0.150  1.00  0.00    -0.508 OA
ATOM     43  H   UNL     1       8.111   1.688   0.932  1.00  0.00     0.293 HD
ENDBRANCH  41  42
ENDBRANCH  35  36
ENDBRANCH  34  35
BRANCH  34  44
ATOM     44  C   UNL     1       0.383   3.251  -0.779  1.00  0.00     0.243 C 
ATOM     45  O   UNL     1       0.081   2.716  -1.842  1.00  0.00    -0.273 OA
ATOM     46  N   UNL     1      -0.085   4.501  -0.434  1.00  0.00    -0.341 N 
ATOM     47  H   UNL     1       0.284   4.954   0.399  1.00  0.00     0.164 HD
BRANCH  46  48
ATOM     48  C   UNL     1      -1.017   5.270  -1.262  1.00  0.00     0.196 C 
BRANCH  48  49
ATOM     49  C   UNL     1      -2.205   5.788  -0.435  1.00  0.00     0.072 C 
BRANCH  49  50
ATOM     50  C   UNL     1      -3.219   4.708  -0.133  1.00  0.00    -0.045 A 
ATOM     51  C   UNL     1      -4.071   4.839   0.974  1.00  0.00     0.007 A 
ATOM     52  C   UNL     1      -3.310   3.561  -0.931  1.00  0.00     0.007 A 
ATOM     53  C   UNL     1      -5.001   3.842   1.270  1.00  0.00     0.046 A 
ATOM     54  C   UNL     1      -4.241   2.563  -0.634  1.00  0.00     0.046 A 
ATOM     55  C   UNL     1      -5.080   2.713   0.465  1.00  0.00     0.115 A 
BRANCH  55  56
ATOM     56  O   UNL     1      -6.001   1.762   0.789  1.00  0.00    -0.508 OA
ATOM     57  H   UNL     1      -6.035   1.686   1.756  1.00  0.00     0.293 HD
ENDBRANCH  55  56
ENDBRANCH  49  50
ENDBRANCH  48  49
BRANCH  48  58
ATOM     58  C   UNL     1      -0.268   6.455  -1.887  1.00  0.00     0.326 C 
ATOM     59  O   UNL     1       0.343   6.470  -2.943  1.00  0.00    -0.250 OA
BRANCH  58  60
ATOM     60  O   UNL     1      -0.338   7.590  -1.146  1.00  0.00    -0.480 OA
ATOM     61  H   UNL     1      -0.819   7.304  -0.340  1.00  0.00     0.296 HD
ENDBRANCH  58  60
ENDBRANCH  48  58
ENDBRANCH  46  48
ENDBRANCH  34  44
ENDBRANCH  32  34
ENDBRANCH  25  30
ENDBRANCH  23  25
ENDBRANCH   2  23
TORSDOF 28
ENDMDL
MODEL 41
REMARK VINA RESULT:    -6.006     14.057     19.264
REMARK INTER + INTRA:         -19.395
REMARK INTER:                 -14.284
REMARK INTRA:                  -5.111
REMARK UNBOUND:                -4.436
REMARK SMILES CCCCCCC[C@H](N)[C@H](O)C(=O)N[C@H](C)C(=O)N(C)[C@H](CC(C)C)C(=O)N[C@@H](Cc1ccc(O)cc1)C(=O)N[C@@H](Cc1ccc(O)cc1)C(=O)O
REMARK SMILES IDX 18 1 17 2 15 3 16 4 14 5 12 6 13 7 10 9 11 10 8 12 9 13 7 16
REMARK SMILES IDX 6 17 5 18 4 19 3 20 2 21 1 22 19 23 20 24 21 25 22 26 23 27
REMARK SMILES IDX 24 28 25 29 26 30 27 31 28 32 29 34 30 35 31 36 32 37 37 38
REMARK SMILES IDX 33 39 36 40 34 41 35 42 38 44 39 45 40 46 41 48 42 49 43 50
REMARK SMILES IDX 44 51 49 52 45 53 48 54 46 55 47 56 50 58 51 59 52 60
REMARK H PARENT 14 8 11 11 9 14 9 15 28 33 35 43 40 47 47 57 52 61
ROOT
ATOM      1  O   UNL     1      -0.644   2.742  -2.648  1.00  0.00    -0.272 OA
ATOM      2  C   UNL     1      -0.892   1.666  -2.085  1.00  0.00     0.245 C 
ENDROOT
BRANCH   2   3
ATOM      3  C   UNL     1      -1.038   0.391  -2.954  1.00  0.00     0.168 C 
ATOM      4  C   UNL     1       0.299  -0.330  -3.086  1.00  0.00     0.041 C 
BRANCH   3   5
ATOM      5  N   UNL     1      -2.102  -0.511  -2.542  1.00  0.00    -0.342 N 
ATOM      6  C   UNL     1      -3.139  -0.847  -3.386  1.00  0.00     0.251 C 
ATOM      7  O   UNL     1      -3.267  -0.388  -4.516  1.00  0.00    -0.272 OA
ATOM      8  H   UNL     1      -2.122  -0.927  -1.614  1.00  0.00     0.164 HD
BRANCH   6   9
ATOM      9  C   UNL     1      -4.065  -1.921  -2.792  1.00  0.00     0.219 C 
BRANCH   9  10
ATOM     10  O   UNL     1      -3.617  -2.391  -1.514  1.00  0.00    -0.382 OA
ATOM     11  H   UNL     1      -4.343  -2.131  -0.905  1.00  0.00     0.211 HD
ENDBRANCH   9  10
BRANCH   9  12
ATOM     12  C   UNL     1      -5.549  -1.476  -2.725  1.00  0.00     0.089 C 
BRANCH  12  13
ATOM     13  N   UNL     1      -6.131  -1.587  -4.082  1.00  0.00    -0.325 NA
ATOM     14  H   UNL     1      -5.397  -1.849  -4.743  1.00  0.00     0.119 HD
ATOM     15  H   UNL     1      -6.445  -0.662  -4.385  1.00  0.00     0.119 HD
ENDBRANCH  12  13
BRANCH  12  16
ATOM     16  C   UNL     1      -6.437  -2.226  -1.703  1.00  0.00     0.022 C 
BRANCH  16  17
ATOM     17  C   UNL     1      -7.264  -3.430  -2.173  1.00  0.00     0.002 C 
BRANCH  17  18
ATOM     18  C   UNL     1      -6.498  -4.748  -2.251  1.00  0.00     0.000 C 
BRANCH  18  19
ATOM     19  C   UNL     1      -6.377  -5.318  -3.670  1.00  0.00    -0.000 C 
BRANCH  19  20
ATOM     20  C   UNL     1      -5.487  -6.557  -3.800  1.00  0.00    -0.000 C 
BRANCH  20  21
ATOM     21  C   UNL     1      -4.251  -6.319  -4.670  1.00  0.00    -0.003 C 
ATOM     22  C   UNL     1      -4.274  -4.935  -5.300  1.00  0.00     0.004 C 
ENDBRANCH  20  21
ENDBRANCH  19  20
ENDBRANCH  18  19
ENDBRANCH  17  18
ENDBRANCH  16  17
ENDBRANCH  12  16
ENDBRANCH   9  12
ENDBRANCH   6   9
ENDBRANCH   3   5
ENDBRANCH   2   3
BRANCH   2  23
ATOM     23  N   UNL     1      -0.914   1.596  -0.696  1.00  0.00    -0.332 N 
ATOM     24  C   UNL     1       0.183   1.100   0.123  1.00  0.00     0.147 C 
BRANCH  23  25
ATOM     25  C   UNL     1      -2.058   2.165   0.067  1.00  0.00     0.174 C 
BRANCH  25  26
ATOM     26  C   UNL     1      -1.633   3.289   1.041  1.00  0.00     0.038 C 
BRANCH  26  27
ATOM     27  C   UNL     1      -1.967   4.739   0.624  1.00  0.00    -0.015 C 
ATOM     28  C   UNL     1      -0.834   5.395  -0.165  1.00  0.00     0.007 C 
ATOM     29  C   UNL     1      -3.289   4.866  -0.128  1.00  0.00     0.007 C 
ENDBRANCH  26  27
ENDBRANCH  25  26
BRANCH  25  30
ATOM     30  C   UNL     1      -2.865   1.031   0.741  1.00  0.00     0.243 C 
ATOM     31  O   UNL     1      -3.063  -0.046   0.181  1.00  0.00    -0.273 OA
ATOM     32  N   UNL     1      -3.346   1.309   1.994  1.00  0.00    -0.342 N 
ATOM     33  H   UNL     1      -3.021   2.167   2.447  1.00  0.00     0.164 HD
BRANCH  32  34
ATOM     34  C   UNL     1      -4.154   0.365   2.771  1.00  0.00     0.175 C 
BRANCH  34  35
ATOM     35  C   UNL     1      -3.913   0.532   4.279  1.00  0.00     0.070 C 
BRANCH  35  36
ATOM     36  C   UNL     1      -3.938  -0.783   5.025  1.00  0.00    -0.045 A 
ATOM     37  C   UNL     1      -5.053  -1.628   4.920  1.00  0.00     0.007 A 
ATOM     38  C   UNL     1      -2.867  -1.165   5.843  1.00  0.00     0.007 A 
ATOM     39  C   UNL     1      -5.090  -2.837   5.616  1.00  0.00     0.046 A 
ATOM     40  C   UNL     1      -2.904  -2.375   6.541  1.00  0.00     0.046 A 
ATOM     41  C   UNL     1      -4.017  -3.201   6.419  1.00  0.00     0.115 A 
BRANCH  41  42
ATOM     42  O   UNL     1      -4.095  -4.389   7.084  1.00  0.00    -0.508 OA
ATOM     43  H   UNL     1      -3.586  -4.311   7.908  1.00  0.00     0.293 HD
ENDBRANCH  41  42
ENDBRANCH  35  36
ENDBRANCH  34  35
BRANCH  34  44
ATOM     44  C   UNL     1      -5.637   0.581   2.395  1.00  0.00     0.243 C 
ATOM     45  O   UNL     1      -6.267  -0.132   1.619  1.00  0.00    -0.273 OA
ATOM     46  N   UNL     1      -6.171   1.741   2.915  1.00  0.00    -0.341 N 
ATOM     47  H   UNL     1      -5.574   2.360   3.457  1.00  0.00     0.164 HD
BRANCH  46  48
ATOM     48  C   UNL     1      -7.537   2.193   2.640  1.00  0.00     0.196 C 
BRANCH  48  49
ATOM     49  C   UNL     1      -8.342   2.363   3.940  1.00  0.00     0.072 C 
BRANCH  49  50
ATOM     50  C   UNL     1      -8.346   1.112   4.790  1.00  0.00    -0.045 A 
ATOM     51  C   UNL     1      -9.003  -0.040   4.335  1.00  0.00     0.007 A 
ATOM     52  C   UNL     1      -7.718   1.090   6.042  1.00  0.00     0.007 A 
ATOM     53  C   UNL     1      -9.024  -1.196   5.116  1.00  0.00     0.046 A 
ATOM     54  C   UNL     1      -7.740  -0.066   6.825  1.00  0.00     0.046 A 
ATOM     55  C   UNL     1      -8.393  -1.200   6.354  1.00  0.00     0.115 A 
BRANCH  55  56
ATOM     56  O   UNL     1      -8.438  -2.349   7.088  1.00  0.00    -0.508 OA
ATOM     57  H   UNL     1      -9.168  -2.896   6.755  1.00  0.00     0.293 HD
ENDBRANCH  55  56
ENDBRANCH  49  50
ENDBRANCH  48  49
BRANCH  48  58
ATOM     58  C   UNL     1      -7.479   3.531   1.892  1.00  0.00     0.326 C 
ATOM     59  O   UNL     1      -6.840   3.788   0.884  1.00  0.00    -0.250 OA
BRANCH  58  60
ATOM     60  O   UNL     1      -8.255   4.496   2.447  1.00  0.00    -0.480 OA
ATOM     61  H   UNL     1      -7.702   5.304   2.367  1.00  0.00     0.296 HD
ENDBRANCH  58  60
ENDBRANCH  48  58
ENDBRANCH  46  48
ENDBRANCH  34  44
ENDBRANCH  32  34
ENDBRANCH  25  30
ENDBRANCH  23  25
ENDBRANCH   2  23
TORSDOF 28
ENDMDL
MODEL 42
REMARK VINA RESULT:    -6.001      8.580     15.497
REMARK INTER + INTRA:         -19.383
REMARK INTER:                 -16.183
REMARK INTRA:                  -3.200
REMARK UNBOUND:                -4.436
REMARK SMILES CCCCCCC[C@H](N)[C@H](O)C(=O)N[C@H](C)C(=O)N(C)[C@H](CC(C)C)C(=O)N[C@@H](Cc1ccc(O)cc1)C(=O)N[C@@H](Cc1ccc(O)cc1)C(=O)O
REMARK SMILES IDX 18 1 17 2 15 3 16 4 14 5 12 6 13 7 10 9 11 10 8 12 9 13 7 16
REMARK SMILES IDX 6 17 5 18 4 19 3 20 2 21 1 22 19 23 20 24 21 25 22 26 23 27
REMARK SMILES IDX 24 28 25 29 26 30 27 31 28 32 29 34 30 35 31 36 32 37 37 38
REMARK SMILES IDX 33 39 36 40 34 41 35 42 38 44 39 45 40 46 41 48 42 49 43 50
REMARK SMILES IDX 44 51 49 52 45 53 48 54 46 55 47 56 50 58 51 59 52 60
REMARK H PARENT 14 8 11 11 9 14 9 15 28 33 35 43 40 47 47 57 52 61
ROOT
ATOM      1  O   UNL     1      -0.905   2.330  -1.532  1.00  0.00    -0.272 OA
ATOM      2  C   UNL     1      -1.257   2.328  -0.343  1.00  0.00     0.245 C 
ENDROOT
BRANCH   2   3
ATOM      3  C   UNL     1      -0.763   3.471   0.578  1.00  0.00     0.168 C 
ATOM      4  C   UNL     1      -1.674   3.620   1.792  1.00  0.00     0.041 C 
BRANCH   3   5
ATOM      5  N   UNL     1       0.638   3.387   0.959  1.00  0.00    -0.342 N 
ATOM      6  C   UNL     1       1.643   3.869   0.147  1.00  0.00     0.251 C 
ATOM      7  O   UNL     1       1.442   4.360  -0.959  1.00  0.00    -0.272 OA
ATOM      8  H   UNL     1       0.931   2.969   1.839  1.00  0.00     0.164 HD
BRANCH   6   9
ATOM      9  C   UNL     1       3.027   3.805   0.812  1.00  0.00     0.219 C 
BRANCH   9  10
ATOM     10  O   UNL     1       2.972   4.032   2.226  1.00  0.00    -0.382 OA
ATOM     11  H   UNL     1       3.901   4.247   2.462  1.00  0.00     0.211 HD
ENDBRANCH   9  10
BRANCH   9  12
ATOM     12  C   UNL     1       3.795   2.495   0.495  1.00  0.00     0.089 C 
BRANCH  12  13
ATOM     13  N   UNL     1       2.866   1.562  -0.183  1.00  0.00    -0.325 NA
ATOM     14  H   UNL     1       2.645   0.790   0.449  1.00  0.00     0.119 HD
ATOM     15  H   UNL     1       3.351   1.129  -0.973  1.00  0.00     0.119 HD
ENDBRANCH  12  13
BRANCH  12  16
ATOM     16  C   UNL     1       5.091   2.653  -0.336  1.00  0.00     0.022 C 
BRANCH  16  17
ATOM     17  C   UNL     1       6.400   2.057   0.201  1.00  0.00     0.002 C 
BRANCH  17  18
ATOM     18  C   UNL     1       7.462   1.775  -0.860  1.00  0.00     0.000 C 
BRANCH  18  19
ATOM     19  C   UNL     1       8.467   2.917  -1.057  1.00  0.00    -0.000 C 
BRANCH  19  20
ATOM     20  C   UNL     1       9.755   2.531  -1.789  1.00  0.00    -0.000 C 
BRANCH  20  21
ATOM     21  C   UNL     1      10.620   3.738  -2.158  1.00  0.00    -0.003 C 
ATOM     22  C   UNL     1      11.770   3.917  -1.178  1.00  0.00     0.004 C 
ENDBRANCH  20  21
ENDBRANCH  19  20
ENDBRANCH  18  19
ENDBRANCH  17  18
ENDBRANCH  16  17
ENDBRANCH  12  16
ENDBRANCH   9  12
ENDBRANCH   6   9
ENDBRANCH   3   5
ENDBRANCH   2   3
BRANCH   2  23
ATOM     23  N   UNL     1      -2.173   1.384   0.109  1.00  0.00    -0.332 N 
ATOM     24  C   UNL     1      -3.618   1.532   0.029  1.00  0.00     0.147 C 
BRANCH  23  25
ATOM     25  C   UNL     1      -1.704   0.060   0.605  1.00  0.00     0.174 C 
BRANCH  25  26
ATOM     26  C   UNL     1      -0.412   0.157   1.449  1.00  0.00     0.038 C 
BRANCH  26  27
ATOM     27  C   UNL     1      -0.581   0.232   2.983  1.00  0.00    -0.015 C 
ATOM     28  C   UNL     1      -0.830  -1.139   3.611  1.00  0.00     0.007 C 
ATOM     29  C   UNL     1       0.571   0.944   3.687  1.00  0.00     0.007 C 
ENDBRANCH  26  27
ENDBRANCH  25  26
BRANCH  25  30
ATOM     30  C   UNL     1      -1.608  -0.944  -0.567  1.00  0.00     0.243 C 
ATOM     31  O   UNL     1      -1.658  -2.159  -0.387  1.00  0.00    -0.273 OA
ATOM     32  N   UNL     1      -1.459  -0.389  -1.812  1.00  0.00    -0.342 N 
ATOM     33  H   UNL     1      -1.569   0.625  -1.896  1.00  0.00     0.164 HD
BRANCH  32  34
ATOM     34  C   UNL     1      -1.324  -1.187  -3.034  1.00  0.00     0.175 C 
BRANCH  34  35
ATOM     35  C   UNL     1      -2.671  -1.331  -3.759  1.00  0.00     0.070 C 
BRANCH  35  36
ATOM     36  C   UNL     1      -3.202  -2.746  -3.731  1.00  0.00    -0.045 A 
ATOM     37  C   UNL     1      -4.021  -3.168  -2.673  1.00  0.00     0.007 A 
ATOM     38  C   UNL     1      -2.870  -3.659  -4.741  1.00  0.00     0.007 A 
ATOM     39  C   UNL     1      -4.505  -4.476  -2.632  1.00  0.00     0.046 A 
ATOM     40  C   UNL     1      -3.352  -4.969  -4.700  1.00  0.00     0.046 A 
ATOM     41  C   UNL     1      -4.168  -5.365  -3.645  1.00  0.00     0.115 A 
BRANCH  41  42
ATOM     42  O   UNL     1      -4.658  -6.635  -3.565  1.00  0.00    -0.508 OA
ATOM     43  H   UNL     1      -5.629  -6.586  -3.545  1.00  0.00     0.293 HD
ENDBRANCH  41  42
ENDBRANCH  35  36
ENDBRANCH  34  35
BRANCH  34  44
ATOM     44  C   UNL     1      -0.256  -0.518  -3.928  1.00  0.00     0.243 C 
ATOM     45  O   UNL     1       0.950  -0.535  -3.698  1.00  0.00    -0.273 OA
ATOM     46  N   UNL     1      -0.790   0.227  -4.958  1.00  0.00    -0.341 N 
ATOM     47  H   UNL     1      -1.801   0.306  -5.037  1.00  0.00     0.164 HD
BRANCH  46  48
ATOM     48  C   UNL     1       0.022   1.006  -5.894  1.00  0.00     0.196 C 
BRANCH  48  49
ATOM     49  C   UNL     1       0.189   0.272  -7.236  1.00  0.00     0.072 C 
BRANCH  49  50
ATOM     50  C   UNL     1       1.601   0.352  -7.771  1.00  0.00    -0.045 A 
ATOM     51  C   UNL     1       2.600   0.984  -7.016  1.00  0.00     0.007 A 
ATOM     52  C   UNL     1       1.928  -0.178  -9.025  1.00  0.00     0.007 A 
ATOM     53  C   UNL     1       3.903   1.076  -7.505  1.00  0.00     0.046 A 
ATOM     54  C   UNL     1       3.232  -0.086  -9.515  1.00  0.00     0.046 A 
ATOM     55  C   UNL     1       4.210   0.540  -8.750  1.00  0.00     0.115 A 
BRANCH  55  56
ATOM     56  O   UNL     1       5.495   0.652  -9.192  1.00  0.00    -0.508 OA
ATOM     57  H   UNL     1       5.507   1.268  -9.943  1.00  0.00     0.293 HD
ENDBRANCH  55  56
ENDBRANCH  49  50
ENDBRANCH  48  49
BRANCH  48  58
ATOM     58  C   UNL     1      -0.653   2.364  -6.131  1.00  0.00     0.326 C 
ATOM     59  O   UNL     1      -1.124   2.783  -7.176  1.00  0.00    -0.250 OA
BRANCH  58  60
ATOM     60  O   UNL     1      -0.718   3.137  -5.018  1.00  0.00    -0.480 OA
ATOM     61  H   UNL     1       0.034   3.759  -5.131  1.00  0.00     0.296 HD
ENDBRANCH  58  60
ENDBRANCH  48  58
ENDBRANCH  46  48
ENDBRANCH  34  44
ENDBRANCH  32  34
ENDBRANCH  25  30
ENDBRANCH  23  25
ENDBRANCH   2  23
TORSDOF 28
ENDMDL
MODEL 43
REMARK VINA RESULT:    -5.977     14.140     19.279
REMARK INTER + INTRA:         -19.324
REMARK INTER:                 -15.281
REMARK INTRA:                  -4.043
REMARK UNBOUND:                -4.436
REMARK SMILES CCCCCCC[C@H](N)[C@H](O)C(=O)N[C@H](C)C(=O)N(C)[C@H](CC(C)C)C(=O)N[C@@H](Cc1ccc(O)cc1)C(=O)N[C@@H](Cc1ccc(O)cc1)C(=O)O
REMARK SMILES IDX 18 1 17 2 15 3 16 4 14 5 12 6 13 7 10 9 11 10 8 12 9 13 7 16
REMARK SMILES IDX 6 17 5 18 4 19 3 20 2 21 1 22 19 23 20 24 21 25 22 26 23 27
REMARK SMILES IDX 24 28 25 29 26 30 27 31 28 32 29 34 30 35 31 36 32 37 37 38
REMARK SMILES IDX 33 39 36 40 34 41 35 42 38 44 39 45 40 46 41 48 42 49 43 50
REMARK SMILES IDX 44 51 49 52 45 53 48 54 46 55 47 56 50 58 51 59 52 60
REMARK H PARENT 14 8 11 11 9 14 9 15 28 33 35 43 40 47 47 57 52 61
ROOT
ATOM      1  O   UNL     1      -2.603   4.310   3.316  1.00  0.00    -0.272 OA
ATOM      2  C   UNL     1      -3.194   3.877   2.316  1.00  0.00     0.245 C 
ENDROOT
BRANCH   2   3
ATOM      3  C   UNL     1      -3.213   4.744   1.033  1.00  0.00     0.168 C 
ATOM      4  C   UNL     1      -4.405   5.695   1.039  1.00  0.00     0.041 C 
BRANCH   3   5
ATOM      5  N   UNL     1      -1.967   5.439   0.747  1.00  0.00    -0.342 N 
ATOM      6  C   UNL     1      -1.458   5.523  -0.532  1.00  0.00     0.251 C 
ATOM      7  O   UNL     1      -1.982   4.993  -1.505  1.00  0.00    -0.272 OA
ATOM      8  H   UNL     1      -1.424   5.889   1.480  1.00  0.00     0.164 HD
BRANCH   6   9
ATOM      9  C   UNL     1      -0.214   6.422  -0.618  1.00  0.00     0.219 C 
BRANCH   9  10
ATOM     10  O   UNL     1      -0.478   7.671  -1.269  1.00  0.00    -0.382 OA
ATOM     11  H   UNL     1      -1.112   7.430  -1.981  1.00  0.00     0.211 HD
ENDBRANCH   9  10
BRANCH   9  12
ATOM     12  C   UNL     1       0.468   6.652   0.756  1.00  0.00     0.089 C 
BRANCH  12  13
ATOM     13  N   UNL     1       1.178   5.410   1.139  1.00  0.00    -0.325 NA
ATOM     14  H   UNL     1       0.505   4.740   1.515  1.00  0.00     0.119 HD
ATOM     15  H   UNL     1       1.812   5.616   1.915  1.00  0.00     0.119 HD
ENDBRANCH  12  13
BRANCH  12  16
ATOM     16  C   UNL     1       1.429   7.862   0.843  1.00  0.00     0.022 C 
BRANCH  16  17
ATOM     17  C   UNL     1       1.862   8.374   2.223  1.00  0.00     0.002 C 
BRANCH  17  18
ATOM     18  C   UNL     1       1.393   9.787   2.563  1.00  0.00     0.000 C 
BRANCH  18  19
ATOM     19  C   UNL     1       0.590   9.882   3.867  1.00  0.00    -0.000 C 
BRANCH  19  20
ATOM     20  C   UNL     1      -0.486   8.807   4.047  1.00  0.00    -0.000 C 
BRANCH  20  21
ATOM     21  C   UNL     1      -0.434   8.132   5.420  1.00  0.00    -0.003 C 
ATOM     22  C   UNL     1      -0.745   6.647   5.320  1.00  0.00     0.004 C 
ENDBRANCH  20  21
ENDBRANCH  19  20
ENDBRANCH  18  19
ENDBRANCH  17  18
ENDBRANCH  16  17
ENDBRANCH  12  16
ENDBRANCH   9  12
ENDBRANCH   6   9
ENDBRANCH   3   5
ENDBRANCH   2   3
BRANCH   2  23
ATOM     23  N   UNL     1      -3.718   2.589   2.322  1.00  0.00    -0.332 N 
ATOM     24  C   UNL     1      -3.259   1.515   3.190  1.00  0.00     0.147 C 
BRANCH  23  25
ATOM     25  C   UNL     1      -4.909   2.259   1.493  1.00  0.00     0.174 C 
BRANCH  25  26
ATOM     26  C   UNL     1      -6.097   1.730   2.330  1.00  0.00     0.038 C 
BRANCH  26  27
ATOM     27  C   UNL     1      -7.209   2.742   2.687  1.00  0.00    -0.015 C 
ATOM     28  C   UNL     1      -7.547   3.672   1.522  1.00  0.00     0.007 C 
ATOM     29  C   UNL     1      -8.474   2.087   3.236  1.00  0.00     0.007 C 
ENDBRANCH  26  27
ENDBRANCH  25  26
BRANCH  25  30
ATOM     30  C   UNL     1      -4.506   1.326   0.328  1.00  0.00     0.243 C 
ATOM     31  O   UNL     1      -3.342   1.238  -0.062  1.00  0.00    -0.273 OA
ATOM     32  N   UNL     1      -5.528   0.611  -0.241  1.00  0.00    -0.342 N 
ATOM     33  H   UNL     1      -6.438   0.630   0.227  1.00  0.00     0.164 HD
BRANCH  32  34
ATOM     34  C   UNL     1      -5.336  -0.300  -1.372  1.00  0.00     0.175 C 
BRANCH  34  35
ATOM     35  C   UNL     1      -6.313  -1.485  -1.307  1.00  0.00     0.070 C 
BRANCH  35  36
ATOM     36  C   UNL     1      -5.741  -2.748  -1.909  1.00  0.00    -0.045 A 
ATOM     37  C   UNL     1      -6.596  -3.790  -2.298  1.00  0.00     0.007 A 
ATOM     38  C   UNL     1      -4.358  -2.908  -2.065  1.00  0.00     0.007 A 
ATOM     39  C   UNL     1      -6.077  -4.966  -2.842  1.00  0.00     0.046 A 
ATOM     40  C   UNL     1      -3.837  -4.085  -2.607  1.00  0.00     0.046 A 
ATOM     41  C   UNL     1      -4.702  -5.104  -2.992  1.00  0.00     0.115 A 
BRANCH  41  42
ATOM     42  O   UNL     1      -4.235  -6.269  -3.524  1.00  0.00    -0.508 OA
ATOM     43  H   UNL     1      -4.908  -6.957  -3.388  1.00  0.00     0.293 HD
ENDBRANCH  41  42
ENDBRANCH  35  36
ENDBRANCH  34  35
BRANCH  34  44
ATOM     44  C   UNL     1      -5.501   0.513  -2.676  1.00  0.00     0.243 C 
ATOM     45  O   UNL     1      -4.703   1.358  -3.072  1.00  0.00    -0.273 OA
ATOM     46  N   UNL     1      -6.708   0.299  -3.308  1.00  0.00    -0.341 N 
ATOM     47  H   UNL     1      -7.387  -0.325  -2.878  1.00  0.00     0.164 HD
BRANCH  46  48
ATOM     48  C   UNL     1      -7.118   1.007  -4.522  1.00  0.00     0.196 C 
BRANCH  48  49
ATOM     49  C   UNL     1      -7.149   0.063  -5.737  1.00  0.00     0.072 C 
BRANCH  49  50
ATOM     50  C   UNL     1      -5.926  -0.822  -5.817  1.00  0.00    -0.045 A 
ATOM     51  C   UNL     1      -4.659  -0.250  -6.002  1.00  0.00     0.007 A 
ATOM     52  C   UNL     1      -6.039  -2.216  -5.729  1.00  0.00     0.007 A 
ATOM     53  C   UNL     1      -3.526  -1.058  -6.091  1.00  0.00     0.046 A 
ATOM     54  C   UNL     1      -4.904  -3.025  -5.818  1.00  0.00     0.046 A 
ATOM     55  C   UNL     1      -3.656  -2.438  -5.997  1.00  0.00     0.115 A 
BRANCH  55  56
ATOM     56  O   UNL     1      -2.524  -3.192  -6.091  1.00  0.00    -0.508 OA
ATOM     57  H   UNL     1      -2.337  -3.349  -7.030  1.00  0.00     0.293 HD
ENDBRANCH  55  56
ENDBRANCH  49  50
ENDBRANCH  48  49
BRANCH  48  58
ATOM     58  C   UNL     1      -8.513   1.608  -4.303  1.00  0.00     0.326 C 
ATOM     59  O   UNL     1      -9.590   1.076  -4.517  1.00  0.00    -0.250 OA
BRANCH  58  60
ATOM     60  O   UNL     1      -8.486   2.869  -3.801  1.00  0.00    -0.480 OA
ATOM     61  H   UNL     1      -7.865   2.797  -3.043  1.00  0.00     0.296 HD
ENDBRANCH  58  60
ENDBRANCH  48  58
ENDBRANCH  46  48
ENDBRANCH  34  44
ENDBRANCH  32  34
ENDBRANCH  25  30
ENDBRANCH  23  25
ENDBRANCH   2  23
TORSDOF 28
ENDMDL
MODEL 44
REMARK VINA RESULT:    -5.968     12.451     17.168
REMARK INTER + INTRA:         -19.300
REMARK INTER:                 -15.767
REMARK INTRA:                  -3.533
REMARK UNBOUND:                -4.436
REMARK SMILES CCCCCCC[C@H](N)[C@H](O)C(=O)N[C@H](C)C(=O)N(C)[C@H](CC(C)C)C(=O)N[C@@H](Cc1ccc(O)cc1)C(=O)N[C@@H](Cc1ccc(O)cc1)C(=O)O
REMARK SMILES IDX 18 1 17 2 15 3 16 4 14 5 12 6 13 7 10 9 11 10 8 12 9 13 7 16
REMARK SMILES IDX 6 17 5 18 4 19 3 20 2 21 1 22 19 23 20 24 21 25 22 26 23 27
REMARK SMILES IDX 24 28 25 29 26 30 27 31 28 32 29 34 30 35 31 36 32 37 37 38
REMARK SMILES IDX 33 39 36 40 34 41 35 42 38 44 39 45 40 46 41 48 42 49 43 50
REMARK SMILES IDX 44 51 49 52 45 53 48 54 46 55 47 56 50 58 51 59 52 60
REMARK H PARENT 14 8 11 11 9 14 9 15 28 33 35 43 40 47 47 57 52 61
ROOT
ATOM      1  O   UNL     1       6.676   3.342   2.069  1.00  0.00    -0.272 OA
ATOM      2  C   UNL     1       5.723   3.842   2.686  1.00  0.00     0.245 C 
ENDROOT
BRANCH   2   3
ATOM      3  C   UNL     1       5.771   5.352   3.025  1.00  0.00     0.168 C 
ATOM      4  C   UNL     1       4.704   6.116   2.248  1.00  0.00     0.041 C 
BRANCH   3   5
ATOM      5  N   UNL     1       5.730   5.661   4.446  1.00  0.00    -0.342 N 
ATOM      6  C   UNL     1       6.521   6.645   5.000  1.00  0.00     0.251 C 
ATOM      7  O   UNL     1       7.337   7.298   4.358  1.00  0.00    -0.272 OA
ATOM      8  H   UNL     1       5.117   5.161   5.086  1.00  0.00     0.164 HD
BRANCH   6   9
ATOM      9  C   UNL     1       6.209   6.893   6.485  1.00  0.00     0.219 C 
BRANCH   9  10
ATOM     10  O   UNL     1       7.225   7.659   7.142  1.00  0.00    -0.382 OA
ATOM     11  H   UNL     1       8.038   7.123   7.014  1.00  0.00     0.211 HD
ENDBRANCH   9  10
BRANCH   9  12
ATOM     12  C   UNL     1       4.810   7.520   6.716  1.00  0.00     0.089 C 
BRANCH  12  13
ATOM     13  N   UNL     1       4.504   8.414   5.576  1.00  0.00    -0.325 NA
ATOM     14  H   UNL     1       3.497   8.583   5.543  1.00  0.00     0.119 HD
ATOM     15  H   UNL     1       4.721   7.925   4.705  1.00  0.00     0.119 HD
ENDBRANCH  12  13
BRANCH  12  16
ATOM     16  C   UNL     1       3.647   6.522   6.936  1.00  0.00     0.022 C 
BRANCH  16  17
ATOM     17  C   UNL     1       2.435   6.959   7.769  1.00  0.00     0.002 C 
BRANCH  17  18
ATOM     18  C   UNL     1       2.169   6.114   9.013  1.00  0.00     0.000 C 
BRANCH  18  19
ATOM     19  C   UNL     1       2.100   6.923  10.315  1.00  0.00    -0.000 C 
BRANCH  19  20
ATOM     20  C   UNL     1       0.741   6.903  11.021  1.00  0.00    -0.000 C 
BRANCH  20  21
ATOM     21  C   UNL     1      -0.311   7.769  10.322  1.00  0.00    -0.003 C 
ATOM     22  C   UNL     1       0.161   9.208  10.180  1.00  0.00     0.004 C 
ENDBRANCH  20  21
ENDBRANCH  19  20
ENDBRANCH  18  19
ENDBRANCH  17  18
ENDBRANCH  16  17
ENDBRANCH  12  16
ENDBRANCH   9  12
ENDBRANCH   6   9
ENDBRANCH   3   5
ENDBRANCH   2   3
BRANCH   2  23
ATOM     23  N   UNL     1       4.590   3.080   2.951  1.00  0.00    -0.332 N 
ATOM     24  C   UNL     1       4.235   2.557   4.262  1.00  0.00     0.147 C 
BRANCH  23  25
ATOM     25  C   UNL     1       3.572   2.853   1.889  1.00  0.00     0.174 C 
BRANCH  25  26
ATOM     26  C   UNL     1       4.171   2.887   0.463  1.00  0.00     0.038 C 
BRANCH  26  27
ATOM     27  C   UNL     1       4.090   1.583  -0.361  1.00  0.00    -0.015 C 
ATOM     28  C   UNL     1       5.122   0.546   0.081  1.00  0.00     0.007 C 
ATOM     29  C   UNL     1       2.692   0.970  -0.392  1.00  0.00     0.007 C 
ENDBRANCH  26  27
ENDBRANCH  25  26
BRANCH  25  30
ATOM     30  C   UNL     1       2.377   3.815   2.083  1.00  0.00     0.243 C 
ATOM     31  O   UNL     1       1.911   4.055   3.196  1.00  0.00    -0.273 OA
ATOM     32  N   UNL     1       1.873   4.374   0.938  1.00  0.00    -0.342 N 
ATOM     33  H   UNL     1       2.401   4.238   0.072  1.00  0.00     0.164 HD
BRANCH  32  34
ATOM     34  C   UNL     1       0.726   5.286   0.928  1.00  0.00     0.175 C 
BRANCH  34  35
ATOM     35  C   UNL     1       1.135   6.694   0.469  1.00  0.00     0.070 C 
BRANCH  35  36
ATOM     36  C   UNL     1       1.345   7.648   1.623  1.00  0.00    -0.045 A 
ATOM     37  C   UNL     1       2.240   8.721   1.493  1.00  0.00     0.007 A 
ATOM     38  C   UNL     1       0.672   7.465   2.838  1.00  0.00     0.007 A 
ATOM     39  C   UNL     1       2.450   9.598   2.557  1.00  0.00     0.046 A 
ATOM     40  C   UNL     1       0.883   8.343   3.904  1.00  0.00     0.046 A 
ATOM     41  C   UNL     1       1.770   9.403   3.753  1.00  0.00     0.115 A 
BRANCH  41  42
ATOM     42  O   UNL     1       2.006  10.281   4.769  1.00  0.00    -0.508 OA
ATOM     43  H   UNL     1       1.864   9.818   5.611  1.00  0.00     0.293 HD
ENDBRANCH  41  42
ENDBRANCH  35  36
ENDBRANCH  34  35
BRANCH  34  44
ATOM     44  C   UNL     1      -0.364   4.676   0.018  1.00  0.00     0.243 C 
ATOM     45  O   UNL     1      -1.568   4.873   0.150  1.00  0.00    -0.273 OA
ATOM     46  N   UNL     1       0.129   3.769  -0.896  1.00  0.00    -0.341 N 
ATOM     47  H   UNL     1       1.123   3.551  -0.889  1.00  0.00     0.164 HD
BRANCH  46  48
ATOM     48  C   UNL     1      -0.720   3.012  -1.819  1.00  0.00     0.196 C 
BRANCH  48  49
ATOM     49  C   UNL     1      -1.873   2.317  -1.076  1.00  0.00     0.072 C 
BRANCH  49  50
ATOM     50  C   UNL     1      -1.503   0.935  -0.589  1.00  0.00    -0.045 A 
ATOM     51  C   UNL     1      -1.527   0.647   0.784  1.00  0.00     0.007 A 
ATOM     52  C   UNL     1      -1.112  -0.066  -1.488  1.00  0.00     0.007 A 
ATOM     53  C   UNL     1      -1.175  -0.621   1.246  1.00  0.00     0.046 A 
ATOM     54  C   UNL     1      -0.757  -1.335  -1.025  1.00  0.00     0.046 A 
ATOM     55  C   UNL     1      -0.793  -1.602   0.339  1.00  0.00     0.115 A 
BRANCH  55  56
ATOM     56  O   UNL     1      -0.454  -2.827   0.832  1.00  0.00    -0.508 OA
ATOM     57  H   UNL     1       0.010  -3.319   0.136  1.00  0.00     0.293 HD
ENDBRANCH  55  56
ENDBRANCH  49  50
ENDBRANCH  48  49
BRANCH  48  58
ATOM     58  C   UNL     1      -1.290   3.971  -2.873  1.00  0.00     0.326 C 
ATOM     59  O   UNL     1      -0.707   4.887  -3.431  1.00  0.00    -0.250 OA
BRANCH  58  60
ATOM     60  O   UNL     1      -2.584   3.719  -3.191  1.00  0.00    -0.480 OA
ATOM     61  H   UNL     1      -2.553   3.567  -4.160  1.00  0.00     0.296 HD
ENDBRANCH  58  60
ENDBRANCH  48  58
ENDBRANCH  46  48
ENDBRANCH  34  44
ENDBRANCH  32  34
ENDBRANCH  25  30
ENDBRANCH  23  25
ENDBRANCH   2  23
TORSDOF 28
ENDMDL
MODEL 45
REMARK VINA RESULT:    -5.967     12.748     17.769
REMARK INTER + INTRA:         -19.299
REMARK INTER:                 -16.596
REMARK INTRA:                  -2.703
REMARK UNBOUND:                -4.436
REMARK SMILES CCCCCCC[C@H](N)[C@H](O)C(=O)N[C@H](C)C(=O)N(C)[C@H](CC(C)C)C(=O)N[C@@H](Cc1ccc(O)cc1)C(=O)N[C@@H](Cc1ccc(O)cc1)C(=O)O
REMARK SMILES IDX 18 1 17 2 15 3 16 4 14 5 12 6 13 7 10 9 11 10 8 12 9 13 7 16
REMARK SMILES IDX 6 17 5 18 4 19 3 20 2 21 1 22 19 23 20 24 21 25 22 26 23 27
REMARK SMILES IDX 24 28 25 29 26 30 27 31 28 32 29 34 30 35 31 36 32 37 37 38
REMARK SMILES IDX 33 39 36 40 34 41 35 42 38 44 39 45 40 46 41 48 42 49 43 50
REMARK SMILES IDX 44 51 49 52 45 53 48 54 46 55 47 56 50 58 51 59 52 60
REMARK H PARENT 14 8 11 11 9 14 9 15 28 33 35 43 40 47 47 57 52 61
ROOT
ATOM      1  O   UNL     1       0.182   0.348  -2.864  1.00  0.00    -0.272 OA
ATOM      2  C   UNL     1      -0.564   0.840  -2.004  1.00  0.00     0.245 C 
ENDROOT
BRANCH   2   3
ATOM      3  C   UNL     1       0.074   1.615  -0.825  1.00  0.00     0.168 C 
ATOM      4  C   UNL     1       1.564   1.310  -0.719  1.00  0.00     0.041 C 
BRANCH   3   5
ATOM      5  N   UNL     1      -0.187   3.046  -0.821  1.00  0.00    -0.342 N 
ATOM      6  C   UNL     1      -0.974   3.640   0.142  1.00  0.00     0.251 C 
ATOM      7  O   UNL     1      -1.541   3.014   1.033  1.00  0.00    -0.272 OA
ATOM      8  H   UNL     1       0.200   3.664  -1.531  1.00  0.00     0.164 HD
BRANCH   6   9
ATOM      9  C   UNL     1      -0.995   5.173   0.032  1.00  0.00     0.219 C 
BRANCH   9  10
ATOM     10  O   UNL     1      -1.352   5.811   1.264  1.00  0.00    -0.382 OA
ATOM     11  H   UNL     1      -2.309   6.005   1.154  1.00  0.00     0.211 HD
ENDBRANCH   9  10
BRANCH   9  12
ATOM     12  C   UNL     1       0.326   5.760  -0.530  1.00  0.00     0.089 C 
BRANCH  12  13
ATOM     13  N   UNL     1       0.207   5.852  -2.003  1.00  0.00    -0.325 NA
ATOM     14  H   UNL     1       1.036   6.318  -2.378  1.00  0.00     0.119 HD
ATOM     15  H   UNL     1      -0.574   6.471  -2.234  1.00  0.00     0.119 HD
ENDBRANCH  12  13
BRANCH  12  16
ATOM     16  C   UNL     1       0.764   7.125   0.054  1.00  0.00     0.022 C 
BRANCH  16  17
ATOM     17  C   UNL     1       1.961   7.177   1.014  1.00  0.00     0.002 C 
BRANCH  17  18
ATOM     18  C   UNL     1       2.689   8.519   1.063  1.00  0.00     0.000 C 
BRANCH  18  19
ATOM     19  C   UNL     1       2.719   9.162   2.456  1.00  0.00    -0.000 C 
BRANCH  19  20
ATOM     20  C   UNL     1       1.524  10.061   2.783  1.00  0.00    -0.000 C 
BRANCH  20  21
ATOM     21  C   UNL     1       0.855   9.709   4.115  1.00  0.00    -0.003 C 
ATOM     22  C   UNL     1       1.832   9.826   5.274  1.00  0.00     0.004 C 
ENDBRANCH  20  21
ENDBRANCH  19  20
ENDBRANCH  18  19
ENDBRANCH  17  18
ENDBRANCH  16  17
ENDBRANCH  12  16
ENDBRANCH   9  12
ENDBRANCH   6   9
ENDBRANCH   3   5
ENDBRANCH   2   3
BRANCH   2  23
ATOM     23  N   UNL     1      -1.944   0.795  -2.173  1.00  0.00    -0.332 N 
ATOM     24  C   UNL     1      -2.869   0.163  -1.244  1.00  0.00     0.147 C 
BRANCH  23  25
ATOM     25  C   UNL     1      -2.588   1.530  -3.296  1.00  0.00     0.174 C 
BRANCH  25  26
ATOM     26  C   UNL     1      -2.232   3.035  -3.313  1.00  0.00     0.038 C 
BRANCH  26  27
ATOM     27  C   UNL     1      -1.457   3.558  -4.543  1.00  0.00    -0.015 C 
ATOM     28  C   UNL     1      -1.607   2.645  -5.760  1.00  0.00     0.007 C 
ATOM     29  C   UNL     1      -1.799   5.000  -4.909  1.00  0.00     0.007 C 
ENDBRANCH  26  27
ENDBRANCH  25  26
BRANCH  25  30
ATOM     30  C   UNL     1      -4.108   1.250  -3.313  1.00  0.00     0.243 C 
ATOM     31  O   UNL     1      -4.848   1.626  -2.405  1.00  0.00    -0.273 OA
ATOM     32  N   UNL     1      -4.571   0.554  -4.400  1.00  0.00    -0.342 N 
ATOM     33  H   UNL     1      -3.922   0.402  -5.177  1.00  0.00     0.164 HD
BRANCH  32  34
ATOM     34  C   UNL     1      -5.976   0.176  -4.571  1.00  0.00     0.175 C 
BRANCH  34  35
ATOM     35  C   UNL     1      -6.425   0.339  -6.031  1.00  0.00     0.070 C 
BRANCH  35  36
ATOM     36  C   UNL     1      -7.669   1.187  -6.169  1.00  0.00    -0.045 A 
ATOM     37  C   UNL     1      -7.569   2.512  -6.622  1.00  0.00     0.007 A 
ATOM     38  C   UNL     1      -8.929   0.677  -5.828  1.00  0.00     0.007 A 
ATOM     39  C   UNL     1      -8.710   3.307  -6.740  1.00  0.00     0.046 A 
ATOM     40  C   UNL     1     -10.071   1.473  -5.945  1.00  0.00     0.046 A 
ATOM     41  C   UNL     1      -9.951   2.781  -6.401  1.00  0.00     0.115 A 
BRANCH  41  42
ATOM     42  O   UNL     1     -11.040   3.592  -6.527  1.00  0.00    -0.508 OA
ATOM     43  H   UNL     1     -10.734   4.514  -6.531  1.00  0.00     0.293 HD
ENDBRANCH  41  42
ENDBRANCH  35  36
ENDBRANCH  34  35
BRANCH  34  44
ATOM     44  C   UNL     1      -6.145  -1.277  -4.074  1.00  0.00     0.243 C 
ATOM     45  O   UNL     1      -6.409  -2.232  -4.799  1.00  0.00    -0.273 OA
ATOM     46  N   UNL     1      -6.102  -1.396  -2.700  1.00  0.00    -0.341 N 
ATOM     47  H   UNL     1      -5.998  -0.557  -2.135  1.00  0.00     0.164 HD
BRANCH  46  48
ATOM     48  C   UNL     1      -6.305  -2.663  -1.994  1.00  0.00     0.196 C 
BRANCH  48  49
ATOM     49  C   UNL     1      -4.987  -3.444  -1.855  1.00  0.00     0.072 C 
BRANCH  49  50
ATOM     50  C   UNL     1      -4.822  -4.501  -2.924  1.00  0.00    -0.045 A 
ATOM     51  C   UNL     1      -3.732  -4.440  -3.804  1.00  0.00     0.007 A 
ATOM     52  C   UNL     1      -5.755  -5.536  -3.065  1.00  0.00     0.007 A 
ATOM     53  C   UNL     1      -3.576  -5.402  -4.802  1.00  0.00     0.046 A 
ATOM     54  C   UNL     1      -5.599  -6.498  -4.065  1.00  0.00     0.046 A 
ATOM     55  C   UNL     1      -4.509  -6.423  -4.925  1.00  0.00     0.115 A 
BRANCH  55  56
ATOM     56  O   UNL     1      -4.322  -7.342  -5.914  1.00  0.00    -0.508 OA
ATOM     57  H   UNL     1      -3.790  -6.933  -6.615  1.00  0.00     0.293 HD
ENDBRANCH  55  56
ENDBRANCH  49  50
ENDBRANCH  48  49
BRANCH  48  58
ATOM     58  C   UNL     1      -6.881  -2.372  -0.602  1.00  0.00     0.326 C 
ATOM     59  O   UNL     1      -7.695  -3.039   0.016  1.00  0.00    -0.250 OA
BRANCH  58  60
ATOM     60  O   UNL     1      -6.384  -1.243  -0.036  1.00  0.00    -0.480 OA
ATOM     61  H   UNL     1      -7.191  -0.733   0.196  1.00  0.00     0.296 HD
ENDBRANCH  58  60
ENDBRANCH  48  58
ENDBRANCH  46  48
ENDBRANCH  34  44
ENDBRANCH  32  34
ENDBRANCH  25  30
ENDBRANCH  23  25
ENDBRANCH   2  23
TORSDOF 28
ENDMDL
MODEL 46
REMARK VINA RESULT:    -5.963     11.460     16.699
REMARK INTER + INTRA:         -19.287
REMARK INTER:                 -15.415
REMARK INTRA:                  -3.873
REMARK UNBOUND:                -4.436
REMARK SMILES CCCCCCC[C@H](N)[C@H](O)C(=O)N[C@H](C)C(=O)N(C)[C@H](CC(C)C)C(=O)N[C@@H](Cc1ccc(O)cc1)C(=O)N[C@@H](Cc1ccc(O)cc1)C(=O)O
REMARK SMILES IDX 18 1 17 2 15 3 16 4 14 5 12 6 13 7 10 9 11 10 8 12 9 13 7 16
REMARK SMILES IDX 6 17 5 18 4 19 3 20 2 21 1 22 19 23 20 24 21 25 22 26 23 27
REMARK SMILES IDX 24 28 25 29 26 30 27 31 28 32 29 34 30 35 31 36 32 37 37 38
REMARK SMILES IDX 33 39 36 40 34 41 35 42 38 44 39 45 40 46 41 48 42 49 43 50
REMARK SMILES IDX 44 51 49 52 45 53 48 54 46 55 47 56 50 58 51 59 52 60
REMARK H PARENT 14 8 11 11 9 14 9 15 28 33 35 43 40 47 47 57 52 61
ROOT
ATOM      1  O   UNL     1       0.595   0.201  -4.735  1.00  0.00    -0.272 OA
ATOM      2  C   UNL     1      -0.546  -0.154  -4.402  1.00  0.00     0.245 C 
ENDROOT
BRANCH   2   3
ATOM      3  C   UNL     1      -0.816  -0.476  -2.911  1.00  0.00     0.168 C 
ATOM      4  C   UNL     1       0.065  -1.626  -2.437  1.00  0.00     0.041 C 
BRANCH   3   5
ATOM      5  N   UNL     1      -0.743   0.668  -2.016  1.00  0.00    -0.342 N 
ATOM      6  C   UNL     1      -1.479   0.730  -0.852  1.00  0.00     0.251 C 
ATOM      7  O   UNL     1      -2.272  -0.139  -0.506  1.00  0.00    -0.272 OA
ATOM      8  H   UNL     1      -0.145   1.467  -2.214  1.00  0.00     0.164 HD
BRANCH   6   9
ATOM      9  C   UNL     1      -1.136   1.960   0.004  1.00  0.00     0.219 C 
BRANCH   9  10
ATOM     10  O   UNL     1      -2.133   2.240   0.995  1.00  0.00    -0.382 OA
ATOM     11  H   UNL     1      -2.256   1.377   1.448  1.00  0.00     0.211 HD
ENDBRANCH   9  10
BRANCH   9  12
ATOM     12  C   UNL     1       0.273   1.880   0.648  1.00  0.00     0.089 C 
BRANCH  12  13
ATOM     13  N   UNL     1       0.519   0.480   1.062  1.00  0.00    -0.325 NA
ATOM     14  H   UNL     1      -0.295  -0.089   0.822  1.00  0.00     0.119 HD
ATOM     15  H   UNL     1       0.580   0.443   2.082  1.00  0.00     0.119 HD
ENDBRANCH  12  13
BRANCH  12  16
ATOM     16  C   UNL     1       1.446   2.391  -0.223  1.00  0.00     0.022 C 
BRANCH  16  17
ATOM     17  C   UNL     1       2.886   2.148   0.247  1.00  0.00     0.002 C 
BRANCH  17  18
ATOM     18  C   UNL     1       3.578   0.944  -0.387  1.00  0.00     0.000 C 
BRANCH  18  19
ATOM     19  C   UNL     1       4.854   0.500   0.341  1.00  0.00    -0.000 C 
BRANCH  19  20
ATOM     20  C   UNL     1       6.160   0.787  -0.405  1.00  0.00    -0.000 C 
BRANCH  20  21
ATOM     21  C   UNL     1       7.009   1.870   0.266  1.00  0.00    -0.003 C 
ATOM     22  C   UNL     1       6.493   3.262  -0.065  1.00  0.00     0.004 C 
ENDBRANCH  20  21
ENDBRANCH  19  20
ENDBRANCH  18  19
ENDBRANCH  17  18
ENDBRANCH  16  17
ENDBRANCH  12  16
ENDBRANCH   9  12
ENDBRANCH   6   9
ENDBRANCH   3   5
ENDBRANCH   2   3
BRANCH   2  23
ATOM     23  N   UNL     1      -1.579  -0.138  -5.333  1.00  0.00    -0.332 N 
ATOM     24  C   UNL     1      -1.998  -1.288  -6.120  1.00  0.00     0.147 C 
BRANCH  23  25
ATOM     25  C   UNL     1      -2.429   1.073  -5.492  1.00  0.00     0.174 C 
BRANCH  25  26
ATOM     26  C   UNL     1      -1.680   2.383  -5.153  1.00  0.00     0.038 C 
BRANCH  26  27
ATOM     27  C   UNL     1      -2.474   3.701  -5.298  1.00  0.00    -0.015 C 
ATOM     28  C   UNL     1      -1.760   4.887  -4.650  1.00  0.00     0.007 C 
ATOM     29  C   UNL     1      -2.854   4.025  -6.740  1.00  0.00     0.007 C 
ENDBRANCH  26  27
ENDBRANCH  25  26
BRANCH  25  30
ATOM     30  C   UNL     1      -3.756   0.897  -4.717  1.00  0.00     0.243 C 
ATOM     31  O   UNL     1      -3.816   1.026  -3.495  1.00  0.00    -0.273 OA
ATOM     32  N   UNL     1      -4.851   0.583  -5.479  1.00  0.00    -0.342 N 
ATOM     33  H   UNL     1      -4.750   0.632  -6.496  1.00  0.00     0.164 HD
BRANCH  32  34
ATOM     34  C   UNL     1      -6.183   0.353  -4.912  1.00  0.00     0.175 C 
BRANCH  34  35
ATOM     35  C   UNL     1      -7.284   0.606  -5.953  1.00  0.00     0.070 C 
BRANCH  35  36
ATOM     36  C   UNL     1      -6.991   1.798  -6.837  1.00  0.00    -0.045 A 
ATOM     37  C   UNL     1      -7.339   3.089  -6.412  1.00  0.00     0.007 A 
ATOM     38  C   UNL     1      -6.392   1.632  -8.092  1.00  0.00     0.007 A 
ATOM     39  C   UNL     1      -7.085   4.193  -7.226  1.00  0.00     0.046 A 
ATOM     40  C   UNL     1      -6.138   2.737  -8.909  1.00  0.00     0.046 A 
ATOM     41  C   UNL     1      -6.486   4.009  -8.467  1.00  0.00     0.115 A 
BRANCH  41  42
ATOM     42  O   UNL     1      -6.258   5.113  -9.233  1.00  0.00    -0.508 OA
ATOM     43  H   UNL     1      -7.085   5.345  -9.688  1.00  0.00     0.293 HD
ENDBRANCH  41  42
ENDBRANCH  35  36
ENDBRANCH  34  35
BRANCH  34  44
ATOM     44  C   UNL     1      -6.227  -1.092  -4.365  1.00  0.00     0.243 C 
ATOM     45  O   UNL     1      -6.487  -2.083  -5.042  1.00  0.00    -0.273 OA
ATOM     46  N   UNL     1      -6.074  -1.165  -2.997  1.00  0.00    -0.341 N 
ATOM     47  H   UNL     1      -5.977  -0.305  -2.464  1.00  0.00     0.164 HD
BRANCH  46  48
ATOM     48  C   UNL     1      -6.147  -2.420  -2.244  1.00  0.00     0.196 C 
BRANCH  48  49
ATOM     49  C   UNL     1      -4.763  -3.076  -2.113  1.00  0.00     0.072 C 
BRANCH  49  50
ATOM     50  C   UNL     1      -4.614  -4.301  -2.987  1.00  0.00    -0.045 A 
ATOM     51  C   UNL     1      -3.587  -4.359  -3.941  1.00  0.00     0.007 A 
ATOM     52  C   UNL     1      -5.503  -5.378  -2.876  1.00  0.00     0.007 A 
ATOM     53  C   UNL     1      -3.448  -5.478  -4.762  1.00  0.00     0.046 A 
ATOM     54  C   UNL     1      -5.365  -6.497  -3.700  1.00  0.00     0.046 A 
ATOM     55  C   UNL     1      -4.337  -6.538  -4.635  1.00  0.00     0.115 A 
BRANCH  55  56
ATOM     56  O   UNL     1      -4.168  -7.612  -5.458  1.00  0.00    -0.508 OA
ATOM     57  H   UNL     1      -3.978  -7.286  -6.352  1.00  0.00     0.293 HD
ENDBRANCH  55  56
ENDBRANCH  49  50
ENDBRANCH  48  49
BRANCH  48  58
ATOM     58  C   UNL     1      -6.714  -2.131  -0.847  1.00  0.00     0.326 C 
ATOM     59  O   UNL     1      -7.482  -2.827  -0.203  1.00  0.00    -0.250 OA
BRANCH  58  60
ATOM     60  O   UNL     1      -6.269  -0.966  -0.313  1.00  0.00    -0.480 OA
ATOM     61  H   UNL     1      -6.653  -0.971   0.591  1.00  0.00     0.296 HD
ENDBRANCH  58  60
ENDBRANCH  48  58
ENDBRANCH  46  48
ENDBRANCH  34  44
ENDBRANCH  32  34
ENDBRANCH  25  30
ENDBRANCH  23  25
ENDBRANCH   2  23
TORSDOF 28
ENDMDL
MODEL 47
REMARK VINA RESULT:    -5.926     12.307     17.483
REMARK INTER + INTRA:         -19.196
REMARK INTER:                 -13.334
REMARK INTRA:                  -5.861
REMARK UNBOUND:                -4.436
REMARK SMILES CCCCCCC[C@H](N)[C@H](O)C(=O)N[C@H](C)C(=O)N(C)[C@H](CC(C)C)C(=O)N[C@@H](Cc1ccc(O)cc1)C(=O)N[C@@H](Cc1ccc(O)cc1)C(=O)O
REMARK SMILES IDX 18 1 17 2 15 3 16 4 14 5 12 6 13 7 10 9 11 10 8 12 9 13 7 16
REMARK SMILES IDX 6 17 5 18 4 19 3 20 2 21 1 22 19 23 20 24 21 25 22 26 23 27
REMARK SMILES IDX 24 28 25 29 26 30 27 31 28 32 29 34 30 35 31 36 32 37 37 38
REMARK SMILES IDX 33 39 36 40 34 41 35 42 38 44 39 45 40 46 41 48 42 49 43 50
REMARK SMILES IDX 44 51 49 52 45 53 48 54 46 55 47 56 50 58 51 59 52 60
REMARK H PARENT 14 8 11 11 9 14 9 15 28 33 35 43 40 47 47 57 52 61
ROOT
ATOM      1  O   UNL     1       0.726   8.216   7.032  1.00  0.00    -0.272 OA
ATOM      2  C   UNL     1       1.531   7.939   6.130  1.00  0.00     0.245 C 
ENDROOT
BRANCH   2   3
ATOM      3  C   UNL     1       2.897   7.323   6.520  1.00  0.00     0.168 C 
ATOM      4  C   UNL     1       2.733   5.869   6.949  1.00  0.00     0.041 C 
BRANCH   3   5
ATOM      5  N   UNL     1       3.945   7.479   5.523  1.00  0.00    -0.342 N 
ATOM      6  C   UNL     1       5.210   7.914   5.858  1.00  0.00     0.251 C 
ATOM      7  O   UNL     1       5.534   8.238   6.995  1.00  0.00    -0.272 OA
ATOM      8  H   UNL     1       3.784   7.274   4.540  1.00  0.00     0.164 HD
BRANCH   6   9
ATOM      9  C   UNL     1       6.188   7.866   4.673  1.00  0.00     0.219 C 
BRANCH   9  10
ATOM     10  O   UNL     1       7.222   8.852   4.770  1.00  0.00    -0.382 OA
ATOM     11  H   UNL     1       7.387   9.107   3.836  1.00  0.00     0.211 HD
ENDBRANCH   9  10
BRANCH   9  12
ATOM     12  C   UNL     1       6.791   6.456   4.437  1.00  0.00     0.089 C 
BRANCH  12  13
ATOM     13  N   UNL     1       6.603   5.656   5.669  1.00  0.00    -0.325 NA
ATOM     14  H   UNL     1       6.708   4.665   5.445  1.00  0.00     0.119 HD
ATOM     15  H   UNL     1       5.636   5.757   5.986  1.00  0.00     0.119 HD
ENDBRANCH  12  13
BRANCH  12  16
ATOM     16  C   UNL     1       6.247   5.682   3.213  1.00  0.00     0.022 C 
BRANCH  16  17
ATOM     17  C   UNL     1       5.696   4.263   3.410  1.00  0.00     0.002 C 
BRANCH  17  18
ATOM     18  C   UNL     1       6.051   3.274   2.303  1.00  0.00     0.000 C 
BRANCH  18  19
ATOM     19  C   UNL     1       5.916   3.848   0.886  1.00  0.00    -0.000 C 
BRANCH  19  20
ATOM     20  C   UNL     1       5.605   2.819  -0.205  1.00  0.00    -0.000 C 
BRANCH  20  21
ATOM     21  C   UNL     1       5.852   1.376   0.244  1.00  0.00    -0.003 C 
ATOM     22  C   UNL     1       4.594   0.531   0.112  1.00  0.00     0.004 C 
ENDBRANCH  20  21
ENDBRANCH  19  20
ENDBRANCH  18  19
ENDBRANCH  17  18
ENDBRANCH  16  17
ENDBRANCH  12  16
ENDBRANCH   9  12
ENDBRANCH   6   9
ENDBRANCH   3   5
ENDBRANCH   2   3
BRANCH   2  23
ATOM     23  N   UNL     1       1.154   8.069   4.798  1.00  0.00    -0.332 N 
ATOM     24  C   UNL     1       1.394   9.251   3.983  1.00  0.00     0.147 C 
BRANCH  23  25
ATOM     25  C   UNL     1       0.572   6.911   4.066  1.00  0.00     0.174 C 
BRANCH  25  26
ATOM     26  C   UNL     1      -0.152   5.911   4.998  1.00  0.00     0.038 C 
BRANCH  26  27
ATOM     27  C   UNL     1      -1.605   5.537   4.630  1.00  0.00    -0.015 C 
ATOM     28  C   UNL     1      -2.600   5.904   5.731  1.00  0.00     0.007 C 
ATOM     29  C   UNL     1      -2.057   6.104   3.287  1.00  0.00     0.007 C 
ENDBRANCH  26  27
ENDBRANCH  25  26
BRANCH  25  30
ATOM     30  C   UNL     1       1.645   6.257   3.166  1.00  0.00     0.243 C 
ATOM     31  O   UNL     1       2.784   6.713   3.075  1.00  0.00    -0.273 OA
ATOM     32  N   UNL     1       1.241   5.143   2.475  1.00  0.00    -0.342 N 
ATOM     33  H   UNL     1       0.329   4.744   2.711  1.00  0.00     0.164 HD
BRANCH  32  34
ATOM     34  C   UNL     1       2.115   4.410   1.555  1.00  0.00     0.175 C 
BRANCH  34  35
ATOM     35  C   UNL     1       2.395   2.987   2.064  1.00  0.00     0.070 C 
BRANCH  35  36
ATOM     36  C   UNL     1       1.155   2.122   2.094  1.00  0.00    -0.045 A 
ATOM     37  C   UNL     1       1.027   1.048   1.200  1.00  0.00     0.007 A 
ATOM     38  C   UNL     1       0.112   2.391   2.990  1.00  0.00     0.007 A 
ATOM     39  C   UNL     1      -0.119   0.253   1.210  1.00  0.00     0.046 A 
ATOM     40  C   UNL     1      -1.036   1.596   3.001  1.00  0.00     0.046 A 
ATOM     41  C   UNL     1      -1.141   0.532   2.110  1.00  0.00     0.115 A 
BRANCH  41  42
ATOM     42  O   UNL     1      -2.245  -0.267   2.086  1.00  0.00    -0.508 OA
ATOM     43  H   UNL     1      -2.427  -0.508   1.162  1.00  0.00     0.293 HD
ENDBRANCH  41  42
ENDBRANCH  35  36
ENDBRANCH  34  35
BRANCH  34  44
ATOM     44  C   UNL     1       1.446   4.403   0.162  1.00  0.00     0.243 C 
ATOM     45  O   UNL     1       1.957   3.934  -0.851  1.00  0.00    -0.273 OA
ATOM     46  N   UNL     1       0.255   5.097   0.122  1.00  0.00    -0.341 N 
ATOM     47  H   UNL     1      -0.070   5.569   0.962  1.00  0.00     0.164 HD
BRANCH  46  48
ATOM     48  C   UNL     1      -0.526   5.286  -1.102  1.00  0.00     0.196 C 
BRANCH  48  49
ATOM     49  C   UNL     1      -2.032   5.365  -0.798  1.00  0.00     0.072 C 
BRANCH  49  50
ATOM     50  C   UNL     1      -2.653   4.005  -0.574  1.00  0.00    -0.045 A 
ATOM     51  C   UNL     1      -2.190   2.898  -1.300  1.00  0.00     0.007 A 
ATOM     52  C   UNL     1      -3.703   3.833   0.336  1.00  0.00     0.007 A 
ATOM     53  C   UNL     1      -2.764   1.640  -1.111  1.00  0.00     0.046 A 
ATOM     54  C   UNL     1      -4.278   2.574   0.525  1.00  0.00     0.046 A 
ATOM     55  C   UNL     1      -3.802   1.488  -0.201  1.00  0.00     0.115 A 
BRANCH  55  56
ATOM     56  O   UNL     1      -4.337   0.243  -0.047  1.00  0.00    -0.508 OA
ATOM     57  H   UNL     1      -3.644  -0.412  -0.228  1.00  0.00     0.293 HD
ENDBRANCH  55  56
ENDBRANCH  49  50
ENDBRANCH  48  49
BRANCH  48  58
ATOM     58  C   UNL     1      -0.071   6.581  -1.790  1.00  0.00     0.326 C 
ATOM     59  O   UNL     1       0.129   7.665  -1.267  1.00  0.00    -0.250 OA
BRANCH  58  60
ATOM     60  O   UNL     1       0.127   6.443  -3.125  1.00  0.00    -0.480 OA
ATOM     61  H   UNL     1       0.011   7.356  -3.467  1.00  0.00     0.296 HD
ENDBRANCH  58  60
ENDBRANCH  48  58
ENDBRANCH  46  48
ENDBRANCH  34  44
ENDBRANCH  32  34
ENDBRANCH  25  30
ENDBRANCH  23  25
ENDBRANCH   2  23
TORSDOF 28
ENDMDL
MODEL 48
REMARK VINA RESULT:    -5.925     14.946     20.159
REMARK INTER + INTRA:         -19.194
REMARK INTER:                 -15.400
REMARK INTRA:                  -3.794
REMARK UNBOUND:                -4.436
REMARK SMILES CCCCCCC[C@H](N)[C@H](O)C(=O)N[C@H](C)C(=O)N(C)[C@H](CC(C)C)C(=O)N[C@@H](Cc1ccc(O)cc1)C(=O)N[C@@H](Cc1ccc(O)cc1)C(=O)O
REMARK SMILES IDX 18 1 17 2 15 3 16 4 14 5 12 6 13 7 10 9 11 10 8 12 9 13 7 16
REMARK SMILES IDX 6 17 5 18 4 19 3 20 2 21 1 22 19 23 20 24 21 25 22 26 23 27
REMARK SMILES IDX 24 28 25 29 26 30 27 31 28 32 29 34 30 35 31 36 32 37 37 38
REMARK SMILES IDX 33 39 36 40 34 41 35 42 38 44 39 45 40 46 41 48 42 49 43 50
REMARK SMILES IDX 44 51 49 52 45 53 48 54 46 55 47 56 50 58 51 59 52 60
REMARK H PARENT 14 8 11 11 9 14 9 15 28 33 35 43 40 47 47 57 52 61
ROOT
ATOM      1  O   UNL     1       0.913  -1.222   5.916  1.00  0.00    -0.272 OA
ATOM      2  C   UNL     1       0.658  -0.015   5.789  1.00  0.00     0.245 C 
ENDROOT
BRANCH   2   3
ATOM      3  C   UNL     1       1.788   1.012   6.044  1.00  0.00     0.168 C 
ATOM      4  C   UNL     1       2.550   0.673   7.320  1.00  0.00     0.041 C 
BRANCH   3   5
ATOM      5  N   UNL     1       2.685   1.227   4.919  1.00  0.00    -0.342 N 
ATOM      6  C   UNL     1       2.888   2.480   4.379  1.00  0.00     0.251 C 
ATOM      7  O   UNL     1       2.308   3.487   4.770  1.00  0.00    -0.272 OA
ATOM      8  H   UNL     1       3.195   0.461   4.486  1.00  0.00     0.164 HD
BRANCH   6   9
ATOM      9  C   UNL     1       3.979   2.490   3.296  1.00  0.00     0.219 C 
BRANCH   9  10
ATOM     10  O   UNL     1       5.250   2.047   3.788  1.00  0.00    -0.382 OA
ATOM     11  H   UNL     1       5.822   2.055   2.990  1.00  0.00     0.211 HD
ENDBRANCH   9  10
BRANCH   9  12
ATOM     12  C   UNL     1       3.578   1.706   2.020  1.00  0.00     0.089 C 
BRANCH  12  13
ATOM     13  N   UNL     1       2.219   2.133   1.616  1.00  0.00    -0.325 NA
ATOM     14  H   UNL     1       2.022   3.051   2.020  1.00  0.00     0.119 HD
ATOM     15  H   UNL     1       1.534   1.503   2.040  1.00  0.00     0.119 HD
ENDBRANCH  12  13
BRANCH  12  16
ATOM     16  C   UNL     1       4.549   1.821   0.820  1.00  0.00     0.022 C 
BRANCH  16  17
ATOM     17  C   UNL     1       5.159   0.544   0.227  1.00  0.00     0.002 C 
BRANCH  17  18
ATOM     18  C   UNL     1       6.480   0.742  -0.512  1.00  0.00     0.000 C 
BRANCH  18  19
ATOM     19  C   UNL     1       7.256   1.994  -0.080  1.00  0.00    -0.000 C 
BRANCH  19  20
ATOM     20  C   UNL     1       7.453   3.047  -1.173  1.00  0.00    -0.000 C 
BRANCH  20  21
ATOM     21  C   UNL     1       8.653   2.755  -2.078  1.00  0.00    -0.003 C 
ATOM     22  C   UNL     1       9.939   2.641  -1.274  1.00  0.00     0.004 C 
ENDBRANCH  20  21
ENDBRANCH  19  20
ENDBRANCH  18  19
ENDBRANCH  17  18
ENDBRANCH  16  17
ENDBRANCH  12  16
ENDBRANCH   9  12
ENDBRANCH   6   9
ENDBRANCH   3   5
ENDBRANCH   2   3
BRANCH   2  23
ATOM     23  N   UNL     1      -0.584   0.386   5.307  1.00  0.00    -0.332 N 
ATOM     24  C   UNL     1      -0.786   1.170   4.097  1.00  0.00     0.147 C 
BRANCH  23  25
ATOM     25  C   UNL     1      -1.833  -0.091   5.961  1.00  0.00     0.174 C 
BRANCH  25  26
ATOM     26  C   UNL     1      -3.034   0.854   5.727  1.00  0.00     0.038 C 
BRANCH  26  27
ATOM     27  C   UNL     1      -4.430   0.200   5.619  1.00  0.00    -0.015 C 
ATOM     28  C   UNL     1      -5.538   1.224   5.373  1.00  0.00     0.007 C 
ATOM     29  C   UNL     1      -4.497  -0.921   4.585  1.00  0.00     0.007 C 
ENDBRANCH  26  27
ENDBRANCH  25  26
BRANCH  25  30
ATOM     30  C   UNL     1      -1.568  -0.402   7.452  1.00  0.00     0.243 C 
ATOM     31  O   UNL     1      -1.466   0.489   8.293  1.00  0.00    -0.273 OA
ATOM     32  N   UNL     1      -1.449  -1.731   7.769  1.00  0.00    -0.342 N 
ATOM     33  H   UNL     1      -1.686  -2.414   7.045  1.00  0.00     0.164 HD
BRANCH  32  34
ATOM     34  C   UNL     1      -1.170  -2.209   9.126  1.00  0.00     0.175 C 
BRANCH  34  35
ATOM     35  C   UNL     1      -2.419  -2.838   9.764  1.00  0.00     0.070 C 
BRANCH  35  36
ATOM     36  C   UNL     1      -3.570  -2.966   8.792  1.00  0.00    -0.045 A 
ATOM     37  C   UNL     1      -4.655  -2.078   8.869  1.00  0.00     0.007 A 
ATOM     38  C   UNL     1      -3.585  -3.978   7.824  1.00  0.00     0.007 A 
ATOM     39  C   UNL     1      -5.729  -2.197   7.986  1.00  0.00     0.046 A 
ATOM     40  C   UNL     1      -4.660  -4.098   6.940  1.00  0.00     0.046 A 
ATOM     41  C   UNL     1      -5.723  -3.205   7.029  1.00  0.00     0.115 A 
BRANCH  41  42
ATOM     42  O   UNL     1      -6.792  -3.288   6.188  1.00  0.00    -0.508 OA
ATOM     43  H   UNL     1      -6.605  -2.748   5.402  1.00  0.00     0.293 HD
ENDBRANCH  41  42
ENDBRANCH  35  36
ENDBRANCH  34  35
BRANCH  34  44
ATOM     44  C   UNL     1       0.005  -3.210   9.048  1.00  0.00     0.243 C 
ATOM     45  O   UNL     1      -0.096  -4.416   9.258  1.00  0.00    -0.273 OA
ATOM     46  N   UNL     1       1.228  -2.606   8.846  1.00  0.00    -0.341 N 
ATOM     47  H   UNL     1       1.275  -1.591   8.795  1.00  0.00     0.164 HD
BRANCH  46  48
ATOM     48  C   UNL     1       2.493  -3.342   8.805  1.00  0.00     0.196 C 
BRANCH  48  49
ATOM     49  C   UNL     1       2.931  -3.623   7.358  1.00  0.00     0.072 C 
BRANCH  49  50
ATOM     50  C   UNL     1       3.463  -5.026   7.173  1.00  0.00    -0.045 A 
ATOM     51  C   UNL     1       4.550  -5.254   6.316  1.00  0.00     0.007 A 
ATOM     52  C   UNL     1       2.874  -6.113   7.831  1.00  0.00     0.007 A 
ATOM     53  C   UNL     1       5.041  -6.546   6.127  1.00  0.00     0.046 A 
ATOM     54  C   UNL     1       3.366  -7.407   7.642  1.00  0.00     0.046 A 
ATOM     55  C   UNL     1       4.447  -7.612   6.791  1.00  0.00     0.115 A 
BRANCH  55  56
ATOM     56  O   UNL     1       4.956  -8.859   6.578  1.00  0.00    -0.508 OA
ATOM     57  H   UNL     1       5.881  -8.866   6.872  1.00  0.00     0.293 HD
ENDBRANCH  55  56
ENDBRANCH  49  50
ENDBRANCH  48  49
BRANCH  48  58
ATOM     58  C   UNL     1       3.574  -2.518   9.519  1.00  0.00     0.326 C 
ATOM     59  O   UNL     1       4.771  -2.749   9.562  1.00  0.00    -0.250 OA
BRANCH  58  60
ATOM     60  O   UNL     1       3.089  -1.415  10.143  1.00  0.00    -0.480 OA
ATOM     61  H   UNL     1       3.550  -1.425  11.010  1.00  0.00     0.296 HD
ENDBRANCH  58  60
ENDBRANCH  48  58
ENDBRANCH  46  48
ENDBRANCH  34  44
ENDBRANCH  32  34
ENDBRANCH  25  30
ENDBRANCH  23  25
ENDBRANCH   2  23
TORSDOF 28
ENDMDL
MODEL 49
REMARK VINA RESULT:    -5.923     14.398     19.551
REMARK INTER + INTRA:         -19.189
REMARK INTER:                 -14.251
REMARK INTRA:                  -4.938
REMARK UNBOUND:                -4.436
REMARK SMILES CCCCCCC[C@H](N)[C@H](O)C(=O)N[C@H](C)C(=O)N(C)[C@H](CC(C)C)C(=O)N[C@@H](Cc1ccc(O)cc1)C(=O)N[C@@H](Cc1ccc(O)cc1)C(=O)O
REMARK SMILES IDX 18 1 17 2 15 3 16 4 14 5 12 6 13 7 10 9 11 10 8 12 9 13 7 16
REMARK SMILES IDX 6 17 5 18 4 19 3 20 2 21 1 22 19 23 20 24 21 25 22 26 23 27
REMARK SMILES IDX 24 28 25 29 26 30 27 31 28 32 29 34 30 35 31 36 32 37 37 38
REMARK SMILES IDX 33 39 36 40 34 41 35 42 38 44 39 45 40 46 41 48 42 49 43 50
REMARK SMILES IDX 44 51 49 52 45 53 48 54 46 55 47 56 50 58 51 59 52 60
REMARK H PARENT 14 8 11 11 9 14 9 15 28 33 35 43 40 47 47 57 52 61
ROOT
ATOM      1  O   UNL     1       2.545   5.406   5.754  1.00  0.00    -0.272 OA
ATOM      2  C   UNL     1       3.048   6.040   6.694  1.00  0.00     0.245 C 
ENDROOT
BRANCH   2   3
ATOM      3  C   UNL     1       4.438   6.691   6.489  1.00  0.00     0.168 C 
ATOM      4  C   UNL     1       5.528   5.865   7.163  1.00  0.00     0.041 C 
BRANCH   3   5
ATOM      5  N   UNL     1       4.769   7.002   5.107  1.00  0.00    -0.342 N 
ATOM      6  C   UNL     1       5.782   7.879   4.781  1.00  0.00     0.251 C 
ATOM      7  O   UNL     1       6.444   8.488   5.615  1.00  0.00    -0.272 OA
ATOM      8  H   UNL     1       4.266   6.585   4.328  1.00  0.00     0.164 HD
BRANCH   6   9
ATOM      9  C   UNL     1       6.047   7.945   3.269  1.00  0.00     0.219 C 
BRANCH   9  10
ATOM     10  O   UNL     1       6.480   9.242   2.839  1.00  0.00    -0.382 OA
ATOM     11  H   UNL     1       7.447   9.131   2.709  1.00  0.00     0.211 HD
ENDBRANCH   9  10
BRANCH   9  12
ATOM     12  C   UNL     1       7.024   6.847   2.773  1.00  0.00     0.089 C 
BRANCH  12  13
ATOM     13  N   UNL     1       7.853   6.408   3.919  1.00  0.00    -0.325 NA
ATOM     14  H   UNL     1       7.341   5.706   4.455  1.00  0.00     0.119 HD
ATOM     15  H   UNL     1       7.977   7.195   4.559  1.00  0.00     0.119 HD
ENDBRANCH  12  13
BRANCH  12  16
ATOM     16  C   UNL     1       6.374   5.621   2.087  1.00  0.00     0.022 C 
BRANCH  16  17
ATOM     17  C   UNL     1       5.839   4.475   2.956  1.00  0.00     0.002 C 
BRANCH  17  18
ATOM     18  C   UNL     1       4.776   3.603   2.291  1.00  0.00     0.000 C 
BRANCH  18  19
ATOM     19  C   UNL     1       4.702   3.763   0.767  1.00  0.00    -0.000 C 
BRANCH  19  20
ATOM     20  C   UNL     1       4.579   2.454  -0.018  1.00  0.00    -0.000 C 
BRANCH  20  21
ATOM     21  C   UNL     1       5.899   1.684  -0.110  1.00  0.00    -0.003 C 
ATOM     22  C   UNL     1       7.011   2.555  -0.673  1.00  0.00     0.004 C 
ENDBRANCH  20  21
ENDBRANCH  19  20
ENDBRANCH  18  19
ENDBRANCH  17  18
ENDBRANCH  16  17
ENDBRANCH  12  16
ENDBRANCH   9  12
ENDBRANCH   6   9
ENDBRANCH   3   5
ENDBRANCH   2   3
BRANCH   2  23
ATOM     23  N   UNL     1       2.316   6.256   7.857  1.00  0.00    -0.332 N 
ATOM     24  C   UNL     1       2.279   5.345   8.992  1.00  0.00     0.147 C 
BRANCH  23  25
ATOM     25  C   UNL     1       1.601   7.545   8.065  1.00  0.00     0.174 C 
BRANCH  25  26
ATOM     26  C   UNL     1       0.615   7.502   9.256  1.00  0.00     0.038 C 
BRANCH  26  27
ATOM     27  C   UNL     1       0.801   8.569  10.358  1.00  0.00    -0.015 C 
ATOM     28  C   UNL     1      -0.382   9.532  10.444  1.00  0.00     0.007 C 
ATOM     29  C   UNL     1       1.113   7.976  11.730  1.00  0.00     0.007 C 
ENDBRANCH  26  27
ENDBRANCH  25  26
BRANCH  25  30
ATOM     30  C   UNL     1       0.956   8.015   6.741  1.00  0.00     0.243 C 
ATOM     31  O   UNL     1       1.342   9.023   6.151  1.00  0.00    -0.273 OA
ATOM     32  N   UNL     1      -0.075   7.240   6.275  1.00  0.00    -0.342 N 
ATOM     33  H   UNL     1      -0.243   6.345   6.743  1.00  0.00     0.164 HD
BRANCH  32  34
ATOM     34  C   UNL     1      -0.821   7.548   5.052  1.00  0.00     0.175 C 
BRANCH  34  35
ATOM     35  C   UNL     1      -0.386   6.642   3.890  1.00  0.00     0.070 C 
BRANCH  35  36
ATOM     36  C   UNL     1       0.737   7.239   3.071  1.00  0.00    -0.045 A 
ATOM     37  C   UNL     1       1.746   6.411   2.555  1.00  0.00     0.007 A 
ATOM     38  C   UNL     1       0.800   8.618   2.836  1.00  0.00     0.007 A 
ATOM     39  C   UNL     1       2.793   6.955   1.811  1.00  0.00     0.046 A 
ATOM     40  C   UNL     1       1.849   9.163   2.092  1.00  0.00     0.046 A 
ATOM     41  C   UNL     1       2.836   8.325   1.585  1.00  0.00     0.115 A 
BRANCH  41  42
ATOM     42  O   UNL     1       3.878   8.816   0.855  1.00  0.00    -0.508 OA
ATOM     43  H   UNL     1       3.547   9.544   0.303  1.00  0.00     0.293 HD
ENDBRANCH  41  42
ENDBRANCH  35  36
ENDBRANCH  34  35
BRANCH  34  44
ATOM     44  C   UNL     1      -2.328   7.406   5.362  1.00  0.00     0.243 C 
ATOM     45  O   UNL     1      -2.841   6.415   5.873  1.00  0.00    -0.273 OA
ATOM     46  N   UNL     1      -3.086   8.456   4.889  1.00  0.00    -0.341 N 
ATOM     47  H   UNL     1      -2.629   9.200   4.367  1.00  0.00     0.164 HD
BRANCH  46  48
ATOM     48  C   UNL     1      -4.545   8.512   5.003  1.00  0.00     0.196 C 
BRANCH  48  49
ATOM     49  C   UNL     1      -4.999   9.756   5.785  1.00  0.00     0.072 C 
BRANCH  49  50
ATOM     50  C   UNL     1      -4.778   9.619   7.275  1.00  0.00    -0.045 A 
ATOM     51  C   UNL     1      -4.033  10.588   7.963  1.00  0.00     0.007 A 
ATOM     52  C   UNL     1      -5.290   8.524   7.982  1.00  0.00     0.007 A 
ATOM     53  C   UNL     1      -3.812  10.465   9.335  1.00  0.00     0.046 A 
ATOM     54  C   UNL     1      -5.068   8.401   9.355  1.00  0.00     0.046 A 
ATOM     55  C   UNL     1      -4.331   9.374  10.020  1.00  0.00     0.115 A 
BRANCH  55  56
ATOM     56  O   UNL     1      -4.090   9.290  11.360  1.00  0.00    -0.508 OA
ATOM     57  H   UNL     1      -3.203   8.919  11.489  1.00  0.00     0.293 HD
ENDBRANCH  55  56
ENDBRANCH  49  50
ENDBRANCH  48  49
BRANCH  48  58
ATOM     58  C   UNL     1      -5.156   8.538   3.595  1.00  0.00     0.326 C 
ATOM     59  O   UNL     1      -5.098   7.662   2.748  1.00  0.00    -0.250 OA
BRANCH  58  60
ATOM     60  O   UNL     1      -5.835   9.681   3.321  1.00  0.00    -0.480 OA
ATOM     61  H   UNL     1      -5.280  10.378   3.734  1.00  0.00     0.296 HD
ENDBRANCH  58  60
ENDBRANCH  48  58
ENDBRANCH  46  48
ENDBRANCH  34  44
ENDBRANCH  32  34
ENDBRANCH  25  30
ENDBRANCH  23  25
ENDBRANCH   2  23
TORSDOF 28
ENDMDL
MODEL 50
REMARK VINA RESULT:    -5.889     13.104     17.284
REMARK INTER + INTRA:         -19.103
REMARK INTER:                 -11.662
REMARK INTRA:                  -7.441
REMARK UNBOUND:                -4.436
REMARK SMILES CCCCCCC[C@H](N)[C@H](O)C(=O)N[C@H](C)C(=O)N(C)[C@H](CC(C)C)C(=O)N[C@@H](Cc1ccc(O)cc1)C(=O)N[C@@H](Cc1ccc(O)cc1)C(=O)O
REMARK SMILES IDX 18 1 17 2 15 3 16 4 14 5 12 6 13 7 10 9 11 10 8 12 9 13 7 16
REMARK SMILES IDX 6 17 5 18 4 19 3 20 2 21 1 22 19 23 20 24 21 25 22 26 23 27
REMARK SMILES IDX 24 28 25 29 26 30 27 31 28 32 29 34 30 35 31 36 32 37 37 38
REMARK SMILES IDX 33 39 36 40 34 41 35 42 38 44 39 45 40 46 41 48 42 49 43 50
REMARK SMILES IDX 44 51 49 52 45 53 48 54 46 55 47 56 50 58 51 59 52 60
REMARK H PARENT 14 8 11 11 9 14 9 15 28 33 35 43 40 47 47 57 52 61
ROOT
ATOM      1  O   UNL     1       3.601   9.140   5.390  1.00  0.00    -0.272 OA
ATOM      2  C   UNL     1       3.951   8.549   4.358  1.00  0.00     0.245 C 
ENDROOT
BRANCH   2   3
ATOM      3  C   UNL     1       3.169   8.819   3.048  1.00  0.00     0.168 C 
ATOM      4  C   UNL     1       4.109   9.289   1.943  1.00  0.00     0.041 C 
BRANCH   3   5
ATOM      5  N   UNL     1       2.318   7.725   2.607  1.00  0.00    -0.342 N 
ATOM      6  C   UNL     1       0.946   7.843   2.559  1.00  0.00     0.251 C 
ATOM      7  O   UNL     1       0.341   8.848   2.917  1.00  0.00    -0.272 OA
ATOM      8  H   UNL     1       2.704   6.829   2.318  1.00  0.00     0.164 HD
BRANCH   6   9
ATOM      9  C   UNL     1       0.265   6.618   1.929  1.00  0.00     0.219 C 
BRANCH   9  10
ATOM     10  O   UNL     1      -1.042   6.375   2.464  1.00  0.00    -0.382 OA
ATOM     11  H   UNL     1      -1.201   7.152   3.045  1.00  0.00     0.211 HD
ENDBRANCH   9  10
BRANCH   9  12
ATOM     12  C   UNL     1       0.224   6.673   0.379  1.00  0.00     0.089 C 
BRANCH  12  13
ATOM     13  N   UNL     1       0.826   7.953  -0.059  1.00  0.00    -0.325 NA
ATOM     14  H   UNL     1       0.611   8.678   0.629  1.00  0.00     0.119 HD
ATOM     15  H   UNL     1       0.365   8.258  -0.920  1.00  0.00     0.119 HD
ENDBRANCH  12  13
BRANCH  12  16
ATOM     16  C   UNL     1       0.894   5.490  -0.359  1.00  0.00     0.022 C 
BRANCH  16  17
ATOM     17  C   UNL     1       1.741   4.492   0.443  1.00  0.00     0.002 C 
BRANCH  17  18
ATOM     18  C   UNL     1       2.500   3.468  -0.399  1.00  0.00     0.000 C 
BRANCH  18  19
ATOM     19  C   UNL     1       2.657   2.099   0.275  1.00  0.00    -0.000 C 
BRANCH  19  20
ATOM     20  C   UNL     1       3.943   1.345  -0.076  1.00  0.00    -0.000 C 
BRANCH  20  21
ATOM     21  C   UNL     1       5.151   2.270  -0.252  1.00  0.00    -0.003 C 
ATOM     22  C   UNL     1       6.457   1.496  -0.178  1.00  0.00     0.004 C 
ENDBRANCH  20  21
ENDBRANCH  19  20
ENDBRANCH  18  19
ENDBRANCH  17  18
ENDBRANCH  16  17
ENDBRANCH  12  16
ENDBRANCH   9  12
ENDBRANCH   6   9
ENDBRANCH   3   5
ENDBRANCH   2   3
BRANCH   2  23
ATOM     23  N   UNL     1       5.096   7.760   4.362  1.00  0.00    -0.332 N 
ATOM     24  C   UNL     1       6.439   8.253   4.094  1.00  0.00     0.147 C 
BRANCH  23  25
ATOM     25  C   UNL     1       5.024   6.334   4.782  1.00  0.00     0.174 C 
BRANCH  25  26
ATOM     26  C   UNL     1       3.924   5.542   4.037  1.00  0.00     0.038 C 
BRANCH  26  27
ATOM     27  C   UNL     1       4.389   4.581   2.919  1.00  0.00    -0.015 C 
ATOM     28  C   UNL     1       5.109   5.310   1.785  1.00  0.00     0.007 C 
ATOM     29  C   UNL     1       5.233   3.417   3.431  1.00  0.00     0.007 C 
ENDBRANCH  26  27
ENDBRANCH  25  26
BRANCH  25  30
ATOM     30  C   UNL     1       4.925   6.237   6.322  1.00  0.00     0.243 C 
ATOM     31  O   UNL     1       5.793   6.701   7.060  1.00  0.00    -0.273 OA
ATOM     32  N   UNL     1       3.812   5.598   6.806  1.00  0.00    -0.342 N 
ATOM     33  H   UNL     1       3.071   5.367   6.139  1.00  0.00     0.164 HD
BRANCH  32  34
ATOM     34  C   UNL     1       3.565   5.389   8.235  1.00  0.00     0.175 C 
BRANCH  34  35
ATOM     35  C   UNL     1       2.499   6.360   8.765  1.00  0.00     0.070 C 
BRANCH  35  36
ATOM     36  C   UNL     1       1.408   6.638   7.756  1.00  0.00    -0.045 A 
ATOM     37  C   UNL     1       1.300   7.909   7.171  1.00  0.00     0.007 A 
ATOM     38  C   UNL     1       0.481   5.647   7.408  1.00  0.00     0.007 A 
ATOM     39  C   UNL     1       0.288   8.179   6.250  1.00  0.00     0.046 A 
ATOM     40  C   UNL     1      -0.533   5.917   6.486  1.00  0.00     0.046 A 
ATOM     41  C   UNL     1      -0.620   7.182   5.914  1.00  0.00     0.115 A 
BRANCH  41  42
ATOM     42  O   UNL     1      -1.595   7.488   5.011  1.00  0.00    -0.508 OA
ATOM     43  H   UNL     1      -2.416   7.665   5.499  1.00  0.00     0.293 HD
ENDBRANCH  41  42
ENDBRANCH  35  36
ENDBRANCH  34  35
BRANCH  34  44
ATOM     44  C   UNL     1       3.155   3.914   8.440  1.00  0.00     0.243 C 
ATOM     45  O   UNL     1       2.650   3.470   9.467  1.00  0.00    -0.273 OA
ATOM     46  N   UNL     1       3.530   3.090   7.399  1.00  0.00    -0.341 N 
ATOM     47  H   UNL     1       4.052   3.485   6.621  1.00  0.00     0.164 HD
BRANCH  46  48
ATOM     48  C   UNL     1       3.311   1.642   7.398  1.00  0.00     0.196 C 
BRANCH  48  49
ATOM     49  C   UNL     1       2.993   1.126   5.985  1.00  0.00     0.072 C 
BRANCH  49  50
ATOM     50  C   UNL     1       1.780   1.795   5.380  1.00  0.00    -0.045 A 
ATOM     51  C   UNL     1       0.580   1.854   6.104  1.00  0.00     0.007 A 
ATOM     52  C   UNL     1       1.826   2.343   4.092  1.00  0.00     0.007 A 
ATOM     53  C   UNL     1      -0.550   2.458   5.550  1.00  0.00     0.046 A 
ATOM     54  C   UNL     1       0.695   2.946   3.537  1.00  0.00     0.046 A 
ATOM     55  C   UNL     1      -0.484   3.000   4.273  1.00  0.00     0.115 A 
BRANCH  55  56
ATOM     56  O   UNL     1      -1.610   3.579   3.767  1.00  0.00    -0.508 OA
ATOM     57  H   UNL     1      -2.226   3.739   4.500  1.00  0.00     0.293 HD
ENDBRANCH  55  56
ENDBRANCH  49  50
ENDBRANCH  48  49
BRANCH  48  58
ATOM     58  C   UNL     1       4.571   0.945   7.930  1.00  0.00     0.326 C 
ATOM     59  O   UNL     1       5.628   1.468   8.243  1.00  0.00    -0.250 OA
BRANCH  58  60
ATOM     60  O   UNL     1       4.433  -0.398   8.058  1.00  0.00    -0.480 OA
ATOM     61  H   UNL     1       5.162  -0.754   7.504  1.00  0.00     0.296 HD
ENDBRANCH  58  60
ENDBRANCH  48  58
ENDBRANCH  46  48
ENDBRANCH  34  44
ENDBRANCH  32  34
ENDBRANCH  25  30
ENDBRANCH  23  25
ENDBRANCH   2  23
TORSDOF 28
ENDMDL
