MODEL 1
REMARK VINA RESULT:    -4.243      0.000      0.000
REMARK INTER + INTRA:         -19.588
REMARK INTER:                 -12.180
REMARK INTRA:                  -7.407
REMARK UNBOUND:                -7.407
REMARK SMILES CCCCCC(=O)N[C@H](CC(=O)O)C(=O)N[C@H]1C(=O)N[C@H](CCCN=C(N)N)C(=O)N[C@@H]2CC[C@H](O)N(C2=O)[C@@H](CC(C)C)C(=O)N(C)[C@@H](Cc2ccccc2)C(=O)N[C@H](C(C)C)C(=O)O[C@@H]1C
REMARK SMILES IDX 30 1 31 2 29 3 32 5 35 6 37 7 34 8 38 9 33 10 39 11 36 12
REMARK SMILES IDX 40 14 41 15 42 16 43 17 44 18 45 19 46 20 47 21 48 22 49 23
REMARK SMILES IDX 50 24 51 25 52 26 56 27 53 28 55 29 54 30 57 31 58 32 59 33
REMARK SMILES IDX 60 35 61 36 62 37 63 38 64 39 65 40 66 41 67 42 68 43 21 45
REMARK SMILES IDX 20 46 18 47 19 48 17 50 16 52 14 53 15 54 9 56 8 57 6 58
REMARK SMILES IDX 7 59 5 61 4 62 3 63 2 64 1 65 10 66 11 67 12 68 13 69 22 71
REMARK SMILES IDX 23 72 24 73 25 74 26 75 27 76 28 77
REMARK H PARENT 31 4 36 13 59 34 20 49 16 55 8 60 13 70 27 78 27 79 28 80
REMARK H PARENT 28 81
REMARK Flexibility Score:  259.900
ROOT
ATOM      1  O   UNL     1      16.062  -9.230  -7.751  1.00  0.00    -0.273 OA
ATOM      2  N   UNL     1      15.808 -10.959  -6.275  1.00  0.00    -0.343 N 
ATOM      3  C   UNL     1      16.142 -10.435  -7.505  1.00  0.00     0.243 C 
ATOM      4  H   UNL     1      15.900 -11.953  -6.104  1.00  0.00     0.164 HD
ENDROOT
BRANCH   2   5
ATOM      5  C   UNL     1      15.227 -10.112  -5.239  1.00  0.00     0.171 C 
ATOM      6  C   UNL     1      15.353 -10.182  -2.344  1.00  0.00     0.214 C 
ATOM      7  N   UNL     1      14.287 -10.878  -3.026  1.00  0.00    -0.303 N 
ATOM      8  C   UNL     1      15.848  -8.956  -3.094  1.00  0.00     0.057 C 
ATOM      9  C   UNL     1      14.197 -10.927  -4.407  1.00  0.00     0.247 C 
ATOM     10  C   UNL     1      16.314  -9.354  -4.477  1.00  0.00     0.040 C 
ATOM     11  O   UNL     1      13.330 -11.597  -4.985  1.00  0.00    -0.272 OA
BRANCH   6  12
ATOM     12  O   UNL     1      16.407 -11.097  -2.147  1.00  0.00    -0.373 OA
ATOM     13  H   UNL     1      16.880 -11.179  -3.003  1.00  0.00     0.213 HD
ENDBRANCH   6  12
BRANCH   7  14
ATOM     14  C   UNL     1      13.362 -11.671  -2.189  1.00  0.00     0.177 C 
BRANCH  14  15
ATOM     15  C   UNL     1      13.829 -13.105  -1.873  1.00  0.00     0.038 C 
BRANCH  15  16
ATOM     16  C   UNL     1      12.927 -14.030  -1.025  1.00  0.00    -0.015 C 
ATOM     17  C   UNL     1      13.469 -14.234   0.393  1.00  0.00     0.007 C 
ATOM     18  C   UNL     1      12.813 -15.403  -1.698  1.00  0.00     0.007 C 
ENDBRANCH  15  16
ENDBRANCH  14  15
BRANCH  14  19
ATOM     19  C   UNL     1      12.579 -10.735  -1.205  1.00  0.00     0.245 C 
ATOM     20  O   UNL     1      13.032 -10.631  -0.053  1.00  0.00    -0.272 OA
BRANCH  19  21
ATOM     21  N   UNL     1      11.378 -10.122  -1.515  1.00  0.00    -0.332 N 
ATOM     22  C   UNL     1      10.497 -10.498  -2.606  1.00  0.00     0.147 C 
BRANCH  21  23
ATOM     23  C   UNL     1      10.945  -8.973  -0.672  1.00  0.00     0.178 C 
BRANCH  23  24
ATOM     24  C   UNL     1      10.687  -7.665  -1.448  1.00  0.00     0.070 C 
BRANCH  24  25
ATOM     25  C   UNL     1      11.857  -6.723  -1.615  1.00  0.00    -0.045 A 
ATOM     26  C   UNL     1      13.137  -7.083  -1.177  1.00  0.00     0.004 A 
ATOM     27  C   UNL     1      11.673  -5.467  -2.212  1.00  0.00     0.004 A 
ATOM     28  C   UNL     1      14.209  -6.200  -1.320  1.00  0.00     0.000 A 
ATOM     29  C   UNL     1      12.746  -4.585  -2.355  1.00  0.00     0.000 A 
ATOM     30  C   UNL     1      14.013  -4.952  -1.906  1.00  0.00     0.000 A 
ENDBRANCH  24  25
ENDBRANCH  23  24
BRANCH  23  31
ATOM     31  C   UNL     1       9.845  -9.353   0.348  1.00  0.00     0.243 C 
ATOM     32  O   UNL     1       9.585 -10.507   0.679  1.00  0.00    -0.273 OA
ATOM     33  N   UNL     1       9.046  -8.287   0.723  1.00  0.00    -0.341 N 
ATOM     34  H   UNL     1       9.310  -7.349   0.410  1.00  0.00     0.164 HD
BRANCH  33  35
ATOM     35  C   UNL     1       7.871  -8.433   1.586  1.00  0.00     0.194 C 
BRANCH  35  36
ATOM     36  C   UNL     1       6.586  -7.758   1.029  1.00  0.00     0.017 C 
ATOM     37  C   UNL     1       6.196  -8.341  -0.340  1.00  0.00     0.010 C 
ATOM     38  C   UNL     1       6.727  -6.241   0.858  1.00  0.00     0.010 C 
ENDBRANCH  35  36
BRANCH  35  39
ATOM     39  C   UNL     1       8.154  -8.018   3.057  1.00  0.00     0.329 C 
ATOM     40  O   UNL     1       9.015  -7.212   3.389  1.00  0.00    -0.250 OA
BRANCH  39  41
ATOM     41  O   UNL     1       7.275  -8.588   3.936  1.00  0.00    -0.458 OA
BRANCH  41  42
ATOM     42  C   UNL     1       6.616  -7.688   4.858  1.00  0.00     0.205 CG0
ATOM     43  C   UNL     1       5.171  -7.533   4.386  1.00  0.00     0.056 C 
ATOM     44  G   UNL     1       7.379  -6.348   4.868  1.00  0.00     0.000 G0
ENDBRANCH  41  42
ENDBRANCH  39  41
ENDBRANCH  35  39
ENDBRANCH  33  35
ENDBRANCH  23  31
ENDBRANCH  21  23
ENDBRANCH  19  21
ENDBRANCH  14  19
ENDBRANCH   7  14
ENDBRANCH   2   5
BRANCH   3  45
ATOM     45  C   UNL     1      16.639 -11.452  -8.540  1.00  0.00     0.171 C 
BRANCH  45  46
ATOM     46  N   UNL     1      16.607 -10.759  -9.821  1.00  0.00    -0.342 N 
ATOM     47  C   UNL     1      17.558 -10.958 -10.790  1.00  0.00     0.247 C 
ATOM     48  O   UNL     1      18.462 -11.786 -10.679  1.00  0.00    -0.273 OA
ATOM     49  H   UNL     1      15.842 -10.105  -9.978  1.00  0.00     0.164 HD
BRANCH  47  50
ATOM     50  C   UNL     1      17.432 -10.050 -12.022  1.00  0.00     0.212 CG0
ATOM     51  G   UNL     1      17.468 -10.950 -13.273  1.00  0.00     0.000 G0
BRANCH  50  52
ATOM     52  N   UNL     1      16.165  -9.343 -11.856  1.00  0.00    -0.339 N 
ATOM     53  C   UNL     1      15.072  -9.550 -12.662  1.00  0.00     0.243 C 
ATOM     54  O   UNL     1      15.095 -10.313 -13.624  1.00  0.00    -0.273 OA
ATOM     55  H   UNL     1      16.118  -8.616 -11.144  1.00  0.00     0.164 HD
BRANCH  53  56
ATOM     56  C   UNL     1      13.877  -8.627 -12.350  1.00  0.00     0.182 C 
BRANCH  56  57
ATOM     57  N   UNL     1      13.510  -8.702 -10.932  1.00  0.00    -0.344 N 
ATOM     58  C   UNL     1      13.333  -7.582 -10.158  1.00  0.00     0.220 C 
ATOM     59  O   UNL     1      13.541  -6.447 -10.575  1.00  0.00    -0.275 OA
ATOM     60  H   UNL     1      13.231  -9.613 -10.577  1.00  0.00     0.164 HD
BRANCH  58  61
ATOM     61  C   UNL     1      12.899  -7.895  -8.738  1.00  0.00     0.100 C 
BRANCH  61  62
ATOM     62  C   UNL     1      12.838  -6.668  -7.827  1.00  0.00     0.010 C 
BRANCH  62  63
ATOM     63  C   UNL     1      14.104  -6.444  -6.991  1.00  0.00     0.000 C 
BRANCH  63  64
ATOM     64  C   UNL     1      13.861  -6.405  -5.483  1.00  0.00    -0.003 C 
ATOM     65  C   UNL     1      12.909  -7.509  -5.046  1.00  0.00     0.004 C 
ENDBRANCH  63  64
ENDBRANCH  62  63
ENDBRANCH  61  62
ENDBRANCH  58  61
ENDBRANCH  56  57
BRANCH  56  66
ATOM     66  C   UNL     1      12.691  -8.916 -13.269  1.00  0.00     0.157 C 
BRANCH  66  67
ATOM     67  C   UNL     1      11.613  -9.670 -12.545  1.00  0.00     0.305 C 
ATOM     68  O   UNL     1      11.644 -10.841 -12.199  1.00  0.00    -0.252 OA
BRANCH  67  69
ATOM     69  O   UNL     1      10.558  -8.890 -12.242  1.00  0.00    -0.481 OA
ATOM     70  H   UNL     1       9.904  -9.500 -11.838  1.00  0.00     0.296 HD
ENDBRANCH  67  69
ENDBRANCH  66  67
ENDBRANCH  56  66
ENDBRANCH  53  56
ENDBRANCH  50  52
ENDBRANCH  47  50
ENDBRANCH  45  46
BRANCH  45  71
ATOM     71  C   UNL     1      15.739 -12.692  -8.546  1.00  0.00     0.037 C 
BRANCH  71  72
ATOM     72  C   UNL     1      16.463 -13.932  -8.014  1.00  0.00     0.026 C 
BRANCH  72  73
ATOM     73  C   UNL     1      15.982 -14.303  -6.613  1.00  0.00     0.146 C 
BRANCH  73  74
ATOM     74  N   UNL     1      16.885 -13.679  -5.651  1.00  0.00    -0.254 NA
ATOM     75  C   UNL     1      16.865 -14.110  -4.444  1.00  0.00     0.185 C 
ATOM     76  N   UNL     1      17.685 -13.556  -3.536  1.00  0.00    -0.370 N 
ATOM     77  N   UNL     1      16.112 -15.085  -3.907  1.00  0.00    -0.370 N 
ATOM     78  H   UNL     1      18.283 -12.807  -3.856  1.00  0.00     0.159 HD
ATOM     79  H   UNL     1      17.624 -13.739  -2.550  1.00  0.00     0.159 HD
ATOM     80  H   UNL     1      15.450 -15.594  -4.474  1.00  0.00     0.159 HD
ATOM     81  H   UNL     1      16.266 -15.416  -2.969  1.00  0.00     0.159 HD
ENDBRANCH  73  74
ENDBRANCH  72  73
ENDBRANCH  71  72
ENDBRANCH  45  71
ENDBRANCH   3  45
TORSDOF 20
ENDMDL
MODEL 2
REMARK VINA RESULT:    -4.234      5.499     12.021
REMARK INTER + INTRA:         -19.562
REMARK INTER:                 -12.789
REMARK INTRA:                  -6.773
REMARK UNBOUND:                -7.407
REMARK SMILES CCCCCC(=O)N[C@H](CC(=O)O)C(=O)N[C@H]1C(=O)N[C@H](CCCN=C(N)N)C(=O)N[C@@H]2CC[C@H](O)N(C2=O)[C@@H](CC(C)C)C(=O)N(C)[C@@H](Cc2ccccc2)C(=O)N[C@H](C(C)C)C(=O)O[C@@H]1C
REMARK SMILES IDX 30 1 31 2 29 3 32 5 35 6 37 7 34 8 38 9 33 10 39 11 36 12
REMARK SMILES IDX 40 14 41 15 42 16 43 17 44 18 45 19 46 20 47 21 48 22 49 23
REMARK SMILES IDX 50 24 51 25 52 26 56 27 53 28 55 29 54 30 57 31 58 32 59 33
REMARK SMILES IDX 60 35 61 36 62 37 63 38 64 39 65 40 66 41 67 42 68 43 21 45
REMARK SMILES IDX 20 46 18 47 19 48 17 50 16 52 14 53 15 54 9 56 8 57 6 58
REMARK SMILES IDX 7 59 5 61 4 62 3 63 2 64 1 65 10 66 11 67 12 68 13 69 22 71
REMARK SMILES IDX 23 72 24 73 25 74 26 75 27 76 28 77
REMARK H PARENT 31 4 36 13 59 34 20 49 16 55 8 60 13 70 27 78 27 79 28 80
REMARK H PARENT 28 81
REMARK Flexibility Score:  259.900
ROOT
ATOM      1  O   UNL     1      12.452  -8.167  -3.127  1.00  0.00    -0.273 OA
ATOM      2  N   UNL     1      12.835  -9.034  -5.208  1.00  0.00    -0.343 N 
ATOM      3  C   UNL     1      13.247  -8.558  -3.982  1.00  0.00     0.243 C 
ATOM      4  H   UNL     1      13.517  -9.361  -5.882  1.00  0.00     0.164 HD
ENDROOT
BRANCH   2   5
ATOM      5  C   UNL     1      11.428  -8.984  -5.590  1.00  0.00     0.171 C 
ATOM      6  C   UNL     1       9.874 -10.432  -7.563  1.00  0.00     0.214 C 
ATOM      7  N   UNL     1      10.499  -9.182  -7.929  1.00  0.00    -0.303 N 
ATOM      8  C   UNL     1       9.490 -10.505  -6.094  1.00  0.00     0.057 C 
ATOM      9  C   UNL     1      11.296  -8.465  -7.051  1.00  0.00     0.247 C 
ATOM     10  C   UNL     1      10.715 -10.287  -5.233  1.00  0.00     0.040 C 
ATOM     11  O   UNL     1      11.898  -7.441  -7.398  1.00  0.00    -0.272 OA
BRANCH   6  12
ATOM     12  O   UNL     1      10.767 -11.471  -7.892  1.00  0.00    -0.373 OA
ATOM     13  H   UNL     1      10.313 -12.316  -7.685  1.00  0.00     0.213 HD
ENDBRANCH   6  12
BRANCH   7  14
ATOM     14  C   UNL     1      10.377  -8.759  -9.340  1.00  0.00     0.177 C 
BRANCH  14  15
ATOM     15  C   UNL     1      11.352  -9.444 -10.317  1.00  0.00     0.038 C 
BRANCH  15  16
ATOM     16  C   UNL     1      12.845  -9.049 -10.305  1.00  0.00    -0.015 C 
ATOM     17  C   UNL     1      13.064  -7.580 -10.682  1.00  0.00     0.007 C 
ATOM     18  C   UNL     1      13.621  -9.920 -11.301  1.00  0.00     0.007 C 
ENDBRANCH  15  16
ENDBRANCH  14  15
BRANCH  14  19
ATOM     19  C   UNL     1       8.894  -8.368  -9.664  1.00  0.00     0.245 C 
ATOM     20  O   UNL     1       8.359  -7.535  -8.913  1.00  0.00    -0.272 OA
BRANCH  19  21
ATOM     21  N   UNL     1       8.135  -8.972 -10.650  1.00  0.00    -0.332 N 
ATOM     22  C   UNL     1       7.304 -10.149 -10.471  1.00  0.00     0.147 C 
BRANCH  21  23
ATOM     23  C   UNL     1       8.173  -8.383 -12.017  1.00  0.00     0.178 C 
BRANCH  23  24
ATOM     24  C   UNL     1       8.470  -9.390 -13.147  1.00  0.00     0.070 C 
BRANCH  24  25
ATOM     25  C   UNL     1       9.857  -9.364 -13.745  1.00  0.00    -0.045 A 
ATOM     26  C   UNL     1      10.323 -10.431 -14.524  1.00  0.00     0.004 A 
ATOM     27  C   UNL     1      10.703  -8.267 -13.522  1.00  0.00     0.004 A 
ATOM     28  C   UNL     1      11.613 -10.406 -15.059  1.00  0.00     0.000 A 
ATOM     29  C   UNL     1      11.992  -8.244 -14.059  1.00  0.00     0.000 A 
ATOM     30  C   UNL     1      12.446  -9.315 -14.824  1.00  0.00     0.000 A 
ENDBRANCH  24  25
ENDBRANCH  23  24
BRANCH  23  31
ATOM     31  C   UNL     1       6.991  -7.424 -12.294  1.00  0.00     0.243 C 
ATOM     32  O   UNL     1       6.825  -6.352 -11.716  1.00  0.00    -0.273 OA
ATOM     33  N   UNL     1       6.023  -7.963 -13.125  1.00  0.00    -0.341 N 
ATOM     34  H   UNL     1       6.216  -8.863 -13.573  1.00  0.00     0.164 HD
BRANCH  33  35
ATOM     35  C   UNL     1       4.762  -7.283 -13.429  1.00  0.00     0.194 C 
BRANCH  35  36
ATOM     36  C   UNL     1       3.495  -8.064 -12.980  1.00  0.00     0.017 C 
ATOM     37  C   UNL     1       3.021  -7.608 -11.589  1.00  0.00     0.010 C 
ATOM     38  C   UNL     1       3.710  -9.581 -12.918  1.00  0.00     0.010 C 
ENDBRANCH  35  36
BRANCH  35  39
ATOM     39  C   UNL     1       4.669  -6.832 -14.914  1.00  0.00     0.329 C 
ATOM     40  O   UNL     1       5.600  -6.891 -15.708  1.00  0.00    -0.250 OA
BRANCH  39  41
ATOM     41  O   UNL     1       3.405  -6.441 -15.261  1.00  0.00    -0.458 OA
BRANCH  41  42
ATOM     42  C   UNL     1       3.174  -6.195 -16.668  1.00  0.00     0.205 CG0
ATOM     43  C   UNL     1       1.776  -6.714 -16.997  1.00  0.00     0.056 C 
ATOM     44  G   UNL     1       4.274  -6.908 -17.480  1.00  0.00     0.000 G0
ENDBRANCH  41  42
ENDBRANCH  39  41
ENDBRANCH  35  39
ENDBRANCH  33  35
ENDBRANCH  23  31
ENDBRANCH  21  23
ENDBRANCH  19  21
ENDBRANCH  14  19
ENDBRANCH   7  14
ENDBRANCH   2   5
BRANCH   3  45
ATOM     45  C   UNL     1      14.764  -8.567  -3.750  1.00  0.00     0.171 C 
BRANCH  45  46
ATOM     46  N   UNL     1      14.974  -7.859  -2.494  1.00  0.00    -0.342 N 
ATOM     47  C   UNL     1      15.438  -8.485  -1.364  1.00  0.00     0.247 C 
ATOM     48  O   UNL     1      15.779  -9.668  -1.348  1.00  0.00    -0.273 OA
ATOM     49  H   UNL     1      14.757  -6.864  -2.479  1.00  0.00     0.164 HD
BRANCH  47  50
ATOM     50  C   UNL     1      15.478  -7.608  -0.105  1.00  0.00     0.212 CG0
ATOM     51  G   UNL     1      16.839  -7.838   0.582  1.00  0.00     0.000 G0
BRANCH  50  52
ATOM     52  N   UNL     1      15.294  -6.238  -0.578  1.00  0.00    -0.339 N 
ATOM     53  C   UNL     1      14.703  -5.252   0.173  1.00  0.00     0.243 C 
ATOM     54  O   UNL     1      14.232  -5.461   1.288  1.00  0.00    -0.273 OA
ATOM     55  H   UNL     1      15.564  -6.029  -1.537  1.00  0.00     0.164 HD
BRANCH  53  56
ATOM     56  C   UNL     1      14.541  -3.910  -0.569  1.00  0.00     0.182 C 
BRANCH  56  57
ATOM     57  N   UNL     1      14.961  -2.787   0.277  1.00  0.00    -0.344 N 
ATOM     58  C   UNL     1      15.923  -1.889  -0.117  1.00  0.00     0.220 C 
ATOM     59  O   UNL     1      16.549  -2.004  -1.165  1.00  0.00    -0.275 OA
ATOM     60  H   UNL     1      14.400  -2.598   1.103  1.00  0.00     0.164 HD
BRANCH  58  61
ATOM     61  C   UNL     1      16.155  -0.777   0.889  1.00  0.00     0.100 C 
BRANCH  61  62
ATOM     62  C   UNL     1      14.950  -0.496   1.786  1.00  0.00     0.010 C 
BRANCH  62  63
ATOM     63  C   UNL     1      14.620   0.994   1.945  1.00  0.00     0.000 C 
BRANCH  63  64
ATOM     64  C   UNL     1      14.603   1.776   0.632  1.00  0.00    -0.003 C 
ATOM     65  C   UNL     1      13.878   3.105   0.787  1.00  0.00     0.004 C 
ENDBRANCH  63  64
ENDBRANCH  62  63
ENDBRANCH  61  62
ENDBRANCH  58  61
ENDBRANCH  56  57
BRANCH  56  66
ATOM     66  C   UNL     1      13.120  -3.731  -1.100  1.00  0.00     0.157 C 
BRANCH  66  67
ATOM     67  C   UNL     1      12.729  -4.868  -2.000  1.00  0.00     0.305 C 
ATOM     68  O   UNL     1      11.657  -5.454  -2.017  1.00  0.00    -0.252 OA
BRANCH  67  69
ATOM     69  O   UNL     1      13.700  -5.183  -2.878  1.00  0.00    -0.481 OA
ATOM     70  H   UNL     1      13.321  -4.969  -3.757  1.00  0.00     0.296 HD
ENDBRANCH  67  69
ENDBRANCH  66  67
ENDBRANCH  56  66
ENDBRANCH  53  56
ENDBRANCH  50  52
ENDBRANCH  47  50
ENDBRANCH  45  46
BRANCH  45  71
ATOM     71  C   UNL     1      15.487  -7.881  -4.914  1.00  0.00     0.037 C 
BRANCH  71  72
ATOM     72  C   UNL     1      16.818  -7.262  -4.480  1.00  0.00     0.026 C 
BRANCH  72  73
ATOM     73  C   UNL     1      16.740  -5.737  -4.441  1.00  0.00     0.146 C 
BRANCH  73  74
ATOM     74  N   UNL     1      16.876  -5.318  -3.049  1.00  0.00    -0.254 NA
ATOM     75  C   UNL     1      17.998  -4.820  -2.681  1.00  0.00     0.185 C 
ATOM     76  N   UNL     1      18.154  -4.424  -1.407  1.00  0.00    -0.370 N 
ATOM     77  N   UNL     1      19.112  -4.617  -3.407  1.00  0.00    -0.370 N 
ATOM     78  H   UNL     1      17.364  -4.549  -0.790  1.00  0.00     0.159 HD
ATOM     79  H   UNL     1      19.040  -4.162  -1.013  1.00  0.00     0.159 HD
ATOM     80  H   UNL     1      19.139  -4.864  -4.384  1.00  0.00     0.159 HD
ATOM     81  H   UNL     1      19.898  -4.110  -3.036  1.00  0.00     0.159 HD
ENDBRANCH  73  74
ENDBRANCH  72  73
ENDBRANCH  71  72
ENDBRANCH  45  71
ENDBRANCH   3  45
TORSDOF 20
ENDMDL
MODEL 3
REMARK VINA RESULT:    -4.165      4.317     12.775
REMARK INTER + INTRA:         -19.364
REMARK INTER:                 -13.474
REMARK INTRA:                  -5.890
REMARK UNBOUND:                -7.407
REMARK SMILES CCCCCC(=O)N[C@H](CC(=O)O)C(=O)N[C@H]1C(=O)N[C@H](CCCN=C(N)N)C(=O)N[C@@H]2CC[C@H](O)N(C2=O)[C@@H](CC(C)C)C(=O)N(C)[C@@H](Cc2ccccc2)C(=O)N[C@H](C(C)C)C(=O)O[C@@H]1C
REMARK SMILES IDX 30 1 31 2 29 3 32 5 35 6 37 7 34 8 38 9 33 10 39 11 36 12
REMARK SMILES IDX 40 14 41 15 42 16 43 17 44 18 45 19 46 20 47 21 48 22 49 23
REMARK SMILES IDX 50 24 51 25 52 26 56 27 53 28 55 29 54 30 57 31 58 32 59 33
REMARK SMILES IDX 60 35 61 36 62 37 63 38 64 39 65 40 66 41 67 42 68 43 21 45
REMARK SMILES IDX 20 46 18 47 19 48 17 50 16 52 14 53 15 54 9 56 8 57 6 58
REMARK SMILES IDX 7 59 5 61 4 62 3 63 2 64 1 65 10 66 11 67 12 68 13 69 22 71
REMARK SMILES IDX 23 72 24 73 25 74 26 75 27 76 28 77
REMARK H PARENT 31 4 36 13 59 34 20 49 16 55 8 60 13 70 27 78 27 79 28 80
REMARK H PARENT 28 81
REMARK Flexibility Score:  259.900
ROOT
ATOM      1  O   UNL     1       4.867  -7.953  -0.343  1.00  0.00    -0.273 OA
ATOM      2  N   UNL     1       6.733  -9.260  -0.141  1.00  0.00    -0.343 N 
ATOM      3  C   UNL     1       5.629  -8.610   0.368  1.00  0.00     0.243 C 
ATOM      4  H   UNL     1       7.330  -9.802   0.471  1.00  0.00     0.164 HD
ENDROOT
BRANCH   2   5
ATOM      5  C   UNL     1       7.113  -9.095  -1.540  1.00  0.00     0.171 C 
ATOM      6  C   UNL     1       9.092 -10.404  -3.205  1.00  0.00     0.214 C 
ATOM      7  N   UNL     1       9.452  -9.206  -2.483  1.00  0.00    -0.303 N 
ATOM      8  C   UNL     1       7.623 -10.455  -3.592  1.00  0.00     0.057 C 
ATOM      9  C   UNL     1       8.571  -8.560  -1.631  1.00  0.00     0.247 C 
ATOM     10  C   UNL     1       6.762 -10.340  -2.353  1.00  0.00     0.040 C 
ATOM     11  O   UNL     1       8.913  -7.585  -0.950  1.00  0.00    -0.272 OA
BRANCH   6  12
ATOM     12  O   UNL     1       9.427 -11.510  -2.398  1.00  0.00    -0.373 OA
ATOM     13  H   UNL     1      10.314 -11.331  -2.019  1.00  0.00     0.213 HD
ENDBRANCH   6  12
BRANCH   7  14
ATOM     14  C   UNL     1      10.861  -8.768  -2.572  1.00  0.00     0.177 C 
BRANCH  14  15
ATOM     15  C   UNL     1      11.793  -9.328  -1.480  1.00  0.00     0.038 C 
BRANCH  15  16
ATOM     16  C   UNL     1      12.868  -8.413  -0.854  1.00  0.00    -0.015 C 
ATOM     17  C   UNL     1      14.286  -8.957  -1.052  1.00  0.00     0.007 C 
ATOM     18  C   UNL     1      12.614  -8.269   0.652  1.00  0.00     0.007 C 
ENDBRANCH  15  16
ENDBRANCH  14  15
BRANCH  14  19
ATOM     19  C   UNL     1      11.260  -8.523  -4.068  1.00  0.00     0.245 C 
ATOM     20  O   UNL     1      10.332  -8.339  -4.872  1.00  0.00    -0.272 OA
BRANCH  19  21
ATOM     21  N   UNL     1      12.556  -8.614  -4.545  1.00  0.00    -0.332 N 
ATOM     22  C   UNL     1      13.370  -9.816  -4.549  1.00  0.00     0.147 C 
BRANCH  21  23
ATOM     23  C   UNL     1      13.184  -7.380  -5.092  1.00  0.00     0.178 C 
BRANCH  23  24
ATOM     24  C   UNL     1      14.450  -6.914  -4.343  1.00  0.00     0.070 C 
BRANCH  24  25
ATOM     25  C   UNL     1      14.256  -5.948  -3.198  1.00  0.00    -0.045 A 
ATOM     26  C   UNL     1      15.334  -5.568  -2.389  1.00  0.00     0.004 A 
ATOM     27  C   UNL     1      12.985  -5.419  -2.925  1.00  0.00     0.004 A 
ATOM     28  C   UNL     1      15.143  -4.688  -1.321  1.00  0.00     0.000 A 
ATOM     29  C   UNL     1      12.796  -4.539  -1.859  1.00  0.00     0.000 A 
ATOM     30  C   UNL     1      13.875  -4.176  -1.056  1.00  0.00     0.000 A 
ENDBRANCH  24  25
ENDBRANCH  23  24
BRANCH  23  31
ATOM     31  C   UNL     1      13.309  -7.398  -6.634  1.00  0.00     0.243 C 
ATOM     32  O   UNL     1      12.368  -7.210  -7.401  1.00  0.00    -0.273 OA
ATOM     33  N   UNL     1      14.544  -7.831  -7.084  1.00  0.00    -0.341 N 
ATOM     34  H   UNL     1      15.287  -7.977  -6.396  1.00  0.00     0.164 HD
BRANCH  33  35
ATOM     35  C   UNL     1      14.849  -8.041  -8.502  1.00  0.00     0.194 C 
BRANCH  35  36
ATOM     36  C   UNL     1      14.961  -9.536  -8.913  1.00  0.00     0.017 C 
ATOM     37  C   UNL     1      14.262 -10.451  -7.892  1.00  0.00     0.010 C 
ATOM     38  C   UNL     1      16.411 -10.020  -9.044  1.00  0.00     0.010 C 
ENDBRANCH  35  36
BRANCH  35  39
ATOM     39  C   UNL     1      16.077  -7.215  -8.978  1.00  0.00     0.329 C 
ATOM     40  O   UNL     1      16.263  -6.869 -10.138  1.00  0.00    -0.250 OA
BRANCH  39  41
ATOM     41  O   UNL     1      16.886  -6.842  -7.940  1.00  0.00    -0.458 OA
BRANCH  41  42
ATOM     42  C   UNL     1      18.295  -7.141  -8.086  1.00  0.00     0.205 CG0
ATOM     43  C   UNL     1      18.933  -7.006  -6.705  1.00  0.00     0.056 C 
ATOM     44  G   UNL     1      18.901  -6.164  -9.114  1.00  0.00     0.000 G0
ENDBRANCH  41  42
ENDBRANCH  39  41
ENDBRANCH  35  39
ENDBRANCH  33  35
ENDBRANCH  23  31
ENDBRANCH  21  23
ENDBRANCH  19  21
ENDBRANCH  14  19
ENDBRANCH   7  14
ENDBRANCH   2   5
BRANCH   3  45
ATOM     45  C   UNL     1       5.404  -8.779   1.876  1.00  0.00     0.171 C 
BRANCH  45  46
ATOM     46  N   UNL     1       4.119  -9.453   2.009  1.00  0.00    -0.342 N 
ATOM     47  C   UNL     1       3.922 -10.497   2.879  1.00  0.00     0.247 C 
ATOM     48  O   UNL     1       4.791 -10.889   3.659  1.00  0.00    -0.273 OA
ATOM     49  H   UNL     1       3.356  -9.122   1.422  1.00  0.00     0.164 HD
BRANCH  47  50
ATOM     50  C   UNL     1       2.542 -11.163   2.792  1.00  0.00     0.212 CG0
ATOM     51  G   UNL     1       1.836 -10.955   4.147  1.00  0.00     0.000 G0
BRANCH  50  52
ATOM     52  N   UNL     1       1.862 -10.507   1.679  1.00  0.00    -0.339 N 
ATOM     53  C   UNL     1       1.126 -11.184   0.737  1.00  0.00     0.243 C 
ATOM     54  O   UNL     1       1.028 -12.408   0.729  1.00  0.00    -0.273 OA
ATOM     55  H   UNL     1       1.997  -9.504   1.568  1.00  0.00     0.164 HD
BRANCH  53  56
ATOM     56  C   UNL     1       0.574 -10.289  -0.390  1.00  0.00     0.182 C 
BRANCH  56  57
ATOM     57  N   UNL     1       1.192 -10.623  -1.678  1.00  0.00    -0.344 N 
ATOM     58  C   UNL     1       0.502 -10.560  -2.864  1.00  0.00     0.220 C 
ATOM     59  O   UNL     1      -0.694 -10.294  -2.922  1.00  0.00    -0.275 OA
ATOM     60  H   UNL     1       2.201 -10.748  -1.685  1.00  0.00     0.164 HD
BRANCH  58  61
ATOM     61  C   UNL     1       1.355 -10.890  -4.074  1.00  0.00     0.100 C 
BRANCH  61  62
ATOM     62  C   UNL     1       2.741 -11.431  -3.722  1.00  0.00     0.010 C 
BRANCH  62  63
ATOM     63  C   UNL     1       3.832 -11.070  -4.738  1.00  0.00     0.000 C 
BRANCH  63  64
ATOM     64  C   UNL     1       3.693  -9.671  -5.337  1.00  0.00    -0.003 C 
ATOM     65  C   UNL     1       4.995  -9.208  -5.975  1.00  0.00     0.004 C 
ENDBRANCH  63  64
ENDBRANCH  62  63
ENDBRANCH  61  62
ENDBRANCH  58  61
ENDBRANCH  56  57
BRANCH  56  66
ATOM     66  C   UNL     1       0.715  -8.807  -0.049  1.00  0.00     0.157 C 
BRANCH  66  67
ATOM     67  C   UNL     1      -0.580  -8.076  -0.255  1.00  0.00     0.305 C 
ATOM     68  O   UNL     1      -1.703  -8.492  -0.016  1.00  0.00    -0.252 OA
BRANCH  67  69
ATOM     69  O   UNL     1      -0.393  -6.821  -0.708  1.00  0.00    -0.481 OA
ATOM     70  H   UNL     1       0.577  -6.741  -0.829  1.00  0.00     0.296 HD
ENDBRANCH  67  69
ENDBRANCH  66  67
ENDBRANCH  56  66
ENDBRANCH  53  56
ENDBRANCH  50  52
ENDBRANCH  47  50
ENDBRANCH  45  46
BRANCH  45  71
ATOM     71  C   UNL     1       5.400  -7.413   2.571  1.00  0.00     0.037 C 
BRANCH  71  72
ATOM     72  C   UNL     1       6.646  -7.202   3.434  1.00  0.00     0.026 C 
BRANCH  72  73
ATOM     73  C   UNL     1       7.862  -6.841   2.584  1.00  0.00     0.146 C 
BRANCH  73  74
ATOM     74  N   UNL     1       9.058  -7.243   3.319  1.00  0.00    -0.254 NA
ATOM     75  C   UNL     1       9.679  -8.292   2.925  1.00  0.00     0.185 C 
ATOM     76  N   UNL     1      10.783  -8.686   3.580  1.00  0.00    -0.370 N 
ATOM     77  N   UNL     1       9.388  -9.112   1.899  1.00  0.00    -0.370 N 
ATOM     78  H   UNL     1      11.068  -8.128   4.372  1.00  0.00     0.159 HD
ATOM     79  H   UNL     1      11.235  -9.569   3.422  1.00  0.00     0.159 HD
ATOM     80  H   UNL     1       8.585  -8.936   1.314  1.00  0.00     0.159 HD
ATOM     81  H   UNL     1      10.017  -9.843   1.613  1.00  0.00     0.159 HD
ENDBRANCH  73  74
ENDBRANCH  72  73
ENDBRANCH  71  72
ENDBRANCH  45  71
ENDBRANCH   3  45
TORSDOF 20
ENDMDL
MODEL 4
REMARK VINA RESULT:    -4.144      5.488      8.811
REMARK INTER + INTRA:         -19.302
REMARK INTER:                 -12.838
REMARK INTRA:                  -6.464
REMARK UNBOUND:                -7.407
REMARK SMILES CCCCCC(=O)N[C@H](CC(=O)O)C(=O)N[C@H]1C(=O)N[C@H](CCCN=C(N)N)C(=O)N[C@@H]2CC[C@H](O)N(C2=O)[C@@H](CC(C)C)C(=O)N(C)[C@@H](Cc2ccccc2)C(=O)N[C@H](C(C)C)C(=O)O[C@@H]1C
REMARK SMILES IDX 30 1 31 2 29 3 32 5 35 6 37 7 34 8 38 9 33 10 39 11 36 12
REMARK SMILES IDX 40 14 41 15 42 16 43 17 44 18 45 19 46 20 47 21 48 22 49 23
REMARK SMILES IDX 50 24 51 25 52 26 56 27 53 28 55 29 54 30 57 31 58 32 59 33
REMARK SMILES IDX 60 35 61 36 62 37 63 38 64 39 65 40 66 41 67 42 68 43 21 45
REMARK SMILES IDX 20 46 18 47 19 48 17 50 16 52 14 53 15 54 9 56 8 57 6 58
REMARK SMILES IDX 7 59 5 61 4 62 3 63 2 64 1 65 10 66 11 67 12 68 13 69 22 71
REMARK SMILES IDX 23 72 24 73 25 74 26 75 27 76 28 77
REMARK H PARENT 31 4 36 13 59 34 20 49 16 55 8 60 13 70 27 78 27 79 28 80
REMARK H PARENT 28 81
REMARK Flexibility Score:  259.900
ROOT
ATOM      1  O   UNL     1      13.688  -9.621   0.539  1.00  0.00    -0.273 OA
ATOM      2  N   UNL     1      11.872 -10.338   1.729  1.00  0.00    -0.343 N 
ATOM      3  C   UNL     1      13.212 -10.352   1.408  1.00  0.00     0.243 C 
ATOM      4  H   UNL     1      11.518 -10.943   2.460  1.00  0.00     0.164 HD
ENDROOT
BRANCH   2   5
ATOM      5  C   UNL     1      10.932  -9.531   0.959  1.00  0.00     0.171 C 
ATOM      6  C   UNL     1       8.036  -9.464   0.841  1.00  0.00     0.214 C 
ATOM      7  N   UNL     1       8.765 -10.319  -0.067  1.00  0.00    -0.303 N 
ATOM      8  C   UNL     1       8.807  -8.216   1.242  1.00  0.00     0.057 C 
ATOM      9  C   UNL     1      10.145 -10.437  -0.030  1.00  0.00     0.247 C 
ATOM     10  C   UNL     1      10.126  -8.609   1.872  1.00  0.00     0.040 C 
ATOM     11  O   UNL     1      10.754 -11.236  -0.753  1.00  0.00    -0.272 OA
BRANCH   6  12
ATOM     12  O   UNL     1       7.707 -10.226   1.980  1.00  0.00    -0.373 OA
ATOM     13  H   UNL     1       7.890 -11.165   1.760  1.00  0.00     0.213 HD
ENDBRANCH   6  12
BRANCH   7  14
ATOM     14  C   UNL     1       7.965 -11.189  -0.955  1.00  0.00     0.177 C 
BRANCH  14  15
ATOM     15  C   UNL     1       7.406 -12.464  -0.294  1.00  0.00     0.038 C 
BRANCH  15  16
ATOM     16  C   UNL     1       8.339 -13.674  -0.063  1.00  0.00    -0.015 C 
ATOM     17  C   UNL     1       7.626 -15.012  -0.279  1.00  0.00     0.007 C 
ATOM     18  C   UNL     1       8.880 -13.644   1.372  1.00  0.00     0.007 C 
ENDBRANCH  15  16
ENDBRANCH  14  15
BRANCH  14  19
ATOM     19  C   UNL     1       7.226 -10.329  -2.037  1.00  0.00     0.245 C 
ATOM     20  O   UNL     1       7.895  -9.452  -2.607  1.00  0.00    -0.272 OA
BRANCH  19  21
ATOM     21  N   UNL     1       5.871 -10.421  -2.300  1.00  0.00    -0.332 N 
ATOM     22  C   UNL     1       5.283 -10.767  -3.582  1.00  0.00     0.147 C 
BRANCH  21  23
ATOM     23  C   UNL     1       4.924 -10.131  -1.188  1.00  0.00     0.178 C 
BRANCH  23  24
ATOM     24  C   UNL     1       4.679  -8.632  -0.923  1.00  0.00     0.070 C 
BRANCH  24  25
ATOM     25  C   UNL     1       4.852  -8.147   0.498  1.00  0.00    -0.045 A 
ATOM     26  C   UNL     1       4.389  -8.909   1.578  1.00  0.00     0.004 A 
ATOM     27  C   UNL     1       5.478  -6.918   0.755  1.00  0.00     0.004 A 
ATOM     28  C   UNL     1       4.537  -8.446   2.887  1.00  0.00     0.000 A 
ATOM     29  C   UNL     1       5.626  -6.457   2.064  1.00  0.00     0.000 A 
ATOM     30  C   UNL     1       5.153  -7.220   3.129  1.00  0.00     0.000 A 
ENDBRANCH  24  25
ENDBRANCH  23  24
BRANCH  23  31
ATOM     31  C   UNL     1       3.646 -11.001  -1.241  1.00  0.00     0.243 C 
ATOM     32  O   UNL     1       3.638 -12.220  -1.091  1.00  0.00    -0.273 OA
ATOM     33  N   UNL     1       2.522 -10.308  -1.660  1.00  0.00    -0.341 N 
ATOM     34  H   UNL     1       2.592  -9.294  -1.774  1.00  0.00     0.164 HD
BRANCH  33  35
ATOM     35  C   UNL     1       1.228 -10.954  -1.897  1.00  0.00     0.194 C 
BRANCH  35  36
ATOM     36  C   UNL     1       0.979 -11.349  -3.380  1.00  0.00     0.017 C 
ATOM     37  C   UNL     1       1.243 -12.847  -3.612  1.00  0.00     0.010 C 
ATOM     38  C   UNL     1       1.855 -10.570  -4.369  1.00  0.00     0.010 C 
ENDBRANCH  35  36
BRANCH  35  39
ATOM     39  C   UNL     1       0.040 -10.147  -1.304  1.00  0.00     0.329 C 
ATOM     40  O   UNL     1      -0.403  -9.116  -1.796  1.00  0.00    -0.250 OA
BRANCH  39  41
ATOM     41  O   UNL     1      -0.516 -10.763  -0.217  1.00  0.00    -0.458 OA
BRANCH  41  42
ATOM     42  C   UNL     1      -1.958 -10.893  -0.222  1.00  0.00     0.205 CG0
ATOM     43  C   UNL     1      -2.311 -12.007  -1.206  1.00  0.00     0.056 C 
ATOM     44  G   UNL     1      -2.573  -9.537  -0.621  1.00  0.00     0.000 G0
ENDBRANCH  41  42
ENDBRANCH  39  41
ENDBRANCH  35  39
ENDBRANCH  33  35
ENDBRANCH  23  31
ENDBRANCH  21  23
ENDBRANCH  19  21
ENDBRANCH  14  19
ENDBRANCH   7  14
ENDBRANCH   2   5
BRANCH   3  45
ATOM     45  C   UNL     1      14.073 -11.326   2.223  1.00  0.00     0.171 C 
BRANCH  45  46
ATOM     46  N   UNL     1      15.368 -11.361   1.556  1.00  0.00    -0.342 N 
ATOM     47  C   UNL     1      16.486 -10.771   2.088  1.00  0.00     0.247 C 
ATOM     48  O   UNL     1      16.496 -10.235   3.197  1.00  0.00    -0.273 OA
ATOM     49  H   UNL     1      15.417 -11.844   0.661  1.00  0.00     0.164 HD
BRANCH  47  50
ATOM     50  C   UNL     1      17.729 -10.801   1.187  1.00  0.00     0.212 CG0
ATOM     51  G   UNL     1      18.385 -12.188   1.342  1.00  0.00     0.000 G0
BRANCH  50  52
ATOM     52  N   UNL     1      17.236 -10.543  -0.163  1.00  0.00    -0.339 N 
ATOM     53  C   UNL     1      17.319  -9.316  -0.776  1.00  0.00     0.243 C 
ATOM     54  O   UNL     1      17.769  -8.323  -0.212  1.00  0.00    -0.273 OA
ATOM     55  H   UNL     1      16.752 -11.299  -0.643  1.00  0.00     0.164 HD
BRANCH  53  56
ATOM     56  C   UNL     1      16.655  -9.264  -2.167  1.00  0.00     0.182 C 
BRANCH  56  57
ATOM     57  N   UNL     1      15.259  -8.824  -2.068  1.00  0.00    -0.344 N 
ATOM     58  C   UNL     1      14.757  -7.792  -2.822  1.00  0.00     0.220 C 
ATOM     59  O   UNL     1      15.454  -7.120  -3.575  1.00  0.00    -0.275 OA
ATOM     60  H   UNL     1      14.627  -9.416  -1.535  1.00  0.00     0.164 HD
BRANCH  58  61
ATOM     61  C   UNL     1      13.276  -7.549  -2.599  1.00  0.00     0.100 C 
BRANCH  61  62
ATOM     62  C   UNL     1      12.977  -6.558  -1.474  1.00  0.00     0.010 C 
BRANCH  62  63
ATOM     63  C   UNL     1      13.111  -5.085  -1.883  1.00  0.00     0.000 C 
BRANCH  63  64
ATOM     64  C   UNL     1      14.129  -4.297  -1.062  1.00  0.00    -0.003 C 
ATOM     65  C   UNL     1      13.486  -3.096  -0.383  1.00  0.00     0.004 C 
ENDBRANCH  63  64
ENDBRANCH  62  63
ENDBRANCH  61  62
ENDBRANCH  58  61
ENDBRANCH  56  57
BRANCH  56  66
ATOM     66  C   UNL     1      16.789 -10.596  -2.903  1.00  0.00     0.157 C 
BRANCH  66  67
ATOM     67  C   UNL     1      15.483 -11.337  -2.928  1.00  0.00     0.305 C 
ATOM     68  O   UNL     1      14.960 -11.931  -1.998  1.00  0.00    -0.252 OA
BRANCH  67  69
ATOM     69  O   UNL     1      14.868 -11.248  -4.123  1.00  0.00    -0.481 OA
ATOM     70  H   UNL     1      15.388 -10.585  -4.624  1.00  0.00     0.296 HD
ENDBRANCH  67  69
ENDBRANCH  66  67
ENDBRANCH  56  66
ENDBRANCH  53  56
ENDBRANCH  50  52
ENDBRANCH  47  50
ENDBRANCH  45  46
BRANCH  45  71
ATOM     71  C   UNL     1      13.420 -12.712   2.262  1.00  0.00     0.037 C 
BRANCH  71  72
ATOM     72  C   UNL     1      13.882 -13.600   1.104  1.00  0.00     0.026 C 
BRANCH  72  73
ATOM     73  C   UNL     1      14.246 -15.003   1.584  1.00  0.00     0.146 C 
BRANCH  73  74
ATOM     74  N   UNL     1      14.278 -15.880   0.418  1.00  0.00    -0.254 NA
ATOM     75  C   UNL     1      14.991 -16.944   0.487  1.00  0.00     0.185 C 
ATOM     76  N   UNL     1      15.039 -17.771  -0.569  1.00  0.00    -0.370 N 
ATOM     77  N   UNL     1      15.742 -17.392   1.508  1.00  0.00    -0.370 N 
ATOM     78  H   UNL     1      14.506 -17.504  -1.385  1.00  0.00     0.159 HD
ATOM     79  H   UNL     1      15.682 -18.540  -0.642  1.00  0.00     0.159 HD
ATOM     80  H   UNL     1      15.798 -16.873   2.371  1.00  0.00     0.159 HD
ATOM     81  H   UNL     1      16.168 -18.304   1.489  1.00  0.00     0.159 HD
ENDBRANCH  73  74
ENDBRANCH  72  73
ENDBRANCH  71  72
ENDBRANCH  45  71
ENDBRANCH   3  45
TORSDOF 20
ENDMDL
MODEL 5
REMARK VINA RESULT:    -4.140      3.841      6.180
REMARK INTER + INTRA:         -19.294
REMARK INTER:                 -11.083
REMARK INTRA:                  -8.210
REMARK UNBOUND:                -7.407
REMARK SMILES CCCCCC(=O)N[C@H](CC(=O)O)C(=O)N[C@H]1C(=O)N[C@H](CCCN=C(N)N)C(=O)N[C@@H]2CC[C@H](O)N(C2=O)[C@@H](CC(C)C)C(=O)N(C)[C@@H](Cc2ccccc2)C(=O)N[C@H](C(C)C)C(=O)O[C@@H]1C
REMARK SMILES IDX 30 1 31 2 29 3 32 5 35 6 37 7 34 8 38 9 33 10 39 11 36 12
REMARK SMILES IDX 40 14 41 15 42 16 43 17 44 18 45 19 46 20 47 21 48 22 49 23
REMARK SMILES IDX 50 24 51 25 52 26 56 27 53 28 55 29 54 30 57 31 58 32 59 33
REMARK SMILES IDX 60 35 61 36 62 37 63 38 64 39 65 40 66 41 67 42 68 43 21 45
REMARK SMILES IDX 20 46 18 47 19 48 17 50 16 52 14 53 15 54 9 56 8 57 6 58
REMARK SMILES IDX 7 59 5 61 4 62 3 63 2 64 1 65 10 66 11 67 12 68 13 69 22 71
REMARK SMILES IDX 23 72 24 73 25 74 26 75 27 76 28 77
REMARK H PARENT 31 4 36 13 59 34 20 49 16 55 8 60 13 70 27 78 27 79 28 80
REMARK H PARENT 28 81
REMARK Flexibility Score:  259.900
ROOT
ATOM      1  O   UNL     1      14.459  -9.985  -8.721  1.00  0.00    -0.273 OA
ATOM      2  N   UNL     1      13.789  -8.217 -10.007  1.00  0.00    -0.343 N 
ATOM      3  C   UNL     1      13.931  -9.564  -9.751  1.00  0.00     0.243 C 
ATOM      4  H   UNL     1      13.336  -7.906 -10.858  1.00  0.00     0.164 HD
ENDROOT
BRANCH   2   5
ATOM      5  C   UNL     1      14.371  -7.224  -9.111  1.00  0.00     0.171 C 
ATOM      6  C   UNL     1      15.658  -7.432  -6.521  1.00  0.00     0.214 C 
ATOM      7  N   UNL     1      14.232  -7.214  -6.590  1.00  0.00    -0.303 N 
ATOM      8  C   UNL     1      16.416  -6.838  -7.698  1.00  0.00     0.057 C 
ATOM      9  C   UNL     1      13.547  -7.156  -7.793  1.00  0.00     0.247 C 
ATOM     10  C   UNL     1      15.883  -7.412  -8.993  1.00  0.00     0.040 C 
ATOM     11  O   UNL     1      12.314  -7.055  -7.842  1.00  0.00    -0.272 OA
BRANCH   6  12
ATOM     12  O   UNL     1      15.878  -8.822  -6.445  1.00  0.00    -0.373 OA
ATOM     13  H   UNL     1      15.898  -9.058  -5.493  1.00  0.00     0.213 HD
ENDBRANCH   6  12
BRANCH   7  14
ATOM     14  C   UNL     1      13.494  -7.199  -5.310  1.00  0.00     0.177 C 
BRANCH  14  15
ATOM     15  C   UNL     1      13.022  -8.578  -4.809  1.00  0.00     0.038 C 
BRANCH  15  16
ATOM     16  C   UNL     1      11.643  -9.117  -5.248  1.00  0.00    -0.015 C 
ATOM     17  C   UNL     1      10.834  -9.678  -4.075  1.00  0.00     0.007 C 
ATOM     18  C   UNL     1      11.828 -10.235  -6.282  1.00  0.00     0.007 C 
ENDBRANCH  15  16
ENDBRANCH  14  15
BRANCH  14  19
ATOM     19  C   UNL     1      14.006  -6.030  -4.400  1.00  0.00     0.245 C 
ATOM     20  O   UNL     1      13.867  -4.877  -4.840  1.00  0.00    -0.272 OA
BRANCH  19  21
ATOM     21  N   UNL     1      14.690  -6.220  -3.212  1.00  0.00    -0.332 N 
ATOM     22  C   UNL     1      16.079  -6.629  -3.096  1.00  0.00     0.147 C 
BRANCH  21  23
ATOM     23  C   UNL     1      13.949  -6.001  -1.939  1.00  0.00     0.178 C 
BRANCH  23  24
ATOM     24  C   UNL     1      13.451  -7.290  -1.253  1.00  0.00     0.070 C 
BRANCH  24  25
ATOM     25  C   UNL     1      11.957  -7.510  -1.204  1.00  0.00    -0.045 A 
ATOM     26  C   UNL     1      11.414  -8.591  -0.499  1.00  0.00     0.004 A 
ATOM     27  C   UNL     1      11.090  -6.631  -1.871  1.00  0.00     0.004 A 
ATOM     28  C   UNL     1      10.033  -8.798  -0.472  1.00  0.00     0.000 A 
ATOM     29  C   UNL     1       9.710  -6.838  -1.843  1.00  0.00     0.000 A 
ATOM     30  C   UNL     1       9.183  -7.923  -1.146  1.00  0.00     0.000 A 
ENDBRANCH  24  25
ENDBRANCH  23  24
BRANCH  23  31
ATOM     31  C   UNL     1      14.649  -4.991  -0.999  1.00  0.00     0.243 C 
ATOM     32  O   UNL     1      15.007  -3.867  -1.343  1.00  0.00    -0.273 OA
ATOM     33  N   UNL     1      15.008  -5.531   0.224  1.00  0.00    -0.341 N 
ATOM     34  H   UNL     1      14.686  -6.475   0.451  1.00  0.00     0.164 HD
BRANCH  33  35
ATOM     35  C   UNL     1      15.785  -4.795   1.225  1.00  0.00     0.194 C 
BRANCH  35  36
ATOM     36  C   UNL     1      17.159  -5.439   1.563  1.00  0.00     0.017 C 
ATOM     37  C   UNL     1      18.197  -5.151   0.465  1.00  0.00     0.010 C 
ATOM     38  C   UNL     1      17.086  -6.961   1.737  1.00  0.00     0.010 C 
ENDBRANCH  35  36
BRANCH  35  39
ATOM     39  C   UNL     1      14.963  -4.477   2.505  1.00  0.00     0.329 C 
ATOM     40  O   UNL     1      14.242  -5.287   3.076  1.00  0.00    -0.250 OA
BRANCH  39  41
ATOM     41  O   UNL     1      15.200  -3.215   2.976  1.00  0.00    -0.458 OA
BRANCH  41  42
ATOM     42  C   UNL     1      14.150  -2.622   3.777  1.00  0.00     0.205 CG0
ATOM     43  C   UNL     1      13.358  -1.686   2.867  1.00  0.00     0.056 C 
ATOM     44  G   UNL     1      14.797  -1.882   4.965  1.00  0.00     0.000 G0
ENDBRANCH  41  42
ENDBRANCH  39  41
ENDBRANCH  35  39
ENDBRANCH  33  35
ENDBRANCH  23  31
ENDBRANCH  21  23
ENDBRANCH  19  21
ENDBRANCH  14  19
ENDBRANCH   7  14
ENDBRANCH   2   5
BRANCH   3  45
ATOM     45  C   UNL     1      13.368 -10.501 -10.827  1.00  0.00     0.171 C 
BRANCH  45  46
ATOM     46  N   UNL     1      12.653  -9.642 -11.762  1.00  0.00    -0.342 N 
ATOM     47  C   UNL     1      12.702  -9.830 -13.120  1.00  0.00     0.247 C 
ATOM     48  O   UNL     1      13.291 -10.777 -13.643  1.00  0.00    -0.273 OA
ATOM     49  H   UNL     1      12.106  -8.879 -11.368  1.00  0.00     0.164 HD
BRANCH  47  50
ATOM     50  C   UNL     1      11.988  -8.754 -13.952  1.00  0.00     0.212 CG0
ATOM     51  G   UNL     1      11.454  -9.430 -15.230  1.00  0.00     0.000 G0
BRANCH  50  52
ATOM     52  N   UNL     1      10.931  -8.233 -13.089  1.00  0.00    -0.339 N 
ATOM     53  C   UNL     1       9.647  -8.721 -13.088  1.00  0.00     0.243 C 
ATOM     54  O   UNL     1       9.274  -9.604 -13.856  1.00  0.00    -0.273 OA
ATOM     55  H   UNL     1      11.150  -7.425 -12.509  1.00  0.00     0.164 HD
BRANCH  53  56
ATOM     56  C   UNL     1       8.686  -7.955 -12.157  1.00  0.00     0.182 C 
BRANCH  56  57
ATOM     57  N   UNL     1       8.447  -8.702 -10.918  1.00  0.00    -0.344 N 
ATOM     58  C   UNL     1       9.404  -8.834  -9.941  1.00  0.00     0.220 C 
ATOM     59  O   UNL     1      10.545  -8.402 -10.068  1.00  0.00    -0.275 OA
ATOM     60  H   UNL     1       7.490  -8.988 -10.729  1.00  0.00     0.164 HD
BRANCH  58  61
ATOM     61  C   UNL     1       8.919  -9.597  -8.723  1.00  0.00     0.100 C 
BRANCH  61  62
ATOM     62  C   UNL     1       8.672  -8.713  -7.500  1.00  0.00     0.010 C 
BRANCH  62  63
ATOM     63  C   UNL     1       7.403  -9.068  -6.715  1.00  0.00     0.000 C 
BRANCH  63  64
ATOM     64  C   UNL     1       6.166  -9.281  -7.586  1.00  0.00    -0.003 C 
ATOM     65  C   UNL     1       5.646  -7.963  -8.143  1.00  0.00     0.004 C 
ENDBRANCH  63  64
ENDBRANCH  62  63
ENDBRANCH  61  62
ENDBRANCH  58  61
ENDBRANCH  56  57
BRANCH  56  66
ATOM     66  C   UNL     1       7.385  -7.592 -12.871  1.00  0.00     0.157 C 
BRANCH  66  67
ATOM     67  C   UNL     1       6.248  -8.453 -12.402  1.00  0.00     0.305 C 
ATOM     68  O   UNL     1       5.357  -8.134 -11.630  1.00  0.00    -0.252 OA
BRANCH  67  69
ATOM     69  O   UNL     1       6.260  -9.672 -12.974  1.00  0.00    -0.481 OA
ATOM     70  H   UNL     1       5.501  -9.665 -13.594  1.00  0.00     0.296 HD
ENDBRANCH  67  69
ENDBRANCH  66  67
ENDBRANCH  56  66
ENDBRANCH  53  56
ENDBRANCH  50  52
ENDBRANCH  47  50
ENDBRANCH  45  46
BRANCH  45  71
ATOM     71  C   UNL     1      12.441 -11.544 -10.195  1.00  0.00     0.037 C 
BRANCH  71  72
ATOM     72  C   UNL     1      12.912 -12.975 -10.469  1.00  0.00     0.026 C 
BRANCH  72  73
ATOM     73  C   UNL     1      14.338 -13.000 -11.015  1.00  0.00     0.146 C 
BRANCH  73  74
ATOM     74  N   UNL     1      15.110 -13.938 -10.206  1.00  0.00    -0.254 NA
ATOM     75  C   UNL     1      16.016 -13.460  -9.435  1.00  0.00     0.185 C 
ATOM     76  N   UNL     1      16.742 -14.298  -8.678  1.00  0.00    -0.370 N 
ATOM     77  N   UNL     1      16.379 -12.179  -9.251  1.00  0.00    -0.370 N 
ATOM     78  H   UNL     1      16.537 -15.284  -8.761  1.00  0.00     0.159 HD
ATOM     79  H   UNL     1      17.558 -14.014  -8.164  1.00  0.00     0.159 HD
ATOM     80  H   UNL     1      15.915 -11.437  -9.754  1.00  0.00     0.159 HD
ATOM     81  H   UNL     1      17.029 -11.912  -8.531  1.00  0.00     0.159 HD
ENDBRANCH  73  74
ENDBRANCH  72  73
ENDBRANCH  71  72
ENDBRANCH  45  71
ENDBRANCH   3  45
TORSDOF 20
ENDMDL
MODEL 6
REMARK VINA RESULT:    -4.119      5.257     11.653
REMARK INTER + INTRA:         -19.232
REMARK INTER:                 -12.292
REMARK INTRA:                  -6.939
REMARK UNBOUND:                -7.407
REMARK SMILES CCCCCC(=O)N[C@H](CC(=O)O)C(=O)N[C@H]1C(=O)N[C@H](CCCN=C(N)N)C(=O)N[C@@H]2CC[C@H](O)N(C2=O)[C@@H](CC(C)C)C(=O)N(C)[C@@H](Cc2ccccc2)C(=O)N[C@H](C(C)C)C(=O)O[C@@H]1C
REMARK SMILES IDX 30 1 31 2 29 3 32 5 35 6 37 7 34 8 38 9 33 10 39 11 36 12
REMARK SMILES IDX 40 14 41 15 42 16 43 17 44 18 45 19 46 20 47 21 48 22 49 23
REMARK SMILES IDX 50 24 51 25 52 26 56 27 53 28 55 29 54 30 57 31 58 32 59 33
REMARK SMILES IDX 60 35 61 36 62 37 63 38 64 39 65 40 66 41 67 42 68 43 21 45
REMARK SMILES IDX 20 46 18 47 19 48 17 50 16 52 14 53 15 54 9 56 8 57 6 58
REMARK SMILES IDX 7 59 5 61 4 62 3 63 2 64 1 65 10 66 11 67 12 68 13 69 22 71
REMARK SMILES IDX 23 72 24 73 25 74 26 75 27 76 28 77
REMARK H PARENT 31 4 36 13 59 34 20 49 16 55 8 60 13 70 27 78 27 79 28 80
REMARK H PARENT 28 81
REMARK Flexibility Score:  259.900
ROOT
ATOM      1  O   UNL     1      13.388  -6.233  -6.432  1.00  0.00    -0.273 OA
ATOM      2  N   UNL     1      12.750  -8.415  -6.679  1.00  0.00    -0.343 N 
ATOM      3  C   UNL     1      13.694  -7.422  -6.532  1.00  0.00     0.243 C 
ATOM      4  H   UNL     1      13.037  -9.384  -6.743  1.00  0.00     0.164 HD
ENDROOT
BRANCH   2   5
ATOM      5  C   UNL     1      11.339  -8.081  -6.843  1.00  0.00     0.171 C 
ATOM      6  C   UNL     1       8.968  -9.703  -7.227  1.00  0.00     0.214 C 
ATOM      7  N   UNL     1       9.695  -9.223  -8.380  1.00  0.00    -0.303 N 
ATOM      8  C   UNL     1       9.065  -8.777  -6.026  1.00  0.00     0.057 C 
ATOM      9  C   UNL     1      10.863  -8.487  -8.267  1.00  0.00     0.247 C 
ATOM     10  C   UNL     1      10.517  -8.572  -5.652  1.00  0.00     0.040 C 
ATOM     11  O   UNL     1      11.527  -8.154  -9.257  1.00  0.00    -0.272 OA
BRANCH   6  12
ATOM     12  O   UNL     1       9.466 -10.981  -6.905  1.00  0.00    -0.373 OA
ATOM     13  H   UNL     1      10.145 -10.857  -6.208  1.00  0.00     0.213 HD
ENDBRANCH   6  12
BRANCH   7  14
ATOM     14  C   UNL     1       9.223  -9.675  -9.706  1.00  0.00     0.177 C 
BRANCH  14  15
ATOM     15  C   UNL     1       9.430 -11.174 -10.000  1.00  0.00     0.038 C 
BRANCH  15  16
ATOM     16  C   UNL     1      10.015 -11.608 -11.363  1.00  0.00    -0.015 C 
ATOM     17  C   UNL     1       9.339 -12.867 -11.914  1.00  0.00     0.007 C 
ATOM     18  C   UNL     1      11.515 -11.893 -11.216  1.00  0.00     0.007 C 
ENDBRANCH  15  16
ENDBRANCH  14  15
BRANCH  14  19
ATOM     19  C   UNL     1       7.990  -8.823 -10.163  1.00  0.00     0.245 C 
ATOM     20  O   UNL     1       7.712  -7.827  -9.475  1.00  0.00    -0.272 OA
BRANCH  19  21
ATOM     21  N   UNL     1       7.148  -9.180 -11.202  1.00  0.00    -0.332 N 
ATOM     22  C   UNL     1       6.089 -10.171 -11.127  1.00  0.00     0.147 C 
BRANCH  21  23
ATOM     23  C   UNL     1       7.341  -8.507 -12.516  1.00  0.00     0.178 C 
BRANCH  23  24
ATOM     24  C   UNL     1       7.983  -9.390 -13.606  1.00  0.00     0.070 C 
BRANCH  24  25
ATOM     25  C   UNL     1       9.483  -9.303 -13.767  1.00  0.00    -0.045 A 
ATOM     26  C   UNL     1      10.171 -10.209 -14.584  1.00  0.00     0.004 A 
ATOM     27  C   UNL     1      10.211  -8.312 -13.091  1.00  0.00     0.004 A 
ATOM     28  C   UNL     1      11.559 -10.133 -14.714  1.00  0.00     0.000 A 
ATOM     29  C   UNL     1      11.598  -8.237 -13.223  1.00  0.00     0.000 A 
ATOM     30  C   UNL     1      12.272  -9.149 -14.032  1.00  0.00     0.000 A 
ENDBRANCH  24  25
ENDBRANCH  23  24
BRANCH  23  31
ATOM     31  C   UNL     1       6.097  -7.709 -12.974  1.00  0.00     0.243 C 
ATOM     32  O   UNL     1       5.590  -6.796 -12.327  1.00  0.00    -0.273 OA
ATOM     33  N   UNL     1       5.486  -8.235 -14.099  1.00  0.00    -0.341 N 
ATOM     34  H   UNL     1       5.954  -8.999 -14.593  1.00  0.00     0.164 HD
BRANCH  33  35
ATOM     35  C   UNL     1       4.228  -7.715 -14.642  1.00  0.00     0.194 C 
BRANCH  35  36
ATOM     36  C   UNL     1       2.977  -8.558 -14.266  1.00  0.00     0.017 C 
ATOM     37  C   UNL     1       2.246  -7.963 -13.050  1.00  0.00     0.010 C 
ATOM     38  C   UNL     1       3.311 -10.017 -13.932  1.00  0.00     0.010 C 
ENDBRANCH  35  36
BRANCH  35  39
ATOM     39  C   UNL     1       4.304  -7.439 -16.170  1.00  0.00     0.329 C 
ATOM     40  O   UNL     1       4.668  -8.265 -16.999  1.00  0.00    -0.250 OA
BRANCH  39  41
ATOM     41  O   UNL     1       3.836  -6.197 -16.498  1.00  0.00    -0.458 OA
BRANCH  41  42
ATOM     42  C   UNL     1       2.851  -6.143 -17.558  1.00  0.00     0.205 CG0
ATOM     43  C   UNL     1       1.494  -6.463 -16.933  1.00  0.00     0.056 C 
ATOM     44  G   UNL     1       3.250  -7.153 -18.652  1.00  0.00     0.000 G0
ENDBRANCH  41  42
ENDBRANCH  39  41
ENDBRANCH  35  39
ENDBRANCH  33  35
ENDBRANCH  23  31
ENDBRANCH  21  23
ENDBRANCH  19  21
ENDBRANCH  14  19
ENDBRANCH   7  14
ENDBRANCH   2   5
BRANCH   3  45
ATOM     45  C   UNL     1      15.150  -7.902  -6.480  1.00  0.00     0.171 C 
BRANCH  45  46
ATOM     46  N   UNL     1      15.434  -8.147  -5.072  1.00  0.00    -0.342 N 
ATOM     47  C   UNL     1      16.032  -9.301  -4.631  1.00  0.00     0.247 C 
ATOM     48  O   UNL     1      16.438 -10.177  -5.396  1.00  0.00    -0.273 OA
ATOM     49  H   UNL     1      15.166  -7.421  -4.410  1.00  0.00     0.164 HD
BRANCH  47  50
ATOM     50  C   UNL     1      16.138  -9.437  -3.106  1.00  0.00     0.212 CG0
ATOM     51  G   UNL     1      17.487 -10.112  -2.789  1.00  0.00     0.000 G0
BRANCH  50  52
ATOM     52  N   UNL     1      16.037  -8.076  -2.585  1.00  0.00    -0.339 N 
ATOM     53  C   UNL     1      17.124  -7.338  -2.184  1.00  0.00     0.243 C 
ATOM     54  O   UNL     1      18.266  -7.789  -2.183  1.00  0.00    -0.273 OA
ATOM     55  H   UNL     1      15.105  -7.686  -2.457  1.00  0.00     0.164 HD
BRANCH  53  56
ATOM     56  C   UNL     1      16.763  -5.961  -1.590  1.00  0.00     0.182 C 
BRANCH  56  57
ATOM     57  N   UNL     1      15.348  -5.647  -1.811  1.00  0.00    -0.344 N 
ATOM     58  C   UNL     1      14.837  -5.394  -3.060  1.00  0.00     0.220 C 
ATOM     59  O   UNL     1      15.537  -5.341  -4.066  1.00  0.00    -0.275 OA
ATOM     60  H   UNL     1      14.719  -5.780  -1.024  1.00  0.00     0.164 HD
BRANCH  58  61
ATOM     61  C   UNL     1      13.339  -5.151  -3.059  1.00  0.00     0.100 C 
BRANCH  61  62
ATOM     62  C   UNL     1      12.570  -6.049  -2.090  1.00  0.00     0.010 C 
BRANCH  62  63
ATOM     63  C   UNL     1      12.290  -7.458  -2.628  1.00  0.00     0.000 C 
BRANCH  63  64
ATOM     64  C   UNL     1      11.091  -8.150  -1.981  1.00  0.00    -0.003 C 
ATOM     65  C   UNL     1       9.899  -7.209  -1.875  1.00  0.00     0.004 C 
ENDBRANCH  63  64
ENDBRANCH  62  63
ENDBRANCH  61  62
ENDBRANCH  58  61
ENDBRANCH  56  57
BRANCH  56  66
ATOM     66  C   UNL     1      17.687  -4.864  -2.117  1.00  0.00     0.157 C 
BRANCH  66  67
ATOM     67  C   UNL     1      17.573  -3.615  -1.292  1.00  0.00     0.305 C 
ATOM     68  O   UNL     1      16.560  -2.965  -1.082  1.00  0.00    -0.252 OA
BRANCH  67  69
ATOM     69  O   UNL     1      18.743  -3.269  -0.722  1.00  0.00    -0.481 OA
ATOM     70  H   UNL     1      19.009  -2.443  -1.178  1.00  0.00     0.296 HD
ENDBRANCH  67  69
ENDBRANCH  66  67
ENDBRANCH  56  66
ENDBRANCH  53  56
ENDBRANCH  50  52
ENDBRANCH  47  50
ENDBRANCH  45  46
BRANCH  45  71
ATOM     71  C   UNL     1      16.084  -6.838  -7.068  1.00  0.00     0.037 C 
BRANCH  71  72
ATOM     72  C   UNL     1      17.123  -7.445  -8.015  1.00  0.00     0.026 C 
BRANCH  72  73
ATOM     73  C   UNL     1      16.751  -7.213  -9.478  1.00  0.00     0.146 C 
BRANCH  73  74
ATOM     74  N   UNL     1      15.963  -8.357  -9.925  1.00  0.00    -0.254 NA
ATOM     75  C   UNL     1      14.752  -8.145 -10.289  1.00  0.00     0.185 C 
ATOM     76  N   UNL     1      14.002  -9.177 -10.706  1.00  0.00    -0.370 N 
ATOM     77  N   UNL     1      14.071  -6.986 -10.322  1.00  0.00    -0.370 N 
ATOM     78  H   UNL     1      14.437 -10.089 -10.705  1.00  0.00     0.159 HD
ATOM     79  H   UNL     1      13.012  -9.113 -10.867  1.00  0.00     0.159 HD
ATOM     80  H   UNL     1      14.510  -6.123 -10.039  1.00  0.00     0.159 HD
ATOM     81  H   UNL     1      13.156  -6.923 -10.738  1.00  0.00     0.159 HD
ENDBRANCH  73  74
ENDBRANCH  72  73
ENDBRANCH  71  72
ENDBRANCH  45  71
ENDBRANCH   3  45
TORSDOF 20
ENDMDL
MODEL 7
REMARK VINA RESULT:    -4.056      4.970      8.836
REMARK INTER + INTRA:         -19.052
REMARK INTER:                 -12.791
REMARK INTRA:                  -6.261
REMARK UNBOUND:                -7.407
REMARK SMILES CCCCCC(=O)N[C@H](CC(=O)O)C(=O)N[C@H]1C(=O)N[C@H](CCCN=C(N)N)C(=O)N[C@@H]2CC[C@H](O)N(C2=O)[C@@H](CC(C)C)C(=O)N(C)[C@@H](Cc2ccccc2)C(=O)N[C@H](C(C)C)C(=O)O[C@@H]1C
REMARK SMILES IDX 30 1 31 2 29 3 32 5 35 6 37 7 34 8 38 9 33 10 39 11 36 12
REMARK SMILES IDX 40 14 41 15 42 16 43 17 44 18 45 19 46 20 47 21 48 22 49 23
REMARK SMILES IDX 50 24 51 25 52 26 56 27 53 28 55 29 54 30 57 31 58 32 59 33
REMARK SMILES IDX 60 35 61 36 62 37 63 38 64 39 65 40 66 41 67 42 68 43 21 45
REMARK SMILES IDX 20 46 18 47 19 48 17 50 16 52 14 53 15 54 9 56 8 57 6 58
REMARK SMILES IDX 7 59 5 61 4 62 3 63 2 64 1 65 10 66 11 67 12 68 13 69 22 71
REMARK SMILES IDX 23 72 24 73 25 74 26 75 27 76 28 77
REMARK H PARENT 31 4 36 13 59 34 20 49 16 55 8 60 13 70 27 78 27 79 28 80
REMARK H PARENT 28 81
REMARK Flexibility Score:  259.900
ROOT
ATOM      1  O   UNL     1      13.911  -9.827   0.108  1.00  0.00    -0.273 OA
ATOM      2  N   UNL     1      11.937 -10.343   1.143  1.00  0.00    -0.343 N 
ATOM      3  C   UNL     1      13.308 -10.403   1.015  1.00  0.00     0.243 C 
ATOM      4  H   UNL     1      11.477 -10.817   1.909  1.00  0.00     0.164 HD
ENDROOT
BRANCH   2   5
ATOM      5  C   UNL     1      11.125  -9.682   0.127  1.00  0.00     0.171 C 
ATOM      6  C   UNL     1       8.290  -9.099  -0.049  1.00  0.00     0.214 C 
ATOM      7  N   UNL     1       8.796 -10.338  -0.593  1.00  0.00    -0.303 N 
ATOM      8  C   UNL     1       9.302  -7.965  -0.096  1.00  0.00     0.057 C 
ATOM      9  C   UNL     1      10.129 -10.702  -0.498  1.00  0.00     0.247 C 
ATOM     10  C   UNL     1      10.556  -8.365   0.651  1.00  0.00     0.040 C 
ATOM     11  O   UNL     1      10.539 -11.803  -0.889  1.00  0.00    -0.272 OA
BRANCH   6  12
ATOM     12  O   UNL     1       7.887  -9.344   1.278  1.00  0.00    -0.373 OA
ATOM     13  H   UNL     1       7.885 -10.318   1.403  1.00  0.00     0.213 HD
ENDBRANCH   6  12
BRANCH   7  14
ATOM     14  C   UNL     1       7.801 -11.288  -1.135  1.00  0.00     0.177 C 
BRANCH  14  15
ATOM     15  C   UNL     1       7.456 -12.474  -0.213  1.00  0.00     0.038 C 
BRANCH  15  16
ATOM     16  C   UNL     1       7.274 -12.233   1.302  1.00  0.00    -0.015 C 
ATOM     17  C   UNL     1       7.920 -13.333   2.150  1.00  0.00     0.007 C 
ATOM     18  C   UNL     1       5.780 -12.179   1.642  1.00  0.00     0.007 C 
ENDBRANCH  15  16
ENDBRANCH  14  15
BRANCH  14  19
ATOM     19  C   UNL     1       6.787 -10.539  -2.067  1.00  0.00     0.245 C 
ATOM     20  O   UNL     1       7.221  -9.555  -2.689  1.00  0.00    -0.272 OA
BRANCH  19  21
ATOM     21  N   UNL     1       5.440 -10.844  -2.144  1.00  0.00    -0.332 N 
ATOM     22  C   UNL     1       4.813 -11.640  -3.184  1.00  0.00     0.147 C 
BRANCH  21  23
ATOM     23  C   UNL     1       4.544 -10.308  -1.082  1.00  0.00     0.178 C 
BRANCH  23  24
ATOM     24  C   UNL     1       4.515  -8.770  -0.977  1.00  0.00     0.070 C 
BRANCH  24  25
ATOM     25  C   UNL     1       4.764  -8.168   0.386  1.00  0.00    -0.045 A 
ATOM     26  C   UNL     1       5.505  -6.987   0.525  1.00  0.00     0.004 A 
ATOM     27  C   UNL     1       4.256  -8.789   1.537  1.00  0.00     0.004 A 
ATOM     28  C   UNL     1       5.745  -6.447   1.790  1.00  0.00     0.000 A 
ATOM     29  C   UNL     1       4.496  -8.246   2.801  1.00  0.00     0.000 A 
ATOM     30  C   UNL     1       5.243  -7.077   2.926  1.00  0.00     0.000 A 
ENDBRANCH  24  25
ENDBRANCH  23  24
BRANCH  23  31
ATOM     31  C   UNL     1       3.154 -10.989  -1.064  1.00  0.00     0.243 C 
ATOM     32  O   UNL     1       2.969 -12.164  -0.760  1.00  0.00    -0.273 OA
ATOM     33  N   UNL     1       2.148 -10.205  -1.603  1.00  0.00    -0.341 N 
ATOM     34  H   UNL     1       2.364  -9.235  -1.843  1.00  0.00     0.164 HD
BRANCH  33  35
ATOM     35  C   UNL     1       0.778 -10.687  -1.797  1.00  0.00     0.194 C 
BRANCH  35  36
ATOM     36  C   UNL     1       0.313 -10.700  -3.281  1.00  0.00     0.017 C 
ATOM     37  C   UNL     1      -1.122 -11.238  -3.413  1.00  0.00     0.010 C 
ATOM     38  C   UNL     1       1.209 -11.555  -4.186  1.00  0.00     0.010 C 
ENDBRANCH  35  36
BRANCH  35  39
ATOM     39  C   UNL     1      -0.246  -9.967  -0.875  1.00  0.00     0.329 C 
ATOM     40  O   UNL     1      -0.573  -8.792  -0.999  1.00  0.00    -0.250 OA
BRANCH  39  41
ATOM     41  O   UNL     1      -0.808 -10.814   0.039  1.00  0.00    -0.458 OA
BRANCH  41  42
ATOM     42  C   UNL     1      -2.253 -10.796   0.126  1.00  0.00     0.205 CG0
ATOM     43  C   UNL     1      -2.618 -10.330   1.533  1.00  0.00     0.056 C 
ATOM     44  G   UNL     1      -2.782 -12.211  -0.183  1.00  0.00     0.000 G0
ENDBRANCH  41  42
ENDBRANCH  39  41
ENDBRANCH  35  39
ENDBRANCH  33  35
ENDBRANCH  23  31
ENDBRANCH  21  23
ENDBRANCH  19  21
ENDBRANCH  14  19
ENDBRANCH   7  14
ENDBRANCH   2   5
BRANCH   3  45
ATOM     45  C   UNL     1      14.033 -11.220   2.092  1.00  0.00     0.171 C 
BRANCH  45  46
ATOM     46  N   UNL     1      15.401 -11.376   1.615  1.00  0.00    -0.342 N 
ATOM     47  C   UNL     1      16.472 -10.799   2.248  1.00  0.00     0.247 C 
ATOM     48  O   UNL     1      16.367 -10.170   3.302  1.00  0.00    -0.273 OA
ATOM     49  H   UNL     1      15.540 -11.936   0.776  1.00  0.00     0.164 HD
BRANCH  47  50
ATOM     50  C   UNL     1      17.820 -10.968   1.531  1.00  0.00     0.212 CG0
ATOM     51  G   UNL     1      18.223 -12.452   1.639  1.00  0.00     0.000 G0
BRANCH  50  52
ATOM     52  N   UNL     1      17.587 -10.532   0.157  1.00  0.00    -0.339 N 
ATOM     53  C   UNL     1      17.751  -9.234  -0.262  1.00  0.00     0.243 C 
ATOM     54  O   UNL     1      18.056  -8.324   0.505  1.00  0.00    -0.273 OA
ATOM     55  H   UNL     1      17.225 -11.218  -0.502  1.00  0.00     0.164 HD
BRANCH  53  56
ATOM     56  C   UNL     1      17.363  -8.996  -1.735  1.00  0.00     0.182 C 
BRANCH  56  57
ATOM     57  N   UNL     1      15.959  -8.588  -1.851  1.00  0.00    -0.344 N 
ATOM     58  C   UNL     1      15.584  -7.275  -1.992  1.00  0.00     0.220 C 
ATOM     59  O   UNL     1      16.386  -6.348  -1.958  1.00  0.00    -0.275 OA
ATOM     60  H   UNL     1      15.275  -9.328  -1.986  1.00  0.00     0.164 HD
BRANCH  58  61
ATOM     61  C   UNL     1      14.086  -7.092  -2.154  1.00  0.00     0.100 C 
BRANCH  61  62
ATOM     62  C   UNL     1      13.523  -7.713  -3.432  1.00  0.00     0.010 C 
BRANCH  62  63
ATOM     63  C   UNL     1      14.152  -7.172  -4.722  1.00  0.00     0.000 C 
BRANCH  63  64
ATOM     64  C   UNL     1      13.231  -7.228  -5.940  1.00  0.00    -0.003 C 
ATOM     65  C   UNL     1      13.517  -6.087  -6.906  1.00  0.00     0.004 C 
ENDBRANCH  63  64
ENDBRANCH  62  63
ENDBRANCH  61  62
ENDBRANCH  58  61
ENDBRANCH  56  57
BRANCH  56  66
ATOM     66  C   UNL     1      17.684 -10.212  -2.602  1.00  0.00     0.157 C 
BRANCH  66  67
ATOM     67  C   UNL     1      16.431 -10.922  -3.029  1.00  0.00     0.305 C 
ATOM     68  O   UNL     1      15.750 -11.676  -2.351  1.00  0.00    -0.252 OA
BRANCH  67  69
ATOM     69  O   UNL     1      16.065 -10.603  -4.284  1.00  0.00    -0.481 OA
ATOM     70  H   UNL     1      16.655  -9.862  -4.537  1.00  0.00     0.296 HD
ENDBRANCH  67  69
ENDBRANCH  66  67
ENDBRANCH  56  66
ENDBRANCH  53  56
ENDBRANCH  50  52
ENDBRANCH  47  50
ENDBRANCH  45  46
BRANCH  45  71
ATOM     71  C   UNL     1      13.344 -12.575   2.289  1.00  0.00     0.037 C 
BRANCH  71  72
ATOM     72  C   UNL     1      14.114 -13.714   1.616  1.00  0.00     0.026 C 
BRANCH  72  73
ATOM     73  C   UNL     1      13.321 -14.318   0.458  1.00  0.00     0.146 C 
BRANCH  73  74
ATOM     74  N   UNL     1      14.237 -14.495  -0.665  1.00  0.00    -0.254 NA
ATOM     75  C   UNL     1      13.785 -14.280  -1.845  1.00  0.00     0.185 C 
ATOM     76  N   UNL     1      14.604 -14.434  -2.899  1.00  0.00    -0.370 N 
ATOM     77  N   UNL     1      12.551 -13.903  -2.222  1.00  0.00    -0.370 N 
ATOM     78  H   UNL     1      15.551 -14.725  -2.704  1.00  0.00     0.159 HD
ATOM     79  H   UNL     1      14.286 -14.425  -3.852  1.00  0.00     0.159 HD
ATOM     80  H   UNL     1      11.830 -13.746  -1.535  1.00  0.00     0.159 HD
ATOM     81  H   UNL     1      12.343 -13.652  -3.175  1.00  0.00     0.159 HD
ENDBRANCH  73  74
ENDBRANCH  72  73
ENDBRANCH  71  72
ENDBRANCH  45  71
ENDBRANCH   3  45
TORSDOF 20
ENDMDL
MODEL 8
REMARK VINA RESULT:    -4.040      5.205     13.136
REMARK INTER + INTRA:         -19.006
REMARK INTER:                 -11.073
REMARK INTRA:                  -7.933
REMARK UNBOUND:                -7.407
REMARK SMILES CCCCCC(=O)N[C@H](CC(=O)O)C(=O)N[C@H]1C(=O)N[C@H](CCCN=C(N)N)C(=O)N[C@@H]2CC[C@H](O)N(C2=O)[C@@H](CC(C)C)C(=O)N(C)[C@@H](Cc2ccccc2)C(=O)N[C@H](C(C)C)C(=O)O[C@@H]1C
REMARK SMILES IDX 30 1 31 2 29 3 32 5 35 6 37 7 34 8 38 9 33 10 39 11 36 12
REMARK SMILES IDX 40 14 41 15 42 16 43 17 44 18 45 19 46 20 47 21 48 22 49 23
REMARK SMILES IDX 50 24 51 25 52 26 56 27 53 28 55 29 54 30 57 31 58 32 59 33
REMARK SMILES IDX 60 35 61 36 62 37 63 38 64 39 65 40 66 41 67 42 68 43 21 45
REMARK SMILES IDX 20 46 18 47 19 48 17 50 16 52 14 53 15 54 9 56 8 57 6 58
REMARK SMILES IDX 7 59 5 61 4 62 3 63 2 64 1 65 10 66 11 67 12 68 13 69 22 71
REMARK SMILES IDX 23 72 24 73 25 74 26 75 27 76 28 77
REMARK H PARENT 31 4 36 13 59 34 20 49 16 55 8 60 13 70 27 78 27 79 28 80
REMARK H PARENT 28 81
REMARK Flexibility Score:  259.900
ROOT
ATOM      1  O   UNL     1       3.756 -10.234  -1.904  1.00  0.00    -0.273 OA
ATOM      2  N   UNL     1       5.951 -10.458  -1.303  1.00  0.00    -0.343 N 
ATOM      3  C   UNL     1       4.645 -10.086  -1.065  1.00  0.00     0.243 C 
ATOM      4  H   UNL     1       6.653 -10.335  -0.584  1.00  0.00     0.164 HD
ENDROOT
BRANCH   2   5
ATOM      5  C   UNL     1       6.359 -10.939  -2.618  1.00  0.00     0.171 C 
ATOM      6  C   UNL     1       8.252 -12.962  -3.471  1.00  0.00     0.214 C 
ATOM      7  N   UNL     1       8.693 -11.595  -3.319  1.00  0.00    -0.303 N 
ATOM      8  C   UNL     1       6.787 -13.082  -3.862  1.00  0.00     0.057 C 
ATOM      9  C   UNL     1       7.854 -10.590  -2.867  1.00  0.00     0.247 C 
ATOM     10  C   UNL     1       5.923 -12.387  -2.832  1.00  0.00     0.040 C 
ATOM     11  O   UNL     1       8.262  -9.440  -2.657  1.00  0.00    -0.272 OA
BRANCH   6  12
ATOM     12  O   UNL     1       8.492 -13.629  -2.253  1.00  0.00    -0.373 OA
ATOM     13  H   UNL     1       7.623 -13.743  -1.812  1.00  0.00     0.213 HD
ENDBRANCH   6  12
BRANCH   7  14
ATOM     14  C   UNL     1      10.132 -11.328  -3.526  1.00  0.00     0.177 C 
BRANCH  14  15
ATOM     15  C   UNL     1      11.075 -11.971  -2.490  1.00  0.00     0.038 C 
BRANCH  15  16
ATOM     16  C   UNL     1      11.692 -11.096  -1.377  1.00  0.00    -0.015 C 
ATOM     17  C   UNL     1      11.149 -11.449   0.011  1.00  0.00     0.007 C 
ATOM     18  C   UNL     1      11.387  -9.618  -1.650  1.00  0.00     0.007 C 
ENDBRANCH  15  16
ENDBRANCH  14  15
BRANCH  14  19
ATOM     19  C   UNL     1      10.440 -11.166  -5.055  1.00  0.00     0.245 C 
ATOM     20  O   UNL     1      10.489 -12.208  -5.729  1.00  0.00    -0.272 OA
BRANCH  19  21
ATOM     21  N   UNL     1      10.765  -9.961  -5.653  1.00  0.00    -0.332 N 
ATOM     22  C   UNL     1      11.657  -8.958  -5.098  1.00  0.00     0.147 C 
BRANCH  21  23
ATOM     23  C   UNL     1      10.146  -9.649  -6.970  1.00  0.00     0.178 C 
BRANCH  23  24
ATOM     24  C   UNL     1       9.241  -8.400  -6.979  1.00  0.00     0.070 C 
BRANCH  24  25
ATOM     25  C   UNL     1       7.750  -8.631  -7.072  1.00  0.00    -0.045 A 
ATOM     26  C   UNL     1       6.988  -8.009  -8.069  1.00  0.00     0.004 A 
ATOM     27  C   UNL     1       7.106  -9.472  -6.152  1.00  0.00     0.004 A 
ATOM     28  C   UNL     1       5.609  -8.214  -8.137  1.00  0.00     0.000 A 
ATOM     29  C   UNL     1       5.727  -9.677  -6.222  1.00  0.00     0.000 A 
ATOM     30  C   UNL     1       4.979  -9.045  -7.213  1.00  0.00     0.000 A 
ENDBRANCH  24  25
ENDBRANCH  23  24
BRANCH  23  31
ATOM     31  C   UNL     1      11.150  -9.734  -8.144  1.00  0.00     0.243 C 
ATOM     32  O   UNL     1      11.923 -10.672  -8.321  1.00  0.00    -0.273 OA
ATOM     33  N   UNL     1      11.236  -8.567  -8.884  1.00  0.00    -0.341 N 
ATOM     34  H   UNL     1      10.569  -7.817  -8.687  1.00  0.00     0.164 HD
BRANCH  33  35
ATOM     35  C   UNL     1      12.204  -8.377  -9.968  1.00  0.00     0.194 C 
BRANCH  35  36
ATOM     36  C   UNL     1      13.023  -7.060  -9.865  1.00  0.00     0.017 C 
ATOM     37  C   UNL     1      14.536  -7.336  -9.912  1.00  0.00     0.010 C 
ATOM     38  C   UNL     1      12.741  -6.272  -8.580  1.00  0.00     0.010 C 
ENDBRANCH  35  36
BRANCH  35  39
ATOM     39  C   UNL     1      11.569  -8.557 -11.375  1.00  0.00     0.329 C 
ATOM     40  O   UNL     1      10.370  -8.714 -11.572  1.00  0.00    -0.250 OA
BRANCH  39  41
ATOM     41  O   UNL     1      12.488  -8.433 -12.380  1.00  0.00    -0.458 OA
BRANCH  41  42
ATOM     42  C   UNL     1      11.973  -8.044 -13.676  1.00  0.00     0.205 CG0
ATOM     43  C   UNL     1      12.080  -9.263 -14.591  1.00  0.00     0.056 C 
ATOM     44  G   UNL     1      12.793  -6.845 -14.192  1.00  0.00     0.000 G0
ENDBRANCH  41  42
ENDBRANCH  39  41
ENDBRANCH  35  39
ENDBRANCH  33  35
ENDBRANCH  23  31
ENDBRANCH  21  23
ENDBRANCH  19  21
ENDBRANCH  14  19
ENDBRANCH   7  14
ENDBRANCH   2   5
BRANCH   3  45
ATOM     45  C   UNL     1       4.372  -9.496   0.324  1.00  0.00     0.171 C 
BRANCH  45  46
ATOM     46  N   UNL     1       3.074 -10.021   0.727  1.00  0.00    -0.342 N 
ATOM     47  C   UNL     1       2.903 -10.764   1.868  1.00  0.00     0.247 C 
ATOM     48  O   UNL     1       3.813 -10.979   2.669  1.00  0.00    -0.273 OA
ATOM     49  H   UNL     1       2.281  -9.818   0.122  1.00  0.00     0.164 HD
BRANCH  47  50
ATOM     50  C   UNL     1       1.492 -11.337   2.065  1.00  0.00     0.212 CG0
ATOM     51  G   UNL     1       0.706 -10.349   2.950  1.00  0.00     0.000 G0
BRANCH  50  52
ATOM     52  N   UNL     1       0.937 -11.475   0.721  1.00  0.00    -0.339 N 
ATOM     53  C   UNL     1       0.975 -12.647   0.005  1.00  0.00     0.243 C 
ATOM     54  O   UNL     1       1.530 -13.660   0.422  1.00  0.00    -0.273 OA
ATOM     55  H   UNL     1       0.561 -10.640   0.276  1.00  0.00     0.164 HD
BRANCH  53  56
ATOM     56  C   UNL     1       0.404 -12.528  -1.423  1.00  0.00     0.182 C 
BRANCH  56  57
ATOM     57  N   UNL     1       1.478 -12.362  -2.407  1.00  0.00    -0.344 N 
ATOM     58  C   UNL     1       1.509 -13.062  -3.588  1.00  0.00     0.220 C 
ATOM     59  O   UNL     1       0.684 -13.925  -3.870  1.00  0.00    -0.275 OA
ATOM     60  H   UNL     1       2.122 -11.589  -2.260  1.00  0.00     0.164 HD
BRANCH  58  61
ATOM     61  C   UNL     1       2.679 -12.688  -4.479  1.00  0.00     0.100 C 
BRANCH  61  62
ATOM     62  C   UNL     1       2.573 -11.287  -5.080  1.00  0.00     0.010 C 
BRANCH  62  63
ATOM     63  C   UNL     1       1.782 -11.225  -6.394  1.00  0.00     0.000 C 
BRANCH  63  64
ATOM     64  C   UNL     1       2.511 -11.830  -7.593  1.00  0.00    -0.003 C 
ATOM     65  C   UNL     1       2.268 -11.018  -8.857  1.00  0.00     0.004 C 
ENDBRANCH  63  64
ENDBRANCH  62  63
ENDBRANCH  61  62
ENDBRANCH  58  61
ENDBRANCH  56  57
BRANCH  56  66
ATOM     66  C   UNL     1      -0.641 -11.418  -1.518  1.00  0.00     0.157 C 
BRANCH  66  67
ATOM     67  C   UNL     1      -0.092 -10.212  -2.225  1.00  0.00     0.305 C 
ATOM     68  O   UNL     1      -0.362  -9.840  -3.356  1.00  0.00    -0.252 OA
BRANCH  67  69
ATOM     69  O   UNL     1       0.742  -9.497  -1.445  1.00  0.00    -0.481 OA
ATOM     70  H   UNL     1       1.483 -10.108  -1.246  1.00  0.00     0.296 HD
ENDBRANCH  67  69
ENDBRANCH  66  67
ENDBRANCH  56  66
ENDBRANCH  53  56
ENDBRANCH  50  52
ENDBRANCH  47  50
ENDBRANCH  45  46
BRANCH  45  71
ATOM     71  C   UNL     1       4.368  -7.964   0.262  1.00  0.00     0.037 C 
BRANCH  71  72
ATOM     72  C   UNL     1       4.884  -7.334   1.558  1.00  0.00     0.026 C 
BRANCH  72  73
ATOM     73  C   UNL     1       6.345  -7.698   1.815  1.00  0.00     0.146 C 
BRANCH  73  74
ATOM     74  N   UNL     1       7.152  -7.071   0.773  1.00  0.00    -0.254 NA
ATOM     75  C   UNL     1       8.095  -7.762   0.248  1.00  0.00     0.185 C 
ATOM     76  N   UNL     1       8.854  -7.213  -0.714  1.00  0.00    -0.370 N 
ATOM     77  N   UNL     1       8.470  -9.024   0.521  1.00  0.00    -0.370 N 
ATOM     78  H   UNL     1       8.643  -6.261  -0.975  1.00  0.00     0.159 HD
ATOM     79  H   UNL     1       9.694  -7.637  -1.066  1.00  0.00     0.159 HD
ATOM     80  H   UNL     1       7.985  -9.564   1.222  1.00  0.00     0.159 HD
ATOM     81  H   UNL     1       9.155  -9.505  -0.039  1.00  0.00     0.159 HD
ENDBRANCH  73  74
ENDBRANCH  72  73
ENDBRANCH  71  72
ENDBRANCH  45  71
ENDBRANCH   3  45
TORSDOF 20
ENDMDL
MODEL 9
REMARK VINA RESULT:    -3.832      7.082     15.051
REMARK INTER + INTRA:         -18.408
REMARK INTER:                 -10.351
REMARK INTRA:                  -8.057
REMARK UNBOUND:                -7.407
REMARK SMILES CCCCCC(=O)N[C@H](CC(=O)O)C(=O)N[C@H]1C(=O)N[C@H](CCCN=C(N)N)C(=O)N[C@@H]2CC[C@H](O)N(C2=O)[C@@H](CC(C)C)C(=O)N(C)[C@@H](Cc2ccccc2)C(=O)N[C@H](C(C)C)C(=O)O[C@@H]1C
REMARK SMILES IDX 30 1 31 2 29 3 32 5 35 6 37 7 34 8 38 9 33 10 39 11 36 12
REMARK SMILES IDX 40 14 41 15 42 16 43 17 44 18 45 19 46 20 47 21 48 22 49 23
REMARK SMILES IDX 50 24 51 25 52 26 56 27 53 28 55 29 54 30 57 31 58 32 59 33
REMARK SMILES IDX 60 35 61 36 62 37 63 38 64 39 65 40 66 41 67 42 68 43 21 45
REMARK SMILES IDX 20 46 18 47 19 48 17 50 16 52 14 53 15 54 9 56 8 57 6 58
REMARK SMILES IDX 7 59 5 61 4 62 3 63 2 64 1 65 10 66 11 67 12 68 13 69 22 71
REMARK SMILES IDX 23 72 24 73 25 74 26 75 27 76 28 77
REMARK H PARENT 31 4 36 13 59 34 20 49 16 55 8 60 13 70 27 78 27 79 28 80
REMARK H PARENT 28 81
REMARK Flexibility Score:  259.900
ROOT
ATOM      1  O   UNL     1       2.403 -10.098   0.200  1.00  0.00    -0.273 OA
ATOM      2  N   UNL     1       3.970 -11.737  -0.097  1.00  0.00    -0.343 N 
ATOM      3  C   UNL     1       3.230 -10.873   0.681  1.00  0.00     0.243 C 
ATOM      4  H   UNL     1       4.630 -12.371   0.336  1.00  0.00     0.164 HD
ENDROOT
BRANCH   2   5
ATOM      5  C   UNL     1       3.886 -11.683  -1.552  1.00  0.00     0.171 C 
ATOM      6  C   UNL     1       5.365 -13.021  -3.656  1.00  0.00     0.214 C 
ATOM      7  N   UNL     1       5.823 -11.741  -3.170  1.00  0.00    -0.303 N 
ATOM      8  C   UNL     1       3.858 -13.198  -3.559  1.00  0.00     0.057 C 
ATOM      9  C   UNL     1       5.193 -11.071  -2.133  1.00  0.00     0.247 C 
ATOM     10  C   UNL     1       3.412 -13.018  -2.124  1.00  0.00     0.040 C 
ATOM     11  O   UNL     1       5.642 -10.017  -1.665  1.00  0.00    -0.272 OA
BRANCH   6  12
ATOM     12  O   UNL     1       6.026 -14.023  -2.918  1.00  0.00    -0.373 OA
ATOM     13  H   UNL     1       5.453 -14.819  -2.936  1.00  0.00     0.213 HD
ENDBRANCH   6  12
BRANCH   7  14
ATOM     14  C   UNL     1       7.093 -11.228  -3.727  1.00  0.00     0.177 C 
BRANCH  14  15
ATOM     15  C   UNL     1       8.353 -11.565  -2.906  1.00  0.00     0.038 C 
BRANCH  15  16
ATOM     16  C   UNL     1       9.457 -10.499  -2.733  1.00  0.00    -0.015 C 
ATOM     17  C   UNL     1       8.890  -9.078  -2.660  1.00  0.00     0.007 C 
ATOM     18  C   UNL     1      10.432 -10.566  -3.915  1.00  0.00     0.007 C 
ENDBRANCH  15  16
ENDBRANCH  14  15
BRANCH  14  19
ATOM     19  C   UNL     1       7.017 -11.172  -5.291  1.00  0.00     0.245 C 
ATOM     20  O   UNL     1       7.233 -12.233  -5.900  1.00  0.00    -0.272 OA
BRANCH  19  21
ATOM     21  N   UNL     1       6.838 -10.006  -6.014  1.00  0.00    -0.332 N 
ATOM     22  C   UNL     1       7.858  -9.002  -6.260  1.00  0.00     0.147 C 
BRANCH  21  23
ATOM     23  C   UNL     1       5.488  -9.740  -6.584  1.00  0.00     0.178 C 
BRANCH  23  24
ATOM     24  C   UNL     1       4.405  -9.391  -5.542  1.00  0.00     0.070 C 
BRANCH  24  25
ATOM     25  C   UNL     1       3.137 -10.213  -5.567  1.00  0.00    -0.045 A 
ATOM     26  C   UNL     1       2.801 -10.981  -6.689  1.00  0.00     0.004 A 
ATOM     27  C   UNL     1       2.274 -10.214  -4.461  1.00  0.00     0.004 A 
ATOM     28  C   UNL     1       1.618 -11.724  -6.710  1.00  0.00     0.000 A 
ATOM     29  C   UNL     1       1.093 -10.958  -4.483  1.00  0.00     0.000 A 
ATOM     30  C   UNL     1       0.765 -11.710  -5.609  1.00  0.00     0.000 A 
ENDBRANCH  24  25
ENDBRANCH  23  24
BRANCH  23  31
ATOM     31  C   UNL     1       5.527  -8.810  -7.820  1.00  0.00     0.243 C 
ATOM     32  O   UNL     1       5.243  -7.616  -7.790  1.00  0.00    -0.273 OA
ATOM     33  N   UNL     1       5.733  -9.483  -9.012  1.00  0.00    -0.341 N 
ATOM     34  H   UNL     1       5.960 -10.480  -8.974  1.00  0.00     0.164 HD
BRANCH  33  35
ATOM     35  C   UNL     1       5.689  -8.823 -10.320  1.00  0.00     0.194 C 
BRANCH  35  36
ATOM     36  C   UNL     1       4.447  -9.195 -11.178  1.00  0.00     0.017 C 
ATOM     37  C   UNL     1       3.566  -7.963 -11.450  1.00  0.00     0.010 C 
ATOM     38  C   UNL     1       3.558 -10.260 -10.525  1.00  0.00     0.010 C 
ENDBRANCH  35  36
BRANCH  35  39
ATOM     39  C   UNL     1       7.015  -8.986 -11.116  1.00  0.00     0.329 C 
ATOM     40  O   UNL     1       8.087  -9.290 -10.608  1.00  0.00    -0.250 OA
BRANCH  39  41
ATOM     41  O   UNL     1       6.834  -8.837 -12.463  1.00  0.00    -0.458 OA
BRANCH  41  42
ATOM     42  C   UNL     1       7.542  -7.740 -13.088  1.00  0.00     0.205 CG0
ATOM     43  C   UNL     1       6.592  -6.545 -13.118  1.00  0.00     0.056 C 
ATOM     44  G   UNL     1       7.982  -8.179 -14.498  1.00  0.00     0.000 G0
ENDBRANCH  41  42
ENDBRANCH  39  41
ENDBRANCH  35  39
ENDBRANCH  33  35
ENDBRANCH  23  31
ENDBRANCH  21  23
ENDBRANCH  19  21
ENDBRANCH  14  19
ENDBRANCH   7  14
ENDBRANCH   2   5
BRANCH   3  45
ATOM     45  C   UNL     1       3.492 -10.959   2.191  1.00  0.00     0.171 C 
BRANCH  45  46
ATOM     46  N   UNL     1       2.214 -11.314   2.793  1.00  0.00    -0.342 N 
ATOM     47  C   UNL     1       1.874 -12.610   3.090  1.00  0.00     0.247 C 
ATOM     48  O   UNL     1       2.649 -13.555   2.938  1.00  0.00    -0.273 OA
ATOM     49  H   UNL     1       1.564 -10.554   2.988  1.00  0.00     0.164 HD
BRANCH  47  50
ATOM     50  C   UNL     1       0.441 -12.805   3.603  1.00  0.00     0.212 CG0
ATOM     51  G   UNL     1       0.375 -12.236   5.035  1.00  0.00     0.000 G0
BRANCH  50  52
ATOM     52  N   UNL     1      -0.412 -12.088   2.658  1.00  0.00    -0.339 N 
ATOM     53  C   UNL     1      -1.342 -12.709   1.859  1.00  0.00     0.243 C 
ATOM     54  O   UNL     1      -1.491 -13.927   1.840  1.00  0.00    -0.273 OA
ATOM     55  H   UNL     1      -0.259 -11.088   2.548  1.00  0.00     0.164 HD
BRANCH  53  56
ATOM     56  C   UNL     1      -2.062 -11.758   0.881  1.00  0.00     0.182 C 
BRANCH  56  57
ATOM     57  N   UNL     1      -2.552 -12.486  -0.294  1.00  0.00    -0.344 N 
ATOM     58  C   UNL     1      -3.863 -12.428  -0.701  1.00  0.00     0.220 C 
ATOM     59  O   UNL     1      -4.727 -11.826  -0.073  1.00  0.00    -0.275 OA
ATOM     60  H   UNL     1      -1.853 -12.910  -0.897  1.00  0.00     0.164 HD
BRANCH  58  61
ATOM     61  C   UNL     1      -4.132 -13.210  -1.974  1.00  0.00     0.100 C 
BRANCH  61  62
ATOM     62  C   UNL     1      -3.743 -12.463  -3.250  1.00  0.00     0.010 C 
BRANCH  62  63
ATOM     63  C   UNL     1      -2.356 -12.829  -3.792  1.00  0.00     0.000 C 
BRANCH  63  64
ATOM     64  C   UNL     1      -1.887 -14.234  -3.418  1.00  0.00    -0.003 C 
ATOM     65  C   UNL     1      -0.386 -14.270  -3.169  1.00  0.00     0.004 C 
ENDBRANCH  63  64
ENDBRANCH  62  63
ENDBRANCH  61  62
ENDBRANCH  58  61
ENDBRANCH  56  57
BRANCH  56  66
ATOM     66  C   UNL     1      -1.178 -10.573   0.498  1.00  0.00     0.157 C 
BRANCH  66  67
ATOM     67  C   UNL     1      -0.699 -10.688  -0.920  1.00  0.00     0.305 C 
ATOM     68  O   UNL     1      -1.084 -10.036  -1.879  1.00  0.00    -0.252 OA
BRANCH  67  69
ATOM     69  O   UNL     1       0.290 -11.592  -1.055  1.00  0.00    -0.481 OA
ATOM     70  H   UNL     1      -0.015 -12.192  -1.769  1.00  0.00     0.296 HD
ENDBRANCH  67  69
ENDBRANCH  66  67
ENDBRANCH  56  66
ENDBRANCH  53  56
ENDBRANCH  50  52
ENDBRANCH  47  50
ENDBRANCH  45  46
BRANCH  45  71
ATOM     71  C   UNL     1       4.013  -9.618   2.719  1.00  0.00     0.037 C 
BRANCH  71  72
ATOM     72  C   UNL     1       5.524  -9.645   2.968  1.00  0.00     0.026 C 
BRANCH  72  73
ATOM     73  C   UNL     1       6.307  -9.340   1.693  1.00  0.00     0.146 C 
BRANCH  73  74
ATOM     74  N   UNL     1       6.558  -7.902   1.656  1.00  0.00    -0.254 NA
ATOM     75  C   UNL     1       5.866  -7.194   0.842  1.00  0.00     0.185 C 
ATOM     76  N   UNL     1       6.073  -5.869   0.786  1.00  0.00    -0.370 N 
ATOM     77  N   UNL     1       4.909  -7.588  -0.017  1.00  0.00    -0.370 N 
ATOM     78  H   UNL     1       6.784  -5.490   1.396  1.00  0.00     0.159 HD
ATOM     79  H   UNL     1       5.677  -5.276   0.077  1.00  0.00     0.159 HD
ATOM     80  H   UNL     1       4.644  -8.559  -0.081  1.00  0.00     0.159 HD
ATOM     81  H   UNL     1       4.351  -6.923  -0.527  1.00  0.00     0.159 HD
ENDBRANCH  73  74
ENDBRANCH  72  73
ENDBRANCH  71  72
ENDBRANCH  45  71
ENDBRANCH   3  45
TORSDOF 20
ENDMDL
MODEL 10
REMARK VINA RESULT:    -3.817      5.222     12.860
REMARK INTER + INTRA:         -18.366
REMARK INTER:                 -12.213
REMARK INTRA:                  -6.153
REMARK UNBOUND:                -7.407
REMARK SMILES CCCCCC(=O)N[C@H](CC(=O)O)C(=O)N[C@H]1C(=O)N[C@H](CCCN=C(N)N)C(=O)N[C@@H]2CC[C@H](O)N(C2=O)[C@@H](CC(C)C)C(=O)N(C)[C@@H](Cc2ccccc2)C(=O)N[C@H](C(C)C)C(=O)O[C@@H]1C
REMARK SMILES IDX 30 1 31 2 29 3 32 5 35 6 37 7 34 8 38 9 33 10 39 11 36 12
REMARK SMILES IDX 40 14 41 15 42 16 43 17 44 18 45 19 46 20 47 21 48 22 49 23
REMARK SMILES IDX 50 24 51 25 52 26 56 27 53 28 55 29 54 30 57 31 58 32 59 33
REMARK SMILES IDX 60 35 61 36 62 37 63 38 64 39 65 40 66 41 67 42 68 43 21 45
REMARK SMILES IDX 20 46 18 47 19 48 17 50 16 52 14 53 15 54 9 56 8 57 6 58
REMARK SMILES IDX 7 59 5 61 4 62 3 63 2 64 1 65 10 66 11 67 12 68 13 69 22 71
REMARK SMILES IDX 23 72 24 73 25 74 26 75 27 76 28 77
REMARK H PARENT 31 4 36 13 59 34 20 49 16 55 8 60 13 70 27 78 27 79 28 80
REMARK H PARENT 28 81
REMARK Flexibility Score:  259.900
ROOT
ATOM      1  O   UNL     1       3.627  -9.997  -1.322  1.00  0.00    -0.273 OA
ATOM      2  N   UNL     1       5.718  -9.962  -0.395  1.00  0.00    -0.343 N 
ATOM      3  C   UNL     1       4.342  -9.963  -0.319  1.00  0.00     0.243 C 
ATOM      4  H   UNL     1       6.274  -9.949   0.451  1.00  0.00     0.164 HD
ENDROOT
BRANCH   2   5
ATOM      5  C   UNL     1       6.390  -9.879  -1.687  1.00  0.00     0.171 C 
ATOM      6  C   UNL     1       8.892 -10.964  -2.673  1.00  0.00     0.214 C 
ATOM      7  N   UNL     1       8.874  -9.649  -2.075  1.00  0.00    -0.303 N 
ATOM      8  C   UNL     1       7.585 -11.331  -3.358  1.00  0.00     0.057 C 
ATOM      9  C   UNL     1       7.724  -9.093  -1.539  1.00  0.00     0.247 C 
ATOM     10  C   UNL     1       6.445 -11.248  -2.365  1.00  0.00     0.040 C 
ATOM     11  O   UNL     1       7.735  -8.003  -0.951  1.00  0.00    -0.272 OA
BRANCH   6  12
ATOM     12  O   UNL     1       9.195 -11.894  -1.659  1.00  0.00    -0.373 OA
ATOM     13  H   UNL     1       8.342 -12.253  -1.334  1.00  0.00     0.213 HD
ENDBRANCH   6  12
BRANCH   7  14
ATOM     14  C   UNL     1      10.175  -8.965  -1.921  1.00  0.00     0.177 C 
BRANCH  14  15
ATOM     15  C   UNL     1      11.037  -9.453  -0.740  1.00  0.00     0.038 C 
BRANCH  15  16
ATOM     16  C   UNL     1      12.094  -8.508  -0.128  1.00  0.00    -0.015 C 
ATOM     17  C   UNL     1      13.522  -9.032  -0.310  1.00  0.00     0.007 C 
ATOM     18  C   UNL     1      11.832  -8.340   1.375  1.00  0.00     0.007 C 
ENDBRANCH  15  16
ENDBRANCH  14  15
BRANCH  14  19
ATOM     19  C   UNL     1      10.724  -8.518  -3.319  1.00  0.00     0.245 C 
ATOM     20  O   UNL     1       9.924  -7.942  -4.076  1.00  0.00    -0.272 OA
BRANCH  19  21
ATOM     21  N   UNL     1      11.990  -8.825  -3.786  1.00  0.00    -0.332 N 
ATOM     22  C   UNL     1      12.587 -10.149  -3.792  1.00  0.00     0.147 C 
BRANCH  21  23
ATOM     23  C   UNL     1      12.824  -7.713  -4.319  1.00  0.00     0.178 C 
BRANCH  23  24
ATOM     24  C   UNL     1      14.075  -7.384  -3.479  1.00  0.00     0.070 C 
BRANCH  24  25
ATOM     25  C   UNL     1      14.023  -6.137  -2.627  1.00  0.00    -0.045 A 
ATOM     26  C   UNL     1      15.186  -5.617  -2.045  1.00  0.00     0.004 A 
ATOM     27  C   UNL     1      12.803  -5.483  -2.404  1.00  0.00     0.004 A 
ATOM     28  C   UNL     1      15.128  -4.474  -1.246  1.00  0.00     0.000 A 
ATOM     29  C   UNL     1      12.746  -4.339  -1.605  1.00  0.00     0.000 A 
ATOM     30  C   UNL     1      13.908  -3.837  -1.024  1.00  0.00     0.000 A 
ENDBRANCH  24  25
ENDBRANCH  23  24
BRANCH  23  31
ATOM     31  C   UNL     1      13.073  -7.822  -5.842  1.00  0.00     0.243 C 
ATOM     32  O   UNL     1      12.186  -8.012  -6.671  1.00  0.00    -0.273 OA
ATOM     33  N   UNL     1      14.414  -7.872  -6.182  1.00  0.00    -0.341 N 
ATOM     34  H   UNL     1      15.107  -7.712  -5.446  1.00  0.00     0.164 HD
BRANCH  33  35
ATOM     35  C   UNL     1      14.884  -8.092  -7.552  1.00  0.00     0.194 C 
BRANCH  35  36
ATOM     36  C   UNL     1      15.151  -9.584  -7.900  1.00  0.00     0.017 C 
ATOM     37  C   UNL     1      16.595  -9.989  -7.556  1.00  0.00     0.010 C 
ATOM     38  C   UNL     1      14.923  -9.909  -9.381  1.00  0.00     0.010 C 
ENDBRANCH  35  36
BRANCH  35  39
ATOM     39  C   UNL     1      16.090  -7.185  -7.924  1.00  0.00     0.329 C 
ATOM     40  O   UNL     1      16.535  -7.067  -9.059  1.00  0.00    -0.250 OA
BRANCH  39  41
ATOM     41  O   UNL     1      16.547  -6.464  -6.856  1.00  0.00    -0.458 OA
BRANCH  41  42
ATOM     42  C   UNL     1      17.888  -6.766  -6.404  1.00  0.00     0.205 CG0
ATOM     43  C   UNL     1      17.920  -6.543  -4.894  1.00  0.00     0.056 C 
ATOM     44  G   UNL     1      18.878  -5.853  -7.156  1.00  0.00     0.000 G0
ENDBRANCH  41  42
ENDBRANCH  39  41
ENDBRANCH  35  39
ENDBRANCH  33  35
ENDBRANCH  23  31
ENDBRANCH  21  23
ENDBRANCH  19  21
ENDBRANCH  14  19
ENDBRANCH   7  14
ENDBRANCH   2   5
BRANCH   3  45
ATOM     45  C   UNL     1       3.762  -9.942   1.101  1.00  0.00     0.171 C 
BRANCH  45  46
ATOM     46  N   UNL     1       2.368 -10.341   0.964  1.00  0.00    -0.342 N 
ATOM     47  C   UNL     1       1.813 -11.349   1.712  1.00  0.00     0.247 C 
ATOM     48  O   UNL     1       2.429 -11.937   2.601  1.00  0.00    -0.273 OA
ATOM     49  H   UNL     1       1.806  -9.840   0.278  1.00  0.00     0.164 HD
BRANCH  47  50
ATOM     50  C   UNL     1       0.368 -11.713   1.342  1.00  0.00     0.212 CG0
ATOM     51  G   UNL     1      -0.522 -10.502   1.688  1.00  0.00     0.000 G0
BRANCH  50  52
ATOM     52  N   UNL     1       0.397 -12.019  -0.085  1.00  0.00    -0.339 N 
ATOM     53  C   UNL     1      -0.065 -13.199  -0.614  1.00  0.00     0.243 C 
ATOM     54  O   UNL     1      -0.492 -14.116   0.083  1.00  0.00    -0.273 OA
ATOM     55  H   UNL     1       0.841 -11.344  -0.705  1.00  0.00     0.164 HD
BRANCH  53  56
ATOM     56  C   UNL     1       0.148 -13.331  -2.136  1.00  0.00     0.182 C 
BRANCH  56  57
ATOM     57  N   UNL     1       0.604 -12.063  -2.715  1.00  0.00    -0.344 N 
ATOM     58  C   UNL     1       1.517 -12.008  -3.739  1.00  0.00     0.220 C 
ATOM     59  O   UNL     1       2.070 -13.006  -4.190  1.00  0.00    -0.275 OA
ATOM     60  H   UNL     1       0.099 -11.225  -2.442  1.00  0.00     0.164 HD
BRANCH  58  61
ATOM     61  C   UNL     1       1.797 -10.597  -4.220  1.00  0.00     0.100 C 
BRANCH  61  62
ATOM     62  C   UNL     1       2.958 -10.502  -5.211  1.00  0.00     0.010 C 
BRANCH  62  63
ATOM     63  C   UNL     1       4.022  -9.463  -4.834  1.00  0.00     0.000 C 
BRANCH  63  64
ATOM     64  C   UNL     1       5.277  -9.507  -5.705  1.00  0.00    -0.003 C 
ATOM     65  C   UNL     1       5.080  -8.733  -7.000  1.00  0.00     0.004 C 
ENDBRANCH  63  64
ENDBRANCH  62  63
ENDBRANCH  61  62
ENDBRANCH  58  61
ENDBRANCH  56  57
BRANCH  56  66
ATOM     66  C   UNL     1      -1.101 -13.867  -2.832  1.00  0.00     0.157 C 
BRANCH  66  67
ATOM     67  C   UNL     1      -2.219 -12.865  -2.792  1.00  0.00     0.305 C 
ATOM     68  O   UNL     1      -2.185 -11.713  -3.196  1.00  0.00    -0.252 OA
BRANCH  67  69
ATOM     69  O   UNL     1      -3.354 -13.384  -2.287  1.00  0.00    -0.481 OA
ATOM     70  H   UNL     1      -3.166 -14.341  -2.180  1.00  0.00     0.296 HD
ENDBRANCH  67  69
ENDBRANCH  66  67
ENDBRANCH  56  66
ENDBRANCH  53  56
ENDBRANCH  50  52
ENDBRANCH  47  50
ENDBRANCH  45  46
BRANCH  45  71
ATOM     71  C   UNL     1       3.893  -8.542   1.710  1.00  0.00     0.037 C 
BRANCH  71  72
ATOM     72  C   UNL     1       4.669  -8.557   3.029  1.00  0.00     0.026 C 
BRANCH  72  73
ATOM     73  C   UNL     1       5.280  -7.191   3.336  1.00  0.00     0.146 C 
BRANCH  73  74
ATOM     74  N   UNL     1       5.246  -6.401   2.109  1.00  0.00    -0.254 NA
ATOM     75  C   UNL     1       6.363  -6.127   1.542  1.00  0.00     0.185 C 
ATOM     76  N   UNL     1       6.364  -5.403   0.411  1.00  0.00    -0.370 N 
ATOM     77  N   UNL     1       7.607  -6.468   1.918  1.00  0.00    -0.370 N 
ATOM     78  H   UNL     1       5.466  -5.098   0.062  1.00  0.00     0.159 HD
ATOM     79  H   UNL     1       7.198  -5.029  -0.006  1.00  0.00     0.159 HD
ATOM     80  H   UNL     1       7.760  -7.018   2.750  1.00  0.00     0.159 HD
ATOM     81  H   UNL     1       8.404  -6.293   1.328  1.00  0.00     0.159 HD
ENDBRANCH  73  74
ENDBRANCH  72  73
ENDBRANCH  71  72
ENDBRANCH  45  71
ENDBRANCH   3  45
TORSDOF 20
ENDMDL
