MODEL 1
REMARK VINA RESULT:    -5.552      0.000      0.000
REMARK INTER + INTRA:         -11.169
REMARK INTER:                  -9.447
REMARK INTRA:                  -1.722
REMARK UNBOUND:                -1.722
REMARK SMILES CC[C@H](C)[C@@H]1NC(=O)[C@H]2CSC(=N2)[C@@H]([C@@H](C)CC)NC(=O)c2csc(n2)CNC(=O)[C@H]2N=C1O[C@@H]2C
REMARK SMILES IDX 27 1 25 2 22 3 26 4 23 5 24 6 20 7 19 8 21 9 14 11 12 12
REMARK SMILES IDX 11 13 10 14 13 15 9 16 15 18 16 19 17 20 18 21 28 22 29 23
REMARK SMILES IDX 30 24 31 26 32 27 35 28 33 29 34 30 36 31 5 32 6 33 7 34
REMARK SMILES IDX 8 35 3 38 4 39 2 40 1 41
REMARK H PARENT 19 10 28 25 6 36
REMARK Flexibility Score:   91.900
ROOT
ATOM      1  C   UNL     1      -4.787  -5.888   5.244  1.00  0.00     0.183 C 
ENDROOT
BRANCH   1   2
ATOM      2  C   UNL     1      -6.065  -5.544   5.954  1.00  0.00     0.113 A 
ATOM      3  C   UNL     1      -7.455  -4.534   7.374  1.00  0.00     0.139 A 
ATOM      4  N   UNL     1      -6.188  -4.527   6.787  1.00  0.00    -0.234 NA
ATOM      5  C   UNL     1      -8.289  -5.537   6.920  1.00  0.00     0.101 A 
ATOM      6  S   UNL     1      -7.474  -6.504   5.760  1.00  0.00    -0.125 S 
BRANCH   3   7
ATOM      7  C   UNL     1      -7.788  -3.555   8.410  1.00  0.00     0.271 C 
ATOM      8  N   UNL     1      -6.665  -2.942   8.907  1.00  0.00    -0.341 N 
ATOM      9  O   UNL     1      -8.928  -3.341   8.802  1.00  0.00    -0.267 OA
ATOM     10  H   UNL     1      -5.785  -3.207   8.464  1.00  0.00     0.164 HD
BRANCH   8  11
ATOM     11  C   UNL     1      -6.657  -2.065  10.067  1.00  0.00     0.140 C 
BRANCH  11  12
ATOM     12  C   UNL     1      -5.843  -2.749  11.168  1.00  0.00     0.091 C 
ATOM     13  S   UNL     1      -5.465  -1.902  12.649  1.00  0.00    -0.106 SA
ATOM     14  C   UNL     1      -4.900  -3.443  13.402  1.00  0.00     0.113 C 
ATOM     15  N   UNL     1      -5.347  -3.937  11.018  1.00  0.00    -0.267 NA
ATOM     16  C   UNL     1      -4.514  -4.301  12.207  1.00  0.00     0.205 CG0
ATOM     17  G   UNL     1      -3.016  -4.154  11.894  1.00  0.00     0.000 G0
ENDBRANCH  11  12
BRANCH  11  18
ATOM     18  C   UNL     1      -6.281  -0.596   9.744  1.00  0.00     0.015 C 
ATOM     19  C   UNL     1      -5.260  -0.544   8.600  1.00  0.00     0.010 C 
BRANCH  18  20
ATOM     20  C   UNL     1      -7.483   0.331   9.469  1.00  0.00     0.002 C 
ATOM     21  C   UNL     1      -8.766  -0.141  10.143  1.00  0.00     0.004 C 
ENDBRANCH  18  20
ENDBRANCH  11  18
ENDBRANCH   8  11
ENDBRANCH   3   7
ENDBRANCH   1   2
BRANCH   1  22
ATOM     22  N   UNL     1      -3.726  -5.135   5.874  1.00  0.00    -0.348 N 
ATOM     23  C   UNL     1      -2.458  -5.605   6.089  1.00  0.00     0.249 C 
ATOM     24  O   UNL     1      -2.068  -6.696   5.687  1.00  0.00    -0.272 OA
ATOM     25  H   UNL     1      -3.947  -4.221   6.267  1.00  0.00     0.163 HD
BRANCH  23  26
ATOM     26  C   UNL     1      -1.567  -4.597   6.830  1.00  0.00     0.238 C 
ATOM     27  N   UNL     1      -2.079  -4.416   8.217  1.00  0.00    -0.236 NA
ATOM     28  C   UNL     1      -0.144  -5.103   6.985  1.00  0.00     0.206 C 
ATOM     29  C   UNL     1      -1.159  -4.970   8.949  1.00  0.00     0.208 C 
ATOM     30  O   UNL     1      -0.065  -5.504   8.352  1.00  0.00    -0.474 OA
ATOM     31  C   UNL     1       0.893  -4.015   6.737  1.00  0.00     0.056 C 
BRANCH  29  32
ATOM     32  C   UNL     1      -1.192  -5.143  10.465  1.00  0.00     0.171 C 
BRANCH  32  33
ATOM     33  N   UNL     1      -2.558  -5.110  10.962  1.00  0.00    -0.342 N 
ATOM     34  C   UNL     1      -2.990  -4.181  11.878  1.00  0.00     0.246 CG0
ATOM     35  O   UNL     1      -2.254  -3.326  12.365  1.00  0.00    -0.273 OA
ATOM     36  H   UNL     1      -3.238  -5.805  10.674  1.00  0.00     0.164 HD
ATOM     37  G   UNL     1      -4.484  -4.280  12.229  1.00  0.00     0.000 G0
ENDBRANCH  32  33
BRANCH  32  38
ATOM     38  C   UNL     1      -0.439  -6.435  10.879  1.00  0.00     0.017 C 
ATOM     39  C   UNL     1       0.799  -6.079  11.712  1.00  0.00     0.010 C 
BRANCH  38  40
ATOM     40  C   UNL     1      -1.345  -7.451  11.613  1.00  0.00     0.002 C 
ATOM     41  C   UNL     1      -1.491  -7.172  13.103  1.00  0.00     0.004 C 
ENDBRANCH  38  40
ENDBRANCH  32  38
ENDBRANCH  29  32
ENDBRANCH  23  26
ENDBRANCH   1  22
TORSDOF 4
ENDMDL
MODEL 2
REMARK VINA RESULT:    -5.515      2.923      6.410
REMARK INTER + INTRA:         -11.106
REMARK INTER:                  -9.605
REMARK INTRA:                  -1.501
REMARK UNBOUND:                -1.722
REMARK SMILES CC[C@H](C)[C@@H]1NC(=O)[C@H]2CSC(=N2)[C@@H]([C@@H](C)CC)NC(=O)c2csc(n2)CNC(=O)[C@H]2N=C1O[C@@H]2C
REMARK SMILES IDX 27 1 25 2 22 3 26 4 23 5 24 6 20 7 19 8 21 9 14 11 12 12
REMARK SMILES IDX 11 13 10 14 13 15 9 16 15 18 16 19 17 20 18 21 28 22 29 23
REMARK SMILES IDX 30 24 31 26 32 27 35 28 33 29 34 30 36 31 5 32 6 33 7 34
REMARK SMILES IDX 8 35 3 38 4 39 2 40 1 41
REMARK H PARENT 19 10 28 25 6 36
REMARK Flexibility Score:   91.900
ROOT
ATOM      1  C   UNL     1      -8.539  -1.797   7.632  1.00  0.00     0.183 C 
ENDROOT
BRANCH   1   2
ATOM      2  C   UNL     1      -8.190  -2.633   8.830  1.00  0.00     0.113 A 
ATOM      3  C   UNL     1      -7.196  -4.205  10.057  1.00  0.00     0.139 A 
ATOM      4  N   UNL     1      -7.198  -3.505   8.849  1.00  0.00    -0.234 NA
ATOM      5  C   UNL     1      -8.162  -3.799  10.956  1.00  0.00     0.101 A 
ATOM      6  S   UNL     1      -9.109  -2.539  10.276  1.00  0.00    -0.125 S 
BRANCH   3   7
ATOM      7  C   UNL     1      -6.244  -5.298  10.268  1.00  0.00     0.271 C 
ATOM      8  N   UNL     1      -4.951  -4.839  10.324  1.00  0.00    -0.341 N 
ATOM      9  O   UNL     1      -6.568  -6.476  10.349  1.00  0.00    -0.267 OA
ATOM     10  H   UNL     1      -4.839  -3.828  10.265  1.00  0.00     0.164 HD
BRANCH   8  11
ATOM     11  C   UNL     1      -3.779  -5.699  10.338  1.00  0.00     0.140 C 
BRANCH  11  12
ATOM     12  C   UNL     1      -2.917  -5.338   9.125  1.00  0.00     0.091 C 
ATOM     13  S   UNL     1      -2.391  -3.690   8.869  1.00  0.00    -0.106 SA
ATOM     14  C   UNL     1      -1.247  -4.241   7.586  1.00  0.00     0.113 C 
ATOM     15  N   UNL     1      -2.610  -6.210   8.217  1.00  0.00    -0.267 NA
ATOM     16  C   UNL     1      -1.856  -5.549   7.105  1.00  0.00     0.205 CG0
ATOM     17  G   UNL     1      -2.767  -5.311   5.890  1.00  0.00     0.000 G0
ENDBRANCH  11  12
BRANCH  11  18
ATOM     18  C   UNL     1      -3.054  -5.754  11.707  1.00  0.00     0.015 C 
ATOM     19  C   UNL     1      -3.983  -5.262  12.825  1.00  0.00     0.010 C 
BRANCH  18  20
ATOM     20  C   UNL     1      -2.431  -7.122  12.053  1.00  0.00     0.002 C 
ATOM     21  C   UNL     1      -1.242  -7.012  13.001  1.00  0.00     0.004 C 
ENDBRANCH  18  20
ENDBRANCH  11  18
ENDBRANCH   8  11
ENDBRANCH   3   7
ENDBRANCH   1   2
BRANCH   1  22
ATOM     22  N   UNL     1      -7.528  -2.037   6.627  1.00  0.00    -0.348 N 
ATOM     23  C   UNL     1      -6.565  -1.137   6.259  1.00  0.00     0.249 C 
ATOM     24  O   UNL     1      -6.412  -0.054   6.812  1.00  0.00    -0.272 OA
ATOM     25  H   UNL     1      -7.576  -2.901   6.087  1.00  0.00     0.163 HD
BRANCH  23  26
ATOM     26  C   UNL     1      -5.667  -1.655   5.126  1.00  0.00     0.238 C 
ATOM     27  N   UNL     1      -4.915  -2.848   5.602  1.00  0.00    -0.236 NA
ATOM     28  C   UNL     1      -6.476  -2.134   3.932  1.00  0.00     0.206 C 
ATOM     29  C   UNL     1      -5.440  -3.823   4.922  1.00  0.00     0.208 C 
ATOM     30  O   UNL     1      -6.423  -3.556   4.026  1.00  0.00    -0.474 OA
ATOM     31  C   UNL     1      -5.864  -1.711   2.604  1.00  0.00     0.056 C 
BRANCH  29  32
ATOM     32  C   UNL     1      -5.102  -5.305   5.055  1.00  0.00     0.171 C 
BRANCH  32  33
ATOM     33  N   UNL     1      -4.093  -5.517   6.081  1.00  0.00    -0.342 N 
ATOM     34  C   UNL     1      -2.752  -5.314   5.855  1.00  0.00     0.246 CG0
ATOM     35  O   UNL     1      -2.302  -4.965   4.767  1.00  0.00    -0.273 OA
ATOM     36  H   UNL     1      -4.345  -5.862   7.001  1.00  0.00     0.164 HD
ATOM     37  G   UNL     1      -1.858  -5.537   7.085  1.00  0.00     0.000 G0
ENDBRANCH  32  33
BRANCH  32  38
ATOM     38  C   UNL     1      -6.389  -6.135   5.307  1.00  0.00     0.017 C 
ATOM     39  C   UNL     1      -6.660  -7.061   4.114  1.00  0.00     0.010 C 
BRANCH  38  40
ATOM     40  C   UNL     1      -6.349  -6.919   6.638  1.00  0.00     0.002 C 
ATOM     41  C   UNL     1      -7.019  -8.285   6.561  1.00  0.00     0.004 C 
ENDBRANCH  38  40
ENDBRANCH  32  38
ENDBRANCH  29  32
ENDBRANCH  23  26
ENDBRANCH   1  22
TORSDOF 4
ENDMDL
MODEL 3
REMARK VINA RESULT:    -5.349      3.319      6.368
REMARK INTER + INTRA:         -10.823
REMARK INTER:                  -9.299
REMARK INTRA:                  -1.523
REMARK UNBOUND:                -1.722
REMARK SMILES CC[C@H](C)[C@@H]1NC(=O)[C@H]2CSC(=N2)[C@@H]([C@@H](C)CC)NC(=O)c2csc(n2)CNC(=O)[C@H]2N=C1O[C@@H]2C
REMARK SMILES IDX 27 1 25 2 22 3 26 4 23 5 24 6 20 7 19 8 21 9 14 11 12 12
REMARK SMILES IDX 11 13 10 14 13 15 9 16 15 18 16 19 17 20 18 21 28 22 29 23
REMARK SMILES IDX 30 24 31 26 32 27 35 28 33 29 34 30 36 31 5 32 6 33 7 34
REMARK SMILES IDX 8 35 3 38 4 39 2 40 1 41
REMARK H PARENT 19 10 28 25 6 36
REMARK Flexibility Score:   91.900
ROOT
ATOM      1  C   UNL     1      -6.944  -0.051   6.248  1.00  0.00     0.183 C 
ENDROOT
BRANCH   1   2
ATOM      2  C   UNL     1      -6.882  -0.700   7.600  1.00  0.00     0.113 A 
ATOM      3  C   UNL     1      -6.114  -1.941   9.285  1.00  0.00     0.139 A 
ATOM      4  N   UNL     1      -5.828  -1.356   8.050  1.00  0.00    -0.234 NA
ATOM      5  C   UNL     1      -7.375  -1.660   9.773  1.00  0.00     0.101 A 
ATOM      6  S   UNL     1      -8.231  -0.670   8.662  1.00  0.00    -0.125 S 
BRANCH   3   7
ATOM      7  C   UNL     1      -5.125  -2.804   9.934  1.00  0.00     0.271 C 
ATOM      8  N   UNL     1      -3.864  -2.594   9.433  1.00  0.00    -0.341 N 
ATOM      9  O   UNL     1      -5.403  -3.632  10.792  1.00  0.00    -0.267 OA
ATOM     10  H   UNL     1      -3.783  -1.853   8.738  1.00  0.00     0.164 HD
BRANCH   8  11
ATOM     11  C   UNL     1      -2.712  -3.425   9.744  1.00  0.00     0.140 C 
BRANCH  11  12
ATOM     12  C   UNL     1      -2.248  -4.089   8.444  1.00  0.00     0.091 C 
ATOM     13  S   UNL     1      -1.716  -3.117   7.092  1.00  0.00    -0.106 SA
ATOM     14  C   UNL     1      -1.069  -4.589   6.271  1.00  0.00     0.113 C 
ATOM     15  N   UNL     1      -2.300  -5.372   8.272  1.00  0.00    -0.267 NA
ATOM     16  C   UNL     1      -1.886  -5.721   6.876  1.00  0.00     0.205 CG0
ATOM     17  G   UNL     1      -3.112  -6.033   6.002  1.00  0.00     0.000 G0
ENDBRANCH  11  12
BRANCH  11  18
ATOM     18  C   UNL     1      -1.621  -2.705  10.577  1.00  0.00     0.015 C 
ATOM     19  C   UNL     1      -1.864  -1.190  10.582  1.00  0.00     0.010 C 
BRANCH  18  20
ATOM     20  C   UNL     1      -1.439  -3.250  12.008  1.00  0.00     0.002 C 
ATOM     21  C   UNL     1      -2.438  -4.348  12.359  1.00  0.00     0.004 C 
ENDBRANCH  18  20
ENDBRANCH  11  18
ENDBRANCH   8  11
ENDBRANCH   3   7
ENDBRANCH   1   2
BRANCH   1  22
ATOM     22  N   UNL     1      -6.195  -0.884   5.333  1.00  0.00    -0.348 N 
ATOM     23  C   UNL     1      -6.119  -0.685   3.982  1.00  0.00     0.249 C 
ATOM     24  O   UNL     1      -6.615   0.282   3.415  1.00  0.00    -0.272 OA
ATOM     25  H   UNL     1      -5.759  -1.732   5.696  1.00  0.00     0.163 HD
BRANCH  23  26
ATOM     26  C   UNL     1      -5.295  -1.767   3.266  1.00  0.00     0.238 C 
ATOM     27  N   UNL     1      -4.677  -2.665   4.281  1.00  0.00    -0.236 NA
ATOM     28  C   UNL     1      -6.164  -2.666   2.403  1.00  0.00     0.206 C 
ATOM     29  C   UNL     1      -5.315  -3.785   4.116  1.00  0.00     0.208 C 
ATOM     30  O   UNL     1      -6.270  -3.872   3.157  1.00  0.00    -0.474 OA
ATOM     31  C   UNL     1      -5.521  -2.986   1.061  1.00  0.00     0.056 C 
BRANCH  29  32
ATOM     32  C   UNL     1      -5.144  -5.054   4.945  1.00  0.00     0.171 C 
BRANCH  32  33
ATOM     33  N   UNL     1      -3.955  -4.975   5.778  1.00  0.00    -0.342 N 
ATOM     34  C   UNL     1      -3.131  -6.053   5.998  1.00  0.00     0.246 CG0
ATOM     35  O   UNL     1      -3.348  -7.168   5.533  1.00  0.00    -0.273 OA
ATOM     36  H   UNL     1      -3.709  -4.117   6.261  1.00  0.00     0.164 HD
ATOM     37  G   UNL     1      -1.895  -5.744   6.859  1.00  0.00     0.000 G0
ENDBRANCH  32  33
BRANCH  32  38
ATOM     38  C   UNL     1      -6.428  -5.342   5.768  1.00  0.00     0.017 C 
ATOM     39  C   UNL     1      -6.985  -6.725   5.409  1.00  0.00     0.010 C 
BRANCH  38  40
ATOM     40  C   UNL     1      -6.213  -5.193   7.292  1.00  0.00     0.002 C 
ATOM     41  C   UNL     1      -7.498  -4.928   8.065  1.00  0.00     0.004 C 
ENDBRANCH  38  40
ENDBRANCH  32  38
ENDBRANCH  29  32
ENDBRANCH  23  26
ENDBRANCH   1  22
TORSDOF 4
ENDMDL
MODEL 4
REMARK VINA RESULT:    -5.286      3.177      7.277
REMARK INTER + INTRA:         -10.716
REMARK INTER:                  -9.157
REMARK INTRA:                  -1.559
REMARK UNBOUND:                -1.722
REMARK SMILES CC[C@H](C)[C@@H]1NC(=O)[C@H]2CSC(=N2)[C@@H]([C@@H](C)CC)NC(=O)c2csc(n2)CNC(=O)[C@H]2N=C1O[C@@H]2C
REMARK SMILES IDX 27 1 25 2 22 3 26 4 23 5 24 6 20 7 19 8 21 9 14 11 12 12
REMARK SMILES IDX 11 13 10 14 13 15 9 16 15 18 16 19 17 20 18 21 28 22 29 23
REMARK SMILES IDX 30 24 31 26 32 27 35 28 33 29 34 30 36 31 5 32 6 33 7 34
REMARK SMILES IDX 8 35 3 38 4 39 2 40 1 41
REMARK H PARENT 19 10 28 25 6 36
REMARK Flexibility Score:   91.900
ROOT
ATOM      1  C   UNL     1      -8.648  -5.256  10.332  1.00  0.00     0.183 C 
ENDROOT
BRANCH   1   2
ATOM      2  C   UNL     1      -7.631  -6.322  10.623  1.00  0.00     0.113 A 
ATOM      3  C   UNL     1      -5.641  -7.299  10.848  1.00  0.00     0.139 A 
ATOM      4  N   UNL     1      -6.331  -6.097  10.673  1.00  0.00    -0.234 NA
ATOM      5  C   UNL     1      -6.451  -8.409  10.985  1.00  0.00     0.101 A 
ATOM      6  S   UNL     1      -8.102  -7.954  10.870  1.00  0.00    -0.125 S 
BRANCH   3   7
ATOM      7  C   UNL     1      -4.176  -7.311  10.834  1.00  0.00     0.271 C 
ATOM      8  N   UNL     1      -3.666  -6.183  10.242  1.00  0.00    -0.341 N 
ATOM      9  O   UNL     1      -3.500  -8.235  11.269  1.00  0.00    -0.267 OA
ATOM     10  H   UNL     1      -4.354  -5.489   9.949  1.00  0.00     0.164 HD
BRANCH   8  11
ATOM     11  C   UNL     1      -2.262  -5.995   9.915  1.00  0.00     0.140 C 
BRANCH  11  12
ATOM     12  C   UNL     1      -2.183  -5.414   8.500  1.00  0.00     0.091 C 
ATOM     13  S   UNL     1      -0.670  -4.797   7.878  1.00  0.00    -0.106 SA
ATOM     14  C   UNL     1      -1.375  -4.708   6.218  1.00  0.00     0.113 C 
ATOM     15  N   UNL     1      -3.231  -5.290   7.749  1.00  0.00    -0.267 NA
ATOM     16  C   UNL     1      -2.870  -4.596   6.473  1.00  0.00     0.205 CG0
ATOM     17  G   UNL     1      -3.308  -3.123   6.506  1.00  0.00     0.000 G0
ENDBRANCH  11  12
BRANCH  11  18
ATOM     18  C   UNL     1      -1.454  -5.254  11.011  1.00  0.00     0.015 C 
ATOM     19  C   UNL     1      -2.202  -3.994  11.468  1.00  0.00     0.010 C 
BRANCH  18  20
ATOM     20  C   UNL     1      -1.040  -6.130  12.210  1.00  0.00     0.002 C 
ATOM     21  C   UNL     1      -1.352  -5.484  13.556  1.00  0.00     0.004 C 
ENDBRANCH  18  20
ENDBRANCH  11  18
ENDBRANCH   8  11
ENDBRANCH   3   7
ENDBRANCH   1   2
BRANCH   1  22
ATOM     22  N   UNL     1      -7.936  -4.006  10.187  1.00  0.00    -0.348 N 
ATOM     23  C   UNL     1      -8.422  -2.902   9.540  1.00  0.00     0.249 C 
ATOM     24  O   UNL     1      -9.559  -2.835   9.087  1.00  0.00    -0.272 OA
ATOM     25  H   UNL     1      -6.970  -3.958  10.510  1.00  0.00     0.163 HD
BRANCH  23  26
ATOM     26  C   UNL     1      -7.414  -1.744   9.501  1.00  0.00     0.238 C 
ATOM     27  N   UNL     1      -6.191  -2.182   8.773  1.00  0.00    -0.236 NA
ATOM     28  C   UNL     1      -7.946  -0.553   8.722  1.00  0.00     0.206 C 
ATOM     29  C   UNL     1      -6.234  -1.488   7.674  1.00  0.00     0.208 C 
ATOM     30  O   UNL     1      -7.251  -0.615   7.477  1.00  0.00    -0.474 OA
ATOM     31  C   UNL     1      -7.625   0.776   9.393  1.00  0.00     0.056 C 
BRANCH  29  32
ATOM     32  C   UNL     1      -5.257  -1.584   6.506  1.00  0.00     0.171 C 
BRANCH  32  33
ATOM     33  N   UNL     1      -4.664  -2.910   6.431  1.00  0.00    -0.342 N 
ATOM     34  C   UNL     1      -3.309  -3.122   6.518  1.00  0.00     0.246 CG0
ATOM     35  O   UNL     1      -2.495  -2.210   6.639  1.00  0.00    -0.273 OA
ATOM     36  H   UNL     1      -5.237  -3.732   6.273  1.00  0.00     0.164 HD
ATOM     37  G   UNL     1      -2.892  -4.601   6.476  1.00  0.00     0.000 G0
ENDBRANCH  32  33
BRANCH  32  38
ATOM     38  C   UNL     1      -5.951  -1.167   5.182  1.00  0.00     0.017 C 
ATOM     39  C   UNL     1      -5.521   0.250   4.785  1.00  0.00     0.010 C 
BRANCH  38  40
ATOM     40  C   UNL     1      -5.716  -2.176   4.035  1.00  0.00     0.002 C 
ATOM     41  C   UNL     1      -6.296  -1.727   2.700  1.00  0.00     0.004 C 
ENDBRANCH  38  40
ENDBRANCH  32  38
ENDBRANCH  29  32
ENDBRANCH  23  26
ENDBRANCH   1  22
TORSDOF 4
ENDMDL
MODEL 5
REMARK VINA RESULT:    -5.252      2.923      6.743
REMARK INTER + INTRA:         -10.659
REMARK INTER:                  -9.760
REMARK INTRA:                  -0.899
REMARK UNBOUND:                -1.722
REMARK SMILES CC[C@H](C)[C@@H]1NC(=O)[C@H]2CSC(=N2)[C@@H]([C@@H](C)CC)NC(=O)c2csc(n2)CNC(=O)[C@H]2N=C1O[C@@H]2C
REMARK SMILES IDX 27 1 25 2 22 3 26 4 23 5 24 6 20 7 19 8 21 9 14 11 12 12
REMARK SMILES IDX 11 13 10 14 13 15 9 16 15 18 16 19 17 20 18 21 28 22 29 23
REMARK SMILES IDX 30 24 31 26 32 27 35 28 33 29 34 30 36 31 5 32 6 33 7 34
REMARK SMILES IDX 8 35 3 38 4 39 2 40 1 41
REMARK H PARENT 19 10 28 25 6 36
REMARK Flexibility Score:   91.900
ROOT
ATOM      1  C   UNL     1      -7.196  -0.591   8.596  1.00  0.00     0.183 C 
ENDROOT
BRANCH   1   2
ATOM      2  C   UNL     1      -6.619  -1.395   9.725  1.00  0.00     0.113 A 
ATOM      3  C   UNL     1      -5.453  -2.977  10.776  1.00  0.00     0.139 A 
ATOM      4  N   UNL     1      -5.704  -2.332   9.563  1.00  0.00    -0.234 NA
ATOM      5  C   UNL     1      -6.153  -2.464  11.851  1.00  0.00     0.101 A 
ATOM      6  S   UNL     1      -7.160  -1.172  11.339  1.00  0.00    -0.125 S 
BRANCH   3   7
ATOM      7  C   UNL     1      -4.543  -4.123  10.823  1.00  0.00     0.271 C 
ATOM      8  N   UNL     1      -3.238  -3.742  10.632  1.00  0.00    -0.341 N 
ATOM      9  O   UNL     1      -4.914  -5.280  10.978  1.00  0.00    -0.267 OA
ATOM     10  H   UNL     1      -3.082  -2.739  10.539  1.00  0.00     0.164 HD
BRANCH   8  11
ATOM     11  C   UNL     1      -2.135  -4.669  10.441  1.00  0.00     0.140 C 
BRANCH  11  12
ATOM     12  C   UNL     1      -1.724  -4.612   8.967  1.00  0.00     0.091 C 
ATOM     13  S   UNL     1      -1.492  -3.074   8.169  1.00  0.00    -0.106 SA
ATOM     14  C   UNL     1      -0.730  -3.907   6.759  1.00  0.00     0.113 C 
ATOM     15  N   UNL     1      -1.607  -5.682   8.245  1.00  0.00    -0.267 NA
ATOM     16  C   UNL     1      -1.302  -5.314   6.826  1.00  0.00     0.205 CG0
ATOM     17  G   UNL     1      -2.557  -5.434   5.947  1.00  0.00     0.000 G0
ENDBRANCH  11  12
BRANCH  11  18
ATOM     18  C   UNL     1      -0.996  -4.516  11.480  1.00  0.00     0.015 C 
ATOM     19  C   UNL     1      -0.328  -5.872  11.746  1.00  0.00     0.010 C 
BRANCH  18  20
ATOM     20  C   UNL     1       0.047  -3.432  11.139  1.00  0.00     0.002 C 
ATOM     21  C   UNL     1      -0.288  -2.073  11.743  1.00  0.00     0.004 C 
ENDBRANCH  18  20
ENDBRANCH  11  18
ENDBRANCH   8  11
ENDBRANCH   3   7
ENDBRANCH   1   2
BRANCH   1  22
ATOM     22  N   UNL     1      -6.354  -0.804   7.439  1.00  0.00    -0.348 N 
ATOM     23  C   UNL     1      -6.619  -0.327   6.184  1.00  0.00     0.249 C 
ATOM     24  O   UNL     1      -7.565   0.411   5.931  1.00  0.00    -0.272 OA
ATOM     25  H   UNL     1      -5.550  -1.423   7.533  1.00  0.00     0.163 HD
BRANCH  23  26
ATOM     26  C   UNL     1      -5.572  -0.764   5.149  1.00  0.00     0.238 C 
ATOM     27  N   UNL     1      -4.758  -1.877   5.712  1.00  0.00    -0.236 NA
ATOM     28  C   UNL     1      -6.215  -1.326   3.892  1.00  0.00     0.206 C 
ATOM     29  C   UNL     1      -5.122  -2.901   5.000  1.00  0.00     0.208 C 
ATOM     30  O   UNL     1      -6.036  -2.736   4.013  1.00  0.00    -0.474 OA
ATOM     31  C   UNL     1      -5.522  -0.854   2.620  1.00  0.00     0.056 C 
BRANCH  29  32
ATOM     32  C   UNL     1      -4.659  -4.343   5.188  1.00  0.00     0.171 C 
BRANCH  32  33
ATOM     33  N   UNL     1      -3.448  -4.399   5.992  1.00  0.00    -0.342 N 
ATOM     34  C   UNL     1      -2.562  -5.448   5.925  1.00  0.00     0.246 CG0
ATOM     35  O   UNL     1      -2.736  -6.428   5.204  1.00  0.00    -0.273 OA
ATOM     36  H   UNL     1      -3.231  -3.673   6.665  1.00  0.00     0.164 HD
ATOM     37  G   UNL     1      -1.316  -5.287   6.811  1.00  0.00     0.000 G0
ENDBRANCH  32  33
BRANCH  32  38
ATOM     38  C   UNL     1      -5.804  -5.209   5.777  1.00  0.00     0.017 C 
ATOM     39  C   UNL     1      -6.812  -4.318   6.513  1.00  0.00     0.010 C 
BRANCH  38  40
ATOM     40  C   UNL     1      -6.496  -6.096   4.716  1.00  0.00     0.002 C 
ATOM     41  C   UNL     1      -6.922  -7.459   5.246  1.00  0.00     0.004 C 
ENDBRANCH  38  40
ENDBRANCH  32  38
ENDBRANCH  29  32
ENDBRANCH  23  26
ENDBRANCH   1  22
TORSDOF 4
ENDMDL
MODEL 6
REMARK VINA RESULT:    -5.251      2.022      6.698
REMARK INTER + INTRA:         -10.656
REMARK INTER:                  -9.197
REMARK INTRA:                  -1.459
REMARK UNBOUND:                -1.722
REMARK SMILES CC[C@H](C)[C@@H]1NC(=O)[C@H]2CSC(=N2)[C@@H]([C@@H](C)CC)NC(=O)c2csc(n2)CNC(=O)[C@H]2N=C1O[C@@H]2C
REMARK SMILES IDX 27 1 25 2 22 3 26 4 23 5 24 6 20 7 19 8 21 9 14 11 12 12
REMARK SMILES IDX 11 13 10 14 13 15 9 16 15 18 16 19 17 20 18 21 28 22 29 23
REMARK SMILES IDX 30 24 31 26 32 27 35 28 33 29 34 30 36 31 5 32 6 33 7 34
REMARK SMILES IDX 8 35 3 38 4 39 2 40 1 41
REMARK H PARENT 19 10 28 25 6 36
REMARK Flexibility Score:   91.900
ROOT
ATOM      1  C   UNL     1      -6.496  -6.068   6.988  1.00  0.00     0.183 C 
ENDROOT
BRANCH   1   2
ATOM      2  C   UNL     1      -4.995  -6.093   7.036  1.00  0.00     0.113 A 
ATOM      3  C   UNL     1      -2.930  -5.842   7.835  1.00  0.00     0.139 A 
ATOM      4  N   UNL     1      -4.294  -5.862   8.131  1.00  0.00    -0.234 NA
ATOM      5  C   UNL     1      -2.626  -6.119   6.516  1.00  0.00     0.101 A 
ATOM      6  S   UNL     1      -4.067  -6.385   5.622  1.00  0.00    -0.125 S 
BRANCH   3   7
ATOM      7  C   UNL     1      -1.959  -5.505   8.878  1.00  0.00     0.271 C 
ATOM      8  N   UNL     1      -2.442  -5.791  10.131  1.00  0.00    -0.341 N 
ATOM      9  O   UNL     1      -0.867  -4.999   8.653  1.00  0.00    -0.267 OA
ATOM     10  H   UNL     1      -3.361  -6.232  10.159  1.00  0.00     0.164 HD
BRANCH   8  11
ATOM     11  C   UNL     1      -1.789  -5.397  11.369  1.00  0.00     0.140 C 
BRANCH  11  12
ATOM     12  C   UNL     1      -2.678  -4.360  12.060  1.00  0.00     0.091 C 
ATOM     13  S   UNL     1      -3.120  -4.549  13.741  1.00  0.00    -0.106 SA
ATOM     14  C   UNL     1      -3.759  -2.861  13.776  1.00  0.00     0.113 C 
ATOM     15  N   UNL     1      -3.191  -3.358  11.418  1.00  0.00    -0.267 NA
ATOM     16  C   UNL     1      -4.097  -2.579  12.320  1.00  0.00     0.205 CG0
ATOM     17  G   UNL     1      -5.571  -2.904  12.031  1.00  0.00     0.000 G0
ENDBRANCH  11  12
BRANCH  11  18
ATOM     18  C   UNL     1      -1.317  -6.590  12.239  1.00  0.00     0.015 C 
ATOM     19  C   UNL     1      -1.801  -7.916  11.637  1.00  0.00     0.010 C 
BRANCH  18  20
ATOM     20  C   UNL     1       0.199  -6.621  12.523  1.00  0.00     0.002 C 
ATOM     21  C   UNL     1       1.022  -5.937  11.438  1.00  0.00     0.004 C 
ENDBRANCH  18  20
ENDBRANCH  11  18
ENDBRANCH   8  11
ENDBRANCH   3   7
ENDBRANCH   1   2
BRANCH   1  22
ATOM     22  N   UNL     1      -6.917  -4.720   7.301  1.00  0.00    -0.348 N 
ATOM     23  C   UNL     1      -8.139  -4.193   6.987  1.00  0.00     0.249 C 
ATOM     24  O   UNL     1      -9.042  -4.846   6.475  1.00  0.00    -0.272 OA
ATOM     25  H   UNL     1      -6.234  -4.082   7.709  1.00  0.00     0.163 HD
BRANCH  23  26
ATOM     26  C   UNL     1      -8.275  -2.719   7.398  1.00  0.00     0.238 C 
ATOM     27  N   UNL     1      -8.764  -2.645   8.803  1.00  0.00    -0.236 NA
ATOM     28  C   UNL     1      -6.936  -2.002   7.396  1.00  0.00     0.206 C 
ATOM     29  C   UNL     1      -7.736  -2.186   9.452  1.00  0.00     0.208 C 
ATOM     30  O   UNL     1      -6.597  -1.896   8.777  1.00  0.00    -0.474 OA
ATOM     31  C   UNL     1      -7.025  -0.600   6.808  1.00  0.00     0.056 C 
BRANCH  29  32
ATOM     32  C   UNL     1      -7.640  -1.973  10.961  1.00  0.00     0.171 C 
BRANCH  32  33
ATOM     33  N   UNL     1      -6.253  -1.861  11.382  1.00  0.00    -0.342 N 
ATOM     34  C   UNL     1      -5.583  -2.884  12.009  1.00  0.00     0.246 CG0
ATOM     35  O   UNL     1      -6.109  -3.959  12.285  1.00  0.00    -0.273 OA
ATOM     36  H   UNL     1      -5.736  -0.997  11.258  1.00  0.00     0.164 HD
ATOM     37  G   UNL     1      -4.107  -2.584  12.319  1.00  0.00     0.000 G0
ENDBRANCH  32  33
BRANCH  32  38
ATOM     38  C   UNL     1      -8.494  -0.752  11.392  1.00  0.00     0.017 C 
ATOM     39  C   UNL     1      -8.882   0.080  10.164  1.00  0.00     0.010 C 
BRANCH  38  40
ATOM     40  C   UNL     1      -9.734  -1.148  12.226  1.00  0.00     0.002 C 
ATOM     41  C   UNL     1     -10.818  -0.079  12.251  1.00  0.00     0.004 C 
ENDBRANCH  38  40
ENDBRANCH  32  38
ENDBRANCH  29  32
ENDBRANCH  23  26
ENDBRANCH   1  22
TORSDOF 4
ENDMDL
MODEL 7
REMARK VINA RESULT:    -5.227      4.877      7.997
REMARK INTER + INTRA:         -10.616
REMARK INTER:                  -9.195
REMARK INTRA:                  -1.421
REMARK UNBOUND:                -1.722
REMARK SMILES CC[C@H](C)[C@@H]1NC(=O)[C@H]2CSC(=N2)[C@@H]([C@@H](C)CC)NC(=O)c2csc(n2)CNC(=O)[C@H]2N=C1O[C@@H]2C
REMARK SMILES IDX 27 1 25 2 22 3 26 4 23 5 24 6 20 7 19 8 21 9 14 11 12 12
REMARK SMILES IDX 11 13 10 14 13 15 9 16 15 18 16 19 17 20 18 21 28 22 29 23
REMARK SMILES IDX 30 24 31 26 32 27 35 28 33 29 34 30 36 31 5 32 6 33 7 34
REMARK SMILES IDX 8 35 3 38 4 39 2 40 1 41
REMARK H PARENT 19 10 28 25 6 36
REMARK Flexibility Score:   91.900
ROOT
ATOM      1  C   UNL     1      -9.299  -8.202  10.975  1.00  0.00     0.183 C 
ENDROOT
BRANCH   1   2
ATOM      2  C   UNL     1      -8.483  -7.644   9.844  1.00  0.00     0.113 A 
ATOM      3  C   UNL     1      -7.967  -6.443   8.039  1.00  0.00     0.139 A 
ATOM      4  N   UNL     1      -8.891  -6.661   9.064  1.00  0.00    -0.234 NA
ATOM      5  C   UNL     1      -6.841  -7.240   8.106  1.00  0.00     0.101 A 
ATOM      6  S   UNL     1      -6.944  -8.297   9.454  1.00  0.00    -0.125 S 
BRANCH   3   7
ATOM      7  C   UNL     1      -8.255  -5.464   6.989  1.00  0.00     0.271 C 
ATOM      8  N   UNL     1      -7.274  -4.507   6.908  1.00  0.00    -0.341 N 
ATOM      9  O   UNL     1      -9.265  -5.485   6.297  1.00  0.00    -0.267 OA
ATOM     10  H   UNL     1      -6.480  -4.635   7.535  1.00  0.00     0.164 HD
BRANCH   8  11
ATOM     11  C   UNL     1      -7.369  -3.305   6.094  1.00  0.00     0.140 C 
BRANCH  11  12
ATOM     12  C   UNL     1      -7.811  -2.156   7.004  1.00  0.00     0.091 C 
ATOM     13  S   UNL     1      -6.870  -0.685   7.097  1.00  0.00    -0.106 SA
ATOM     14  C   UNL     1      -8.208   0.130   7.992  1.00  0.00     0.113 C 
ATOM     15  N   UNL     1      -8.841  -2.254   7.785  1.00  0.00    -0.267 NA
ATOM     16  C   UNL     1      -8.965  -1.025   8.630  1.00  0.00     0.205 CG0
ATOM     17  G   UNL     1      -8.456  -1.286  10.057  1.00  0.00     0.000 G0
ENDBRANCH  11  12
BRANCH  11  18
ATOM     18  C   UNL     1      -6.125  -3.044   5.208  1.00  0.00     0.015 C 
ATOM     19  C   UNL     1      -4.870  -3.641   5.858  1.00  0.00     0.010 C 
BRANCH  18  20
ATOM     20  C   UNL     1      -6.270  -3.499   3.742  1.00  0.00     0.002 C 
ATOM     21  C   UNL     1      -5.253  -4.563   3.345  1.00  0.00     0.004 C 
ENDBRANCH  18  20
ENDBRANCH  11  18
ENDBRANCH   8  11
ENDBRANCH   3   7
ENDBRANCH   1   2
BRANCH   1  22
ATOM     22  N   UNL     1      -9.853  -7.082  11.702  1.00  0.00    -0.348 N 
ATOM     23  C   UNL     1      -9.333  -6.569  12.859  1.00  0.00     0.249 C 
ATOM     24  O   UNL     1      -8.282  -6.961  13.356  1.00  0.00    -0.272 OA
ATOM     25  H   UNL     1     -10.741  -6.692  11.388  1.00  0.00     0.163 HD
BRANCH  23  26
ATOM     26  C   UNL     1     -10.172  -5.416  13.430  1.00  0.00     0.238 C 
ATOM     27  N   UNL     1      -9.309  -4.213  13.589  1.00  0.00    -0.236 NA
ATOM     28  C   UNL     1     -11.282  -4.997  12.481  1.00  0.00     0.206 C 
ATOM     29  C   UNL     1      -9.763  -3.398  12.684  1.00  0.00     0.208 C 
ATOM     30  O   UNL     1     -10.808  -3.780  11.908  1.00  0.00    -0.474 OA
ATOM     31  C   UNL     1     -12.593  -4.716  13.204  1.00  0.00     0.056 C 
BRANCH  29  32
ATOM     32  C   UNL     1      -9.201  -2.022  12.341  1.00  0.00     0.171 C 
BRANCH  32  33
ATOM     33  N   UNL     1      -9.467  -1.683  10.952  1.00  0.00    -0.342 N 
ATOM     34  C   UNL     1      -8.477  -1.295  10.081  1.00  0.00     0.246 CG0
ATOM     35  O   UNL     1      -7.300  -1.180  10.413  1.00  0.00    -0.273 OA
ATOM     36  H   UNL     1     -10.412  -1.686  10.583  1.00  0.00     0.164 HD
ATOM     37  G   UNL     1      -8.958  -1.038   8.644  1.00  0.00     0.000 G0
ENDBRANCH  32  33
BRANCH  32  38
ATOM     38  C   UNL     1      -9.742  -0.954  13.328  1.00  0.00     0.017 C 
ATOM     39  C   UNL     1     -10.027   0.356  12.582  1.00  0.00     0.010 C 
BRANCH  38  40
ATOM     40  C   UNL     1     -10.977  -1.437  14.122  1.00  0.00     0.002 C 
ATOM     41  C   UNL     1     -10.883  -1.171  15.618  1.00  0.00     0.004 C 
ENDBRANCH  38  40
ENDBRANCH  32  38
ENDBRANCH  29  32
ENDBRANCH  23  26
ENDBRANCH   1  22
TORSDOF 4
ENDMDL
MODEL 8
REMARK VINA RESULT:    -5.207      3.406      5.975
REMARK INTER + INTRA:         -10.581
REMARK INTER:                  -8.927
REMARK INTRA:                  -1.655
REMARK UNBOUND:                -1.722
REMARK SMILES CC[C@H](C)[C@@H]1NC(=O)[C@H]2CSC(=N2)[C@@H]([C@@H](C)CC)NC(=O)c2csc(n2)CNC(=O)[C@H]2N=C1O[C@@H]2C
REMARK SMILES IDX 27 1 25 2 22 3 26 4 23 5 24 6 20 7 19 8 21 9 14 11 12 12
REMARK SMILES IDX 11 13 10 14 13 15 9 16 15 18 16 19 17 20 18 21 28 22 29 23
REMARK SMILES IDX 30 24 31 26 32 27 35 28 33 29 34 30 36 31 5 32 6 33 7 34
REMARK SMILES IDX 8 35 3 38 4 39 2 40 1 41
REMARK H PARENT 19 10 28 25 6 36
REMARK Flexibility Score:   91.900
ROOT
ATOM      1  C   UNL     1      -4.280  -6.991  11.028  1.00  0.00     0.183 C 
ENDROOT
BRANCH   1   2
ATOM      2  C   UNL     1      -5.609  -6.587  11.599  1.00  0.00     0.113 A 
ATOM      3  C   UNL     1      -7.160  -5.321  12.579  1.00  0.00     0.139 A 
ATOM      4  N   UNL     1      -5.894  -5.359  11.990  1.00  0.00    -0.234 NA
ATOM      5  C   UNL     1      -7.832  -6.527  12.566  1.00  0.00     0.101 A 
ATOM      6  S   UNL     1      -6.863  -7.737  11.830  1.00  0.00    -0.125 S 
BRANCH   3   7
ATOM      7  C   UNL     1      -7.652  -4.080  13.180  1.00  0.00     0.271 C 
ATOM      8  N   UNL     1      -8.352  -3.322  12.273  1.00  0.00    -0.341 N 
ATOM      9  O   UNL     1      -7.432  -3.750  14.338  1.00  0.00    -0.267 OA
ATOM     10  H   UNL     1      -8.473  -3.739  11.351  1.00  0.00     0.164 HD
BRANCH   8  11
ATOM     11  C   UNL     1      -8.801  -1.961  12.519  1.00  0.00     0.140 C 
BRANCH  11  12
ATOM     12  C   UNL     1      -8.359  -1.100  11.332  1.00  0.00     0.091 C 
ATOM     13  S   UNL     1      -9.496  -0.037  10.536  1.00  0.00    -0.106 SA
ATOM     14  C   UNL     1      -8.145   0.758   9.640  1.00  0.00     0.113 C 
ATOM     15  N   UNL     1      -7.166  -1.178  10.833  1.00  0.00    -0.267 NA
ATOM     16  C   UNL     1      -7.057  -0.305   9.622  1.00  0.00     0.205 CG0
ATOM     17  G   UNL     1      -7.135  -1.140   8.334  1.00  0.00     0.000 G0
ENDBRANCH  11  12
BRANCH  11  18
ATOM     18  C   UNL     1     -10.291  -1.854  12.932  1.00  0.00     0.015 C 
ATOM     19  C   UNL     1     -11.119  -2.944  12.238  1.00  0.00     0.010 C 
BRANCH  18  20
ATOM     20  C   UNL     1     -10.539  -1.842  14.454  1.00  0.00     0.002 C 
ATOM     21  C   UNL     1      -9.679  -0.820  15.189  1.00  0.00     0.004 C 
ENDBRANCH  18  20
ENDBRANCH  11  18
ENDBRANCH   8  11
ENDBRANCH   3   7
ENDBRANCH   1   2
BRANCH   1  22
ATOM     22  N   UNL     1      -4.276  -6.612   9.633  1.00  0.00    -0.348 N 
ATOM     23  C   UNL     1      -3.494  -5.626   9.096  1.00  0.00     0.249 C 
ATOM     24  O   UNL     1      -2.646  -5.015   9.738  1.00  0.00    -0.272 OA
ATOM     25  H   UNL     1      -4.959  -7.043   9.011  1.00  0.00     0.163 HD
BRANCH  23  26
ATOM     26  C   UNL     1      -3.750  -5.413   7.596  1.00  0.00     0.238 C 
ATOM     27  N   UNL     1      -5.074  -4.757   7.412  1.00  0.00    -0.236 NA
ATOM     28  C   UNL     1      -2.737  -4.467   6.974  1.00  0.00     0.206 C 
ATOM     29  C   UNL     1      -4.760  -3.568   6.991  1.00  0.00     0.208 C 
ATOM     30  O   UNL     1      -3.455  -3.245   6.818  1.00  0.00    -0.474 OA
ATOM     31  C   UNL     1      -2.266  -4.934   5.603  1.00  0.00     0.056 C 
BRANCH  29  32
ATOM     32  C   UNL     1      -5.730  -2.425   6.705  1.00  0.00     0.171 C 
BRANCH  32  33
ATOM     33  N   UNL     1      -5.883  -1.569   7.871  1.00  0.00    -0.342 N 
ATOM     34  C   UNL     1      -7.109  -1.136   8.318  1.00  0.00     0.246 CG0
ATOM     35  O   UNL     1      -8.164  -1.417   7.755  1.00  0.00    -0.273 OA
ATOM     36  H   UNL     1      -5.074  -1.226   8.379  1.00  0.00     0.164 HD
ATOM     37  G   UNL     1      -7.057  -0.289   9.600  1.00  0.00     0.000 G0
ENDBRANCH  32  33
BRANCH  32  38
ATOM     38  C   UNL     1      -5.286  -1.638   5.444  1.00  0.00     0.017 C 
ATOM     39  C   UNL     1      -6.006  -2.181   4.203  1.00  0.00     0.010 C 
BRANCH  38  40
ATOM     40  C   UNL     1      -5.473  -0.111   5.589  1.00  0.00     0.002 C 
ATOM     41  C   UNL     1      -6.529   0.465   4.653  1.00  0.00     0.004 C 
ENDBRANCH  38  40
ENDBRANCH  32  38
ENDBRANCH  29  32
ENDBRANCH  23  26
ENDBRANCH   1  22
TORSDOF 4
ENDMDL
MODEL 9
REMARK VINA RESULT:    -5.124      2.568      7.371
REMARK INTER + INTRA:         -10.441
REMARK INTER:                  -8.924
REMARK INTRA:                  -1.517
REMARK UNBOUND:                -1.722
REMARK SMILES CC[C@H](C)[C@@H]1NC(=O)[C@H]2CSC(=N2)[C@@H]([C@@H](C)CC)NC(=O)c2csc(n2)CNC(=O)[C@H]2N=C1O[C@@H]2C
REMARK SMILES IDX 27 1 25 2 22 3 26 4 23 5 24 6 20 7 19 8 21 9 14 11 12 12
REMARK SMILES IDX 11 13 10 14 13 15 9 16 15 18 16 19 17 20 18 21 28 22 29 23
REMARK SMILES IDX 30 24 31 26 32 27 35 28 33 29 34 30 36 31 5 32 6 33 7 34
REMARK SMILES IDX 8 35 3 38 4 39 2 40 1 41
REMARK H PARENT 19 10 28 25 6 36
REMARK Flexibility Score:   91.900
ROOT
ATOM      1  C   UNL     1      -7.134  -1.251   9.123  1.00  0.00     0.183 C 
ENDROOT
BRANCH   1   2
ATOM      2  C   UNL     1      -5.767  -1.413   9.723  1.00  0.00     0.113 A 
ATOM      3  C   UNL     1      -3.928  -2.418  10.481  1.00  0.00     0.139 A 
ATOM      4  N   UNL     1      -5.117  -2.562   9.763  1.00  0.00    -0.234 NA
ATOM      5  C   UNL     1      -3.677  -1.134  10.922  1.00  0.00     0.101 A 
ATOM      6  S   UNL     1      -4.957  -0.089  10.457  1.00  0.00    -0.125 S 
BRANCH   3   7
ATOM      7  C   UNL     1      -3.085  -3.587  10.744  1.00  0.00     0.271 C 
ATOM      8  N   UNL     1      -1.960  -3.587   9.956  1.00  0.00    -0.341 N 
ATOM      9  O   UNL     1      -3.373  -4.467  11.545  1.00  0.00    -0.267 OA
ATOM     10  H   UNL     1      -1.845  -2.773   9.353  1.00  0.00     0.164 HD
BRANCH   8  11
ATOM     11  C   UNL     1      -1.033  -4.702   9.855  1.00  0.00     0.140 C 
BRANCH  11  12
ATOM     12  C   UNL     1      -1.043  -5.191   8.404  1.00  0.00     0.091 C 
ATOM     13  S   UNL     1       0.081  -4.535   7.238  1.00  0.00    -0.106 SA
ATOM     14  C   UNL     1      -0.357  -5.835   6.064  1.00  0.00     0.113 C 
ATOM     15  N   UNL     1      -1.920  -6.043   7.973  1.00  0.00    -0.267 NA
ATOM     16  C   UNL     1      -1.753  -6.251   6.500  1.00  0.00     0.205 CG0
ATOM     17  G   UNL     1      -2.822  -5.476   5.713  1.00  0.00     0.000 G0
ENDBRANCH  11  12
BRANCH  11  18
ATOM     18  C   UNL     1       0.359  -4.422  10.478  1.00  0.00     0.015 C 
ATOM     19  C   UNL     1       0.574  -2.913  10.651  1.00  0.00     0.010 C 
BRANCH  18  20
ATOM     20  C   UNL     1       0.644  -5.186  11.787  1.00  0.00     0.002 C 
ATOM     21  C   UNL     1       0.088  -6.606  11.781  1.00  0.00     0.004 C 
ENDBRANCH  18  20
ENDBRANCH  11  18
ENDBRANCH   8  11
ENDBRANCH   3   7
ENDBRANCH   1   2
BRANCH   1  22
ATOM     22  N   UNL     1      -7.411  -2.441   8.350  1.00  0.00    -0.348 N 
ATOM     23  C   UNL     1      -8.155  -3.501   8.791  1.00  0.00     0.249 C 
ATOM     24  O   UNL     1      -8.740  -3.511   9.869  1.00  0.00    -0.272 OA
ATOM     25  H   UNL     1      -6.955  -2.548   7.445  1.00  0.00     0.163 HD
BRANCH  23  26
ATOM     26  C   UNL     1      -8.228  -4.645   7.768  1.00  0.00     0.238 C 
ATOM     27  N   UNL     1      -7.467  -4.259   6.546  1.00  0.00    -0.236 NA
ATOM     28  C   UNL     1      -7.560  -5.910   8.280  1.00  0.00     0.206 C 
ATOM     29  C   UNL     1      -6.438  -5.052   6.574  1.00  0.00     0.208 C 
ATOM     30  O   UNL     1      -6.318  -5.954   7.578  1.00  0.00    -0.474 OA
ATOM     31  C   UNL     1      -8.353  -7.166   7.944  1.00  0.00     0.056 C 
BRANCH  29  32
ATOM     32  C   UNL     1      -5.270  -5.052   5.592  1.00  0.00     0.171 C 
BRANCH  32  33
ATOM     33  N   UNL     1      -4.106  -5.705   6.169  1.00  0.00    -0.342 N 
ATOM     34  C   UNL     1      -2.829  -5.484   5.711  1.00  0.00     0.246 CG0
ATOM     35  O   UNL     1      -2.575  -4.742   4.766  1.00  0.00    -0.273 OA
ATOM     36  H   UNL     1      -4.202  -6.384   6.917  1.00  0.00     0.164 HD
ATOM     37  G   UNL     1      -1.734  -6.226   6.495  1.00  0.00     0.000 G0
ENDBRANCH  32  33
BRANCH  32  38
ATOM     38  C   UNL     1      -5.697  -5.684   4.240  1.00  0.00     0.017 C 
ATOM     39  C   UNL     1      -6.705  -6.814   4.483  1.00  0.00     0.010 C 
BRANCH  38  40
ATOM     40  C   UNL     1      -6.240  -4.643   3.233  1.00  0.00     0.002 C 
ATOM     41  C   UNL     1      -5.208  -3.603   2.817  1.00  0.00     0.004 C 
ENDBRANCH  38  40
ENDBRANCH  32  38
ENDBRANCH  29  32
ENDBRANCH  23  26
ENDBRANCH   1  22
TORSDOF 4
ENDMDL
MODEL 10
REMARK VINA RESULT:    -5.058      3.087      5.565
REMARK INTER + INTRA:         -10.328
REMARK INTER:                  -9.906
REMARK INTRA:                  -0.422
REMARK UNBOUND:                -1.722
REMARK SMILES CC[C@H](C)[C@@H]1NC(=O)[C@H]2CSC(=N2)[C@@H]([C@@H](C)CC)NC(=O)c2csc(n2)CNC(=O)[C@H]2N=C1O[C@@H]2C
REMARK SMILES IDX 27 1 25 2 22 3 26 4 23 5 24 6 20 7 19 8 21 9 14 11 12 12
REMARK SMILES IDX 11 13 10 14 13 15 9 16 15 18 16 19 17 20 18 21 28 22 29 23
REMARK SMILES IDX 30 24 31 26 32 27 35 28 33 29 34 30 36 31 5 32 6 33 7 34
REMARK SMILES IDX 8 35 3 38 4 39 2 40 1 41
REMARK H PARENT 19 10 28 25 6 36
REMARK Flexibility Score:   91.900
ROOT
ATOM      1  C   UNL     1      -4.966  -8.049  12.242  1.00  0.00     0.183 C 
ENDROOT
BRANCH   1   2
ATOM      2  C   UNL     1      -5.923  -7.283  11.375  1.00  0.00     0.113 A 
ATOM      3  C   UNL     1      -6.654  -5.981   9.719  1.00  0.00     0.139 A 
ATOM      4  N   UNL     1      -5.581  -6.712  10.234  1.00  0.00    -0.234 NA
ATOM      5  C   UNL     1      -7.814  -6.067  10.464  1.00  0.00     0.101 A 
ATOM      6  S   UNL     1      -7.558  -7.054  11.845  1.00  0.00    -0.125 S 
BRANCH   3   7
ATOM      7  C   UNL     1      -6.479  -5.179   8.507  1.00  0.00     0.271 C 
ATOM      8  N   UNL     1      -5.562  -5.743   7.655  1.00  0.00    -0.341 N 
ATOM      9  O   UNL     1      -7.058  -4.119   8.303  1.00  0.00    -0.267 OA
ATOM     10  H   UNL     1      -5.180  -6.640   7.950  1.00  0.00     0.164 HD
BRANCH   8  11
ATOM     11  C   UNL     1      -5.042  -5.088   6.465  1.00  0.00     0.140 C 
BRANCH  11  12
ATOM     12  C   UNL     1      -3.516  -5.210   6.491  1.00  0.00     0.091 C 
ATOM     13  S   UNL     1      -2.753  -6.767   6.712  1.00  0.00    -0.106 SA
ATOM     14  C   UNL     1      -1.153  -6.062   6.261  1.00  0.00     0.113 C 
ATOM     15  N   UNL     1      -2.743  -4.172   6.427  1.00  0.00    -0.267 NA
ATOM     16  C   UNL     1      -1.313  -4.585   6.584  1.00  0.00     0.205 CG0
ATOM     17  G   UNL     1      -0.806  -4.281   8.003  1.00  0.00     0.000 G0
ENDBRANCH  11  12
BRANCH  11  18
ATOM     18  C   UNL     1      -5.745  -5.518   5.152  1.00  0.00     0.015 C 
ATOM     19  C   UNL     1      -7.089  -6.191   5.459  1.00  0.00     0.010 C 
BRANCH  18  20
ATOM     20  C   UNL     1      -5.904  -4.393   4.108  1.00  0.00     0.002 C 
ATOM     21  C   UNL     1      -6.147  -4.919   2.698  1.00  0.00     0.004 C 
ENDBRANCH  18  20
ENDBRANCH  11  18
ENDBRANCH   8  11
ENDBRANCH   3   7
ENDBRANCH   1   2
BRANCH   1  22
ATOM     22  N   UNL     1      -3.814  -7.204  12.465  1.00  0.00    -0.348 N 
ATOM     23  C   UNL     1      -2.538  -7.508  12.075  1.00  0.00     0.249 C 
ATOM     24  O   UNL     1      -2.255  -8.500  11.413  1.00  0.00    -0.272 OA
ATOM     25  H   UNL     1      -3.932  -6.362  13.026  1.00  0.00     0.163 HD
BRANCH  23  26
ATOM     26  C   UNL     1      -1.516  -6.443  12.501  1.00  0.00     0.238 C 
ATOM     27  N   UNL     1      -0.295  -6.568  11.658  1.00  0.00    -0.236 NA
ATOM     28  C   UNL     1      -2.031  -5.033  12.264  1.00  0.00     0.206 C 
ATOM     29  C   UNL     1      -0.325  -5.493  10.929  1.00  0.00     0.208 C 
ATOM     30  O   UNL     1      -1.331  -4.600  11.098  1.00  0.00    -0.474 OA
ATOM     31  C   UNL     1      -1.697  -4.089  13.411  1.00  0.00     0.056 C 
BRANCH  29  32
ATOM     32  C   UNL     1       0.656  -5.125   9.819  1.00  0.00     0.171 C 
BRANCH  32  33
ATOM     33  N   UNL     1       0.030  -5.246   8.511  1.00  0.00    -0.342 N 
ATOM     34  C   UNL     1      -0.795  -4.277   7.992  1.00  0.00     0.246 CG0
ATOM     35  O   UNL     1      -1.087  -3.250   8.599  1.00  0.00    -0.273 OA
ATOM     36  H   UNL     1       0.153  -6.079   7.946  1.00  0.00     0.164 HD
ATOM     37  G   UNL     1      -1.307  -4.570   6.572  1.00  0.00     0.000 G0
ENDBRANCH  32  33
BRANCH  32  38
ATOM     38  C   UNL     1       1.249  -3.713  10.065  1.00  0.00     0.017 C 
ATOM     39  C   UNL     1       1.618  -3.547  11.545  1.00  0.00     0.010 C 
BRANCH  38  40
ATOM     40  C   UNL     1       2.447  -3.393   9.141  1.00  0.00     0.002 C 
ATOM     41  C   UNL     1       3.700  -2.967   9.893  1.00  0.00     0.004 C 
ENDBRANCH  38  40
ENDBRANCH  32  38
ENDBRANCH  29  32
ENDBRANCH  23  26
ENDBRANCH   1  22
TORSDOF 4
ENDMDL
