MODEL 1
REMARK VINA RESULT:    -4.019      0.000      0.000
REMARK INTER + INTRA:         -19.038
REMARK INTER:                 -11.537
REMARK INTRA:                  -7.501
REMARK UNBOUND:                -7.501
REMARK SMILES CCCCCC(=O)N[C@H](CC(=O)O)C(=O)N[C@H]1C(=O)N[C@H](CCCN=C(N)N)C(=O)N[C@@H]2CC[C@H](O)N(C2=O)[C@@H](CC(C)C)C(=O)N(C)[C@@H](Cc2ccccc2)C(=O)N[C@H](C(C)C)C(=O)O[C@@H]1C
REMARK SMILES IDX 30 1 31 2 29 3 32 5 35 6 37 7 34 8 38 9 33 10 39 11 36 12
REMARK SMILES IDX 40 14 41 15 42 16 43 17 44 18 45 19 46 20 47 21 48 22 49 23
REMARK SMILES IDX 50 24 51 25 52 26 56 27 53 28 55 29 54 30 57 31 58 32 59 33
REMARK SMILES IDX 60 35 61 36 62 37 63 38 64 39 65 40 66 41 67 42 68 43 21 45
REMARK SMILES IDX 20 46 18 47 19 48 17 50 16 52 14 53 15 54 9 56 8 57 6 58
REMARK SMILES IDX 7 59 5 61 4 62 3 63 2 64 1 65 10 66 11 67 12 68 13 69 22 71
REMARK SMILES IDX 23 72 24 73 25 74 26 75 27 76 28 77
REMARK H PARENT 31 4 36 13 59 34 20 49 16 55 8 60 13 70 27 78 27 79 28 80
REMARK H PARENT 28 81
REMARK Flexibility Score:  259.900
ROOT
ATOM      1  O   UNL     1      -4.450   1.918  -7.533  1.00  0.00    -0.273 OA
ATOM      2  N   UNL     1      -4.300   3.265  -9.376  1.00  0.00    -0.343 N 
ATOM      3  C   UNL     1      -4.041   2.104  -8.680  1.00  0.00     0.243 C 
ATOM      4  H   UNL     1      -3.960   3.377 -10.323  1.00  0.00     0.164 HD
ENDROOT
BRANCH   2   5
ATOM      5  C   UNL     1      -4.978   4.383  -8.728  1.00  0.00     0.171 C 
ATOM      6  C   UNL     1      -5.322   7.165  -9.466  1.00  0.00     0.214 C 
ATOM      7  N   UNL     1      -4.189   6.780  -8.658  1.00  0.00    -0.303 N 
ATOM      8  C   UNL     1      -6.541   6.282  -9.254  1.00  0.00     0.057 C 
ATOM      9  C   UNL     1      -3.938   5.462  -8.313  1.00  0.00     0.247 C 
ATOM     10  C   UNL     1      -6.186   4.840  -9.546  1.00  0.00     0.040 C 
ATOM     11  O   UNL     1      -2.918   5.129  -7.694  1.00  0.00    -0.272 OA
BRANCH   6  12
ATOM     12  O   UNL     1      -4.920   7.133 -10.816  1.00  0.00    -0.373 OA
ATOM     13  H   UNL     1      -4.446   6.285 -10.954  1.00  0.00     0.213 HD
ENDBRANCH   6  12
BRANCH   7  14
ATOM     14  C   UNL     1      -3.210   7.837  -8.328  1.00  0.00     0.177 C 
BRANCH  14  15
ATOM     15  C   UNL     1      -3.033   8.926  -9.405  1.00  0.00     0.038 C 
BRANCH  15  16
ATOM     16  C   UNL     1      -1.619   9.240  -9.944  1.00  0.00    -0.015 C 
ATOM     17  C   UNL     1      -0.610   8.135  -9.615  1.00  0.00     0.007 C 
ATOM     18  C   UNL     1      -1.111  10.552  -9.334  1.00  0.00     0.007 C 
ENDBRANCH  15  16
ENDBRANCH  14  15
BRANCH  14  19
ATOM     19  C   UNL     1      -3.171   8.078  -6.780  1.00  0.00     0.245 C 
ATOM     20  O   UNL     1      -4.223   7.867  -6.154  1.00  0.00    -0.272 OA
BRANCH  19  21
ATOM     21  N   UNL     1      -2.083   8.609  -6.109  1.00  0.00    -0.332 N 
ATOM     22  C   UNL     1      -2.001   9.954  -5.568  1.00  0.00     0.147 C 
BRANCH  21  23
ATOM     23  C   UNL     1      -0.885   7.743  -5.930  1.00  0.00     0.178 C 
BRANCH  23  24
ATOM     24  C   UNL     1       0.392   8.489  -5.494  1.00  0.00     0.070 C 
BRANCH  24  25
ATOM     25  C   UNL     1       1.709   7.963  -6.014  1.00  0.00    -0.045 A 
ATOM     26  C   UNL     1       2.894   8.152  -5.291  1.00  0.00     0.004 A 
ATOM     27  C   UNL     1       1.763   7.278  -7.237  1.00  0.00     0.004 A 
ATOM     28  C   UNL     1       4.110   7.677  -5.787  1.00  0.00     0.000 A 
ATOM     29  C   UNL     1       2.979   6.803  -7.731  1.00  0.00     0.000 A 
ATOM     30  C   UNL     1       4.152   7.006  -7.007  1.00  0.00     0.000 A 
ENDBRANCH  24  25
ENDBRANCH  23  24
BRANCH  23  31
ATOM     31  C   UNL     1      -1.188   6.450  -5.135  1.00  0.00     0.243 C 
ATOM     32  O   UNL     1      -1.864   6.417  -4.110  1.00  0.00    -0.273 OA
ATOM     33  N   UNL     1      -0.474   5.349  -5.577  1.00  0.00    -0.341 N 
ATOM     34  H   UNL     1       0.077   5.440  -6.434  1.00  0.00     0.164 HD
BRANCH  33  35
ATOM     35  C   UNL     1      -0.511   4.049  -4.901  1.00  0.00     0.194 C 
BRANCH  35  36
ATOM     36  C   UNL     1       0.700   3.787  -3.962  1.00  0.00     0.017 C 
ATOM     37  C   UNL     1       0.249   3.626  -2.500  1.00  0.00     0.010 C 
ATOM     38  C   UNL     1       1.747   4.907  -3.999  1.00  0.00     0.010 C 
ENDBRANCH  35  36
BRANCH  35  39
ATOM     39  C   UNL     1      -0.748   2.870  -5.886  1.00  0.00     0.329 C 
ATOM     40  O   UNL     1      -1.457   1.902  -5.639  1.00  0.00    -0.250 OA
BRANCH  39  41
ATOM     41  O   UNL     1      -0.146   3.075  -7.096  1.00  0.00    -0.458 OA
BRANCH  41  42
ATOM     42  C   UNL     1       0.850   2.101  -7.489  1.00  0.00     0.205 CG0
ATOM     43  C   UNL     1       2.214   2.780  -7.386  1.00  0.00     0.056 C 
ATOM     44  G   UNL     1       0.535   1.626  -8.922  1.00  0.00     0.000 G0
ENDBRANCH  41  42
ENDBRANCH  39  41
ENDBRANCH  35  39
ENDBRANCH  33  35
ENDBRANCH  23  31
ENDBRANCH  21  23
ENDBRANCH  19  21
ENDBRANCH  14  19
ENDBRANCH   7  14
ENDBRANCH   2   5
BRANCH   3  45
ATOM     45  C   UNL     1      -3.226   1.050  -9.441  1.00  0.00     0.171 C 
BRANCH  45  46
ATOM     46  N   UNL     1      -1.861   1.558  -9.476  1.00  0.00    -0.342 N 
ATOM     47  C   UNL     1      -0.809   0.883  -8.909  1.00  0.00     0.247 C 
ATOM     48  O   UNL     1      -0.928  -0.230  -8.396  1.00  0.00    -0.273 OA
ATOM     49  H   UNL     1      -1.708   2.451  -9.942  1.00  0.00     0.164 HD
BRANCH  47  50
ATOM     50  C   UNL     1       0.532   1.630  -8.935  1.00  0.00     0.212 CG0
ATOM     51  G   UNL     1       0.850   2.069  -7.492  1.00  0.00     0.000 G0
BRANCH  50  52
ATOM     52  N   UNL     1       1.498   0.677  -9.475  1.00  0.00    -0.339 N 
ATOM     53  C   UNL     1       2.060   0.795 -10.723  1.00  0.00     0.243 C 
ATOM     54  O   UNL     1       1.750   1.689 -11.506  1.00  0.00    -0.273 OA
ATOM     55  H   UNL     1       1.712  -0.147  -8.916  1.00  0.00     0.164 HD
BRANCH  53  56
ATOM     56  C   UNL     1       2.986  -0.377 -11.107  1.00  0.00     0.182 C 
BRANCH  56  57
ATOM     57  N   UNL     1       4.366   0.082 -11.291  1.00  0.00    -0.344 N 
ATOM     58  C   UNL     1       5.062   0.735 -10.303  1.00  0.00     0.220 C 
ATOM     59  O   UNL     1       4.557   1.045  -9.230  1.00  0.00    -0.275 OA
ATOM     60  H   UNL     1       4.853  -0.243 -12.122  1.00  0.00     0.164 HD
BRANCH  58  61
ATOM     61  C   UNL     1       6.492   1.064 -10.692  1.00  0.00     0.100 C 
BRANCH  61  62
ATOM     62  C   UNL     1       7.483   0.970  -9.531  1.00  0.00     0.010 C 
BRANCH  62  63
ATOM     63  C   UNL     1       7.566  -0.420  -8.888  1.00  0.00     0.000 C 
BRANCH  63  64
ATOM     64  C   UNL     1       8.398  -1.428  -9.678  1.00  0.00    -0.003 C 
ATOM     65  C   UNL     1       9.418  -2.125  -8.789  1.00  0.00     0.004 C 
ENDBRANCH  63  64
ENDBRANCH  62  63
ENDBRANCH  61  62
ENDBRANCH  58  61
ENDBRANCH  56  57
BRANCH  56  66
ATOM     66  C   UNL     1       2.460  -1.128 -12.330  1.00  0.00     0.157 C 
BRANCH  66  67
ATOM     67  C   UNL     1       1.050  -1.597 -12.114  1.00  0.00     0.305 C 
ATOM     68  O   UNL     1       0.028  -1.045 -12.492  1.00  0.00    -0.252 OA
BRANCH  67  69
ATOM     69  O   UNL     1       0.997  -2.780 -11.473  1.00  0.00    -0.481 OA
ATOM     70  H   UNL     1       1.897  -2.906 -11.105  1.00  0.00     0.296 HD
ENDBRANCH  67  69
ENDBRANCH  66  67
ENDBRANCH  56  66
ENDBRANCH  53  56
ENDBRANCH  50  52
ENDBRANCH  47  50
ENDBRANCH  45  46
BRANCH  45  71
ATOM     71  C   UNL     1      -3.793   0.853 -10.851  1.00  0.00     0.037 C 
BRANCH  71  72
ATOM     72  C   UNL     1      -2.730   1.060 -11.933  1.00  0.00     0.026 C 
BRANCH  72  73
ATOM     73  C   UNL     1      -2.996   2.326 -12.745  1.00  0.00     0.146 C 
BRANCH  73  74
ATOM     74  N   UNL     1      -2.324   3.436 -12.076  1.00  0.00    -0.254 NA
ATOM     75  C   UNL     1      -2.888   4.587 -12.111  1.00  0.00     0.185 C 
ATOM     76  N   UNL     1      -2.294   5.627 -11.504  1.00  0.00    -0.370 N 
ATOM     77  N   UNL     1      -4.047   4.942 -12.692  1.00  0.00    -0.370 N 
ATOM     78  H   UNL     1      -1.412   5.447 -11.047  1.00  0.00     0.159 HD
ATOM     79  H   UNL     1      -2.599   6.578 -11.611  1.00  0.00     0.159 HD
ATOM     80  H   UNL     1      -4.605   4.261 -13.184  1.00  0.00     0.159 HD
ATOM     81  H   UNL     1      -4.448   5.855 -12.555  1.00  0.00     0.159 HD
ENDBRANCH  73  74
ENDBRANCH  72  73
ENDBRANCH  71  72
ENDBRANCH  45  71
ENDBRANCH   3  45
TORSDOF 20
ENDMDL
MODEL 2
REMARK VINA RESULT:    -3.949      3.140      9.664
REMARK INTER + INTRA:         -18.838
REMARK INTER:                 -13.591
REMARK INTRA:                  -5.246
REMARK UNBOUND:                -7.501
REMARK SMILES CCCCCC(=O)N[C@H](CC(=O)O)C(=O)N[C@H]1C(=O)N[C@H](CCCN=C(N)N)C(=O)N[C@@H]2CC[C@H](O)N(C2=O)[C@@H](CC(C)C)C(=O)N(C)[C@@H](Cc2ccccc2)C(=O)N[C@H](C(C)C)C(=O)O[C@@H]1C
REMARK SMILES IDX 30 1 31 2 29 3 32 5 35 6 37 7 34 8 38 9 33 10 39 11 36 12
REMARK SMILES IDX 40 14 41 15 42 16 43 17 44 18 45 19 46 20 47 21 48 22 49 23
REMARK SMILES IDX 50 24 51 25 52 26 56 27 53 28 55 29 54 30 57 31 58 32 59 33
REMARK SMILES IDX 60 35 61 36 62 37 63 38 64 39 65 40 66 41 67 42 68 43 21 45
REMARK SMILES IDX 20 46 18 47 19 48 17 50 16 52 14 53 15 54 9 56 8 57 6 58
REMARK SMILES IDX 7 59 5 61 4 62 3 63 2 64 1 65 10 66 11 67 12 68 13 69 22 71
REMARK SMILES IDX 23 72 24 73 25 74 26 75 27 76 28 77
REMARK H PARENT 31 4 36 13 59 34 20 49 16 55 8 60 13 70 27 78 27 79 28 80
REMARK H PARENT 28 81
REMARK Flexibility Score:  259.900
ROOT
ATOM      1  O   UNL     1       4.063   3.091  -3.133  1.00  0.00    -0.273 OA
ATOM      2  N   UNL     1       4.124   4.035  -5.215  1.00  0.00    -0.343 N 
ATOM      3  C   UNL     1       3.464   3.533  -4.113  1.00  0.00     0.243 C 
ATOM      4  H   UNL     1       3.598   4.404  -5.997  1.00  0.00     0.164 HD
ENDROOT
BRANCH   2   5
ATOM      5  C   UNL     1       5.577   3.952  -5.312  1.00  0.00     0.171 C 
ATOM      6  C   UNL     1       7.539   5.503  -6.778  1.00  0.00     0.214 C 
ATOM      7  N   UNL     1       6.966   4.324  -7.386  1.00  0.00    -0.303 N 
ATOM      8  C   UNL     1       7.619   5.419  -5.262  1.00  0.00     0.057 C 
ATOM      9  C   UNL     1       5.987   3.568  -6.762  1.00  0.00     0.247 C 
ATOM     10  C   UNL     1       6.239   5.181  -4.689  1.00  0.00     0.040 C 
ATOM     11  O   UNL     1       5.440   2.611  -7.324  1.00  0.00    -0.272 OA
BRANCH   6  12
ATOM     12  O   UNL     1       6.762   6.610  -7.170  1.00  0.00    -0.373 OA
ATOM     13  H   UNL     1       7.116   6.919  -8.032  1.00  0.00     0.213 HD
ENDBRANCH   6  12
BRANCH   7  14
ATOM     14  C   UNL     1       7.360   4.031  -8.780  1.00  0.00     0.177 C 
BRANCH  14  15
ATOM     15  C   UNL     1       7.396   5.249  -9.723  1.00  0.00     0.038 C 
BRANCH  15  16
ATOM     16  C   UNL     1       8.738   5.685 -10.353  1.00  0.00    -0.015 C 
ATOM     17  C   UNL     1       9.623   6.454  -9.368  1.00  0.00     0.007 C 
ATOM     18  C   UNL     1       8.473   6.586 -11.565  1.00  0.00     0.007 C 
ENDBRANCH  15  16
ENDBRANCH  14  15
BRANCH  14  19
ATOM     19  C   UNL     1       8.359   2.823  -8.820  1.00  0.00     0.245 C 
ATOM     20  O   UNL     1       9.083   2.663  -7.823  1.00  0.00    -0.272 OA
BRANCH  19  21
ATOM     21  N   UNL     1       8.550   2.017  -9.928  1.00  0.00    -0.332 N 
ATOM     22  C   UNL     1       9.507   2.260 -10.993  1.00  0.00     0.147 C 
BRANCH  21  23
ATOM     23  C   UNL     1       7.703   0.799 -10.057  1.00  0.00     0.178 C 
BRANCH  23  24
ATOM     24  C   UNL     1       7.604  -0.057  -8.777  1.00  0.00     0.070 C 
BRANCH  24  25
ATOM     25  C   UNL     1       8.279  -1.408  -8.799  1.00  0.00    -0.045 A 
ATOM     26  C   UNL     1       8.681  -1.990 -10.008  1.00  0.00     0.004 A 
ATOM     27  C   UNL     1       8.510  -2.103  -7.602  1.00  0.00     0.004 A 
ATOM     28  C   UNL     1       9.289  -3.247 -10.021  1.00  0.00     0.000 A 
ATOM     29  C   UNL     1       9.119  -3.359  -7.617  1.00  0.00     0.000 A 
ATOM     30  C   UNL     1       9.506  -3.931  -8.827  1.00  0.00     0.000 A 
ENDBRANCH  24  25
ENDBRANCH  23  24
BRANCH  23  31
ATOM     31  C   UNL     1       6.354   1.074 -10.762  1.00  0.00     0.243 C 
ATOM     32  O   UNL     1       6.251   1.605 -11.866  1.00  0.00    -0.273 OA
ATOM     33  N   UNL     1       5.251   0.839  -9.959  1.00  0.00    -0.341 N 
ATOM     34  H   UNL     1       5.400   0.401  -9.046  1.00  0.00     0.164 HD
BRANCH  33  35
ATOM     35  C   UNL     1       3.879   1.143 -10.375  1.00  0.00     0.194 C 
BRANCH  35  36
ATOM     36  C   UNL     1       3.585   0.826 -11.869  1.00  0.00     0.017 C 
ATOM     37  C   UNL     1       2.955   2.035 -12.583  1.00  0.00     0.010 C 
ATOM     38  C   UNL     1       2.637  -0.364 -12.059  1.00  0.00     0.010 C 
ENDBRANCH  35  36
BRANCH  35  39
ATOM     39  C   UNL     1       3.443   2.584  -9.991  1.00  0.00     0.329 C 
ATOM     40  O   UNL     1       4.186   3.558 -10.025  1.00  0.00    -0.250 OA
BRANCH  39  41
ATOM     41  O   UNL     1       2.110   2.662  -9.693  1.00  0.00    -0.458 OA
BRANCH  41  42
ATOM     42  C   UNL     1       1.698   2.068  -8.438  1.00  0.00     0.205 CG0
ATOM     43  C   UNL     1       1.125   0.689  -8.756  1.00  0.00     0.056 C 
ATOM     44  G   UNL     1       0.665   2.997  -7.770  1.00  0.00     0.000 G0
ENDBRANCH  41  42
ENDBRANCH  39  41
ENDBRANCH  35  39
ENDBRANCH  33  35
ENDBRANCH  23  31
ENDBRANCH  21  23
ENDBRANCH  19  21
ENDBRANCH  14  19
ENDBRANCH   7  14
ENDBRANCH   2   5
BRANCH   3  45
ATOM     45  C   UNL     1       1.932   3.583  -4.185  1.00  0.00     0.171 C 
BRANCH  45  46
ATOM     46  N   UNL     1       1.608   3.689  -5.602  1.00  0.00    -0.342 N 
ATOM     47  C   UNL     1       0.771   2.803  -6.233  1.00  0.00     0.247 C 
ATOM     48  O   UNL     1       0.178   1.903  -5.638  1.00  0.00    -0.273 OA
ATOM     49  H   UNL     1       2.034   4.454  -6.121  1.00  0.00     0.164 HD
BRANCH  47  50
ATOM     50  C   UNL     1       0.645   2.997  -7.751  1.00  0.00     0.212 CG0
ATOM     51  G   UNL     1       1.693   2.090  -8.426  1.00  0.00     0.000 G0
BRANCH  50  52
ATOM     52  N   UNL     1      -0.731   2.633  -8.078  1.00  0.00    -0.339 N 
ATOM     53  C   UNL     1      -1.724   3.555  -8.301  1.00  0.00     0.243 C 
ATOM     54  O   UNL     1      -1.542   4.764  -8.191  1.00  0.00    -0.273 OA
ATOM     55  H   UNL     1      -0.971   1.643  -8.075  1.00  0.00     0.164 HD
BRANCH  53  56
ATOM     56  C   UNL     1      -3.114   2.933  -8.544  1.00  0.00     0.182 C 
BRANCH  56  57
ATOM     57  N   UNL     1      -3.015   1.483  -8.742  1.00  0.00    -0.344 N 
ATOM     58  C   UNL     1      -3.593   0.582  -7.882  1.00  0.00     0.220 C 
ATOM     59  O   UNL     1      -4.166   0.921  -6.852  1.00  0.00    -0.275 OA
ATOM     60  H   UNL     1      -2.639   1.165  -9.631  1.00  0.00     0.164 HD
BRANCH  58  61
ATOM     61  C   UNL     1      -3.413  -0.862  -8.314  1.00  0.00     0.100 C 
BRANCH  61  62
ATOM     62  C   UNL     1      -3.848  -1.132  -9.755  1.00  0.00     0.010 C 
BRANCH  62  63
ATOM     63  C   UNL     1      -2.999  -2.184 -10.480  1.00  0.00     0.000 C 
BRANCH  63  64
ATOM     64  C   UNL     1      -2.145  -1.624 -11.617  1.00  0.00    -0.003 C 
ATOM     65  C   UNL     1      -0.959  -2.529 -11.918  1.00  0.00     0.004 C 
ENDBRANCH  63  64
ENDBRANCH  62  63
ENDBRANCH  61  62
ENDBRANCH  58  61
ENDBRANCH  56  57
BRANCH  56  66
ATOM     66  C   UNL     1      -3.844   3.624  -9.695  1.00  0.00     0.157 C 
BRANCH  66  67
ATOM     67  C   UNL     1      -4.893   2.729 -10.289  1.00  0.00     0.305 C 
ATOM     68  O   UNL     1      -6.076   2.684  -9.985  1.00  0.00    -0.252 OA
BRANCH  67  69
ATOM     69  O   UNL     1      -4.408   1.962 -11.283  1.00  0.00    -0.481 OA
ATOM     70  H   UNL     1      -4.887   2.261 -12.086  1.00  0.00     0.296 HD
ENDBRANCH  67  69
ENDBRANCH  66  67
ENDBRANCH  56  66
ENDBRANCH  53  56
ENDBRANCH  50  52
ENDBRANCH  47  50
ENDBRANCH  45  46
BRANCH  45  71
ATOM     71  C   UNL     1       1.399   4.781  -3.392  1.00  0.00     0.037 C 
BRANCH  71  72
ATOM     72  C   UNL     1       0.561   5.721  -4.263  1.00  0.00     0.026 C 
BRANCH  72  73
ATOM     73  C   UNL     1      -0.904   5.725  -3.833  1.00  0.00     0.146 C 
BRANCH  73  74
ATOM     74  N   UNL     1      -1.422   4.370  -3.998  1.00  0.00    -0.254 NA
ATOM     75  C   UNL     1      -2.446   4.208  -4.751  1.00  0.00     0.185 C 
ATOM     76  N   UNL     1      -2.945   2.973  -4.923  1.00  0.00    -0.370 N 
ATOM     77  N   UNL     1      -3.144   5.129  -5.439  1.00  0.00    -0.370 N 
ATOM     78  H   UNL     1      -2.483   2.221  -4.434  1.00  0.00     0.159 HD
ATOM     79  H   UNL     1      -3.823   2.789  -5.377  1.00  0.00     0.159 HD
ATOM     80  H   UNL     1      -2.880   6.102  -5.407  1.00  0.00     0.159 HD
ATOM     81  H   UNL     1      -3.864   4.867  -6.092  1.00  0.00     0.159 HD
ENDBRANCH  73  74
ENDBRANCH  72  73
ENDBRANCH  71  72
ENDBRANCH  45  71
ENDBRANCH   3  45
TORSDOF 20
ENDMDL
MODEL 3
REMARK VINA RESULT:    -3.812      3.203      8.064
REMARK INTER + INTRA:         -18.444
REMARK INTER:                 -11.880
REMARK INTRA:                  -6.564
REMARK UNBOUND:                -7.501
REMARK SMILES CCCCCC(=O)N[C@H](CC(=O)O)C(=O)N[C@H]1C(=O)N[C@H](CCCN=C(N)N)C(=O)N[C@@H]2CC[C@H](O)N(C2=O)[C@@H](CC(C)C)C(=O)N(C)[C@@H](Cc2ccccc2)C(=O)N[C@H](C(C)C)C(=O)O[C@@H]1C
REMARK SMILES IDX 30 1 31 2 29 3 32 5 35 6 37 7 34 8 38 9 33 10 39 11 36 12
REMARK SMILES IDX 40 14 41 15 42 16 43 17 44 18 45 19 46 20 47 21 48 22 49 23
REMARK SMILES IDX 50 24 51 25 52 26 56 27 53 28 55 29 54 30 57 31 58 32 59 33
REMARK SMILES IDX 60 35 61 36 62 37 63 38 64 39 65 40 66 41 67 42 68 43 21 45
REMARK SMILES IDX 20 46 18 47 19 48 17 50 16 52 14 53 15 54 9 56 8 57 6 58
REMARK SMILES IDX 7 59 5 61 4 62 3 63 2 64 1 65 10 66 11 67 12 68 13 69 22 71
REMARK SMILES IDX 23 72 24 73 25 74 26 75 27 76 28 77
REMARK H PARENT 31 4 36 13 59 34 20 49 16 55 8 60 13 70 27 78 27 79 28 80
REMARK H PARENT 28 81
REMARK Flexibility Score:  259.900
ROOT
ATOM      1  O   UNL     1       0.076   4.555  -4.255  1.00  0.00    -0.273 OA
ATOM      2  N   UNL     1      -0.256   2.549  -5.302  1.00  0.00    -0.343 N 
ATOM      3  C   UNL     1       0.542   3.551  -4.795  1.00  0.00     0.243 C 
ATOM      4  H   UNL     1       0.163   1.731  -5.727  1.00  0.00     0.164 HD
ENDROOT
BRANCH   2   5
ATOM      5  C   UNL     1      -1.708   2.696  -5.325  1.00  0.00     0.171 C 
ATOM      6  C   UNL     1      -3.849   0.924  -6.151  1.00  0.00     0.214 C 
ATOM      7  N   UNL     1      -3.275   1.840  -7.109  1.00  0.00    -0.303 N 
ATOM      8  C   UNL     1      -3.802   1.441  -4.722  1.00  0.00     0.057 C 
ATOM      9  C   UNL     1      -2.217   2.677  -6.795  1.00  0.00     0.247 C 
ATOM     10  C   UNL     1      -2.371   1.742  -4.332  1.00  0.00     0.040 C 
ATOM     11  O   UNL     1      -1.675   3.397  -7.644  1.00  0.00    -0.272 OA
BRANCH   6  12
ATOM     12  O   UNL     1      -3.156  -0.298  -6.256  1.00  0.00    -0.373 OA
ATOM     13  H   UNL     1      -2.356  -0.129  -6.798  1.00  0.00     0.213 HD
ENDBRANCH   6  12
BRANCH   7  14
ATOM     14  C   UNL     1      -3.767   1.750  -8.500  1.00  0.00     0.177 C 
BRANCH  14  15
ATOM     15  C   UNL     1      -4.189   0.340  -8.957  1.00  0.00     0.038 C 
BRANCH  15  16
ATOM     16  C   UNL     1      -3.409  -0.358 -10.093  1.00  0.00    -0.015 C 
ATOM     17  C   UNL     1      -4.290  -1.306 -10.910  1.00  0.00     0.007 C 
ATOM     18  C   UNL     1      -2.249  -1.169  -9.502  1.00  0.00     0.007 C 
ENDBRANCH  15  16
ENDBRANCH  14  15
BRANCH  14  19
ATOM     19  C   UNL     1      -4.473   3.087  -8.915  1.00  0.00     0.245 C 
ATOM     20  O   UNL     1      -5.491   3.403  -8.277  1.00  0.00    -0.272 OA
BRANCH  19  21
ATOM     21  N   UNL     1      -4.093   3.854 -10.002  1.00  0.00    -0.332 N 
ATOM     22  C   UNL     1      -4.061   5.305 -10.040  1.00  0.00     0.147 C 
BRANCH  21  23
ATOM     23  C   UNL     1      -3.693   3.144 -11.249  1.00  0.00     0.178 C 
BRANCH  23  24
ATOM     24  C   UNL     1      -4.708   3.249 -12.406  1.00  0.00     0.070 C 
BRANCH  24  25
ATOM     25  C   UNL     1      -6.132   2.838 -12.111  1.00  0.00    -0.045 A 
ATOM     26  C   UNL     1      -7.137   3.801 -11.946  1.00  0.00     0.004 A 
ATOM     27  C   UNL     1      -6.467   1.481 -11.993  1.00  0.00     0.004 A 
ATOM     28  C   UNL     1      -8.447   3.414 -11.657  1.00  0.00     0.000 A 
ATOM     29  C   UNL     1      -7.778   1.096 -11.705  1.00  0.00     0.000 A 
ATOM     30  C   UNL     1      -8.766   2.063 -11.534  1.00  0.00     0.000 A 
ENDBRANCH  24  25
ENDBRANCH  23  24
BRANCH  23  31
ATOM     31  C   UNL     1      -2.222   3.408 -11.648  1.00  0.00     0.243 C 
ATOM     32  O   UNL     1      -1.870   3.796 -12.759  1.00  0.00    -0.273 OA
ATOM     33  N   UNL     1      -1.307   2.989 -10.696  1.00  0.00    -0.341 N 
ATOM     34  H   UNL     1      -1.661   2.669  -9.791  1.00  0.00     0.164 HD
BRANCH  33  35
ATOM     35  C   UNL     1       0.142   3.030 -10.909  1.00  0.00     0.194 C 
BRANCH  35  36
ATOM     36  C   UNL     1       0.874   1.705 -10.555  1.00  0.00     0.017 C 
ATOM     37  C   UNL     1       0.509   0.584 -11.543  1.00  0.00     0.010 C 
ATOM     38  C   UNL     1       0.553   1.195  -9.145  1.00  0.00     0.010 C 
ENDBRANCH  35  36
BRANCH  35  39
ATOM     39  C   UNL     1       0.811   4.260 -10.233  1.00  0.00     0.329 C 
ATOM     40  O   UNL     1       0.199   5.112  -9.600  1.00  0.00    -0.250 OA
BRANCH  39  41
ATOM     41  O   UNL     1       2.173   4.241 -10.350  1.00  0.00    -0.458 OA
BRANCH  41  42
ATOM     42  C   UNL     1       2.923   4.650  -9.182  1.00  0.00     0.205 CG0
ATOM     43  C   UNL     1       4.036   5.581  -9.659  1.00  0.00     0.056 C 
ATOM     44  G   UNL     1       3.468   3.390  -8.481  1.00  0.00     0.000 G0
ENDBRANCH  41  42
ENDBRANCH  39  41
ENDBRANCH  35  39
ENDBRANCH  33  35
ENDBRANCH  23  31
ENDBRANCH  21  23
ENDBRANCH  19  21
ENDBRANCH  14  19
ENDBRANCH   7  14
ENDBRANCH   2   5
BRANCH   3  45
ATOM     45  C   UNL     1       2.053   3.320  -4.931  1.00  0.00     0.171 C 
BRANCH  45  46
ATOM     46  N   UNL     1       2.294   3.117  -6.354  1.00  0.00    -0.342 N 
ATOM     47  C   UNL     1       3.432   3.561  -6.978  1.00  0.00     0.247 C 
ATOM     48  O   UNL     1       4.361   4.096  -6.373  1.00  0.00    -0.273 OA
ATOM     49  H   UNL     1       1.574   2.628  -6.883  1.00  0.00     0.164 HD
BRANCH  47  50
ATOM     50  C   UNL     1       3.455   3.369  -8.501  1.00  0.00     0.212 CG0
ATOM     51  G   UNL     1       2.960   4.679  -9.146  1.00  0.00     0.000 G0
BRANCH  50  52
ATOM     52  N   UNL     1       4.841   3.050  -8.833  1.00  0.00    -0.339 N 
ATOM     53  C   UNL     1       5.236   1.839  -9.347  1.00  0.00     0.243 C 
ATOM     54  O   UNL     1       4.455   0.907  -9.519  1.00  0.00    -0.273 OA
ATOM     55  H   UNL     1       5.552   3.743  -8.609  1.00  0.00     0.164 HD
BRANCH  53  56
ATOM     56  C   UNL     1       6.761   1.704  -9.536  1.00  0.00     0.182 C 
BRANCH  56  57
ATOM     57  N   UNL     1       7.487   2.437  -8.493  1.00  0.00    -0.344 N 
ATOM     58  C   UNL     1       8.160   1.800  -7.479  1.00  0.00     0.220 C 
ATOM     59  O   UNL     1       8.140   0.583  -7.332  1.00  0.00    -0.275 OA
ATOM     60  H   UNL     1       7.612   3.436  -8.635  1.00  0.00     0.164 HD
BRANCH  58  61
ATOM     61  C   UNL     1       8.888   2.753  -6.549  1.00  0.00     0.100 C 
BRANCH  61  62
ATOM     62  C   UNL     1       9.686   3.835  -7.277  1.00  0.00     0.010 C 
BRANCH  62  63
ATOM     63  C   UNL     1       9.265   5.268  -6.928  1.00  0.00     0.000 C 
BRANCH  63  64
ATOM     64  C   UNL     1       8.200   5.852  -7.856  1.00  0.00    -0.003 C 
ATOM     65  C   UNL     1       8.484   7.312  -8.177  1.00  0.00     0.004 C 
ENDBRANCH  63  64
ENDBRANCH  62  63
ENDBRANCH  61  62
ENDBRANCH  58  61
ENDBRANCH  56  57
BRANCH  56  66
ATOM     66  C   UNL     1       7.190   2.123 -10.941  1.00  0.00     0.157 C 
BRANCH  66  67
ATOM     67  C   UNL     1       8.543   2.774 -10.924  1.00  0.00     0.305 C 
ATOM     68  O   UNL     1       8.783   3.968 -11.019  1.00  0.00    -0.252 OA
BRANCH  67  69
ATOM     69  O   UNL     1       9.537   1.885 -10.735  1.00  0.00    -0.481 OA
ATOM     70  H   UNL     1       9.516   1.313 -11.531  1.00  0.00     0.296 HD
ENDBRANCH  67  69
ENDBRANCH  66  67
ENDBRANCH  56  66
ENDBRANCH  53  56
ENDBRANCH  50  52
ENDBRANCH  47  50
ENDBRANCH  45  46
BRANCH  45  71
ATOM     71  C   UNL     1       2.483   2.102  -4.106  1.00  0.00     0.037 C 
BRANCH  71  72
ATOM     72  C   UNL     1       2.432   2.379  -2.601  1.00  0.00     0.026 C 
BRANCH  72  73
ATOM     73  C   UNL     1       3.092   3.712  -2.254  1.00  0.00     0.146 C 
BRANCH  73  74
ATOM     74  N   UNL     1       2.124   4.508  -1.506  1.00  0.00    -0.254 NA
ATOM     75  C   UNL     1       2.342   4.696  -0.257  1.00  0.00     0.185 C 
ATOM     76  N   UNL     1       1.470   5.426   0.459  1.00  0.00    -0.370 N 
ATOM     77  N   UNL     1       3.362   4.255   0.499  1.00  0.00    -0.370 N 
ATOM     78  H   UNL     1       0.667   5.790  -0.033  1.00  0.00     0.159 HD
ATOM     79  H   UNL     1       1.496   5.493   1.461  1.00  0.00     0.159 HD
ATOM     80  H   UNL     1       4.097   3.696   0.094  1.00  0.00     0.159 HD
ATOM     81  H   UNL     1       3.488   4.564   1.449  1.00  0.00     0.159 HD
ENDBRANCH  73  74
ENDBRANCH  72  73
ENDBRANCH  71  72
ENDBRANCH  45  71
ENDBRANCH   3  45
TORSDOF 20
ENDMDL
MODEL 4
REMARK VINA RESULT:    -3.693      2.677      4.208
REMARK INTER + INTRA:         -18.104
REMARK INTER:                 -11.024
REMARK INTRA:                  -7.080
REMARK UNBOUND:                -7.501
REMARK SMILES CCCCCC(=O)N[C@H](CC(=O)O)C(=O)N[C@H]1C(=O)N[C@H](CCCN=C(N)N)C(=O)N[C@@H]2CC[C@H](O)N(C2=O)[C@@H](CC(C)C)C(=O)N(C)[C@@H](Cc2ccccc2)C(=O)N[C@H](C(C)C)C(=O)O[C@@H]1C
REMARK SMILES IDX 30 1 31 2 29 3 32 5 35 6 37 7 34 8 38 9 33 10 39 11 36 12
REMARK SMILES IDX 40 14 41 15 42 16 43 17 44 18 45 19 46 20 47 21 48 22 49 23
REMARK SMILES IDX 50 24 51 25 52 26 56 27 53 28 55 29 54 30 57 31 58 32 59 33
REMARK SMILES IDX 60 35 61 36 62 37 63 38 64 39 65 40 66 41 67 42 68 43 21 45
REMARK SMILES IDX 20 46 18 47 19 48 17 50 16 52 14 53 15 54 9 56 8 57 6 58
REMARK SMILES IDX 7 59 5 61 4 62 3 63 2 64 1 65 10 66 11 67 12 68 13 69 22 71
REMARK SMILES IDX 23 72 24 73 25 74 26 75 27 76 28 77
REMARK H PARENT 31 4 36 13 59 34 20 49 16 55 8 60 13 70 27 78 27 79 28 80
REMARK H PARENT 28 81
REMARK Flexibility Score:  259.900
ROOT
ATOM      1  O   UNL     1      -1.333   1.558  -6.317  1.00  0.00    -0.273 OA
ATOM      2  N   UNL     1      -1.894   3.482  -7.420  1.00  0.00    -0.343 N 
ATOM      3  C   UNL     1      -1.286   2.248  -7.336  1.00  0.00     0.243 C 
ATOM      4  H   UNL     1      -1.847   4.015  -8.279  1.00  0.00     0.164 HD
ENDROOT
BRANCH   2   5
ATOM      5  C   UNL     1      -2.527   4.078  -6.248  1.00  0.00     0.171 C 
ATOM      6  C   UNL     1      -3.691   6.688  -5.759  1.00  0.00     0.214 C 
ATOM      7  N   UNL     1      -2.293   6.469  -5.470  1.00  0.00    -0.303 N 
ATOM      8  C   UNL     1      -4.542   5.438  -5.603  1.00  0.00     0.057 C 
ATOM      9  C   UNL     1      -1.662   5.262  -5.727  1.00  0.00     0.247 C 
ATOM     10  C   UNL     1      -4.011   4.341  -6.500  1.00  0.00     0.040 C 
ATOM     11  O   UNL     1      -0.445   5.109  -5.558  1.00  0.00    -0.272 OA
BRANCH   6  12
ATOM     12  O   UNL     1      -3.785   7.186  -7.074  1.00  0.00    -0.373 OA
ATOM     13  H   UNL     1      -2.870   7.262  -7.419  1.00  0.00     0.213 HD
ENDBRANCH   6  12
BRANCH   7  14
ATOM     14  C   UNL     1      -1.510   7.638  -5.018  1.00  0.00     0.177 C 
BRANCH  14  15
ATOM     15  C   UNL     1      -1.900   8.980  -5.669  1.00  0.00     0.038 C 
BRANCH  15  16
ATOM     16  C   UNL     1      -0.793   9.923  -6.189  1.00  0.00    -0.015 C 
ATOM     17  C   UNL     1       0.460   9.164  -6.636  1.00  0.00     0.007 C 
ATOM     18  C   UNL     1      -0.389  10.908  -5.085  1.00  0.00     0.007 C 
ENDBRANCH  15  16
ENDBRANCH  14  15
BRANCH  14  19
ATOM     19  C   UNL     1      -1.061   7.449  -3.528  1.00  0.00     0.245 C 
ATOM     20  O   UNL     1      -1.879   6.914  -2.761  1.00  0.00    -0.272 OA
BRANCH  19  21
ATOM     21  N   UNL     1       0.125   7.939  -3.012  1.00  0.00    -0.332 N 
ATOM     22  C   UNL     1       0.248   9.069  -2.108  1.00  0.00     0.147 C 
BRANCH  21  23
ATOM     23  C   UNL     1       1.391   7.269  -3.419  1.00  0.00     0.178 C 
BRANCH  23  24
ATOM     24  C   UNL     1       2.675   8.058  -3.089  1.00  0.00     0.070 C 
BRANCH  24  25
ATOM     25  C   UNL     1       3.316   8.831  -4.217  1.00  0.00    -0.045 A 
ATOM     26  C   UNL     1       4.132   8.187  -5.156  1.00  0.00     0.004 A 
ATOM     27  C   UNL     1       3.106  10.213  -4.336  1.00  0.00     0.004 A 
ATOM     28  C   UNL     1       4.735   8.912  -6.186  1.00  0.00     0.000 A 
ATOM     29  C   UNL     1       3.709  10.937  -5.367  1.00  0.00     0.000 A 
ATOM     30  C   UNL     1       4.525  10.286  -6.289  1.00  0.00     0.000 A 
ENDBRANCH  24  25
ENDBRANCH  23  24
BRANCH  23  31
ATOM     31  C   UNL     1       1.430   5.770  -3.036  1.00  0.00     0.243 C 
ATOM     32  O   UNL     1       1.118   5.336  -1.930  1.00  0.00    -0.273 OA
ATOM     33  N   UNL     1       2.029   4.970  -3.994  1.00  0.00    -0.341 N 
ATOM     34  H   UNL     1       2.272   5.390  -4.894  1.00  0.00     0.164 HD
BRANCH  33  35
ATOM     35  C   UNL     1       2.282   3.540  -3.796  1.00  0.00     0.194 C 
BRANCH  35  36
ATOM     36  C   UNL     1       3.556   3.231  -2.961  1.00  0.00     0.017 C 
ATOM     37  C   UNL     1       3.194   2.740  -1.548  1.00  0.00     0.010 C 
ATOM     38  C   UNL     1       4.484   4.442  -2.802  1.00  0.00     0.010 C 
ENDBRANCH  35  36
BRANCH  35  39
ATOM     39  C   UNL     1       2.251   2.737  -5.126  1.00  0.00     0.329 C 
ATOM     40  O   UNL     1       2.132   1.519  -5.190  1.00  0.00    -0.250 OA
BRANCH  39  41
ATOM     41  O   UNL     1       2.283   3.550  -6.225  1.00  0.00    -0.458 OA
BRANCH  41  42
ATOM     42  C   UNL     1       3.456   3.444  -7.067  1.00  0.00     0.205 CG0
ATOM     43  C   UNL     1       4.216   4.764  -6.956  1.00  0.00     0.056 C 
ATOM     44  G   UNL     1       3.000   3.146  -8.509  1.00  0.00     0.000 G0
ENDBRANCH  41  42
ENDBRANCH  39  41
ENDBRANCH  35  39
ENDBRANCH  33  35
ENDBRANCH  23  31
ENDBRANCH  21  23
ENDBRANCH  19  21
ENDBRANCH  14  19
ENDBRANCH   7  14
ENDBRANCH   2   5
BRANCH   3  45
ATOM     45  C   UNL     1      -0.563   1.785  -8.608  1.00  0.00     0.171 C 
BRANCH  45  46
ATOM     46  N   UNL     1       0.631   2.613  -8.707  1.00  0.00    -0.342 N 
ATOM     47  C   UNL     1       1.894   2.108  -8.526  1.00  0.00     0.247 C 
ATOM     48  O   UNL     1       2.115   0.910  -8.341  1.00  0.00    -0.273 OA
ATOM     49  H   UNL     1       0.497   3.601  -8.915  1.00  0.00     0.164 HD
BRANCH  47  50
ATOM     50  C   UNL     1       3.020   3.151  -8.544  1.00  0.00     0.212 CG0
ATOM     51  G   UNL     1       3.421   3.431  -7.081  1.00  0.00     0.000 G0
BRANCH  50  52
ATOM     52  N   UNL     1       4.094   2.552  -9.332  1.00  0.00    -0.339 N 
ATOM     53  C   UNL     1       4.378   2.920 -10.624  1.00  0.00     0.243 C 
ATOM     54  O   UNL     1       3.713   3.750 -11.238  1.00  0.00    -0.273 OA
ATOM     55  H   UNL     1       4.611   1.780  -8.916  1.00  0.00     0.164 HD
BRANCH  53  56
ATOM     56  C   UNL     1       5.499   2.089 -11.282  1.00  0.00     0.182 C 
BRANCH  56  57
ATOM     57  N   UNL     1       6.648   1.950 -10.382  1.00  0.00    -0.344 N 
ATOM     58  C   UNL     1       7.307   0.757 -10.208  1.00  0.00     0.220 C 
ATOM     59  O   UNL     1       6.937  -0.287 -10.733  1.00  0.00    -0.275 OA
ATOM     60  H   UNL     1       7.047   2.808 -10.009  1.00  0.00     0.164 HD
BRANCH  58  61
ATOM     61  C   UNL     1       8.501   0.860  -9.277  1.00  0.00     0.100 C 
BRANCH  61  62
ATOM     62  C   UNL     1       9.242   2.194  -9.371  1.00  0.00     0.010 C 
BRANCH  62  63
ATOM     63  C   UNL     1       9.267   2.991  -8.060  1.00  0.00     0.000 C 
BRANCH  63  64
ATOM     64  C   UNL     1       9.336   4.506  -8.249  1.00  0.00    -0.003 C 
ATOM     65  C   UNL     1       8.141   5.200  -7.613  1.00  0.00     0.004 C 
ENDBRANCH  63  64
ENDBRANCH  62  63
ENDBRANCH  61  62
ENDBRANCH  58  61
ENDBRANCH  56  57
BRANCH  56  66
ATOM     66  C   UNL     1       5.896   2.660 -12.641  1.00  0.00     0.157 C 
BRANCH  66  67
ATOM     67  C   UNL     1       7.000   3.669 -12.506  1.00  0.00     0.305 C 
ATOM     68  O   UNL     1       6.880   4.856 -12.244  1.00  0.00    -0.252 OA
BRANCH  67  69
ATOM     69  O   UNL     1       8.219   3.117 -12.656  1.00  0.00    -0.481 OA
ATOM     70  H   UNL     1       8.454   3.282 -13.594  1.00  0.00     0.296 HD
ENDBRANCH  67  69
ENDBRANCH  66  67
ENDBRANCH  56  66
ENDBRANCH  53  56
ENDBRANCH  50  52
ENDBRANCH  47  50
ENDBRANCH  45  46
BRANCH  45  71
ATOM     71  C   UNL     1      -1.472   1.955  -9.831  1.00  0.00     0.037 C 
BRANCH  71  72
ATOM     72  C   UNL     1      -0.689   1.887 -11.144  1.00  0.00     0.026 C 
BRANCH  72  73
ATOM     73  C   UNL     1      -0.221   0.465 -11.444  1.00  0.00     0.146 C 
BRANCH  73  74
ATOM     74  N   UNL     1       1.238   0.457 -11.403  1.00  0.00    -0.254 NA
ATOM     75  C   UNL     1       1.840  -0.632 -11.712  1.00  0.00     0.185 C 
ATOM     76  N   UNL     1       3.182  -0.670 -11.685  1.00  0.00    -0.370 N 
ATOM     77  N   UNL     1       1.315  -1.813 -12.081  1.00  0.00    -0.370 N 
ATOM     78  H   UNL     1       3.659   0.177 -11.409  1.00  0.00     0.159 HD
ATOM     79  H   UNL     1       3.714  -1.518 -11.771  1.00  0.00     0.159 HD
ATOM     80  H   UNL     1       0.315  -1.931 -12.149  1.00  0.00     0.159 HD
ATOM     81  H   UNL     1       1.892  -2.568 -12.412  1.00  0.00     0.159 HD
ENDBRANCH  73  74
ENDBRANCH  72  73
ENDBRANCH  71  72
ENDBRANCH  45  71
ENDBRANCH   3  45
TORSDOF 20
ENDMDL
MODEL 5
REMARK VINA RESULT:    -3.558      3.732      7.982
REMARK INTER + INTRA:         -17.716
REMARK INTER:                 -12.506
REMARK INTRA:                  -5.210
REMARK UNBOUND:                -7.501
REMARK SMILES CCCCCC(=O)N[C@H](CC(=O)O)C(=O)N[C@H]1C(=O)N[C@H](CCCN=C(N)N)C(=O)N[C@@H]2CC[C@H](O)N(C2=O)[C@@H](CC(C)C)C(=O)N(C)[C@@H](Cc2ccccc2)C(=O)N[C@H](C(C)C)C(=O)O[C@@H]1C
REMARK SMILES IDX 30 1 31 2 29 3 32 5 35 6 37 7 34 8 38 9 33 10 39 11 36 12
REMARK SMILES IDX 40 14 41 15 42 16 43 17 44 18 45 19 46 20 47 21 48 22 49 23
REMARK SMILES IDX 50 24 51 25 52 26 56 27 53 28 55 29 54 30 57 31 58 32 59 33
REMARK SMILES IDX 60 35 61 36 62 37 63 38 64 39 65 40 66 41 67 42 68 43 21 45
REMARK SMILES IDX 20 46 18 47 19 48 17 50 16 52 14 53 15 54 9 56 8 57 6 58
REMARK SMILES IDX 7 59 5 61 4 62 3 63 2 64 1 65 10 66 11 67 12 68 13 69 22 71
REMARK SMILES IDX 23 72 24 73 25 74 26 75 27 76 28 77
REMARK H PARENT 31 4 36 13 59 34 20 49 16 55 8 60 13 70 27 78 27 79 28 80
REMARK H PARENT 28 81
REMARK Flexibility Score:  259.900
ROOT
ATOM      1  O   UNL     1      -0.035   3.387  -3.504  1.00  0.00    -0.273 OA
ATOM      2  N   UNL     1       1.308   3.814  -5.305  1.00  0.00    -0.343 N 
ATOM      3  C   UNL     1       0.202   3.251  -4.704  1.00  0.00     0.243 C 
ATOM      4  H   UNL     1       1.463   3.694  -6.298  1.00  0.00     0.164 HD
ENDROOT
BRANCH   2   5
ATOM      5  C   UNL     1       2.316   4.503  -4.508  1.00  0.00     0.171 C 
ATOM      6  C   UNL     1       4.586   6.161  -5.217  1.00  0.00     0.214 C 
ATOM      7  N   UNL     1       4.767   4.737  -5.064  1.00  0.00    -0.303 N 
ATOM      8  C   UNL     1       3.481   6.725  -4.338  1.00  0.00     0.057 C 
ATOM      9  C   UNL     1       3.717   3.881  -4.776  1.00  0.00     0.247 C 
ATOM     10  C   UNL     1       2.177   6.019  -4.638  1.00  0.00     0.040 C 
ATOM     11  O   UNL     1       3.864   2.653  -4.732  1.00  0.00    -0.272 OA
BRANCH   6  12
ATOM     12  O   UNL     1       4.313   6.417  -6.576  1.00  0.00    -0.373 OA
ATOM     13  H   UNL     1       3.579   5.821  -6.838  1.00  0.00     0.213 HD
ENDBRANCH   6  12
BRANCH   7  14
ATOM     14  C   UNL     1       6.108   4.195  -5.373  1.00  0.00     0.177 C 
BRANCH  14  15
ATOM     15  C   UNL     1       6.932   3.747  -4.150  1.00  0.00     0.038 C 
BRANCH  15  16
ATOM     16  C   UNL     1       8.260   4.466  -3.824  1.00  0.00    -0.015 C 
ATOM     17  C   UNL     1       8.162   5.331  -2.564  1.00  0.00     0.007 C 
ATOM     18  C   UNL     1       8.663   5.369  -4.997  1.00  0.00     0.007 C 
ENDBRANCH  15  16
ENDBRANCH  14  15
BRANCH  14  19
ATOM     19  C   UNL     1       6.097   3.483  -6.769  1.00  0.00     0.245 C 
ATOM     20  O   UNL     1       5.209   2.635  -6.959  1.00  0.00    -0.272 OA
BRANCH  19  21
ATOM     21  N   UNL     1       7.072   3.664  -7.734  1.00  0.00    -0.332 N 
ATOM     22  C   UNL     1       8.212   2.793  -7.955  1.00  0.00     0.147 C 
BRANCH  21  23
ATOM     23  C   UNL     1       6.960   4.855  -8.621  1.00  0.00     0.178 C 
BRANCH  23  24
ATOM     24  C   UNL     1       8.302   5.376  -9.174  1.00  0.00     0.070 C 
BRANCH  24  25
ATOM     25  C   UNL     1       8.283   6.712  -9.881  1.00  0.00    -0.045 A 
ATOM     26  C   UNL     1       8.165   7.905  -9.156  1.00  0.00     0.004 A 
ATOM     27  C   UNL     1       8.379   6.774 -11.279  1.00  0.00     0.004 A 
ATOM     28  C   UNL     1       8.131   9.135  -9.818  1.00  0.00     0.000 A 
ATOM     29  C   UNL     1       8.346   8.004 -11.939  1.00  0.00     0.000 A 
ATOM     30  C   UNL     1       8.219   9.183 -11.207  1.00  0.00     0.000 A 
ENDBRANCH  24  25
ENDBRANCH  23  24
BRANCH  23  31
ATOM     31  C   UNL     1       5.830   4.723  -9.670  1.00  0.00     0.243 C 
ATOM     32  O   UNL     1       5.800   3.858 -10.542  1.00  0.00    -0.273 OA
ATOM     33  N   UNL     1       4.940   5.783  -9.661  1.00  0.00    -0.341 N 
ATOM     34  H   UNL     1       5.018   6.476  -8.913  1.00  0.00     0.164 HD
BRANCH  33  35
ATOM     35  C   UNL     1       3.861   5.928 -10.642  1.00  0.00     0.194 C 
BRANCH  35  36
ATOM     36  C   UNL     1       4.032   7.144 -11.597  1.00  0.00     0.017 C 
ATOM     37  C   UNL     1       4.927   6.790 -12.797  1.00  0.00     0.010 C 
ATOM     38  C   UNL     1       4.646   8.370 -10.911  1.00  0.00     0.010 C 
ENDBRANCH  35  36
BRANCH  35  39
ATOM     39  C   UNL     1       2.451   5.897  -9.989  1.00  0.00     0.329 C 
ATOM     40  O   UNL     1       1.921   6.863  -9.453  1.00  0.00    -0.250 OA
BRANCH  39  41
ATOM     41  O   UNL     1       1.828   4.691 -10.157  1.00  0.00    -0.458 OA
BRANCH  41  42
ATOM     42  C   UNL     1       1.510   3.961  -8.948  1.00  0.00     0.205 CG0
ATOM     43  C   UNL     1       2.818   3.388  -8.406  1.00  0.00     0.056 C 
ATOM     44  G   UNL     1       0.483   2.864  -9.292  1.00  0.00     0.000 G0
ENDBRANCH  41  42
ENDBRANCH  39  41
ENDBRANCH  35  39
ENDBRANCH  33  35
ENDBRANCH  23  31
ENDBRANCH  21  23
ENDBRANCH  19  21
ENDBRANCH  14  19
ENDBRANCH   7  14
ENDBRANCH   2   5
BRANCH   3  45
ATOM     45  C   UNL     1      -0.723   2.462  -5.639  1.00  0.00     0.171 C 
BRANCH  45  46
ATOM     46  N   UNL     1      -0.432   2.945  -6.982  1.00  0.00    -0.342 N 
ATOM     47  C   UNL     1       0.106   2.139  -7.954  1.00  0.00     0.247 C 
ATOM     48  O   UNL     1       0.313   0.937  -7.787  1.00  0.00    -0.273 OA
ATOM     49  H   UNL     1      -0.640   3.922  -7.181  1.00  0.00     0.164 HD
BRANCH  47  50
ATOM     50  C   UNL     1       0.461   2.852  -9.267  1.00  0.00     0.212 CG0
ATOM     51  G   UNL     1       1.488   3.954  -8.937  1.00  0.00     0.000 G0
BRANCH  50  52
ATOM     52  N   UNL     1       0.992   1.812 -10.144  1.00  0.00    -0.339 N 
ATOM     53  C   UNL     1       0.380   1.422 -11.310  1.00  0.00     0.243 C 
ATOM     54  O   UNL     1      -0.697   1.883 -11.679  1.00  0.00    -0.273 OA
ATOM     55  H   UNL     1       1.825   1.314  -9.836  1.00  0.00     0.164 HD
BRANCH  53  56
ATOM     56  C   UNL     1       1.079   0.247 -12.023  1.00  0.00     0.182 C 
BRANCH  56  57
ATOM     57  N   UNL     1       0.132  -0.836 -12.307  1.00  0.00    -0.344 N 
ATOM     58  C   UNL     1      -0.481  -1.557 -11.312  1.00  0.00     0.220 C 
ATOM     59  O   UNL     1      -0.226  -1.398 -10.123  1.00  0.00    -0.275 OA
ATOM     60  H   UNL     1      -0.183  -0.932 -13.269  1.00  0.00     0.164 HD
BRANCH  58  61
ATOM     61  C   UNL     1      -1.465  -2.587 -11.835  1.00  0.00     0.100 C 
BRANCH  61  62
ATOM     62  C   UNL     1      -2.809  -1.995 -12.261  1.00  0.00     0.010 C 
BRANCH  62  63
ATOM     63  C   UNL     1      -3.174  -0.689 -11.544  1.00  0.00     0.000 C 
BRANCH  63  64
ATOM     64  C   UNL     1      -4.659  -0.551 -11.211  1.00  0.00    -0.003 C 
ATOM     65  C   UNL     1      -5.239  -1.863 -10.704  1.00  0.00     0.004 C 
ENDBRANCH  63  64
ENDBRANCH  62  63
ENDBRANCH  61  62
ENDBRANCH  58  61
ENDBRANCH  56  57
BRANCH  56  66
ATOM     66  C   UNL     1       2.295  -0.242 -11.237  1.00  0.00     0.157 C 
BRANCH  66  67
ATOM     67  C   UNL     1       3.567   0.330 -11.793  1.00  0.00     0.305 C 
ATOM     68  O   UNL     1       3.673   1.122 -12.716  1.00  0.00    -0.252 OA
BRANCH  67  69
ATOM     69  O   UNL     1       4.654  -0.089 -11.117  1.00  0.00    -0.481 OA
ATOM     70  H   UNL     1       4.355  -0.167 -10.186  1.00  0.00     0.296 HD
ENDBRANCH  67  69
ENDBRANCH  66  67
ENDBRANCH  56  66
ENDBRANCH  53  56
ENDBRANCH  50  52
ENDBRANCH  47  50
ENDBRANCH  45  46
BRANCH  45  71
ATOM     71  C   UNL     1      -2.190   2.695  -5.261  1.00  0.00     0.037 C 
BRANCH  71  72
ATOM     72  C   UNL     1      -3.151   2.179  -6.334  1.00  0.00     0.026 C 
BRANCH  72  73
ATOM     73  C   UNL     1      -3.494   0.706  -6.119  1.00  0.00     0.146 C 
BRANCH  73  74
ATOM     74  N   UNL     1      -2.747  -0.075  -7.100  1.00  0.00    -0.254 NA
ATOM     75  C   UNL     1      -3.180  -1.247  -7.388  1.00  0.00     0.185 C 
ATOM     76  N   UNL     1      -2.516  -1.989  -8.288  1.00  0.00    -0.370 N 
ATOM     77  N   UNL     1      -4.256  -1.892  -6.905  1.00  0.00    -0.370 N 
ATOM     78  H   UNL     1      -1.687  -1.580  -8.696  1.00  0.00     0.159 HD
ATOM     79  H   UNL     1      -2.708  -2.961  -8.455  1.00  0.00     0.159 HD
ATOM     80  H   UNL     1      -4.854  -1.453  -6.221  1.00  0.00     0.159 HD
ATOM     81  H   UNL     1      -4.564  -2.769  -7.292  1.00  0.00     0.159 HD
ENDBRANCH  73  74
ENDBRANCH  72  73
ENDBRANCH  71  72
ENDBRANCH  45  71
ENDBRANCH   3  45
TORSDOF 20
ENDMDL
MODEL 6
REMARK VINA RESULT:    -3.554      3.406      7.220
REMARK INTER + INTRA:         -17.705
REMARK INTER:                 -11.975
REMARK INTRA:                  -5.730
REMARK UNBOUND:                -7.501
REMARK SMILES CCCCCC(=O)N[C@H](CC(=O)O)C(=O)N[C@H]1C(=O)N[C@H](CCCN=C(N)N)C(=O)N[C@@H]2CC[C@H](O)N(C2=O)[C@@H](CC(C)C)C(=O)N(C)[C@@H](Cc2ccccc2)C(=O)N[C@H](C(C)C)C(=O)O[C@@H]1C
REMARK SMILES IDX 30 1 31 2 29 3 32 5 35 6 37 7 34 8 38 9 33 10 39 11 36 12
REMARK SMILES IDX 40 14 41 15 42 16 43 17 44 18 45 19 46 20 47 21 48 22 49 23
REMARK SMILES IDX 50 24 51 25 52 26 56 27 53 28 55 29 54 30 57 31 58 32 59 33
REMARK SMILES IDX 60 35 61 36 62 37 63 38 64 39 65 40 66 41 67 42 68 43 21 45
REMARK SMILES IDX 20 46 18 47 19 48 17 50 16 52 14 53 15 54 9 56 8 57 6 58
REMARK SMILES IDX 7 59 5 61 4 62 3 63 2 64 1 65 10 66 11 67 12 68 13 69 22 71
REMARK SMILES IDX 23 72 24 73 25 74 26 75 27 76 28 77
REMARK H PARENT 31 4 36 13 59 34 20 49 16 55 8 60 13 70 27 78 27 79 28 80
REMARK H PARENT 28 81
REMARK Flexibility Score:  259.900
ROOT
ATOM      1  O   UNL     1      -3.338   5.438  -4.914  1.00  0.00    -0.273 OA
ATOM      2  N   UNL     1      -1.209   4.629  -4.708  1.00  0.00    -0.343 N 
ATOM      3  C   UNL     1      -2.512   4.557  -5.152  1.00  0.00     0.243 C 
ATOM      4  H   UNL     1      -0.553   3.892  -4.936  1.00  0.00     0.164 HD
ENDROOT
BRANCH   2   5
ATOM      5  C   UNL     1      -0.784   5.711  -3.827  1.00  0.00     0.171 C 
ATOM      6  C   UNL     1       1.727   7.130  -3.529  1.00  0.00     0.214 C 
ATOM      7  N   UNL     1       1.477   5.953  -2.730  1.00  0.00    -0.303 N 
ATOM      8  C   UNL     1       0.461   7.895  -3.885  1.00  0.00     0.057 C 
ATOM      9  C   UNL     1       0.322   5.199  -2.859  1.00  0.00     0.247 C 
ATOM     10  C   UNL     1      -0.497   6.985  -4.621  1.00  0.00     0.040 C 
ATOM     11  O   UNL     1       0.154   4.144  -2.234  1.00  0.00    -0.272 OA
BRANCH   6  12
ATOM     12  O   UNL     1       2.401   6.724  -4.697  1.00  0.00    -0.373 OA
ATOM     13  H   UNL     1       1.727   6.348  -5.302  1.00  0.00     0.213 HD
ENDBRANCH   6  12
BRANCH   7  14
ATOM     14  C   UNL     1       2.578   5.488  -1.860  1.00  0.00     0.177 C 
BRANCH  14  15
ATOM     15  C   UNL     1       2.531   6.006  -0.409  1.00  0.00     0.038 C 
BRANCH  15  16
ATOM     16  C   UNL     1       3.115   7.397  -0.079  1.00  0.00    -0.015 C 
ATOM     17  C   UNL     1       4.155   7.343   1.044  1.00  0.00     0.007 C 
ATOM     18  C   UNL     1       1.988   8.343   0.355  1.00  0.00     0.007 C 
ENDBRANCH  15  16
ENDBRANCH  14  15
BRANCH  14  19
ATOM     19  C   UNL     1       3.050   4.058  -2.298  1.00  0.00     0.245 C 
ATOM     20  O   UNL     1       3.312   3.253  -1.389  1.00  0.00    -0.272 OA
BRANCH  19  21
ATOM     21  N   UNL     1       3.292   3.695  -3.611  1.00  0.00    -0.332 N 
ATOM     22  C   UNL     1       2.551   2.695  -4.359  1.00  0.00     0.147 C 
BRANCH  21  23
ATOM     23  C   UNL     1       4.412   4.369  -4.324  1.00  0.00     0.178 C 
BRANCH  23  24
ATOM     24  C   UNL     1       5.678   4.595  -3.472  1.00  0.00     0.070 C 
BRANCH  24  25
ATOM     25  C   UNL     1       6.216   6.005  -3.400  1.00  0.00    -0.045 A 
ATOM     26  C   UNL     1       6.289   6.805  -4.548  1.00  0.00     0.004 A 
ATOM     27  C   UNL     1       6.657   6.533  -2.178  1.00  0.00     0.004 A 
ATOM     28  C   UNL     1       6.804   8.101  -4.477  1.00  0.00     0.000 A 
ATOM     29  C   UNL     1       7.171   7.828  -2.107  1.00  0.00     0.000 A 
ATOM     30  C   UNL     1       7.246   8.611  -3.258  1.00  0.00     0.000 A 
ENDBRANCH  24  25
ENDBRANCH  23  24
BRANCH  23  31
ATOM     31  C   UNL     1       4.670   3.783  -5.733  1.00  0.00     0.243 C 
ATOM     32  O   UNL     1       5.479   2.888  -5.966  1.00  0.00    -0.273 OA
ATOM     33  N   UNL     1       4.042   4.484  -6.748  1.00  0.00    -0.341 N 
ATOM     34  H   UNL     1       3.383   5.223  -6.491  1.00  0.00     0.164 HD
BRANCH  33  35
ATOM     35  C   UNL     1       4.239   4.181  -8.168  1.00  0.00     0.194 C 
BRANCH  35  36
ATOM     36  C   UNL     1       4.617   5.416  -9.034  1.00  0.00     0.017 C 
ATOM     37  C   UNL     1       5.618   5.039 -10.139  1.00  0.00     0.010 C 
ATOM     38  C   UNL     1       5.240   6.557  -8.220  1.00  0.00     0.010 C 
ENDBRANCH  35  36
BRANCH  35  39
ATOM     39  C   UNL     1       3.052   3.385  -8.780  1.00  0.00     0.329 C 
ATOM     40  O   UNL     1       3.147   2.659  -9.763  1.00  0.00    -0.250 OA
BRANCH  39  41
ATOM     41  O   UNL     1       1.905   3.516  -8.047  1.00  0.00    -0.458 OA
BRANCH  41  42
ATOM     42  C   UNL     1       0.833   4.270  -8.662  1.00  0.00     0.205 CG0
ATOM     43  C   UNL     1       0.498   5.429  -7.727  1.00  0.00     0.056 C 
ATOM     44  G   UNL     1      -0.366   3.326  -8.886  1.00  0.00     0.000 G0
ENDBRANCH  41  42
ENDBRANCH  39  41
ENDBRANCH  35  39
ENDBRANCH  33  35
ENDBRANCH  23  31
ENDBRANCH  21  23
ENDBRANCH  19  21
ENDBRANCH  14  19
ENDBRANCH   7  14
ENDBRANCH   2   5
BRANCH   3  45
ATOM     45  C   UNL     1      -2.855   3.312  -5.981  1.00  0.00     0.171 C 
BRANCH  45  46
ATOM     46  N   UNL     1      -2.190   3.498  -7.264  1.00  0.00    -0.342 N 
ATOM     47  C   UNL     1      -0.990   2.904  -7.565  1.00  0.00     0.247 C 
ATOM     48  O   UNL     1      -0.426   2.116  -6.805  1.00  0.00    -0.273 OA
ATOM     49  H   UNL     1      -2.652   4.099  -7.945  1.00  0.00     0.164 HD
BRANCH  47  50
ATOM     50  C   UNL     1      -0.381   3.314  -8.913  1.00  0.00     0.212 CG0
ATOM     51  G   UNL     1       0.791   4.272  -8.624  1.00  0.00     0.000 G0
BRANCH  50  52
ATOM     52  N   UNL     1       0.036   2.066  -9.547  1.00  0.00    -0.339 N 
ATOM     53  C   UNL     1      -0.557   1.558 -10.677  1.00  0.00     0.243 C 
ATOM     54  O   UNL     1      -1.525   2.090 -11.214  1.00  0.00    -0.273 OA
ATOM     55  H   UNL     1       0.761   1.521  -9.086  1.00  0.00     0.164 HD
BRANCH  53  56
ATOM     56  C   UNL     1      -0.004   0.186 -11.113  1.00  0.00     0.182 C 
BRANCH  56  57
ATOM     57  N   UNL     1      -1.045  -0.620 -11.759  1.00  0.00    -0.344 N 
ATOM     58  C   UNL     1      -1.793  -1.544 -11.072  1.00  0.00     0.220 C 
ATOM     59  O   UNL     1      -1.596  -1.812  -9.892  1.00  0.00    -0.275 OA
ATOM     60  H   UNL     1      -1.308  -0.359 -12.706  1.00  0.00     0.164 HD
BRANCH  58  61
ATOM     61  C   UNL     1      -2.850  -2.218 -11.927  1.00  0.00     0.100 C 
BRANCH  61  62
ATOM     62  C   UNL     1      -4.282  -1.840 -11.548  1.00  0.00     0.010 C 
BRANCH  62  63
ATOM     63  C   UNL     1      -4.457  -0.371 -11.143  1.00  0.00     0.000 C 
BRANCH  63  64
ATOM     64  C   UNL     1      -5.908   0.109 -11.138  1.00  0.00    -0.003 C 
ATOM     65  C   UNL     1      -6.742  -0.634 -12.170  1.00  0.00     0.004 C 
ENDBRANCH  63  64
ENDBRANCH  62  63
ENDBRANCH  61  62
ENDBRANCH  58  61
ENDBRANCH  56  57
BRANCH  56  66
ATOM     66  C   UNL     1       0.653  -0.549  -9.946  1.00  0.00     0.157 C 
BRANCH  66  67
ATOM     67  C   UNL     1       1.955  -1.172 -10.359  1.00  0.00     0.305 C 
ATOM     68  O   UNL     1       2.712  -0.777 -11.233  1.00  0.00    -0.252 OA
BRANCH  67  69
ATOM     69  O   UNL     1       2.271  -2.244  -9.608  1.00  0.00    -0.481 OA
ATOM     70  H   UNL     1       2.192  -3.008 -10.217  1.00  0.00     0.296 HD
ENDBRANCH  67  69
ENDBRANCH  66  67
ENDBRANCH  56  66
ENDBRANCH  53  56
ENDBRANCH  50  52
ENDBRANCH  47  50
ENDBRANCH  45  46
BRANCH  45  71
ATOM     71  C   UNL     1      -4.373   3.182  -6.145  1.00  0.00     0.037 C 
BRANCH  71  72
ATOM     72  C   UNL     1      -4.933   1.977  -5.385  1.00  0.00     0.026 C 
BRANCH  72  73
ATOM     73  C   UNL     1      -3.921   0.836  -5.320  1.00  0.00     0.146 C 
BRANCH  73  74
ATOM     74  N   UNL     1      -4.399  -0.235  -6.189  1.00  0.00    -0.254 NA
ATOM     75  C   UNL     1      -3.616  -0.650  -7.115  1.00  0.00     0.185 C 
ATOM     76  N   UNL     1      -4.027  -1.635  -7.930  1.00  0.00    -0.370 N 
ATOM     77  N   UNL     1      -2.374  -0.234  -7.422  1.00  0.00    -0.370 N 
ATOM     78  H   UNL     1      -4.955  -2.002  -7.773  1.00  0.00     0.159 HD
ATOM     79  H   UNL     1      -3.532  -1.910  -8.760  1.00  0.00     0.159 HD
ATOM     80  H   UNL     1      -1.933   0.501  -6.889  1.00  0.00     0.159 HD
ATOM     81  H   UNL     1      -1.808  -0.715  -8.101  1.00  0.00     0.159 HD
ENDBRANCH  73  74
ENDBRANCH  72  73
ENDBRANCH  71  72
ENDBRANCH  45  71
ENDBRANCH   3  45
TORSDOF 20
ENDMDL
MODEL 7
REMARK VINA RESULT:    -3.455      1.663      2.764
REMARK INTER + INTRA:         -17.420
REMARK INTER:                 -10.867
REMARK INTRA:                  -6.553
REMARK UNBOUND:                -7.501
REMARK SMILES CCCCCC(=O)N[C@H](CC(=O)O)C(=O)N[C@H]1C(=O)N[C@H](CCCN=C(N)N)C(=O)N[C@@H]2CC[C@H](O)N(C2=O)[C@@H](CC(C)C)C(=O)N(C)[C@@H](Cc2ccccc2)C(=O)N[C@H](C(C)C)C(=O)O[C@@H]1C
REMARK SMILES IDX 30 1 31 2 29 3 32 5 35 6 37 7 34 8 38 9 33 10 39 11 36 12
REMARK SMILES IDX 40 14 41 15 42 16 43 17 44 18 45 19 46 20 47 21 48 22 49 23
REMARK SMILES IDX 50 24 51 25 52 26 56 27 53 28 55 29 54 30 57 31 58 32 59 33
REMARK SMILES IDX 60 35 61 36 62 37 63 38 64 39 65 40 66 41 67 42 68 43 21 45
REMARK SMILES IDX 20 46 18 47 19 48 17 50 16 52 14 53 15 54 9 56 8 57 6 58
REMARK SMILES IDX 7 59 5 61 4 62 3 63 2 64 1 65 10 66 11 67 12 68 13 69 22 71
REMARK SMILES IDX 23 72 24 73 25 74 26 75 27 76 28 77
REMARK H PARENT 31 4 36 13 59 34 20 49 16 55 8 60 13 70 27 78 27 79 28 80
REMARK H PARENT 28 81
REMARK Flexibility Score:  259.900
ROOT
ATOM      1  O   UNL     1      -4.355   2.286  -7.496  1.00  0.00    -0.273 OA
ATOM      2  N   UNL     1      -3.667   3.798  -9.067  1.00  0.00    -0.343 N 
ATOM      3  C   UNL     1      -3.677   2.547  -8.490  1.00  0.00     0.243 C 
ATOM      4  H   UNL     1      -3.108   3.972  -9.894  1.00  0.00     0.164 HD
ENDROOT
BRANCH   2   5
ATOM      5  C   UNL     1      -4.376   4.910  -8.443  1.00  0.00     0.171 C 
ATOM      6  C   UNL     1      -4.895   7.633  -9.291  1.00  0.00     0.214 C 
ATOM      7  N   UNL     1      -3.712   7.344  -8.515  1.00  0.00    -0.303 N 
ATOM      8  C   UNL     1      -6.056   6.700  -8.989  1.00  0.00     0.057 C 
ATOM      9  C   UNL     1      -3.378   6.058  -8.121  1.00  0.00     0.247 C 
ATOM     10  C   UNL     1      -5.637   5.266  -9.229  1.00  0.00     0.040 C 
ATOM     11  O   UNL     1      -2.319   5.807  -7.531  1.00  0.00    -0.272 OA
BRANCH   6  12
ATOM     12  O   UNL     1      -4.544   7.557 -10.654  1.00  0.00    -0.373 OA
ATOM     13  H   UNL     1      -3.629   7.902 -10.735  1.00  0.00     0.213 HD
ENDBRANCH   6  12
BRANCH   7  14
ATOM     14  C   UNL     1      -2.777   8.464  -8.274  1.00  0.00     0.177 C 
BRANCH  14  15
ATOM     15  C   UNL     1      -2.549   9.398  -9.478  1.00  0.00     0.038 C 
BRANCH  15  16
ATOM     16  C   UNL     1      -1.139   9.973  -9.739  1.00  0.00    -0.015 C 
ATOM     17  C   UNL     1      -0.944  11.353  -9.105  1.00  0.00     0.007 C 
ATOM     18  C   UNL     1      -0.902  10.101 -11.250  1.00  0.00     0.007 C 
ENDBRANCH  15  16
ENDBRANCH  14  15
BRANCH  14  19
ATOM     19  C   UNL     1      -2.846   8.917  -6.775  1.00  0.00     0.245 C 
ATOM     20  O   UNL     1      -3.964   8.892  -6.234  1.00  0.00    -0.272 OA
BRANCH  19  21
ATOM     21  N   UNL     1      -1.771   9.438  -6.077  1.00  0.00    -0.332 N 
ATOM     22  C   UNL     1      -1.716  10.760  -5.479  1.00  0.00     0.147 C 
BRANCH  21  23
ATOM     23  C   UNL     1      -0.559   8.587  -5.928  1.00  0.00     0.178 C 
BRANCH  23  24
ATOM     24  C   UNL     1       0.755   9.365  -5.712  1.00  0.00     0.070 C 
BRANCH  24  25
ATOM     25  C   UNL     1       1.858   9.146  -6.721  1.00  0.00    -0.045 A 
ATOM     26  C   UNL     1       1.737   8.168  -7.716  1.00  0.00     0.004 A 
ATOM     27  C   UNL     1       3.027   9.921  -6.671  1.00  0.00     0.004 A 
ATOM     28  C   UNL     1       2.769   7.960  -8.634  1.00  0.00     0.000 A 
ATOM     29  C   UNL     1       4.056   9.713  -7.590  1.00  0.00     0.000 A 
ATOM     30  C   UNL     1       3.928   8.730  -8.569  1.00  0.00     0.000 A 
ENDBRANCH  24  25
ENDBRANCH  23  24
BRANCH  23  31
ATOM     31  C   UNL     1      -0.774   7.393  -4.967  1.00  0.00     0.243 C 
ATOM     32  O   UNL     1      -1.250   7.496  -3.839  1.00  0.00    -0.273 OA
ATOM     33  N   UNL     1      -0.209   6.212  -5.417  1.00  0.00    -0.341 N 
ATOM     34  H   UNL     1       0.178   6.189  -6.364  1.00  0.00     0.164 HD
BRANCH  33  35
ATOM     35  C   UNL     1      -0.186   4.983  -4.619  1.00  0.00     0.194 C 
BRANCH  35  36
ATOM     36  C   UNL     1       0.987   4.908  -3.602  1.00  0.00     0.017 C 
ATOM     37  C   UNL     1       0.531   5.315  -2.191  1.00  0.00     0.010 C 
ATOM     38  C   UNL     1       2.172   5.806  -3.979  1.00  0.00     0.010 C 
ENDBRANCH  35  36
BRANCH  35  39
ATOM     39  C   UNL     1      -0.279   3.701  -5.493  1.00  0.00     0.329 C 
ATOM     40  O   UNL     1      -0.816   2.660  -5.131  1.00  0.00    -0.250 OA
BRANCH  39  41
ATOM     41  O   UNL     1       0.228   3.890  -6.749  1.00  0.00    -0.458 OA
BRANCH  41  42
ATOM     42  C   UNL     1       1.249   2.956  -7.175  1.00  0.00     0.205 CG0
ATOM     43  C   UNL     1       2.581   3.704  -7.165  1.00  0.00     0.056 C 
ATOM     44  G   UNL     1       0.879   2.429  -8.576  1.00  0.00     0.000 G0
ENDBRANCH  41  42
ENDBRANCH  39  41
ENDBRANCH  35  39
ENDBRANCH  33  35
ENDBRANCH  23  31
ENDBRANCH  21  23
ENDBRANCH  19  21
ENDBRANCH  14  19
ENDBRANCH   7  14
ENDBRANCH   2   5
BRANCH   3  45
ATOM     45  C   UNL     1      -2.803   1.495  -9.186  1.00  0.00     0.171 C 
BRANCH  45  46
ATOM     46  N   UNL     1      -1.468   2.075  -9.253  1.00  0.00    -0.342 N 
ATOM     47  C   UNL     1      -0.423   1.607  -8.496  1.00  0.00     0.247 C 
ATOM     48  O   UNL     1      -0.517   0.621  -7.763  1.00  0.00    -0.273 OA
ATOM     49  H   UNL     1      -1.331   2.857  -9.890  1.00  0.00     0.164 HD
BRANCH  47  50
ATOM     50  C   UNL     1       0.875   2.419  -8.606  1.00  0.00     0.212 CG0
ATOM     51  G   UNL     1       1.235   2.918  -7.192  1.00  0.00     0.000 G0
BRANCH  50  52
ATOM     52  N   UNL     1       1.864   1.501  -9.163  1.00  0.00    -0.339 N 
ATOM     53  C   UNL     1       2.400   1.640 -10.420  1.00  0.00     0.243 C 
ATOM     54  O   UNL     1       2.047   2.523 -11.197  1.00  0.00    -0.273 OA
ATOM     55  H   UNL     1       2.115   0.684  -8.610  1.00  0.00     0.164 HD
BRANCH  53  56
ATOM     56  C   UNL     1       3.359   0.501 -10.822  1.00  0.00     0.182 C 
BRANCH  56  57
ATOM     57  N   UNL     1       4.665   1.030 -11.228  1.00  0.00    -0.344 N 
ATOM     58  C   UNL     1       5.794   0.872 -10.462  1.00  0.00     0.220 C 
ATOM     59  O   UNL     1       5.776   0.344  -9.356  1.00  0.00    -0.275 OA
ATOM     60  H   UNL     1       4.743   1.383 -12.179  1.00  0.00     0.164 HD
BRANCH  58  61
ATOM     61  C   UNL     1       7.042   1.449 -11.105  1.00  0.00     0.100 C 
BRANCH  61  62
ATOM     62  C   UNL     1       7.143   2.971 -10.999  1.00  0.00     0.010 C 
BRANCH  62  63
ATOM     63  C   UNL     1       6.576   3.548  -9.695  1.00  0.00     0.000 C 
BRANCH  63  64
ATOM     64  C   UNL     1       6.228   5.034  -9.767  1.00  0.00    -0.003 C 
ATOM     65  C   UNL     1       5.266   5.324 -10.910  1.00  0.00     0.004 C 
ENDBRANCH  63  64
ENDBRANCH  62  63
ENDBRANCH  61  62
ENDBRANCH  58  61
ENDBRANCH  56  57
BRANCH  56  66
ATOM     66  C   UNL     1       2.743  -0.398 -11.893  1.00  0.00     0.157 C 
BRANCH  66  67
ATOM     67  C   UNL     1       1.912  -1.487 -11.277  1.00  0.00     0.305 C 
ATOM     68  O   UNL     1       1.106  -2.205 -11.848  1.00  0.00    -0.252 OA
BRANCH  67  69
ATOM     69  O   UNL     1       2.177  -1.654  -9.967  1.00  0.00    -0.481 OA
ATOM     70  H   UNL     1       1.793  -2.528  -9.744  1.00  0.00     0.296 HD
ENDBRANCH  67  69
ENDBRANCH  66  67
ENDBRANCH  56  66
ENDBRANCH  53  56
ENDBRANCH  50  52
ENDBRANCH  47  50
ENDBRANCH  45  46
BRANCH  45  71
ATOM     71  C   UNL     1      -3.353   1.181 -10.581  1.00  0.00     0.037 C 
BRANCH  71  72
ATOM     72  C   UNL     1      -4.637   0.349 -10.520  1.00  0.00     0.026 C 
BRANCH  72  73
ATOM     73  C   UNL     1      -4.333  -1.141 -10.380  1.00  0.00     0.146 C 
BRANCH  73  74
ATOM     74  N   UNL     1      -4.773  -1.565  -9.054  1.00  0.00    -0.254 NA
ATOM     75  C   UNL     1      -3.874  -1.852  -8.188  1.00  0.00     0.185 C 
ATOM     76  N   UNL     1      -4.248  -2.244  -6.959  1.00  0.00    -0.370 N 
ATOM     77  N   UNL     1      -2.536  -1.823  -8.317  1.00  0.00    -0.370 N 
ATOM     78  H   UNL     1      -5.240  -2.301  -6.779  1.00  0.00     0.159 HD
ATOM     79  H   UNL     1      -3.611  -2.621  -6.280  1.00  0.00     0.159 HD
ATOM     80  H   UNL     1      -2.110  -1.543  -9.188  1.00  0.00     0.159 HD
ATOM     81  H   UNL     1      -1.926  -1.960  -7.528  1.00  0.00     0.159 HD
ENDBRANCH  73  74
ENDBRANCH  72  73
ENDBRANCH  71  72
ENDBRANCH  45  71
ENDBRANCH   3  45
TORSDOF 20
ENDMDL
MODEL 8
REMARK VINA RESULT:    -3.409      4.291      8.178
REMARK INTER + INTRA:         -17.288
REMARK INTER:                 -10.371
REMARK INTRA:                  -6.917
REMARK UNBOUND:                -7.501
REMARK SMILES CCCCCC(=O)N[C@H](CC(=O)O)C(=O)N[C@H]1C(=O)N[C@H](CCCN=C(N)N)C(=O)N[C@@H]2CC[C@H](O)N(C2=O)[C@@H](CC(C)C)C(=O)N(C)[C@@H](Cc2ccccc2)C(=O)N[C@H](C(C)C)C(=O)O[C@@H]1C
REMARK SMILES IDX 30 1 31 2 29 3 32 5 35 6 37 7 34 8 38 9 33 10 39 11 36 12
REMARK SMILES IDX 40 14 41 15 42 16 43 17 44 18 45 19 46 20 47 21 48 22 49 23
REMARK SMILES IDX 50 24 51 25 52 26 56 27 53 28 55 29 54 30 57 31 58 32 59 33
REMARK SMILES IDX 60 35 61 36 62 37 63 38 64 39 65 40 66 41 67 42 68 43 21 45
REMARK SMILES IDX 20 46 18 47 19 48 17 50 16 52 14 53 15 54 9 56 8 57 6 58
REMARK SMILES IDX 7 59 5 61 4 62 3 63 2 64 1 65 10 66 11 67 12 68 13 69 22 71
REMARK SMILES IDX 23 72 24 73 25 74 26 75 27 76 28 77
REMARK H PARENT 31 4 36 13 59 34 20 49 16 55 8 60 13 70 27 78 27 79 28 80
REMARK H PARENT 28 81
REMARK Flexibility Score:  259.900
ROOT
ATOM      1  O   UNL     1       1.429   1.600  -6.034  1.00  0.00    -0.273 OA
ATOM      2  N   UNL     1       1.739   2.499  -8.114  1.00  0.00    -0.343 N 
ATOM      3  C   UNL     1       2.067   2.338  -6.785  1.00  0.00     0.243 C 
ATOM      4  H   UNL     1       2.295   3.104  -8.706  1.00  0.00     0.164 HD
ENDROOT
BRANCH   2   5
ATOM      5  C   UNL     1       0.534   1.884  -8.661  1.00  0.00     0.171 C 
ATOM      6  C   UNL     1      -1.075   2.459 -11.003  1.00  0.00     0.214 C 
ATOM      7  N   UNL     1      -1.405   3.085  -9.743  1.00  0.00    -0.303 N 
ATOM      8  C   UNL     1      -0.429   1.092 -10.845  1.00  0.00     0.057 C 
ATOM      9  C   UNL     1      -0.648   2.893  -8.599  1.00  0.00     0.247 C 
ATOM     10  C   UNL     1       0.822   1.211 -10.002  1.00  0.00     0.040 C 
ATOM     11  O   UNL     1      -0.886   3.500  -7.546  1.00  0.00    -0.272 OA
BRANCH   6  12
ATOM     12  O   UNL     1      -0.219   3.330 -11.705  1.00  0.00    -0.373 OA
ATOM     13  H   UNL     1      -0.787   3.902 -12.265  1.00  0.00     0.213 HD
ENDBRANCH   6  12
BRANCH   7  14
ATOM     14  C   UNL     1      -2.510   4.067  -9.751  1.00  0.00     0.177 C 
BRANCH  14  15
ATOM     15  C   UNL     1      -2.553   4.996 -10.980  1.00  0.00     0.038 C 
BRANCH  15  16
ATOM     16  C   UNL     1      -2.013   6.438 -10.863  1.00  0.00    -0.015 C 
ATOM     17  C   UNL     1      -0.826   6.696 -11.796  1.00  0.00     0.007 C 
ATOM     18  C   UNL     1      -1.559   6.706  -9.423  1.00  0.00     0.007 C 
ENDBRANCH  15  16
ENDBRANCH  14  15
BRANCH  14  19
ATOM     19  C   UNL     1      -3.762   3.481  -9.012  1.00  0.00     0.245 C 
ATOM     20  O   UNL     1      -4.496   2.723  -9.669  1.00  0.00    -0.272 OA
BRANCH  19  21
ATOM     21  N   UNL     1      -4.144   3.848  -7.734  1.00  0.00    -0.332 N 
ATOM     22  C   UNL     1      -4.566   2.935  -6.686  1.00  0.00     0.147 C 
BRANCH  21  23
ATOM     23  C   UNL     1      -4.137   5.298  -7.394  1.00  0.00     0.178 C 
BRANCH  23  24
ATOM     24  C   UNL     1      -5.410   6.064  -7.808  1.00  0.00     0.070 C 
BRANCH  24  25
ATOM     25  C   UNL     1      -5.286   7.030  -8.963  1.00  0.00    -0.045 A 
ATOM     26  C   UNL     1      -5.710   6.670 -10.249  1.00  0.00     0.004 A 
ATOM     27  C   UNL     1      -4.738   8.306  -8.763  1.00  0.00     0.004 A 
ATOM     28  C   UNL     1      -5.576   7.563 -11.314  1.00  0.00     0.000 A 
ATOM     29  C   UNL     1      -4.606   9.198  -9.829  1.00  0.00     0.000 A 
ATOM     30  C   UNL     1      -5.023   8.824 -11.105  1.00  0.00     0.000 A 
ENDBRANCH  24  25
ENDBRANCH  23  24
BRANCH  23  31
ATOM     31  C   UNL     1      -3.648   5.577  -5.953  1.00  0.00     0.243 C 
ATOM     32  O   UNL     1      -4.383   5.932  -5.035  1.00  0.00    -0.273 OA
ATOM     33  N   UNL     1      -2.269   5.573  -5.826  1.00  0.00    -0.341 N 
ATOM     34  H   UNL     1      -1.709   5.274  -6.628  1.00  0.00     0.164 HD
BRANCH  33  35
ATOM     35  C   UNL     1      -1.580   5.929  -4.583  1.00  0.00     0.194 C 
BRANCH  35  36
ATOM     36  C   UNL     1      -0.515   7.050  -4.745  1.00  0.00     0.017 C 
ATOM     37  C   UNL     1      -1.138   8.444  -4.555  1.00  0.00     0.010 C 
ATOM     38  C   UNL     1       0.171   7.037  -6.116  1.00  0.00     0.010 C 
ENDBRANCH  35  36
BRANCH  35  39
ATOM     39  C   UNL     1      -1.008   4.689  -3.840  1.00  0.00     0.329 C 
ATOM     40  O   UNL     1      -1.379   3.538  -4.040  1.00  0.00    -0.250 OA
BRANCH  39  41
ATOM     41  O   UNL     1       0.019   5.015  -2.999  1.00  0.00    -0.458 OA
BRANCH  41  42
ATOM     42  C   UNL     1       0.944   3.950  -2.675  1.00  0.00     0.205 CG0
ATOM     43  C   UNL     1       0.644   3.507  -1.244  1.00  0.00     0.056 C 
ATOM     44  G   UNL     1       2.382   4.481  -2.837  1.00  0.00     0.000 G0
ENDBRANCH  41  42
ENDBRANCH  39  41
ENDBRANCH  35  39
ENDBRANCH  33  35
ENDBRANCH  23  31
ENDBRANCH  21  23
ENDBRANCH  19  21
ENDBRANCH  14  19
ENDBRANCH   7  14
ENDBRANCH   2   5
BRANCH   3  45
ATOM     45  C   UNL     1       3.296   3.126  -6.312  1.00  0.00     0.171 C 
BRANCH  45  46
ATOM     46  N   UNL     1       2.841   3.925  -5.182  1.00  0.00    -0.342 N 
ATOM     47  C   UNL     1       3.067   3.555  -3.880  1.00  0.00     0.247 C 
ATOM     48  O   UNL     1       3.732   2.564  -3.573  1.00  0.00    -0.273 OA
ATOM     49  H   UNL     1       2.335   4.783  -5.392  1.00  0.00     0.164 HD
BRANCH  47  50
ATOM     50  C   UNL     1       2.407   4.453  -2.825  1.00  0.00     0.212 CG0
ATOM     51  G   UNL     1       0.944   3.993  -2.669  1.00  0.00     0.000 G0
BRANCH  50  52
ATOM     52  N   UNL     1       3.200   4.276  -1.611  1.00  0.00    -0.339 N 
ATOM     53  C   UNL     1       4.275   5.067  -1.288  1.00  0.00     0.243 C 
ATOM     54  O   UNL     1       4.687   5.957  -2.027  1.00  0.00    -0.273 OA
ATOM     55  H   UNL     1       2.976   3.484  -1.012  1.00  0.00     0.164 HD
BRANCH  53  56
ATOM     56  C   UNL     1       5.008   4.636  -0.002  1.00  0.00     0.182 C 
BRANCH  56  57
ATOM     57  N   UNL     1       4.937   3.183   0.182  1.00  0.00    -0.344 N 
ATOM     58  C   UNL     1       5.784   2.316  -0.466  1.00  0.00     0.220 C 
ATOM     59  O   UNL     1       6.607   2.689  -1.296  1.00  0.00    -0.275 OA
ATOM     60  H   UNL     1       4.342   2.842   0.932  1.00  0.00     0.164 HD
BRANCH  58  61
ATOM     61  C   UNL     1       5.569   0.864  -0.080  1.00  0.00     0.100 C 
BRANCH  61  62
ATOM     62  C   UNL     1       6.805  -0.015  -0.278  1.00  0.00     0.010 C 
BRANCH  62  63
ATOM     63  C   UNL     1       7.713  -0.106   0.955  1.00  0.00     0.000 C 
BRANCH  63  64
ATOM     64  C   UNL     1       9.113   0.471   0.745  1.00  0.00    -0.003 C 
ATOM     65  C   UNL     1       9.999   0.231   1.959  1.00  0.00     0.004 C 
ENDBRANCH  63  64
ENDBRANCH  62  63
ENDBRANCH  61  62
ENDBRANCH  58  61
ENDBRANCH  56  57
BRANCH  56  66
ATOM     66  C   UNL     1       4.494   5.397   1.218  1.00  0.00     0.157 C 
BRANCH  66  67
ATOM     67  C   UNL     1       3.647   4.517   2.091  1.00  0.00     0.305 C 
ATOM     68  O   UNL     1       3.967   4.017   3.159  1.00  0.00    -0.252 OA
BRANCH  67  69
ATOM     69  O   UNL     1       2.405   4.350   1.597  1.00  0.00    -0.481 OA
ATOM     70  H   UNL     1       2.105   5.254   1.364  1.00  0.00     0.296 HD
ENDBRANCH  67  69
ENDBRANCH  66  67
ENDBRANCH  56  66
ENDBRANCH  53  56
ENDBRANCH  50  52
ENDBRANCH  47  50
ENDBRANCH  45  46
BRANCH  45  71
ATOM     71  C   UNL     1       3.835   4.006  -7.446  1.00  0.00     0.037 C 
BRANCH  71  72
ATOM     72  C   UNL     1       2.984   5.260  -7.655  1.00  0.00     0.026 C 
BRANCH  72  73
ATOM     73  C   UNL     1       3.845   6.521  -7.698  1.00  0.00     0.146 C 
BRANCH  73  74
ATOM     74  N   UNL     1       5.240   6.115  -7.557  1.00  0.00    -0.254 NA
ATOM     75  C   UNL     1       5.863   6.470  -6.495  1.00  0.00     0.185 C 
ATOM     76  N   UNL     1       7.147   6.110  -6.336  1.00  0.00    -0.370 N 
ATOM     77  N   UNL     1       5.412   7.188  -5.451  1.00  0.00    -0.370 N 
ATOM     78  H   UNL     1       7.567   5.573  -7.081  1.00  0.00     0.159 HD
ATOM     79  H   UNL     1       7.737   6.471  -5.607  1.00  0.00     0.159 HD
ATOM     80  H   UNL     1       4.461   7.523  -5.431  1.00  0.00     0.159 HD
ATOM     81  H   UNL     1       5.962   7.307  -4.616  1.00  0.00     0.159 HD
ENDBRANCH  73  74
ENDBRANCH  72  73
ENDBRANCH  71  72
ENDBRANCH  45  71
ENDBRANCH   3  45
TORSDOF 20
ENDMDL
MODEL 9
REMARK VINA RESULT:    -3.292      3.545      9.451
REMARK INTER + INTRA:         -16.950
REMARK INTER:                 -11.570
REMARK INTRA:                  -5.380
REMARK UNBOUND:                -7.501
REMARK SMILES CCCCCC(=O)N[C@H](CC(=O)O)C(=O)N[C@H]1C(=O)N[C@H](CCCN=C(N)N)C(=O)N[C@@H]2CC[C@H](O)N(C2=O)[C@@H](CC(C)C)C(=O)N(C)[C@@H](Cc2ccccc2)C(=O)N[C@H](C(C)C)C(=O)O[C@@H]1C
REMARK SMILES IDX 30 1 31 2 29 3 32 5 35 6 37 7 34 8 38 9 33 10 39 11 36 12
REMARK SMILES IDX 40 14 41 15 42 16 43 17 44 18 45 19 46 20 47 21 48 22 49 23
REMARK SMILES IDX 50 24 51 25 52 26 56 27 53 28 55 29 54 30 57 31 58 32 59 33
REMARK SMILES IDX 60 35 61 36 62 37 63 38 64 39 65 40 66 41 67 42 68 43 21 45
REMARK SMILES IDX 20 46 18 47 19 48 17 50 16 52 14 53 15 54 9 56 8 57 6 58
REMARK SMILES IDX 7 59 5 61 4 62 3 63 2 64 1 65 10 66 11 67 12 68 13 69 22 71
REMARK SMILES IDX 23 72 24 73 25 74 26 75 27 76 28 77
REMARK H PARENT 31 4 36 13 59 34 20 49 16 55 8 60 13 70 27 78 27 79 28 80
REMARK H PARENT 28 81
REMARK Flexibility Score:  259.900
ROOT
ATOM      1  O   UNL     1       5.617   3.388  -3.055  1.00  0.00    -0.273 OA
ATOM      2  N   UNL     1       4.528   4.992  -4.268  1.00  0.00    -0.343 N 
ATOM      3  C   UNL     1       4.561   3.881  -3.453  1.00  0.00     0.243 C 
ATOM      4  H   UNL     1       3.640   5.380  -4.564  1.00  0.00     0.164 HD
ENDROOT
BRANCH   2   5
ATOM      5  C   UNL     1       5.762   5.564  -4.795  1.00  0.00     0.171 C 
ATOM      6  C   UNL     1       6.356   8.071  -6.124  1.00  0.00     0.214 C 
ATOM      7  N   UNL     1       6.007   6.913  -6.914  1.00  0.00    -0.303 N 
ATOM      8  C   UNL     1       7.054   7.721  -4.820  1.00  0.00     0.057 C 
ATOM      9  C   UNL     1       5.663   5.699  -6.341  1.00  0.00     0.247 C 
ATOM     10  C   UNL     1       6.177   6.801  -3.999  1.00  0.00     0.040 C 
ATOM     11  O   UNL     1       5.282   4.737  -7.021  1.00  0.00    -0.272 OA
BRANCH   6  12
ATOM     12  O   UNL     1       5.172   8.791  -5.871  1.00  0.00    -0.373 OA
ATOM     13  H   UNL     1       5.088   9.464  -6.580  1.00  0.00     0.213 HD
ENDBRANCH   6  12
BRANCH   7  14
ATOM     14  C   UNL     1       5.886   7.109  -8.374  1.00  0.00     0.177 C 
BRANCH  14  15
ATOM     15  C   UNL     1       5.127   8.379  -8.805  1.00  0.00     0.038 C 
BRANCH  15  16
ATOM     16  C   UNL     1       3.649   8.271  -9.241  1.00  0.00    -0.015 C 
ATOM     17  C   UNL     1       2.792   7.520  -8.218  1.00  0.00     0.007 C 
ATOM     18  C   UNL     1       3.556   7.531 -10.581  1.00  0.00     0.007 C 
ENDBRANCH  15  16
ENDBRANCH  14  15
BRANCH  14  19
ATOM     19  C   UNL     1       7.131   6.503  -9.109  1.00  0.00     0.245 C 
ATOM     20  O   UNL     1       8.244   6.736  -8.608  1.00  0.00    -0.272 OA
BRANCH  19  21
ATOM     21  N   UNL     1       7.063   5.836 -10.320  1.00  0.00    -0.332 N 
ATOM     22  C   UNL     1       6.983   6.466 -11.626  1.00  0.00     0.147 C 
BRANCH  21  23
ATOM     23  C   UNL     1       7.061   4.347 -10.294  1.00  0.00     0.178 C 
BRANCH  23  24
ATOM     24  C   UNL     1       7.876   3.720  -9.144  1.00  0.00     0.070 C 
BRANCH  24  25
ATOM     25  C   UNL     1       8.030   2.217  -9.151  1.00  0.00    -0.045 A 
ATOM     26  C   UNL     1       7.954   1.483  -7.960  1.00  0.00     0.004 A 
ATOM     27  C   UNL     1       8.257   1.534 -10.355  1.00  0.00     0.004 A 
ATOM     28  C   UNL     1       8.114   0.096  -7.972  1.00  0.00     0.000 A 
ATOM     29  C   UNL     1       8.416   0.147 -10.365  1.00  0.00     0.000 A 
ATOM     30  C   UNL     1       8.348  -0.570  -9.173  1.00  0.00     0.000 A 
ENDBRANCH  24  25
ENDBRANCH  23  24
BRANCH  23  31
ATOM     31  C   UNL     1       5.652   3.742 -10.500  1.00  0.00     0.243 C 
ATOM     32  O   UNL     1       4.986   3.885 -11.522  1.00  0.00    -0.273 OA
ATOM     33  N   UNL     1       5.121   3.175  -9.354  1.00  0.00    -0.341 N 
ATOM     34  H   UNL     1       5.723   3.089  -8.531  1.00  0.00     0.164 HD
BRANCH  33  35
ATOM     35  C   UNL     1       3.756   2.647  -9.283  1.00  0.00     0.194 C 
BRANCH  35  36
ATOM     36  C   UNL     1       3.448   1.538 -10.328  1.00  0.00     0.017 C 
ATOM     37  C   UNL     1       2.211   0.718  -9.925  1.00  0.00     0.010 C 
ATOM     38  C   UNL     1       4.608   0.553 -10.523  1.00  0.00     0.010 C 
ENDBRANCH  35  36
BRANCH  35  39
ATOM     39  C   UNL     1       2.680   3.769  -9.294  1.00  0.00     0.329 C 
ATOM     40  O   UNL     1       2.225   4.274 -10.314  1.00  0.00    -0.250 OA
BRANCH  39  41
ATOM     41  O   UNL     1       2.231   4.072  -8.038  1.00  0.00    -0.458 OA
BRANCH  41  42
ATOM     42  C   UNL     1       1.254   3.167  -7.471  1.00  0.00     0.205 CG0
ATOM     43  C   UNL     1       0.064   3.126  -8.428  1.00  0.00     0.056 C 
ATOM     44  G   UNL     1       0.866   3.678  -6.069  1.00  0.00     0.000 G0
ENDBRANCH  41  42
ENDBRANCH  39  41
ENDBRANCH  35  39
ENDBRANCH  33  35
ENDBRANCH  23  31
ENDBRANCH  21  23
ENDBRANCH  19  21
ENDBRANCH  14  19
ENDBRANCH   7  14
ENDBRANCH   2   5
BRANCH   3  45
ATOM     45  C   UNL     1       3.190   3.315  -3.058  1.00  0.00     0.171 C 
BRANCH  45  46
ATOM     46  N   UNL     1       2.258   3.801  -4.067  1.00  0.00    -0.342 N 
ATOM     47  C   UNL     1       1.680   2.971  -4.995  1.00  0.00     0.247 C 
ATOM     48  O   UNL     1       1.848   1.751  -4.997  1.00  0.00    -0.273 OA
ATOM     49  H   UNL     1       2.047   4.797  -4.065  1.00  0.00     0.164 HD
BRANCH  47  50
ATOM     50  C   UNL     1       0.824   3.678  -6.055  1.00  0.00     0.212 CG0
ATOM     51  G   UNL     1       1.251   3.141  -7.435  1.00  0.00     0.000 G0
BRANCH  50  52
ATOM     52  N   UNL     1      -0.560   3.359  -5.714  1.00  0.00    -0.339 N 
ATOM     53  C   UNL     1      -1.291   4.062  -4.787  1.00  0.00     0.243 C 
ATOM     54  O   UNL     1      -0.817   4.986  -4.132  1.00  0.00    -0.273 OA
ATOM     55  H   UNL     1      -0.974   2.534  -6.143  1.00  0.00     0.164 HD
BRANCH  53  56
ATOM     56  C   UNL     1      -2.700   3.487  -4.533  1.00  0.00     0.182 C 
BRANCH  56  57
ATOM     57  N   UNL     1      -2.938   2.296  -5.354  1.00  0.00    -0.344 N 
ATOM     58  C   UNL     1      -3.357   1.103  -4.816  1.00  0.00     0.220 C 
ATOM     59  O   UNL     1      -3.490   0.930  -3.609  1.00  0.00    -0.275 OA
ATOM     60  H   UNL     1      -2.938   2.424  -6.362  1.00  0.00     0.164 HD
BRANCH  58  61
ATOM     61  C   UNL     1      -3.597   0.025  -5.857  1.00  0.00     0.100 C 
BRANCH  61  62
ATOM     62  C   UNL     1      -3.592   0.545  -7.295  1.00  0.00     0.010 C 
BRANCH  62  63
ATOM     63  C   UNL     1      -3.697  -0.554  -8.359  1.00  0.00     0.000 C 
BRANCH  63  64
ATOM     64  C   UNL     1      -2.651  -0.453  -9.469  1.00  0.00    -0.003 C 
ATOM     65  C   UNL     1      -1.257  -0.772  -8.949  1.00  0.00     0.004 C 
ENDBRANCH  63  64
ENDBRANCH  62  63
ENDBRANCH  61  62
ENDBRANCH  58  61
ENDBRANCH  56  57
BRANCH  56  66
ATOM     66  C   UNL     1      -3.781   4.548  -4.728  1.00  0.00     0.157 C 
BRANCH  66  67
ATOM     67  C   UNL     1      -4.085   4.754  -6.184  1.00  0.00     0.305 C 
ATOM     68  O   UNL     1      -3.566   5.569  -6.932  1.00  0.00    -0.252 OA
BRANCH  67  69
ATOM     69  O   UNL     1      -4.999   3.880  -6.645  1.00  0.00    -0.481 OA
ATOM     70  H   UNL     1      -4.507   3.312  -7.276  1.00  0.00     0.296 HD
ENDBRANCH  67  69
ENDBRANCH  66  67
ENDBRANCH  56  66
ENDBRANCH  53  56
ENDBRANCH  50  52
ENDBRANCH  47  50
ENDBRANCH  45  46
BRANCH  45  71
ATOM     71  C   UNL     1       2.801   3.790  -1.653  1.00  0.00     0.037 C 
BRANCH  71  72
ATOM     72  C   UNL     1       1.763   4.914  -1.693  1.00  0.00     0.026 C 
BRANCH  72  73
ATOM     73  C   UNL     1       2.035   5.966  -0.619  1.00  0.00     0.146 C 
BRANCH  73  74
ATOM     74  N   UNL     1       0.843   6.800  -0.498  1.00  0.00    -0.254 NA
ATOM     75  C   UNL     1       0.953   8.046  -0.776  1.00  0.00     0.185 C 
ATOM     76  N   UNL     1      -0.126   8.839  -0.675  1.00  0.00    -0.370 N 
ATOM     77  N   UNL     1       2.039   8.730  -1.178  1.00  0.00    -0.370 N 
ATOM     78  H   UNL     1      -0.986   8.404  -0.371  1.00  0.00     0.159 HD
ATOM     79  H   UNL     1      -0.085   9.841  -0.735  1.00  0.00     0.159 HD
ATOM     80  H   UNL     1       2.924   8.261  -1.301  1.00  0.00     0.159 HD
ATOM     81  H   UNL     1       1.979   9.688  -1.479  1.00  0.00     0.159 HD
ENDBRANCH  73  74
ENDBRANCH  72  73
ENDBRANCH  71  72
ENDBRANCH  45  71
ENDBRANCH   3  45
TORSDOF 20
ENDMDL
MODEL 10
REMARK VINA RESULT:    -3.049      3.914      8.382
REMARK INTER + INTRA:         -16.254
REMARK INTER:                 -10.533
REMARK INTRA:                  -5.722
REMARK UNBOUND:                -7.501
REMARK SMILES CCCCCC(=O)N[C@H](CC(=O)O)C(=O)N[C@H]1C(=O)N[C@H](CCCN=C(N)N)C(=O)N[C@@H]2CC[C@H](O)N(C2=O)[C@@H](CC(C)C)C(=O)N(C)[C@@H](Cc2ccccc2)C(=O)N[C@H](C(C)C)C(=O)O[C@@H]1C
REMARK SMILES IDX 30 1 31 2 29 3 32 5 35 6 37 7 34 8 38 9 33 10 39 11 36 12
REMARK SMILES IDX 40 14 41 15 42 16 43 17 44 18 45 19 46 20 47 21 48 22 49 23
REMARK SMILES IDX 50 24 51 25 52 26 56 27 53 28 55 29 54 30 57 31 58 32 59 33
REMARK SMILES IDX 60 35 61 36 62 37 63 38 64 39 65 40 66 41 67 42 68 43 21 45
REMARK SMILES IDX 20 46 18 47 19 48 17 50 16 52 14 53 15 54 9 56 8 57 6 58
REMARK SMILES IDX 7 59 5 61 4 62 3 63 2 64 1 65 10 66 11 67 12 68 13 69 22 71
REMARK SMILES IDX 23 72 24 73 25 74 26 75 27 76 28 77
REMARK H PARENT 31 4 36 13 59 34 20 49 16 55 8 60 13 70 27 78 27 79 28 80
REMARK H PARENT 28 81
REMARK Flexibility Score:  259.900
ROOT
ATOM      1  O   UNL     1       1.639   1.243  -7.783  1.00  0.00    -0.273 OA
ATOM      2  N   UNL     1       2.129   2.735  -9.445  1.00  0.00    -0.343 N 
ATOM      3  C   UNL     1       2.335   2.166  -8.207  1.00  0.00     0.243 C 
ATOM      4  H   UNL     1       2.731   3.483  -9.767  1.00  0.00     0.164 HD
ENDROOT
BRANCH   2   5
ATOM      5  C   UNL     1       0.988   2.340 -10.263  1.00  0.00     0.171 C 
ATOM      6  C   UNL     1      -0.285   3.547 -12.571  1.00  0.00     0.214 C 
ATOM      7  N   UNL     1      -0.757   3.876 -11.246  1.00  0.00    -0.303 N 
ATOM      8  C   UNL     1       0.294   2.145 -12.672  1.00  0.00     0.057 C 
ATOM      9  C   UNL     1      -0.161   3.376 -10.100  1.00  0.00     0.247 C 
ATOM     10  C   UNL     1       1.428   1.986 -11.683  1.00  0.00     0.040 C 
ATOM     11  O   UNL     1      -0.516   3.730  -8.968  1.00  0.00    -0.272 OA
BRANCH   6  12
ATOM     12  O   UNL     1       0.680   4.506 -12.935  1.00  0.00    -0.373 OA
ATOM     13  H   UNL     1       0.493   4.764 -13.863  1.00  0.00     0.213 HD
ENDBRANCH   6  12
BRANCH   7  14
ATOM     14  C   UNL     1      -1.822   4.897 -11.149  1.00  0.00     0.177 C 
BRANCH  14  15
ATOM     15  C   UNL     1      -1.448   6.289 -11.694  1.00  0.00     0.038 C 
BRANCH  15  16
ATOM     16  C   UNL     1      -1.075   7.418 -10.707  1.00  0.00    -0.015 C 
ATOM     17  C   UNL     1      -1.005   8.789 -11.387  1.00  0.00     0.007 C 
ATOM     18  C   UNL     1       0.292   7.124 -10.076  1.00  0.00     0.007 C 
ENDBRANCH  15  16
ENDBRANCH  14  15
BRANCH  14  19
ATOM     19  C   UNL     1      -3.233   4.224 -11.270  1.00  0.00     0.245 C 
ATOM     20  O   UNL     1      -3.593   3.882 -12.408  1.00  0.00    -0.272 OA
BRANCH  19  21
ATOM     21  N   UNL     1      -4.120   4.100 -10.216  1.00  0.00    -0.332 N 
ATOM     22  C   UNL     1      -4.942   5.168  -9.675  1.00  0.00     0.147 C 
BRANCH  21  23
ATOM     23  C   UNL     1      -4.246   2.766  -9.566  1.00  0.00     0.178 C 
BRANCH  23  24
ATOM     24  C   UNL     1      -3.491   1.626 -10.280  1.00  0.00     0.070 C 
BRANCH  24  25
ATOM     25  C   UNL     1      -3.333   0.326  -9.526  1.00  0.00    -0.045 A 
ATOM     26  C   UNL     1      -4.362  -0.625  -9.512  1.00  0.00     0.004 A 
ATOM     27  C   UNL     1      -2.151   0.056  -8.821  1.00  0.00     0.004 A 
ATOM     28  C   UNL     1      -4.215  -1.816  -8.798  1.00  0.00     0.000 A 
ATOM     29  C   UNL     1      -2.005  -1.136  -8.109  1.00  0.00     0.000 A 
ATOM     30  C   UNL     1      -3.039  -2.070  -8.096  1.00  0.00     0.000 A 
ENDBRANCH  24  25
ENDBRANCH  23  24
BRANCH  23  31
ATOM     31  C   UNL     1      -4.045   2.820  -8.033  1.00  0.00     0.243 C 
ATOM     32  O   UNL     1      -4.879   2.437  -7.217  1.00  0.00    -0.273 OA
ATOM     33  N   UNL     1      -2.910   3.513  -7.648  1.00  0.00    -0.341 N 
ATOM     34  H   UNL     1      -2.255   3.813  -8.374  1.00  0.00     0.164 HD
BRANCH  33  35
ATOM     35  C   UNL     1      -2.581   3.793  -6.247  1.00  0.00     0.194 C 
BRANCH  35  36
ATOM     36  C   UNL     1      -2.622   5.302  -5.874  1.00  0.00     0.017 C 
ATOM     37  C   UNL     1      -3.937   5.667  -5.165  1.00  0.00     0.010 C 
ATOM     38  C   UNL     1      -2.482   6.228  -7.088  1.00  0.00     0.010 C 
ENDBRANCH  35  36
BRANCH  35  39
ATOM     39  C   UNL     1      -1.253   3.120  -5.800  1.00  0.00     0.329 C 
ATOM     40  O   UNL     1      -1.075   1.908  -5.768  1.00  0.00    -0.250 OA
BRANCH  39  41
ATOM     41  O   UNL     1      -0.273   4.034  -5.527  1.00  0.00    -0.458 OA
BRANCH  41  42
ATOM     42  C   UNL     1       0.348   3.938  -4.223  1.00  0.00     0.205 CG0
ATOM     43  C   UNL     1      -0.422   4.863  -3.284  1.00  0.00     0.056 C 
ATOM     44  G   UNL     1       1.832   4.335  -4.355  1.00  0.00     0.000 G0
ENDBRANCH  41  42
ENDBRANCH  39  41
ENDBRANCH  35  39
ENDBRANCH  33  35
ENDBRANCH  23  31
ENDBRANCH  21  23
ENDBRANCH  19  21
ENDBRANCH  14  19
ENDBRANCH   7  14
ENDBRANCH   2   5
BRANCH   3  45
ATOM     45  C   UNL     1       3.505   2.748  -7.402  1.00  0.00     0.171 C 
BRANCH  45  46
ATOM     46  N   UNL     1       2.906   3.665  -6.442  1.00  0.00    -0.342 N 
ATOM     47  C   UNL     1       2.579   3.283  -5.165  1.00  0.00     0.247 C 
ATOM     48  O   UNL     1       2.833   2.165  -4.715  1.00  0.00    -0.273 OA
ATOM     49  H   UNL     1       2.730   4.617  -6.755  1.00  0.00     0.164 HD
BRANCH  47  50
ATOM     50  C   UNL     1       1.843   4.347  -4.338  1.00  0.00     0.212 CG0
ATOM     51  G   UNL     1       0.360   3.931  -4.254  1.00  0.00     0.000 G0
BRANCH  50  52
ATOM     52  N   UNL     1       2.511   4.362  -3.039  1.00  0.00    -0.339 N 
ATOM     53  C   UNL     1       3.477   5.277  -2.698  1.00  0.00     0.243 C 
ATOM     54  O   UNL     1       3.892   6.126  -3.482  1.00  0.00    -0.273 OA
ATOM     55  H   UNL     1       2.290   3.614  -2.385  1.00  0.00     0.164 HD
BRANCH  53  56
ATOM     56  C   UNL     1       4.100   5.042  -1.307  1.00  0.00     0.182 C 
BRANCH  56  57
ATOM     57  N   UNL     1       5.320   4.234  -1.406  1.00  0.00    -0.344 N 
ATOM     58  C   UNL     1       6.575   4.779  -1.289  1.00  0.00     0.220 C 
ATOM     59  O   UNL     1       6.767   5.984  -1.167  1.00  0.00    -0.275 OA
ATOM     60  H   UNL     1       5.204   3.224  -1.405  1.00  0.00     0.164 HD
BRANCH  58  61
ATOM     61  C   UNL     1       7.687   3.749  -1.366  1.00  0.00     0.100 C 
BRANCH  61  62
ATOM     62  C   UNL     1       8.187   3.279   0.000  1.00  0.00     0.010 C 
BRANCH  62  63
ATOM     63  C   UNL     1       7.531   1.985   0.498  1.00  0.00     0.000 C 
BRANCH  63  64
ATOM     64  C   UNL     1       7.099   1.033  -0.616  1.00  0.00    -0.003 C 
ATOM     65  C   UNL     1       6.007   0.084  -0.143  1.00  0.00     0.004 C 
ENDBRANCH  63  64
ENDBRANCH  62  63
ENDBRANCH  61  62
ENDBRANCH  58  61
ENDBRANCH  56  57
BRANCH  56  66
ATOM     66  C   UNL     1       3.088   4.440  -0.334  1.00  0.00     0.157 C 
BRANCH  66  67
ATOM     67  C   UNL     1       2.339   5.513   0.404  1.00  0.00     0.305 C 
ATOM     68  O   UNL     1       2.448   6.720   0.251  1.00  0.00    -0.252 OA
BRANCH  67  69
ATOM     69  O   UNL     1       1.442   5.006   1.271  1.00  0.00    -0.481 OA
ATOM     70  H   UNL     1       1.568   5.526   2.093  1.00  0.00     0.296 HD
ENDBRANCH  67  69
ENDBRANCH  66  67
ENDBRANCH  56  66
ENDBRANCH  53  56
ENDBRANCH  50  52
ENDBRANCH  47  50
ENDBRANCH  45  46
BRANCH  45  71
ATOM     71  C   UNL     1       4.488   3.466  -8.333  1.00  0.00     0.037 C 
BRANCH  71  72
ATOM     72  C   UNL     1       5.662   4.082  -7.567  1.00  0.00     0.026 C 
BRANCH  72  73
ATOM     73  C   UNL     1       5.889   3.378  -6.231  1.00  0.00     0.146 C 
BRANCH  73  74
ATOM     74  N   UNL     1       7.180   2.700  -6.298  1.00  0.00    -0.254 NA
ATOM     75  C   UNL     1       8.172   3.238  -5.688  1.00  0.00     0.185 C 
ATOM     76  N   UNL     1       9.372   2.637  -5.730  1.00  0.00    -0.370 N 
ATOM     77  N   UNL     1       8.207   4.374  -4.970  1.00  0.00    -0.370 N 
ATOM     78  H   UNL     1       9.435   1.778  -6.257  1.00  0.00     0.159 HD
ATOM     79  H   UNL     1      10.219   3.068  -5.403  1.00  0.00     0.159 HD
ATOM     80  H   UNL     1       7.374   4.931  -4.849  1.00  0.00     0.159 HD
ATOM     81  H   UNL     1       9.020   4.638  -4.439  1.00  0.00     0.159 HD
ENDBRANCH  73  74
ENDBRANCH  72  73
ENDBRANCH  71  72
ENDBRANCH  45  71
ENDBRANCH   3  45
TORSDOF 20
ENDMDL
