MODEL 1
REMARK VINA RESULT:    -3.210      0.000      0.000
REMARK INTER + INTRA:          -4.532
REMARK INTER:                  -5.463
REMARK INTRA:                   0.930
REMARK UNBOUND:                 0.930
REMARK SMILES CC[C@H](C)[C@@H]1NC(=O)[C@H]2CSC(=N2)[C@@H]([C@@H](C)CC)NC(=O)c2csc(n2)CNC(=O)[C@H]2N=C1O[C@@H]2C
REMARK SMILES IDX 27 1 25 2 22 3 26 4 23 5 24 6 20 7 19 8 21 9 14 11 12 12
REMARK SMILES IDX 11 13 10 14 13 15 9 16 15 18 16 19 17 20 18 21 28 22 29 23
REMARK SMILES IDX 30 24 31 26 32 27 35 28 33 29 34 30 36 31 5 32 6 33 7 34
REMARK SMILES IDX 8 35 3 38 4 39 2 40 1 41
REMARK H PARENT 19 10 28 25 6 36
REMARK Flexibility Score:   91.900
ROOT
ATOM      1  C   UNL     1       2.500  -6.710 -13.699  1.00  0.00     0.183 C 
ENDROOT
BRANCH   1   2
ATOM      2  C   UNL     1       1.309  -6.043 -13.074  1.00  0.00     0.113 A 
ATOM      3  C   UNL     1       0.037  -5.079 -11.518  1.00  0.00     0.139 A 
ATOM      4  N   UNL     1       1.316  -5.520 -11.861  1.00  0.00    -0.234 NA
ATOM      5  C   UNL     1      -0.906  -5.229 -12.516  1.00  0.00     0.101 A 
ATOM      6  S   UNL     1      -0.194  -5.955 -13.899  1.00  0.00    -0.125 S 
BRANCH   3   7
ATOM      7  C   UNL     1      -0.222  -4.551 -10.177  1.00  0.00     0.271 C 
ATOM      8  N   UNL     1       0.421  -3.354  -9.972  1.00  0.00    -0.341 N 
ATOM      9  O   UNL     1      -0.900  -5.128  -9.337  1.00  0.00    -0.267 OA
ATOM     10  H   UNL     1       0.930  -2.985 -10.774  1.00  0.00     0.164 HD
BRANCH   8  11
ATOM     11  C   UNL     1       0.507  -2.683  -8.686  1.00  0.00     0.140 C 
BRANCH  11  12
ATOM     12  C   UNL     1       1.832  -1.916  -8.644  1.00  0.00     0.091 C 
ATOM     13  S   UNL     1       2.238  -0.777  -9.905  1.00  0.00    -0.106 SA
ATOM     14  C   UNL     1       3.617  -0.157  -8.918  1.00  0.00     0.113 C 
ATOM     15  N   UNL     1       2.722  -2.134  -7.727  1.00  0.00    -0.267 NA
ATOM     16  C   UNL     1       3.950  -1.323  -8.001  1.00  0.00     0.205 CG0
ATOM     17  G   UNL     1       5.058  -2.196  -8.612  1.00  0.00     0.000 G0
ENDBRANCH  11  12
BRANCH  11  18
ATOM     18  C   UNL     1      -0.765  -1.881  -8.307  1.00  0.00     0.015 C 
ATOM     19  C   UNL     1      -1.408  -2.464  -7.041  1.00  0.00     0.010 C 
BRANCH  18  20
ATOM     20  C   UNL     1      -0.555  -0.359  -8.183  1.00  0.00     0.002 C 
ATOM     21  C   UNL     1      -1.692   0.341  -7.447  1.00  0.00     0.004 C 
ENDBRANCH  18  20
ENDBRANCH  11  18
ENDBRANCH   8  11
ENDBRANCH   3   7
ENDBRANCH   1   2
BRANCH   1  22
ATOM     22  N   UNL     1       3.447  -6.985 -12.641  1.00  0.00    -0.348 N 
ATOM     23  C   UNL     1       3.973  -6.042 -11.801  1.00  0.00     0.249 C 
ATOM     24  O   UNL     1       3.625  -4.867 -11.808  1.00  0.00    -0.272 OA
ATOM     25  H   UNL     1       3.821  -7.930 -12.560  1.00  0.00     0.163 HD
BRANCH  23  26
ATOM     26  C   UNL     1       4.995  -6.627 -10.815  1.00  0.00     0.238 C 
ATOM     27  N   UNL     1       5.999  -5.582 -10.470  1.00  0.00    -0.236 NA
ATOM     28  C   UNL     1       4.352  -7.024  -9.497  1.00  0.00     0.206 C 
ATOM     29  C   UNL     1       5.736  -5.317  -9.225  1.00  0.00     0.208 C 
ATOM     30  O   UNL     1       4.740  -5.988  -8.597  1.00  0.00    -0.474 OA
ATOM     31  C   UNL     1       4.877  -8.351  -8.967  1.00  0.00     0.056 C 
BRANCH  29  32
ATOM     32  C   UNL     1       6.415  -4.255  -8.364  1.00  0.00     0.171 C 
BRANCH  32  33
ATOM     33  N   UNL     1       5.447  -3.281  -7.883  1.00  0.00    -0.342 N 
ATOM     34  C   UNL     1       5.051  -2.198  -8.631  1.00  0.00     0.246 CG0
ATOM     35  O   UNL     1       5.501  -1.955  -9.748  1.00  0.00    -0.273 OA
ATOM     36  H   UNL     1       5.054  -3.349  -6.951  1.00  0.00     0.164 HD
ATOM     37  G   UNL     1       3.977  -1.322  -7.965  1.00  0.00     0.000 G0
ENDBRANCH  32  33
BRANCH  32  38
ATOM     38  C   UNL     1       7.213  -4.919  -7.212  1.00  0.00     0.017 C 
ATOM     39  C   UNL     1       6.412  -4.847  -5.906  1.00  0.00     0.010 C 
BRANCH  38  40
ATOM     40  C   UNL     1       7.646  -6.368  -7.535  1.00  0.00     0.002 C 
ATOM     41  C   UNL     1       7.426  -7.340  -6.384  1.00  0.00     0.004 C 
ENDBRANCH  38  40
ENDBRANCH  32  38
ENDBRANCH  29  32
ENDBRANCH  23  26
ENDBRANCH   1  22
TORSDOF 4
ENDMDL
