MODEL 1
REMARK VINA RESULT:    -6.292      0.000      0.000
REMARK INTER + INTRA:         -21.137
REMARK INTER:                 -15.671
REMARK INTRA:                  -5.466
REMARK UNBOUND:                -5.466
REMARK SMILES CCCCCCC[C@H](N)[C@H](O)C(=O)N[C@H](C)C(=O)N(C)[C@H](CC(C)C)C(=O)N[C@@H](Cc1ccc(O)cc1)C(=O)N[C@@H](Cc1ccc(O)cc1)C(=O)O
REMARK SMILES IDX 18 1 17 2 15 3 16 4 14 5 12 6 13 7 10 9 11 10 8 12 9 13 7 16
REMARK SMILES IDX 6 17 5 18 4 19 3 20 2 21 1 22 19 23 20 24 21 25 22 26 23 27
REMARK SMILES IDX 24 28 25 29 26 30 27 31 28 32 29 34 30 35 31 36 32 37 37 38
REMARK SMILES IDX 33 39 36 40 34 41 35 42 38 44 39 45 40 46 41 48 42 49 43 50
REMARK SMILES IDX 44 51 49 52 45 53 48 54 46 55 47 56 50 58 51 59 52 60
REMARK H PARENT 14 8 11 11 9 14 9 15 28 33 35 43 40 47 47 57 52 61
ROOT
ATOM      1  O   UNL     1       8.274  -1.440   3.844  1.00  0.00    -0.272 OA
ATOM      2  C   UNL     1       8.384  -1.751   5.039  1.00  0.00     0.245 C 
ENDROOT
BRANCH   2   3
ATOM      3  C   UNL     1       8.228  -0.644   6.111  1.00  0.00     0.168 C 
ATOM      4  C   UNL     1       9.578  -0.021   6.447  1.00  0.00     0.041 C 
BRANCH   3   5
ATOM      5  N   UNL     1       7.227   0.366   5.804  1.00  0.00    -0.342 N 
ATOM      6  C   UNL     1       5.878   0.082   5.817  1.00  0.00     0.251 C 
ATOM      7  O   UNL     1       5.424  -1.035   6.043  1.00  0.00    -0.272 OA
ATOM      8  H   UNL     1       7.484   1.322   5.567  1.00  0.00     0.164 HD
BRANCH   6   9
ATOM      9  C   UNL     1       5.005   1.329   5.604  1.00  0.00     0.219 C 
BRANCH   9  10
ATOM     10  O   UNL     1       5.512   2.481   6.288  1.00  0.00    -0.382 OA
ATOM     11  H   UNL     1       4.725   3.065   6.372  1.00  0.00     0.211 HD
ENDBRANCH   9  10
BRANCH   9  12
ATOM     12  C   UNL     1       4.750   1.645   4.107  1.00  0.00     0.089 C 
BRANCH  12  13
ATOM     13  N   UNL     1       5.686   0.837   3.292  1.00  0.00    -0.325 NA
ATOM     14  H   UNL     1       6.101   1.429   2.571  1.00  0.00     0.119 HD
ATOM     15  H   UNL     1       5.153   0.129   2.782  1.00  0.00     0.119 HD
ENDBRANCH  12  13
BRANCH  12  16
ATOM     16  C   UNL     1       3.299   1.442   3.609  1.00  0.00     0.022 C 
BRANCH  16  17
ATOM     17  C   UNL     1       2.472   0.278   4.172  1.00  0.00     0.002 C 
BRANCH  17  18
ATOM     18  C   UNL     1       2.727  -1.074   3.510  1.00  0.00     0.000 C 
BRANCH  18  19
ATOM     19  C   UNL     1       1.857  -1.337   2.273  1.00  0.00    -0.000 C 
BRANCH  19  20
ATOM     20  C   UNL     1       2.371  -0.714   0.972  1.00  0.00    -0.000 C 
BRANCH  20  21
ATOM     21  C   UNL     1       3.128  -1.709   0.089  1.00  0.00    -0.003 C 
ATOM     22  C   UNL     1       4.609  -1.742   0.434  1.00  0.00     0.004 C 
ENDBRANCH  20  21
ENDBRANCH  19  20
ENDBRANCH  18  19
ENDBRANCH  17  18
ENDBRANCH  16  17
ENDBRANCH  12  16
ENDBRANCH   9  12
ENDBRANCH   6   9
ENDBRANCH   3   5
ENDBRANCH   2   3
BRANCH   2  23
ATOM     23  N   UNL     1       8.521  -3.087   5.401  1.00  0.00    -0.332 N 
ATOM     24  C   UNL     1       7.611  -3.802   6.283  1.00  0.00     0.147 C 
BRANCH  23  25
ATOM     25  C   UNL     1       9.581  -3.929   4.780  1.00  0.00     0.174 C 
BRANCH  25  26
ATOM     26  C   UNL     1      10.934  -3.191   4.646  1.00  0.00     0.038 C 
BRANCH  26  27
ATOM     27  C   UNL     1      12.008  -3.498   5.714  1.00  0.00    -0.015 C 
ATOM     28  C   UNL     1      12.357  -4.985   5.781  1.00  0.00     0.007 C 
ATOM     29  C   UNL     1      13.272  -2.656   5.564  1.00  0.00     0.007 C 
ENDBRANCH  26  27
ENDBRANCH  25  26
BRANCH  25  30
ATOM     30  C   UNL     1       9.070  -4.534   3.453  1.00  0.00     0.243 C 
ATOM     31  O   UNL     1       8.349  -5.531   3.428  1.00  0.00    -0.273 OA
ATOM     32  N   UNL     1       9.478  -3.893   2.311  1.00  0.00    -0.342 N 
ATOM     33  H   UNL     1       9.956  -2.994   2.418  1.00  0.00     0.164 HD
BRANCH  32  34
ATOM     34  C   UNL     1       9.113  -4.342   0.965  1.00  0.00     0.175 C 
BRANCH  34  35
ATOM     35  C   UNL     1       8.620  -3.172   0.100  1.00  0.00     0.070 C 
BRANCH  35  36
ATOM     36  C   UNL     1       7.548  -3.583  -0.884  1.00  0.00    -0.045 A 
ATOM     37  C   UNL     1       6.914  -4.829  -0.752  1.00  0.00     0.007 A 
ATOM     38  C   UNL     1       7.188  -2.746  -1.948  1.00  0.00     0.007 A 
ATOM     39  C   UNL     1       5.934  -5.223  -1.662  1.00  0.00     0.046 A 
ATOM     40  C   UNL     1       6.208  -3.140  -2.861  1.00  0.00     0.046 A 
ATOM     41  C   UNL     1       5.588  -4.376  -2.708  1.00  0.00     0.115 A 
BRANCH  41  42
ATOM     42  O   UNL     1       4.627  -4.800  -3.578  1.00  0.00    -0.508 OA
ATOM     43  H   UNL     1       5.046  -5.380  -4.235  1.00  0.00     0.293 HD
ENDBRANCH  41  42
ENDBRANCH  35  36
ENDBRANCH  34  35
BRANCH  34  44
ATOM     44  C   UNL     1      10.343  -5.041   0.344  1.00  0.00     0.243 C 
ATOM     45  O   UNL     1      10.916  -6.007   0.840  1.00  0.00    -0.273 OA
ATOM     46  N   UNL     1      10.835  -4.397  -0.772  1.00  0.00    -0.341 N 
ATOM     47  H   UNL     1      10.395  -3.533  -1.077  1.00  0.00     0.164 HD
BRANCH  46  48
ATOM     48  C   UNL     1      12.034  -4.834  -1.491  1.00  0.00     0.196 C 
BRANCH  48  49
ATOM     49  C   UNL     1      11.974  -4.431  -2.974  1.00  0.00     0.072 C 
BRANCH  49  50
ATOM     50  C   UNL     1      10.666  -4.813  -3.629  1.00  0.00    -0.045 A 
ATOM     51  C   UNL     1      10.016  -3.903  -4.474  1.00  0.00     0.007 A 
ATOM     52  C   UNL     1      10.077  -6.061  -3.389  1.00  0.00     0.007 A 
ATOM     53  C   UNL     1       8.802  -4.239  -5.074  1.00  0.00     0.046 A 
ATOM     54  C   UNL     1       8.861  -6.397  -3.988  1.00  0.00     0.046 A 
ATOM     55  C   UNL     1       8.234  -5.483  -4.827  1.00  0.00     0.115 A 
BRANCH  55  56
ATOM     56  O   UNL     1       7.046  -5.772  -5.430  1.00  0.00    -0.508 OA
ATOM     57  H   UNL     1       7.040  -5.359  -6.308  1.00  0.00     0.293 HD
ENDBRANCH  55  56
ENDBRANCH  49  50
ENDBRANCH  48  49
BRANCH  48  58
ATOM     58  C   UNL     1      13.268  -4.202  -0.835  1.00  0.00     0.326 C 
ATOM     59  O   UNL     1      13.865  -4.598   0.153  1.00  0.00    -0.250 OA
BRANCH  58  60
ATOM     60  O   UNL     1      13.710  -3.089  -1.473  1.00  0.00    -0.480 OA
ATOM     61  H   UNL     1      13.745  -2.417  -0.758  1.00  0.00     0.296 HD
ENDBRANCH  58  60
ENDBRANCH  48  58
ENDBRANCH  46  48
ENDBRANCH  34  44
ENDBRANCH  32  34
ENDBRANCH  25  30
ENDBRANCH  23  25
ENDBRANCH   2  23
TORSDOF 28
ENDMDL
MODEL 2
REMARK VINA RESULT:    -6.185      2.952      8.288
REMARK INTER + INTRA:         -20.872
REMARK INTER:                 -15.776
REMARK INTRA:                  -5.096
REMARK UNBOUND:                -5.466
REMARK SMILES CCCCCCC[C@H](N)[C@H](O)C(=O)N[C@H](C)C(=O)N(C)[C@H](CC(C)C)C(=O)N[C@@H](Cc1ccc(O)cc1)C(=O)N[C@@H](Cc1ccc(O)cc1)C(=O)O
REMARK SMILES IDX 18 1 17 2 15 3 16 4 14 5 12 6 13 7 10 9 11 10 8 12 9 13 7 16
REMARK SMILES IDX 6 17 5 18 4 19 3 20 2 21 1 22 19 23 20 24 21 25 22 26 23 27
REMARK SMILES IDX 24 28 25 29 26 30 27 31 28 32 29 34 30 35 31 36 32 37 37 38
REMARK SMILES IDX 33 39 36 40 34 41 35 42 38 44 39 45 40 46 41 48 42 49 43 50
REMARK SMILES IDX 44 51 49 52 45 53 48 54 46 55 47 56 50 58 51 59 52 60
REMARK H PARENT 14 8 11 11 9 14 9 15 28 33 35 43 40 47 47 57 52 61
ROOT
ATOM      1  O   UNL     1       8.677  -7.321   4.063  1.00  0.00    -0.272 OA
ATOM      2  C   UNL     1       9.615  -7.352   4.874  1.00  0.00     0.245 C 
ENDROOT
BRANCH   2   3
ATOM      3  C   UNL     1      10.590  -8.555   4.833  1.00  0.00     0.168 C 
ATOM      4  C   UNL     1       9.866  -9.852   5.178  1.00  0.00     0.041 C 
BRANCH   3   5
ATOM      5  N   UNL     1      11.361  -8.675   3.605  1.00  0.00    -0.342 N 
ATOM      6  C   UNL     1      12.610  -8.105   3.471  1.00  0.00     0.251 C 
ATOM      7  O   UNL     1      13.141  -7.427   4.345  1.00  0.00    -0.272 OA
ATOM      8  H   UNL     1      11.009  -9.184   2.798  1.00  0.00     0.164 HD
BRANCH   6   9
ATOM      9  C   UNL     1      13.295  -8.480   2.147  1.00  0.00     0.219 C 
BRANCH   9  10
ATOM     10  O   UNL     1      12.941  -9.792   1.694  1.00  0.00    -0.382 OA
ATOM     11  H   UNL     1      13.061  -9.740   0.720  1.00  0.00     0.211 HD
ENDBRANCH   9  10
BRANCH   9  12
ATOM     12  C   UNL     1      13.072  -7.431   1.027  1.00  0.00     0.089 C 
BRANCH  12  13
ATOM     13  N   UNL     1      13.295  -6.083   1.598  1.00  0.00    -0.325 NA
ATOM     14  H   UNL     1      12.695  -5.411   1.116  1.00  0.00     0.119 HD
ATOM     15  H   UNL     1      14.251  -5.788   1.385  1.00  0.00     0.119 HD
ENDBRANCH  12  13
BRANCH  12  16
ATOM     16  C   UNL     1      13.922  -7.614  -0.253  1.00  0.00     0.022 C 
BRANCH  16  17
ATOM     17  C   UNL     1      13.267  -8.212  -1.506  1.00  0.00     0.002 C 
BRANCH  17  18
ATOM     18  C   UNL     1      13.334  -7.330  -2.751  1.00  0.00     0.000 C 
BRANCH  18  19
ATOM     19  C   UNL     1      12.957  -5.864  -2.498  1.00  0.00    -0.000 C 
BRANCH  19  20
ATOM     20  C   UNL     1      11.688  -5.387  -3.210  1.00  0.00    -0.000 C 
BRANCH  20  21
ATOM     21  C   UNL     1      10.439  -5.471  -2.330  1.00  0.00    -0.003 C 
ATOM     22  C   UNL     1      10.762  -5.155  -0.878  1.00  0.00     0.004 C 
ENDBRANCH  20  21
ENDBRANCH  19  20
ENDBRANCH  18  19
ENDBRANCH  17  18
ENDBRANCH  16  17
ENDBRANCH  12  16
ENDBRANCH   9  12
ENDBRANCH   6   9
ENDBRANCH   3   5
ENDBRANCH   2   3
BRANCH   2  23
ATOM     23  N   UNL     1       9.847  -6.266   5.711  1.00  0.00    -0.332 N 
ATOM     24  C   UNL     1       9.778  -6.314   7.164  1.00  0.00     0.147 C 
BRANCH  23  25
ATOM     25  C   UNL     1      10.321  -4.972   5.148  1.00  0.00     0.174 C 
BRANCH  25  26
ATOM     26  C   UNL     1      11.335  -4.251   6.067  1.00  0.00     0.038 C 
BRANCH  26  27
ATOM     27  C   UNL     1      12.774  -4.086   5.529  1.00  0.00    -0.015 C 
ATOM     28  C   UNL     1      12.805  -3.554   4.097  1.00  0.00     0.007 C 
ATOM     29  C   UNL     1      13.668  -3.244   6.435  1.00  0.00     0.007 C 
ENDBRANCH  26  27
ENDBRANCH  25  26
BRANCH  25  30
ATOM     30  C   UNL     1       9.115  -4.093   4.744  1.00  0.00     0.243 C 
ATOM     31  O   UNL     1       7.969  -4.358   5.104  1.00  0.00    -0.273 OA
ATOM     32  N   UNL     1       9.408  -3.010   3.956  1.00  0.00    -0.342 N 
ATOM     33  H   UNL     1      10.394  -2.778   3.817  1.00  0.00     0.164 HD
BRANCH  32  34
ATOM     34  C   UNL     1       8.388  -2.084   3.455  1.00  0.00     0.175 C 
BRANCH  34  35
ATOM     35  C   UNL     1       8.766  -0.624   3.751  1.00  0.00     0.070 C 
BRANCH  35  36
ATOM     36  C   UNL     1       9.810  -0.499   4.837  1.00  0.00    -0.045 A 
ATOM     37  C   UNL     1       9.444  -0.648   6.183  1.00  0.00     0.007 A 
ATOM     38  C   UNL     1      11.145  -0.211   4.522  1.00  0.00     0.007 A 
ATOM     39  C   UNL     1      10.397  -0.521   7.193  1.00  0.00     0.046 A 
ATOM     40  C   UNL     1      12.100  -0.082   5.533  1.00  0.00     0.046 A 
ATOM     41  C   UNL     1      11.717  -0.239   6.861  1.00  0.00     0.115 A 
BRANCH  41  42
ATOM     42  O   UNL     1      12.617  -0.120   7.878  1.00  0.00    -0.508 OA
ATOM     43  H   UNL     1      12.465   0.732   8.320  1.00  0.00     0.293 HD
ENDBRANCH  41  42
ENDBRANCH  35  36
ENDBRANCH  34  35
BRANCH  34  44
ATOM     44  C   UNL     1       8.211  -2.340   1.941  1.00  0.00     0.243 C 
ATOM     45  O   UNL     1       9.085  -2.151   1.099  1.00  0.00    -0.273 OA
ATOM     46  N   UNL     1       6.923  -2.682   1.589  1.00  0.00    -0.341 N 
ATOM     47  H   UNL     1       6.205  -2.711   2.310  1.00  0.00     0.164 HD
BRANCH  46  48
ATOM     48  C   UNL     1       6.498  -2.906   0.206  1.00  0.00     0.196 C 
BRANCH  48  49
ATOM     49  C   UNL     1       6.608  -4.390  -0.180  1.00  0.00     0.072 C 
BRANCH  49  50
ATOM     50  C   UNL     1       6.891  -4.589  -1.652  1.00  0.00    -0.045 A 
ATOM     51  C   UNL     1       7.327  -3.508  -2.432  1.00  0.00     0.007 A 
ATOM     52  C   UNL     1       6.706  -5.837  -2.260  1.00  0.00     0.007 A 
ATOM     53  C   UNL     1       7.579  -3.676  -3.794  1.00  0.00     0.046 A 
ATOM     54  C   UNL     1       6.957  -6.006  -3.623  1.00  0.00     0.046 A 
ATOM     55  C   UNL     1       7.393  -4.923  -4.379  1.00  0.00     0.115 A 
BRANCH  55  56
ATOM     56  O   UNL     1       7.648  -5.045  -5.713  1.00  0.00    -0.508 OA
ATOM     57  H   UNL     1       7.773  -4.156  -6.083  1.00  0.00     0.293 HD
ENDBRANCH  55  56
ENDBRANCH  49  50
ENDBRANCH  48  49
BRANCH  48  58
ATOM     58  C   UNL     1       5.044  -2.440   0.049  1.00  0.00     0.326 C 
ATOM     59  O   UNL     1       4.183  -2.931  -0.664  1.00  0.00    -0.250 OA
BRANCH  58  60
ATOM     60  O   UNL     1       4.732  -1.368   0.820  1.00  0.00    -0.480 OA
ATOM     61  H   UNL     1       3.821  -1.141   0.535  1.00  0.00     0.296 HD
ENDBRANCH  58  60
ENDBRANCH  48  58
ENDBRANCH  46  48
ENDBRANCH  34  44
ENDBRANCH  32  34
ENDBRANCH  25  30
ENDBRANCH  23  25
ENDBRANCH   2  23
TORSDOF 28
ENDMDL
MODEL 3
REMARK VINA RESULT:    -6.159      2.386      8.484
REMARK INTER + INTRA:         -20.805
REMARK INTER:                 -16.085
REMARK INTRA:                  -4.720
REMARK UNBOUND:                -5.466
REMARK SMILES CCCCCCC[C@H](N)[C@H](O)C(=O)N[C@H](C)C(=O)N(C)[C@H](CC(C)C)C(=O)N[C@@H](Cc1ccc(O)cc1)C(=O)N[C@@H](Cc1ccc(O)cc1)C(=O)O
REMARK SMILES IDX 18 1 17 2 15 3 16 4 14 5 12 6 13 7 10 9 11 10 8 12 9 13 7 16
REMARK SMILES IDX 6 17 5 18 4 19 3 20 2 21 1 22 19 23 20 24 21 25 22 26 23 27
REMARK SMILES IDX 24 28 25 29 26 30 27 31 28 32 29 34 30 35 31 36 32 37 37 38
REMARK SMILES IDX 33 39 36 40 34 41 35 42 38 44 39 45 40 46 41 48 42 49 43 50
REMARK SMILES IDX 44 51 49 52 45 53 48 54 46 55 47 56 50 58 51 59 52 60
REMARK H PARENT 14 8 11 11 9 14 9 15 28 33 35 43 40 47 47 57 52 61
ROOT
ATOM      1  O   UNL     1       8.793  -7.012   3.998  1.00  0.00    -0.272 OA
ATOM      2  C   UNL     1       9.953  -6.748   4.349  1.00  0.00     0.245 C 
ENDROOT
BRANCH   2   3
ATOM      3  C   UNL     1      11.064  -7.793   4.077  1.00  0.00     0.168 C 
ATOM      4  C   UNL     1      10.593  -9.194   4.451  1.00  0.00     0.041 C 
BRANCH   3   5
ATOM      5  N   UNL     1      11.629  -7.750   2.737  1.00  0.00    -0.342 N 
ATOM      6  C   UNL     1      12.938  -8.104   2.487  1.00  0.00     0.251 C 
ATOM      7  O   UNL     1      13.728  -8.435   3.365  1.00  0.00    -0.272 OA
ATOM      8  H   UNL     1      11.079  -7.457   1.933  1.00  0.00     0.164 HD
BRANCH   6   9
ATOM      9  C   UNL     1      13.273  -8.120   0.987  1.00  0.00     0.219 C 
BRANCH   9  10
ATOM     10  O   UNL     1      12.899  -9.347   0.351  1.00  0.00    -0.382 OA
ATOM     11  H   UNL     1      12.348  -9.800   1.027  1.00  0.00     0.211 HD
ENDBRANCH   9  10
BRANCH   9  12
ATOM     12  C   UNL     1      12.693  -6.903   0.220  1.00  0.00     0.089 C 
BRANCH  12  13
ATOM     13  N   UNL     1      13.143  -5.665   0.899  1.00  0.00    -0.325 NA
ATOM     14  H   UNL     1      13.951  -5.879   1.486  1.00  0.00     0.119 HD
ATOM     15  H   UNL     1      12.414  -5.361   1.549  1.00  0.00     0.119 HD
ENDBRANCH  12  13
BRANCH  12  16
ATOM     16  C   UNL     1      13.025  -6.832  -1.289  1.00  0.00     0.022 C 
BRANCH  16  17
ATOM     17  C   UNL     1      11.888  -6.597  -2.294  1.00  0.00     0.002 C 
BRANCH  17  18
ATOM     18  C   UNL     1      11.425  -5.147  -2.416  1.00  0.00     0.000 C 
BRANCH  18  19
ATOM     19  C   UNL     1      10.186  -4.959  -3.301  1.00  0.00    -0.000 C 
BRANCH  19  20
ATOM     20  C   UNL     1       9.488  -6.255  -3.726  1.00  0.00    -0.000 C 
BRANCH  20  21
ATOM     21  C   UNL     1       8.120  -6.015  -4.370  1.00  0.00    -0.003 C 
ATOM     22  C   UNL     1       7.058  -6.924  -3.769  1.00  0.00     0.004 C 
ENDBRANCH  20  21
ENDBRANCH  19  20
ENDBRANCH  18  19
ENDBRANCH  17  18
ENDBRANCH  16  17
ENDBRANCH  12  16
ENDBRANCH   9  12
ENDBRANCH   6   9
ENDBRANCH   3   5
ENDBRANCH   2   3
BRANCH   2  23
ATOM     23  N   UNL     1      10.257  -5.491   4.860  1.00  0.00    -0.332 N 
ATOM     24  C   UNL     1       9.926  -5.044   6.205  1.00  0.00     0.147 C 
BRANCH  23  25
ATOM     25  C   UNL     1      11.082  -4.538   4.068  1.00  0.00     0.174 C 
BRANCH  25  26
ATOM     26  C   UNL     1      11.605  -3.350   4.910  1.00  0.00     0.038 C 
BRANCH  26  27
ATOM     27  C   UNL     1      13.138  -3.196   5.026  1.00  0.00    -0.015 C 
ATOM     28  C   UNL     1      13.723  -2.321   3.918  1.00  0.00     0.007 C 
ATOM     29  C   UNL     1      13.596  -2.704   6.397  1.00  0.00     0.007 C 
ENDBRANCH  26  27
ENDBRANCH  25  26
BRANCH  25  30
ATOM     30  C   UNL     1      10.322  -4.108   2.792  1.00  0.00     0.243 C 
ATOM     31  O   UNL     1      10.898  -3.939   1.719  1.00  0.00    -0.273 OA
ATOM     32  N   UNL     1       8.972  -3.925   2.940  1.00  0.00    -0.342 N 
ATOM     33  H   UNL     1       8.547  -4.221   3.822  1.00  0.00     0.164 HD
BRANCH  32  34
ATOM     34  C   UNL     1       8.097  -3.492   1.846  1.00  0.00     0.175 C 
BRANCH  34  35
ATOM     35  C   UNL     1       7.362  -4.684   1.214  1.00  0.00     0.070 C 
BRANCH  35  36
ATOM     36  C   UNL     1       6.711  -4.336  -0.106  1.00  0.00    -0.045 A 
ATOM     37  C   UNL     1       7.427  -3.616  -1.074  1.00  0.00     0.007 A 
ATOM     38  C   UNL     1       5.385  -4.703  -0.372  1.00  0.00     0.007 A 
ATOM     39  C   UNL     1       6.831  -3.278  -2.289  1.00  0.00     0.046 A 
ATOM     40  C   UNL     1       4.786  -4.364  -1.588  1.00  0.00     0.046 A 
ATOM     41  C   UNL     1       5.516  -3.655  -2.537  1.00  0.00     0.115 A 
BRANCH  41  42
ATOM     42  O   UNL     1       4.969  -3.303  -3.735  1.00  0.00    -0.508 OA
ATOM     43  H   UNL     1       5.692  -3.125  -4.359  1.00  0.00     0.293 HD
ENDBRANCH  41  42
ENDBRANCH  35  36
ENDBRANCH  34  35
BRANCH  34  44
ATOM     44  C   UNL     1       7.115  -2.439   2.407  1.00  0.00     0.243 C 
ATOM     45  O   UNL     1       6.525  -1.607   1.723  1.00  0.00    -0.273 OA
ATOM     46  N   UNL     1       7.051  -2.426   3.784  1.00  0.00    -0.341 N 
ATOM     47  H   UNL     1       7.648  -3.058   4.312  1.00  0.00     0.164 HD
BRANCH  46  48
ATOM     48  C   UNL     1       6.242  -1.472   4.545  1.00  0.00     0.196 C 
BRANCH  48  49
ATOM     49  C   UNL     1       4.959  -2.128   5.081  1.00  0.00     0.072 C 
BRANCH  49  50
ATOM     50  C   UNL     1       3.709  -1.381   4.675  1.00  0.00    -0.045 A 
ATOM     51  C   UNL     1       3.506  -0.065   5.115  1.00  0.00     0.007 A 
ATOM     52  C   UNL     1       2.732  -1.991   3.877  1.00  0.00     0.007 A 
ATOM     53  C   UNL     1       2.351   0.629   4.757  1.00  0.00     0.046 A 
ATOM     54  C   UNL     1       1.574  -1.296   3.520  1.00  0.00     0.046 A 
ATOM     55  C   UNL     1       1.394   0.010   3.962  1.00  0.00     0.115 A 
BRANCH  55  56
ATOM     56  O   UNL     1       0.278   0.722   3.636  1.00  0.00    -0.508 OA
ATOM     57  H   UNL     1      -0.499   0.164   3.798  1.00  0.00     0.293 HD
ENDBRANCH  55  56
ENDBRANCH  49  50
ENDBRANCH  48  49
BRANCH  48  58
ATOM     58  C   UNL     1       7.074  -0.934   5.717  1.00  0.00     0.326 C 
ATOM     59  O   UNL     1       6.897  -1.143   6.906  1.00  0.00    -0.250 OA
BRANCH  58  60
ATOM     60  O   UNL     1       8.116  -0.156   5.329  1.00  0.00    -0.480 OA
ATOM     61  H   UNL     1       8.840  -0.432   5.931  1.00  0.00     0.296 HD
ENDBRANCH  58  60
ENDBRANCH  48  58
ENDBRANCH  46  48
ENDBRANCH  34  44
ENDBRANCH  32  34
ENDBRANCH  25  30
ENDBRANCH  23  25
ENDBRANCH   2  23
TORSDOF 28
ENDMDL
MODEL 4
REMARK VINA RESULT:    -6.126      2.593      5.464
REMARK INTER + INTRA:         -20.724
REMARK INTER:                 -15.903
REMARK INTRA:                  -4.821
REMARK UNBOUND:                -5.466
REMARK SMILES CCCCCCC[C@H](N)[C@H](O)C(=O)N[C@H](C)C(=O)N(C)[C@H](CC(C)C)C(=O)N[C@@H](Cc1ccc(O)cc1)C(=O)N[C@@H](Cc1ccc(O)cc1)C(=O)O
REMARK SMILES IDX 18 1 17 2 15 3 16 4 14 5 12 6 13 7 10 9 11 10 8 12 9 13 7 16
REMARK SMILES IDX 6 17 5 18 4 19 3 20 2 21 1 22 19 23 20 24 21 25 22 26 23 27
REMARK SMILES IDX 24 28 25 29 26 30 27 31 28 32 29 34 30 35 31 36 32 37 37 38
REMARK SMILES IDX 33 39 36 40 34 41 35 42 38 44 39 45 40 46 41 48 42 49 43 50
REMARK SMILES IDX 44 51 49 52 45 53 48 54 46 55 47 56 50 58 51 59 52 60
REMARK H PARENT 14 8 11 11 9 14 9 15 28 33 35 43 40 47 47 57 52 61
ROOT
ATOM      1  O   UNL     1       9.020  -1.170   6.954  1.00  0.00    -0.272 OA
ATOM      2  C   UNL     1       8.757  -1.906   5.991  1.00  0.00     0.245 C 
ENDROOT
BRANCH   2   3
ATOM      3  C   UNL     1       7.575  -2.899   6.119  1.00  0.00     0.168 C 
ATOM      4  C   UNL     1       6.932  -3.153   4.759  1.00  0.00     0.041 C 
BRANCH   3   5
ATOM      5  N   UNL     1       7.890  -4.139   6.810  1.00  0.00    -0.342 N 
ATOM      6  C   UNL     1       6.920  -4.884   7.447  1.00  0.00     0.251 C 
ATOM      7  O   UNL     1       5.744  -4.545   7.517  1.00  0.00    -0.272 OA
ATOM      8  H   UNL     1       8.839  -4.505   6.850  1.00  0.00     0.164 HD
BRANCH   6   9
ATOM      9  C   UNL     1       7.455  -6.222   7.983  1.00  0.00     0.219 C 
BRANCH   9  10
ATOM     10  O   UNL     1       6.491  -7.278   7.893  1.00  0.00    -0.382 OA
ATOM     11  H   UNL     1       5.816  -6.923   7.274  1.00  0.00     0.211 HD
ENDBRANCH   9  10
BRANCH   9  12
ATOM     12  C   UNL     1       8.798  -6.645   7.333  1.00  0.00     0.089 C 
BRANCH  12  13
ATOM     13  N   UNL     1       9.886  -6.407   8.310  1.00  0.00    -0.325 NA
ATOM     14  H   UNL     1      10.112  -7.285   8.781  1.00  0.00     0.119 HD
ATOM     15  H   UNL     1       9.538  -5.791   9.048  1.00  0.00     0.119 HD
ENDBRANCH  12  13
BRANCH  12  16
ATOM     16  C   UNL     1       8.867  -8.098   6.804  1.00  0.00     0.022 C 
BRANCH  16  17
ATOM     17  C   UNL     1       9.121  -8.337   5.309  1.00  0.00     0.002 C 
BRANCH  17  18
ATOM     18  C   UNL     1       9.993  -9.549   4.990  1.00  0.00     0.000 C 
BRANCH  18  19
ATOM     19  C   UNL     1      11.444  -9.420   5.470  1.00  0.00    -0.000 C 
BRANCH  19  20
ATOM     20  C   UNL     1      12.251  -8.300   4.806  1.00  0.00    -0.000 C 
BRANCH  20  21
ATOM     21  C   UNL     1      12.707  -7.223   5.794  1.00  0.00    -0.003 C 
ATOM     22  C   UNL     1      12.098  -5.870   5.458  1.00  0.00     0.004 C 
ENDBRANCH  20  21
ENDBRANCH  19  20
ENDBRANCH  18  19
ENDBRANCH  17  18
ENDBRANCH  16  17
ENDBRANCH  12  16
ENDBRANCH   9  12
ENDBRANCH   6   9
ENDBRANCH   3   5
ENDBRANCH   2   3
BRANCH   2  23
ATOM     23  N   UNL     1       9.437  -1.747   4.788  1.00  0.00    -0.332 N 
ATOM     24  C   UNL     1       9.212  -0.658   3.850  1.00  0.00     0.147 C 
BRANCH  23  25
ATOM     25  C   UNL     1      10.567  -2.651   4.439  1.00  0.00     0.174 C 
BRANCH  25  26
ATOM     26  C   UNL     1      11.951  -2.034   4.750  1.00  0.00     0.038 C 
BRANCH  26  27
ATOM     27  C   UNL     1      12.410  -2.052   6.225  1.00  0.00    -0.015 C 
ATOM     28  C   UNL     1      13.763  -2.739   6.407  1.00  0.00     0.007 C 
ATOM     29  C   UNL     1      12.416  -0.672   6.877  1.00  0.00     0.007 C 
ENDBRANCH  26  27
ENDBRANCH  25  26
BRANCH  25  30
ATOM     30  C   UNL     1      10.421  -3.147   2.982  1.00  0.00     0.243 C 
ATOM     31  O   UNL     1      11.138  -2.723   2.077  1.00  0.00    -0.273 OA
ATOM     32  N   UNL     1       9.440  -4.081   2.769  1.00  0.00    -0.342 N 
ATOM     33  H   UNL     1       8.985  -4.486   3.591  1.00  0.00     0.164 HD
BRANCH  32  34
ATOM     34  C   UNL     1       9.142  -4.643   1.448  1.00  0.00     0.175 C 
BRANCH  34  35
ATOM     35  C   UNL     1       8.669  -3.554   0.472  1.00  0.00     0.070 C 
BRANCH  35  36
ATOM     36  C   UNL     1       7.374  -3.913  -0.221  1.00  0.00    -0.045 A 
ATOM     37  C   UNL     1       7.311  -5.045  -1.048  1.00  0.00     0.007 A 
ATOM     38  C   UNL     1       6.232  -3.116  -0.069  1.00  0.00     0.007 A 
ATOM     39  C   UNL     1       6.124  -5.377  -1.703  1.00  0.00     0.046 A 
ATOM     40  C   UNL     1       5.044  -3.446  -0.726  1.00  0.00     0.046 A 
ATOM     41  C   UNL     1       5.001  -4.576  -1.536  1.00  0.00     0.115 A 
BRANCH  41  42
ATOM     42  O   UNL     1       3.862  -4.933  -2.196  1.00  0.00    -0.508 OA
ATOM     43  H   UNL     1       3.791  -5.902  -2.179  1.00  0.00     0.293 HD
ENDBRANCH  41  42
ENDBRANCH  35  36
ENDBRANCH  34  35
BRANCH  34  44
ATOM     44  C   UNL     1      10.408  -5.365   0.938  1.00  0.00     0.243 C 
ATOM     45  O   UNL     1      10.965  -6.289   1.526  1.00  0.00    -0.273 OA
ATOM     46  N   UNL     1      10.950  -4.791  -0.193  1.00  0.00    -0.341 N 
ATOM     47  H   UNL     1      10.518  -3.954  -0.577  1.00  0.00     0.164 HD
BRANCH  46  48
ATOM     48  C   UNL     1      12.187  -5.259  -0.821  1.00  0.00     0.196 C 
BRANCH  48  49
ATOM     49  C   UNL     1      12.300  -4.766  -2.273  1.00  0.00     0.072 C 
BRANCH  49  50
ATOM     50  C   UNL     1      10.987  -4.848  -3.018  1.00  0.00    -0.045 A 
ATOM     51  C   UNL     1      10.417  -6.099  -3.295  1.00  0.00     0.007 A 
ATOM     52  C   UNL     1      10.336  -3.689  -3.460  1.00  0.00     0.007 A 
ATOM     53  C   UNL     1       9.213  -6.187  -3.993  1.00  0.00     0.046 A 
ATOM     54  C   UNL     1       9.131  -3.778  -4.161  1.00  0.00     0.046 A 
ATOM     55  C   UNL     1       8.579  -5.027  -4.420  1.00  0.00     0.115 A 
BRANCH  55  56
ATOM     56  O   UNL     1       7.405  -5.157  -5.102  1.00  0.00    -0.508 OA
ATOM     57  H   UNL     1       7.596  -5.550  -5.968  1.00  0.00     0.293 HD
ENDBRANCH  55  56
ENDBRANCH  49  50
ENDBRANCH  48  49
BRANCH  48  58
ATOM     58  C   UNL     1      13.385  -4.746  -0.008  1.00  0.00     0.326 C 
ATOM     59  O   UNL     1      13.987  -3.696  -0.163  1.00  0.00    -0.250 OA
BRANCH  58  60
ATOM     60  O   UNL     1      13.764  -5.587   0.987  1.00  0.00    -0.480 OA
ATOM     61  H   UNL     1      12.913  -5.833   1.411  1.00  0.00     0.296 HD
ENDBRANCH  58  60
ENDBRANCH  48  58
ENDBRANCH  46  48
ENDBRANCH  34  44
ENDBRANCH  32  34
ENDBRANCH  25  30
ENDBRANCH  23  25
ENDBRANCH   2  23
TORSDOF 28
ENDMDL
MODEL 5
REMARK VINA RESULT:    -6.103      2.531      5.210
REMARK INTER + INTRA:         -20.666
REMARK INTER:                 -16.158
REMARK INTRA:                  -4.508
REMARK UNBOUND:                -5.466
REMARK SMILES CCCCCCC[C@H](N)[C@H](O)C(=O)N[C@H](C)C(=O)N(C)[C@H](CC(C)C)C(=O)N[C@@H](Cc1ccc(O)cc1)C(=O)N[C@@H](Cc1ccc(O)cc1)C(=O)O
REMARK SMILES IDX 18 1 17 2 15 3 16 4 14 5 12 6 13 7 10 9 11 10 8 12 9 13 7 16
REMARK SMILES IDX 6 17 5 18 4 19 3 20 2 21 1 22 19 23 20 24 21 25 22 26 23 27
REMARK SMILES IDX 24 28 25 29 26 30 27 31 28 32 29 34 30 35 31 36 32 37 37 38
REMARK SMILES IDX 33 39 36 40 34 41 35 42 38 44 39 45 40 46 41 48 42 49 43 50
REMARK SMILES IDX 44 51 49 52 45 53 48 54 46 55 47 56 50 58 51 59 52 60
REMARK H PARENT 14 8 11 11 9 14 9 15 28 33 35 43 40 47 47 57 52 61
ROOT
ATOM      1  O   UNL     1       8.734  -7.998   7.921  1.00  0.00    -0.272 OA
ATOM      2  C   UNL     1       8.727  -7.030   7.147  1.00  0.00     0.245 C 
ENDROOT
BRANCH   2   3
ATOM      3  C   UNL     1       7.561  -6.015   7.240  1.00  0.00     0.168 C 
ATOM      4  C   UNL     1       6.816  -6.165   8.562  1.00  0.00     0.041 C 
BRANCH   3   5
ATOM      5  N   UNL     1       7.932  -4.632   6.981  1.00  0.00    -0.342 N 
ATOM      6  C   UNL     1       7.027  -3.716   6.490  1.00  0.00     0.251 C 
ATOM      7  O   UNL     1       5.870  -3.998   6.197  1.00  0.00    -0.272 OA
ATOM      8  H   UNL     1       8.874  -4.289   7.153  1.00  0.00     0.164 HD
BRANCH   6   9
ATOM      9  C   UNL     1       7.598  -2.290   6.430  1.00  0.00     0.219 C 
BRANCH   9  10
ATOM     10  O   UNL     1       8.859  -2.171   7.100  1.00  0.00    -0.382 OA
ATOM     11  H   UNL     1       9.502  -2.519   6.444  1.00  0.00     0.211 HD
ENDBRANCH   9  10
BRANCH   9  12
ATOM     12  C   UNL     1       7.686  -1.728   4.987  1.00  0.00     0.089 C 
BRANCH  12  13
ATOM     13  N   UNL     1       7.886  -2.862   4.056  1.00  0.00    -0.325 NA
ATOM     14  H   UNL     1       7.636  -2.569   3.110  1.00  0.00     0.119 HD
ATOM     15  H   UNL     1       7.222  -3.604   4.290  1.00  0.00     0.119 HD
ENDBRANCH  12  13
BRANCH  12  16
ATOM     16  C   UNL     1       6.489  -0.864   4.522  1.00  0.00     0.022 C 
BRANCH  16  17
ATOM     17  C   UNL     1       5.790   0.051   5.536  1.00  0.00     0.002 C 
BRANCH  17  18
ATOM     18  C   UNL     1       4.264   0.025   5.483  1.00  0.00     0.000 C 
BRANCH  18  19
ATOM     19  C   UNL     1       3.692  -0.967   4.461  1.00  0.00    -0.000 C 
BRANCH  19  20
ATOM     20  C   UNL     1       2.989  -0.329   3.260  1.00  0.00    -0.000 C 
BRANCH  20  21
ATOM     21  C   UNL     1       1.920  -1.233   2.641  1.00  0.00    -0.003 C 
ATOM     22  C   UNL     1       1.957  -1.175   1.121  1.00  0.00     0.004 C 
ENDBRANCH  20  21
ENDBRANCH  19  20
ENDBRANCH  18  19
ENDBRANCH  17  18
ENDBRANCH  16  17
ENDBRANCH  12  16
ENDBRANCH   9  12
ENDBRANCH   6   9
ENDBRANCH   3   5
ENDBRANCH   2   3
BRANCH   2  23
ATOM     23  N   UNL     1       9.811  -6.805   6.305  1.00  0.00    -0.332 N 
ATOM     24  C   UNL     1      11.080  -6.230   6.727  1.00  0.00     0.147 C 
BRANCH  23  25
ATOM     25  C   UNL     1       9.775  -7.276   4.893  1.00  0.00     0.174 C 
BRANCH  25  26
ATOM     26  C   UNL     1      10.984  -8.170   4.526  1.00  0.00     0.038 C 
BRANCH  26  27
ATOM     27  C   UNL     1      10.835  -9.687   4.779  1.00  0.00    -0.015 C 
ATOM     28  C   UNL     1      11.363 -10.104   6.151  1.00  0.00     0.007 C 
ATOM     29  C   UNL     1       9.413 -10.201   4.571  1.00  0.00     0.007 C 
ENDBRANCH  26  27
ENDBRANCH  25  26
BRANCH  25  30
ATOM     30  C   UNL     1       9.575  -6.078   3.937  1.00  0.00     0.243 C 
ATOM     31  O   UNL     1       8.478  -5.541   3.789  1.00  0.00    -0.273 OA
ATOM     32  N   UNL     1      10.696  -5.661   3.266  1.00  0.00    -0.342 N 
ATOM     33  H   UNL     1      11.594  -6.062   3.548  1.00  0.00     0.164 HD
BRANCH  32  34
ATOM     34  C   UNL     1      10.688  -4.558   2.300  1.00  0.00     0.175 C 
BRANCH  34  35
ATOM     35  C   UNL     1      12.000  -3.762   2.351  1.00  0.00     0.070 C 
BRANCH  35  36
ATOM     36  C   UNL     1      12.180  -3.014   3.653  1.00  0.00    -0.045 A 
ATOM     37  C   UNL     1      13.142  -3.442   4.581  1.00  0.00     0.007 A 
ATOM     38  C   UNL     1      11.382  -1.905   3.962  1.00  0.00     0.007 A 
ATOM     39  C   UNL     1      13.306  -2.767   5.791  1.00  0.00     0.046 A 
ATOM     40  C   UNL     1      11.544  -1.229   5.174  1.00  0.00     0.046 A 
ATOM     41  C   UNL     1      12.507  -1.666   6.077  1.00  0.00     0.115 A 
BRANCH  41  42
ATOM     42  O   UNL     1      12.697  -1.037   7.272  1.00  0.00    -0.508 OA
ATOM     43  H   UNL     1      12.087  -0.282   7.318  1.00  0.00     0.293 HD
ENDBRANCH  41  42
ENDBRANCH  35  36
ENDBRANCH  34  35
BRANCH  34  44
ATOM     44  C   UNL     1      10.427  -5.153   0.898  1.00  0.00     0.243 C 
ATOM     45  O   UNL     1       9.313  -5.398   0.444  1.00  0.00    -0.273 OA
ATOM     46  N   UNL     1      11.579  -5.513   0.232  1.00  0.00    -0.341 N 
ATOM     47  H   UNL     1      12.476  -5.398   0.698  1.00  0.00     0.164 HD
BRANCH  46  48
ATOM     48  C   UNL     1      11.582  -6.158  -1.083  1.00  0.00     0.196 C 
BRANCH  48  49
ATOM     49  C   UNL     1      11.841  -5.140  -2.206  1.00  0.00     0.072 C 
BRANCH  49  50
ATOM     50  C   UNL     1      10.708  -5.075  -3.205  1.00  0.00    -0.045 A 
ATOM     51  C   UNL     1       9.838  -6.166  -3.348  1.00  0.00     0.007 A 
ATOM     52  C   UNL     1      10.522  -3.945  -4.012  1.00  0.00     0.007 A 
ATOM     53  C   UNL     1       8.798  -6.123  -4.276  1.00  0.00     0.046 A 
ATOM     54  C   UNL     1       9.481  -3.903  -4.942  1.00  0.00     0.046 A 
ATOM     55  C   UNL     1       8.626  -4.993  -5.065  1.00  0.00     0.115 A 
BRANCH  55  56
ATOM     56  O   UNL     1       7.598  -4.991  -5.961  1.00  0.00    -0.508 OA
ATOM     57  H   UNL     1       6.764  -4.923  -5.470  1.00  0.00     0.293 HD
ENDBRANCH  55  56
ENDBRANCH  49  50
ENDBRANCH  48  49
BRANCH  48  58
ATOM     58  C   UNL     1      12.671  -7.239  -1.107  1.00  0.00     0.326 C 
ATOM     59  O   UNL     1      13.484  -7.489  -0.231  1.00  0.00    -0.250 OA
BRANCH  58  60
ATOM     60  O   UNL     1      12.677  -7.977  -2.246  1.00  0.00    -0.480 OA
ATOM     61  H   UNL     1      11.724  -8.148  -2.409  1.00  0.00     0.296 HD
ENDBRANCH  58  60
ENDBRANCH  48  58
ENDBRANCH  46  48
ENDBRANCH  34  44
ENDBRANCH  32  34
ENDBRANCH  25  30
ENDBRANCH  23  25
ENDBRANCH   2  23
TORSDOF 28
ENDMDL
MODEL 6
REMARK VINA RESULT:    -6.085      2.137      3.245
REMARK INTER + INTRA:         -20.623
REMARK INTER:                 -14.299
REMARK INTRA:                  -6.324
REMARK UNBOUND:                -5.466
REMARK SMILES CCCCCCC[C@H](N)[C@H](O)C(=O)N[C@H](C)C(=O)N(C)[C@H](CC(C)C)C(=O)N[C@@H](Cc1ccc(O)cc1)C(=O)N[C@@H](Cc1ccc(O)cc1)C(=O)O
REMARK SMILES IDX 18 1 17 2 15 3 16 4 14 5 12 6 13 7 10 9 11 10 8 12 9 13 7 16
REMARK SMILES IDX 6 17 5 18 4 19 3 20 2 21 1 22 19 23 20 24 21 25 22 26 23 27
REMARK SMILES IDX 24 28 25 29 26 30 27 31 28 32 29 34 30 35 31 36 32 37 37 38
REMARK SMILES IDX 33 39 36 40 34 41 35 42 38 44 39 45 40 46 41 48 42 49 43 50
REMARK SMILES IDX 44 51 49 52 45 53 48 54 46 55 47 56 50 58 51 59 52 60
REMARK H PARENT 14 8 11 11 9 14 9 15 28 33 35 43 40 47 47 57 52 61
ROOT
ATOM      1  O   UNL     1      11.440  -3.614   6.830  1.00  0.00    -0.272 OA
ATOM      2  C   UNL     1      11.042  -4.358   5.921  1.00  0.00     0.245 C 
ENDROOT
BRANCH   2   3
ATOM      3  C   UNL     1       9.839  -5.292   6.201  1.00  0.00     0.168 C 
ATOM      4  C   UNL     1      10.203  -6.347   7.241  1.00  0.00     0.041 C 
BRANCH   3   5
ATOM      5  N   UNL     1       8.599  -4.608   6.534  1.00  0.00    -0.342 N 
ATOM      6  C   UNL     1       7.697  -4.224   5.564  1.00  0.00     0.251 C 
ATOM      7  O   UNL     1       7.885  -4.388   4.363  1.00  0.00    -0.272 OA
ATOM      8  H   UNL     1       8.350  -4.387   7.495  1.00  0.00     0.164 HD
BRANCH   6   9
ATOM      9  C   UNL     1       6.399  -3.650   6.154  1.00  0.00     0.219 C 
BRANCH   9  10
ATOM     10  O   UNL     1       5.944  -4.378   7.301  1.00  0.00    -0.382 OA
ATOM     11  H   UNL     1       6.615  -5.087   7.406  1.00  0.00     0.211 HD
ENDBRANCH   9  10
BRANCH   9  12
ATOM     12  C   UNL     1       6.490  -2.133   6.464  1.00  0.00     0.089 C 
BRANCH  12  13
ATOM     13  N   UNL     1       7.865  -1.832   6.925  1.00  0.00    -0.325 NA
ATOM     14  H   UNL     1       7.843  -1.013   7.535  1.00  0.00     0.119 HD
ATOM     15  H   UNL     1       8.429  -1.551   6.120  1.00  0.00     0.119 HD
ENDBRANCH  12  13
BRANCH  12  16
ATOM     16  C   UNL     1       6.095  -1.180   5.311  1.00  0.00     0.022 C 
BRANCH  16  17
ATOM     17  C   UNL     1       7.194  -0.610   4.404  1.00  0.00     0.002 C 
BRANCH  17  18
ATOM     18  C   UNL     1       7.273  -1.239   3.014  1.00  0.00     0.000 C 
BRANCH  18  19
ATOM     19  C   UNL     1       6.040  -2.070   2.634  1.00  0.00    -0.000 C 
BRANCH  19  20
ATOM     20  C   UNL     1       5.238  -1.535   1.444  1.00  0.00    -0.000 C 
BRANCH  20  21
ATOM     21  C   UNL     1       5.551  -0.072   1.118  1.00  0.00    -0.003 C 
ATOM     22  C   UNL     1       6.066   0.081  -0.305  1.00  0.00     0.004 C 
ENDBRANCH  20  21
ENDBRANCH  19  20
ENDBRANCH  18  19
ENDBRANCH  17  18
ENDBRANCH  16  17
ENDBRANCH  12  16
ENDBRANCH   9  12
ENDBRANCH   6   9
ENDBRANCH   3   5
ENDBRANCH   2   3
BRANCH   2  23
ATOM     23  N   UNL     1      11.593  -4.257   4.648  1.00  0.00    -0.332 N 
ATOM     24  C   UNL     1      12.233  -5.353   3.936  1.00  0.00     0.147 C 
BRANCH  23  25
ATOM     25  C   UNL     1      11.440  -3.002   3.861  1.00  0.00     0.174 C 
BRANCH  25  26
ATOM     26  C   UNL     1      10.519  -1.968   4.549  1.00  0.00     0.038 C 
BRANCH  26  27
ATOM     27  C   UNL     1      11.045  -0.519   4.649  1.00  0.00    -0.015 C 
ATOM     28  C   UNL     1      10.712   0.311   3.410  1.00  0.00     0.007 C 
ATOM     29  C   UNL     1      10.596   0.204   5.917  1.00  0.00     0.007 C 
ENDBRANCH  26  27
ENDBRANCH  25  26
BRANCH  25  30
ATOM     30  C   UNL     1      11.028  -3.333   2.408  1.00  0.00     0.243 C 
ATOM     31  O   UNL     1      11.637  -2.880   1.440  1.00  0.00    -0.273 OA
ATOM     32  N   UNL     1       9.939  -4.155   2.273  1.00  0.00    -0.342 N 
ATOM     33  H   UNL     1       9.575  -4.602   3.118  1.00  0.00     0.164 HD
BRANCH  32  34
ATOM     34  C   UNL     1       9.390  -4.552   0.973  1.00  0.00     0.175 C 
BRANCH  34  35
ATOM     35  C   UNL     1       8.762  -3.355   0.243  1.00  0.00     0.070 C 
BRANCH  35  36
ATOM     36  C   UNL     1       7.490  -3.719  -0.489  1.00  0.00    -0.045 A 
ATOM     37  C   UNL     1       6.625  -4.686   0.045  1.00  0.00     0.007 A 
ATOM     38  C   UNL     1       7.169  -3.119  -1.714  1.00  0.00     0.007 A 
ATOM     39  C   UNL     1       5.456  -5.039  -0.631  1.00  0.00     0.046 A 
ATOM     40  C   UNL     1       5.999  -3.472  -2.391  1.00  0.00     0.046 A 
ATOM     41  C   UNL     1       5.152  -4.429  -1.842  1.00  0.00     0.115 A 
BRANCH  41  42
ATOM     42  O   UNL     1       4.002  -4.804  -2.471  1.00  0.00    -0.508 OA
ATOM     43  H   UNL     1       3.252  -4.572  -1.899  1.00  0.00     0.293 HD
ENDBRANCH  41  42
ENDBRANCH  35  36
ENDBRANCH  34  35
BRANCH  34  44
ATOM     44  C   UNL     1      10.528  -5.198   0.151  1.00  0.00     0.243 C 
ATOM     45  O   UNL     1      11.153  -6.196   0.496  1.00  0.00    -0.273 OA
ATOM     46  N   UNL     1      10.878  -4.470  -0.967  1.00  0.00    -0.341 N 
ATOM     47  H   UNL     1      10.409  -3.586  -1.148  1.00  0.00     0.164 HD
BRANCH  46  48
ATOM     48  C   UNL     1      11.973  -4.847  -1.863  1.00  0.00     0.196 C 
BRANCH  48  49
ATOM     49  C   UNL     1      11.700  -4.387  -3.305  1.00  0.00     0.072 C 
BRANCH  49  50
ATOM     50  C   UNL     1      10.347  -4.832  -3.811  1.00  0.00    -0.045 A 
ATOM     51  C   UNL     1       9.600  -3.988  -4.646  1.00  0.00     0.007 A 
ATOM     52  C   UNL     1       9.811  -6.073  -3.443  1.00  0.00     0.007 A 
ATOM     53  C   UNL     1       8.344  -4.382  -5.108  1.00  0.00     0.046 A 
ATOM     54  C   UNL     1       8.553  -6.467  -3.905  1.00  0.00     0.046 A 
ATOM     55  C   UNL     1       7.831  -5.618  -4.735  1.00  0.00     0.115 A 
BRANCH  55  56
ATOM     56  O   UNL     1       6.599  -5.964  -5.207  1.00  0.00    -0.508 OA
ATOM     57  H   UNL     1       6.689  -6.780  -5.725  1.00  0.00     0.293 HD
ENDBRANCH  55  56
ENDBRANCH  49  50
ENDBRANCH  48  49
BRANCH  48  58
ATOM     58  C   UNL     1      13.275  -4.210  -1.358  1.00  0.00     0.326 C 
ATOM     59  O   UNL     1      14.061  -4.677  -0.550  1.00  0.00    -0.250 OA
BRANCH  58  60
ATOM     60  O   UNL     1      13.537  -3.000  -1.913  1.00  0.00    -0.480 OA
ATOM     61  H   UNL     1      14.312  -3.178  -2.488  1.00  0.00     0.296 HD
ENDBRANCH  58  60
ENDBRANCH  48  58
ENDBRANCH  46  48
ENDBRANCH  34  44
ENDBRANCH  32  34
ENDBRANCH  25  30
ENDBRANCH  23  25
ENDBRANCH   2  23
TORSDOF 28
ENDMDL
MODEL 7
REMARK VINA RESULT:    -6.025      2.378      8.331
REMARK INTER + INTRA:         -20.473
REMARK INTER:                 -14.229
REMARK INTRA:                  -6.244
REMARK UNBOUND:                -5.466
REMARK SMILES CCCCCCC[C@H](N)[C@H](O)C(=O)N[C@H](C)C(=O)N(C)[C@H](CC(C)C)C(=O)N[C@@H](Cc1ccc(O)cc1)C(=O)N[C@@H](Cc1ccc(O)cc1)C(=O)O
REMARK SMILES IDX 18 1 17 2 15 3 16 4 14 5 12 6 13 7 10 9 11 10 8 12 9 13 7 16
REMARK SMILES IDX 6 17 5 18 4 19 3 20 2 21 1 22 19 23 20 24 21 25 22 26 23 27
REMARK SMILES IDX 24 28 25 29 26 30 27 31 28 32 29 34 30 35 31 36 32 37 37 38
REMARK SMILES IDX 33 39 36 40 34 41 35 42 38 44 39 45 40 46 41 48 42 49 43 50
REMARK SMILES IDX 44 51 49 52 45 53 48 54 46 55 47 56 50 58 51 59 52 60
REMARK H PARENT 14 8 11 11 9 14 9 15 28 33 35 43 40 47 47 57 52 61
ROOT
ATOM      1  O   UNL     1       9.773  -3.817  -4.033  1.00  0.00    -0.272 OA
ATOM      2  C   UNL     1       9.171  -4.504  -3.195  1.00  0.00     0.245 C 
ENDROOT
BRANCH   2   3
ATOM      3  C   UNL     1       7.838  -5.177  -3.609  1.00  0.00     0.168 C 
ATOM      4  C   UNL     1       8.070  -6.625  -4.028  1.00  0.00     0.041 C 
BRANCH   3   5
ATOM      5  N   UNL     1       6.766  -5.060  -2.633  1.00  0.00    -0.342 N 
ATOM      6  C   UNL     1       5.738  -4.154  -2.786  1.00  0.00     0.251 C 
ATOM      7  O   UNL     1       5.670  -3.360  -3.718  1.00  0.00    -0.272 OA
ATOM      8  H   UNL     1       6.734  -5.643  -1.799  1.00  0.00     0.164 HD
BRANCH   6   9
ATOM      9  C   UNL     1       4.648  -4.305  -1.713  1.00  0.00     0.219 C 
BRANCH   9  10
ATOM     10  O   UNL     1       4.661  -5.595  -1.089  1.00  0.00    -0.382 OA
ATOM     11  H   UNL     1       5.564  -5.933  -1.277  1.00  0.00     0.211 HD
ENDBRANCH   9  10
BRANCH   9  12
ATOM     12  C   UNL     1       4.681  -3.178  -0.648  1.00  0.00     0.089 C 
BRANCH  12  13
ATOM     13  N   UNL     1       5.975  -2.467  -0.760  1.00  0.00    -0.325 NA
ATOM     14  H   UNL     1       5.823  -1.563  -1.213  1.00  0.00     0.119 HD
ATOM     15  H   UNL     1       6.583  -2.985  -1.398  1.00  0.00     0.119 HD
ENDBRANCH  12  13
BRANCH  12  16
ATOM     16  C   UNL     1       3.511  -2.166  -0.696  1.00  0.00     0.022 C 
BRANCH  16  17
ATOM     17  C   UNL     1       3.744  -0.732  -0.199  1.00  0.00     0.002 C 
BRANCH  17  18
ATOM     18  C   UNL     1       3.187  -0.433   1.191  1.00  0.00     0.000 C 
BRANCH  18  19
ATOM     19  C   UNL     1       2.039  -1.357   1.616  1.00  0.00    -0.000 C 
BRANCH  19  20
ATOM     20  C   UNL     1       1.612  -1.231   3.081  1.00  0.00    -0.000 C 
BRANCH  20  21
ATOM     21  C   UNL     1       2.797  -1.172   4.048  1.00  0.00    -0.003 C 
ATOM     22  C   UNL     1       2.828   0.145   4.807  1.00  0.00     0.004 C 
ENDBRANCH  20  21
ENDBRANCH  19  20
ENDBRANCH  18  19
ENDBRANCH  17  18
ENDBRANCH  16  17
ENDBRANCH  12  16
ENDBRANCH   9  12
ENDBRANCH   6   9
ENDBRANCH   3   5
ENDBRANCH   2   3
BRANCH   2  23
ATOM     23  N   UNL     1       9.751  -4.758  -1.956  1.00  0.00    -0.332 N 
ATOM     24  C   UNL     1      10.695  -5.833  -1.691  1.00  0.00     0.147 C 
BRANCH  23  25
ATOM     25  C   UNL     1       9.524  -3.828  -0.817  1.00  0.00     0.174 C 
BRANCH  25  26
ATOM     26  C   UNL     1      10.829  -3.170  -0.307  1.00  0.00     0.038 C 
BRANCH  26  27
ATOM     27  C   UNL     1      10.720  -1.729   0.239  1.00  0.00    -0.015 C 
ATOM     28  C   UNL     1      11.752  -1.438   1.328  1.00  0.00     0.007 C 
ATOM     29  C   UNL     1      10.773  -0.661  -0.850  1.00  0.00     0.007 C 
ENDBRANCH  26  27
ENDBRANCH  25  26
BRANCH  25  30
ATOM     30  C   UNL     1       8.710  -4.533   0.292  1.00  0.00     0.243 C 
ATOM     31  O   UNL     1       7.643  -5.096   0.056  1.00  0.00    -0.273 OA
ATOM     32  N   UNL     1       9.252  -4.481   1.551  1.00  0.00    -0.342 N 
ATOM     33  H   UNL     1      10.205  -4.120   1.641  1.00  0.00     0.164 HD
BRANCH  32  34
ATOM     34  C   UNL     1       8.606  -5.070   2.727  1.00  0.00     0.175 C 
BRANCH  34  35
ATOM     35  C   UNL     1       9.569  -5.995   3.488  1.00  0.00     0.070 C 
BRANCH  35  36
ATOM     36  C   UNL     1      10.541  -5.235   4.362  1.00  0.00    -0.045 A 
ATOM     37  C   UNL     1      11.636  -4.574   3.784  1.00  0.00     0.007 A 
ATOM     38  C   UNL     1      10.379  -5.197   5.753  1.00  0.00     0.007 A 
ATOM     39  C   UNL     1      12.546  -3.882   4.584  1.00  0.00     0.046 A 
ATOM     40  C   UNL     1      11.290  -4.505   6.555  1.00  0.00     0.046 A 
ATOM     41  C   UNL     1      12.366  -3.852   5.962  1.00  0.00     0.115 A 
BRANCH  41  42
ATOM     42  O   UNL     1      13.279  -3.167   6.707  1.00  0.00    -0.508 OA
ATOM     43  H   UNL     1      12.802  -2.526   7.259  1.00  0.00     0.293 HD
ENDBRANCH  41  42
ENDBRANCH  35  36
ENDBRANCH  34  35
BRANCH  34  44
ATOM     44  C   UNL     1       8.088  -3.918   3.616  1.00  0.00     0.243 C 
ATOM     45  O   UNL     1       7.298  -4.060   4.545  1.00  0.00    -0.273 OA
ATOM     46  N   UNL     1       8.494  -2.671   3.190  1.00  0.00    -0.341 N 
ATOM     47  H   UNL     1       9.054  -2.596   2.344  1.00  0.00     0.164 HD
BRANCH  46  48
ATOM     48  C   UNL     1       8.075  -1.424   3.833  1.00  0.00     0.196 C 
BRANCH  48  49
ATOM     49  C   UNL     1       9.150  -0.333   3.695  1.00  0.00     0.072 C 
BRANCH  49  50
ATOM     50  C   UNL     1      10.116  -0.318   4.858  1.00  0.00    -0.045 A 
ATOM     51  C   UNL     1       9.737  -0.873   6.089  1.00  0.00     0.007 A 
ATOM     52  C   UNL     1      11.384   0.264   4.734  1.00  0.00     0.007 A 
ATOM     53  C   UNL     1      10.615  -0.853   7.173  1.00  0.00     0.046 A 
ATOM     54  C   UNL     1      12.263   0.285   5.820  1.00  0.00     0.046 A 
ATOM     55  C   UNL     1      11.870  -0.275   7.030  1.00  0.00     0.115 A 
BRANCH  55  56
ATOM     56  O   UNL     1      12.698  -0.275   8.114  1.00  0.00    -0.508 OA
ATOM     57  H   UNL     1      13.141  -1.137   8.161  1.00  0.00     0.293 HD
ENDBRANCH  55  56
ENDBRANCH  49  50
ENDBRANCH  48  49
BRANCH  48  58
ATOM     58  C   UNL     1       6.768  -0.943   3.186  1.00  0.00     0.326 C 
ATOM     59  O   UNL     1       6.036  -0.048   3.575  1.00  0.00    -0.250 OA
BRANCH  58  60
ATOM     60  O   UNL     1       6.448  -1.614   2.051  1.00  0.00    -0.480 OA
ATOM     61  H   UNL     1       6.709  -2.539   2.253  1.00  0.00     0.296 HD
ENDBRANCH  58  60
ENDBRANCH  48  58
ENDBRANCH  46  48
ENDBRANCH  34  44
ENDBRANCH  32  34
ENDBRANCH  25  30
ENDBRANCH  23  25
ENDBRANCH   2  23
TORSDOF 28
ENDMDL
MODEL 8
REMARK VINA RESULT:    -5.986      2.450      8.178
REMARK INTER + INTRA:         -20.375
REMARK INTER:                 -13.743
REMARK INTRA:                  -6.632
REMARK UNBOUND:                -5.466
REMARK SMILES CCCCCCC[C@H](N)[C@H](O)C(=O)N[C@H](C)C(=O)N(C)[C@H](CC(C)C)C(=O)N[C@@H](Cc1ccc(O)cc1)C(=O)N[C@@H](Cc1ccc(O)cc1)C(=O)O
REMARK SMILES IDX 18 1 17 2 15 3 16 4 14 5 12 6 13 7 10 9 11 10 8 12 9 13 7 16
REMARK SMILES IDX 6 17 5 18 4 19 3 20 2 21 1 22 19 23 20 24 21 25 22 26 23 27
REMARK SMILES IDX 24 28 25 29 26 30 27 31 28 32 29 34 30 35 31 36 32 37 37 38
REMARK SMILES IDX 33 39 36 40 34 41 35 42 38 44 39 45 40 46 41 48 42 49 43 50
REMARK SMILES IDX 44 51 49 52 45 53 48 54 46 55 47 56 50 58 51 59 52 60
REMARK H PARENT 14 8 11 11 9 14 9 15 28 33 35 43 40 47 47 57 52 61
ROOT
ATOM      1  O   UNL     1       8.775  -4.833  -5.559  1.00  0.00    -0.272 OA
ATOM      2  C   UNL     1       8.294  -4.664  -4.429  1.00  0.00     0.245 C 
ENDROOT
BRANCH   2   3
ATOM      3  C   UNL     1       7.025  -5.462  -4.037  1.00  0.00     0.168 C 
ATOM      4  C   UNL     1       7.299  -6.961  -4.060  1.00  0.00     0.041 C 
BRANCH   3   5
ATOM      5  N   UNL     1       6.401  -5.044  -2.791  1.00  0.00    -0.342 N 
ATOM      6  C   UNL     1       5.080  -4.651  -2.734  1.00  0.00     0.251 C 
ATOM      7  O   UNL     1       4.352  -4.584  -3.719  1.00  0.00    -0.272 OA
ATOM      8  H   UNL     1       6.915  -5.024  -1.914  1.00  0.00     0.164 HD
BRANCH   6   9
ATOM      9  C   UNL     1       4.599  -4.391  -1.298  1.00  0.00     0.219 C 
BRANCH   9  10
ATOM     10  O   UNL     1       5.292  -5.189  -0.330  1.00  0.00    -0.382 OA
ATOM     11  H   UNL     1       4.938  -6.093  -0.480  1.00  0.00     0.211 HD
ENDBRANCH   9  10
BRANCH   9  12
ATOM     12  C   UNL     1       4.637  -2.891  -0.905  1.00  0.00     0.089 C 
BRANCH  12  13
ATOM     13  N   UNL     1       5.227  -2.128  -2.029  1.00  0.00    -0.325 NA
ATOM     14  H   UNL     1       4.743  -2.376  -2.894  1.00  0.00     0.119 HD
ATOM     15  H   UNL     1       6.193  -2.435  -2.166  1.00  0.00     0.119 HD
ENDBRANCH  12  13
BRANCH  12  16
ATOM     16  C   UNL     1       3.285  -2.265  -0.489  1.00  0.00     0.022 C 
BRANCH  16  17
ATOM     17  C   UNL     1       3.241  -1.314   0.716  1.00  0.00     0.002 C 
BRANCH  17  18
ATOM     18  C   UNL     1       3.394   0.166   0.374  1.00  0.00     0.000 C 
BRANCH  18  19
ATOM     19  C   UNL     1       3.637   1.066   1.593  1.00  0.00    -0.000 C 
BRANCH  19  20
ATOM     20  C   UNL     1       3.300   0.433   2.946  1.00  0.00    -0.000 C 
BRANCH  20  21
ATOM     21  C   UNL     1       1.897   0.793   3.443  1.00  0.00    -0.003 C 
ATOM     22  C   UNL     1       1.051  -0.452   3.662  1.00  0.00     0.004 C 
ENDBRANCH  20  21
ENDBRANCH  19  20
ENDBRANCH  18  19
ENDBRANCH  17  18
ENDBRANCH  16  17
ENDBRANCH  12  16
ENDBRANCH   9  12
ENDBRANCH   6   9
ENDBRANCH   3   5
ENDBRANCH   2   3
BRANCH   2  23
ATOM     23  N   UNL     1       8.958  -3.868  -3.502  1.00  0.00    -0.332 N 
ATOM     24  C   UNL     1       8.646  -2.472  -3.238  1.00  0.00     0.147 C 
BRANCH  23  25
ATOM     25  C   UNL     1       9.985  -4.462  -2.602  1.00  0.00     0.174 C 
BRANCH  25  26
ATOM     26  C   UNL     1      10.584  -5.776  -3.155  1.00  0.00     0.038 C 
BRANCH  26  27
ATOM     27  C   UNL     1      12.123  -5.853  -3.262  1.00  0.00    -0.015 C 
ATOM     28  C   UNL     1      12.818  -4.697  -2.543  1.00  0.00     0.007 C 
ATOM     29  C   UNL     1      12.697  -7.192  -2.805  1.00  0.00     0.007 C 
ENDBRANCH  26  27
ENDBRANCH  25  26
BRANCH  25  30
ATOM     30  C   UNL     1       9.424  -4.590  -1.167  1.00  0.00     0.243 C 
ATOM     31  O   UNL     1       8.509  -5.365  -0.894  1.00  0.00    -0.273 OA
ATOM     32  N   UNL     1      10.009  -3.781  -0.227  1.00  0.00    -0.342 N 
ATOM     33  H   UNL     1      10.853  -3.271  -0.500  1.00  0.00     0.164 HD
BRANCH  32  34
ATOM     34  C   UNL     1       9.588  -3.749   1.177  1.00  0.00     0.175 C 
BRANCH  34  35
ATOM     35  C   UNL     1      10.618  -3.018   2.052  1.00  0.00     0.070 C 
BRANCH  35  36
ATOM     36  C   UNL     1      10.632  -3.517   3.479  1.00  0.00    -0.045 A 
ATOM     37  C   UNL     1       9.797  -4.579   3.859  1.00  0.00     0.007 A 
ATOM     38  C   UNL     1      11.454  -2.918   4.442  1.00  0.00     0.007 A 
ATOM     39  C   UNL     1       9.793  -5.038   5.177  1.00  0.00     0.046 A 
ATOM     40  C   UNL     1      11.449  -3.376   5.762  1.00  0.00     0.046 A 
ATOM     41  C   UNL     1      10.619  -4.434   6.117  1.00  0.00     0.115 A 
BRANCH  41  42
ATOM     42  O   UNL     1      10.582  -4.910   7.394  1.00  0.00    -0.508 OA
ATOM     43  H   UNL     1      11.017  -5.778   7.408  1.00  0.00     0.293 HD
ENDBRANCH  41  42
ENDBRANCH  35  36
ENDBRANCH  34  35
BRANCH  34  44
ATOM     44  C   UNL     1       8.196  -3.082   1.244  1.00  0.00     0.243 C 
ATOM     45  O   UNL     1       7.132  -3.688   1.159  1.00  0.00    -0.273 OA
ATOM     46  N   UNL     1       8.248  -1.705   1.279  1.00  0.00    -0.341 N 
ATOM     47  H   UNL     1       9.153  -1.243   1.230  1.00  0.00     0.164 HD
BRANCH  46  48
ATOM     48  C   UNL     1       7.057  -0.853   1.278  1.00  0.00     0.196 C 
BRANCH  48  49
ATOM     49  C   UNL     1       6.915  -0.086   2.603  1.00  0.00     0.072 C 
BRANCH  49  50
ATOM     50  C   UNL     1       7.011  -0.991   3.811  1.00  0.00    -0.045 A 
ATOM     51  C   UNL     1       6.012  -1.946   4.050  1.00  0.00     0.007 A 
ATOM     52  C   UNL     1       8.076  -0.877   4.714  1.00  0.00     0.007 A 
ATOM     53  C   UNL     1       6.082  -2.777   5.168  1.00  0.00     0.046 A 
ATOM     54  C   UNL     1       8.146  -1.708   5.835  1.00  0.00     0.046 A 
ATOM     55  C   UNL     1       7.148  -2.652   6.051  1.00  0.00     0.115 A 
BRANCH  55  56
ATOM     56  O   UNL     1       7.179  -3.482   7.133  1.00  0.00    -0.508 OA
ATOM     57  H   UNL     1       6.597  -4.238   6.956  1.00  0.00     0.293 HD
ENDBRANCH  55  56
ENDBRANCH  49  50
ENDBRANCH  48  49
BRANCH  48  58
ATOM     58  C   UNL     1       7.158   0.144   0.115  1.00  0.00     0.326 C 
ATOM     59  O   UNL     1       7.169  -0.111  -1.079  1.00  0.00    -0.250 OA
BRANCH  58  60
ATOM     60  O   UNL     1       7.226   1.439   0.516  1.00  0.00    -0.480 OA
ATOM     61  H   UNL     1       7.253   1.936  -0.330  1.00  0.00     0.296 HD
ENDBRANCH  58  60
ENDBRANCH  48  58
ENDBRANCH  46  48
ENDBRANCH  34  44
ENDBRANCH  32  34
ENDBRANCH  25  30
ENDBRANCH  23  25
ENDBRANCH   2  23
TORSDOF 28
ENDMDL
MODEL 9
REMARK VINA RESULT:    -5.983      2.105      3.611
REMARK INTER + INTRA:         -20.368
REMARK INTER:                 -14.611
REMARK INTRA:                  -5.757
REMARK UNBOUND:                -5.466
REMARK SMILES CCCCCCC[C@H](N)[C@H](O)C(=O)N[C@H](C)C(=O)N(C)[C@H](CC(C)C)C(=O)N[C@@H](Cc1ccc(O)cc1)C(=O)N[C@@H](Cc1ccc(O)cc1)C(=O)O
REMARK SMILES IDX 18 1 17 2 15 3 16 4 14 5 12 6 13 7 10 9 11 10 8 12 9 13 7 16
REMARK SMILES IDX 6 17 5 18 4 19 3 20 2 21 1 22 19 23 20 24 21 25 22 26 23 27
REMARK SMILES IDX 24 28 25 29 26 30 27 31 28 32 29 34 30 35 31 36 32 37 37 38
REMARK SMILES IDX 33 39 36 40 34 41 35 42 38 44 39 45 40 46 41 48 42 49 43 50
REMARK SMILES IDX 44 51 49 52 45 53 48 54 46 55 47 56 50 58 51 59 52 60
REMARK H PARENT 14 8 11 11 9 14 9 15 28 33 35 43 40 47 47 57 52 61
ROOT
ATOM      1  O   UNL     1      12.641  -4.787   6.483  1.00  0.00    -0.272 OA
ATOM      2  C   UNL     1      11.854  -4.567   5.550  1.00  0.00     0.245 C 
ENDROOT
BRANCH   2   3
ATOM      3  C   UNL     1      11.722  -3.118   5.018  1.00  0.00     0.168 C 
ATOM      4  C   UNL     1      12.215  -3.023   3.578  1.00  0.00     0.041 C 
BRANCH   3   5
ATOM      5  N   UNL     1      10.404  -2.526   5.180  1.00  0.00    -0.342 N 
ATOM      6  C   UNL     1      10.238  -1.191   5.484  1.00  0.00     0.251 C 
ATOM      7  O   UNL     1      11.172  -0.421   5.680  1.00  0.00    -0.272 OA
ATOM      8  H   UNL     1       9.553  -3.074   5.076  1.00  0.00     0.164 HD
BRANCH   6   9
ATOM      9  C   UNL     1       8.764  -0.756   5.466  1.00  0.00     0.219 C 
BRANCH   9  10
ATOM     10  O   UNL     1       8.539   0.463   6.184  1.00  0.00    -0.382 OA
ATOM     11  H   UNL     1       8.638   1.158   5.497  1.00  0.00     0.211 HD
ENDBRANCH   9  10
BRANCH   9  12
ATOM     12  C   UNL     1       8.173  -0.669   4.035  1.00  0.00     0.089 C 
BRANCH  12  13
ATOM     13  N   UNL     1       9.284  -0.445   3.082  1.00  0.00    -0.325 NA
ATOM     14  H   UNL     1       8.905  -0.105   2.197  1.00  0.00     0.119 HD
ATOM     15  H   UNL     1       9.715  -1.346   2.860  1.00  0.00     0.119 HD
ENDBRANCH  12  13
BRANCH  12  16
ATOM     16  C   UNL     1       7.318  -1.876   3.580  1.00  0.00     0.022 C 
BRANCH  16  17
ATOM     17  C   UNL     1       5.901  -1.628   3.043  1.00  0.00     0.002 C 
BRANCH  17  18
ATOM     18  C   UNL     1       4.895  -1.139   4.082  1.00  0.00     0.000 C 
BRANCH  18  19
ATOM     19  C   UNL     1       5.239  -1.541   5.523  1.00  0.00    -0.000 C 
BRANCH  19  20
ATOM     20  C   UNL     1       4.559  -2.819   6.022  1.00  0.00    -0.000 C 
BRANCH  20  21
ATOM     21  C   UNL     1       5.379  -3.560   7.081  1.00  0.00    -0.003 C 
ATOM     22  C   UNL     1       6.860  -3.565   6.733  1.00  0.00     0.004 C 
ENDBRANCH  20  21
ENDBRANCH  19  20
ENDBRANCH  18  19
ENDBRANCH  17  18
ENDBRANCH  16  17
ENDBRANCH  12  16
ENDBRANCH   9  12
ENDBRANCH   6   9
ENDBRANCH   3   5
ENDBRANCH   2   3
BRANCH   2  23
ATOM     23  N   UNL     1      11.205  -5.626   4.924  1.00  0.00    -0.332 N 
ATOM     24  C   UNL     1      11.878  -6.765   4.319  1.00  0.00     0.147 C 
BRANCH  23  25
ATOM     25  C   UNL     1       9.719  -5.717   4.950  1.00  0.00     0.174 C 
BRANCH  25  26
ATOM     26  C   UNL     1       9.200  -6.807   5.917  1.00  0.00     0.038 C 
BRANCH  26  27
ATOM     27  C   UNL     1       9.427  -6.569   7.427  1.00  0.00    -0.015 C 
ATOM     28  C   UNL     1       8.158  -6.785   8.250  1.00  0.00     0.007 C 
ATOM     29  C   UNL     1      10.585  -7.382   8.002  1.00  0.00     0.007 C 
ENDBRANCH  26  27
ENDBRANCH  25  26
BRANCH  25  30
ATOM     30  C   UNL     1       9.169  -5.849   3.512  1.00  0.00     0.243 C 
ATOM     31  O   UNL     1       8.334  -6.700   3.211  1.00  0.00    -0.273 OA
ATOM     32  N   UNL     1       9.677  -4.961   2.599  1.00  0.00    -0.342 N 
ATOM     33  H   UNL     1      10.257  -4.196   2.953  1.00  0.00     0.164 HD
BRANCH  32  34
ATOM     34  C   UNL     1       9.291  -4.956   1.185  1.00  0.00     0.175 C 
BRANCH  34  35
ATOM     35  C   UNL     1       8.870  -3.552   0.725  1.00  0.00     0.070 C 
BRANCH  35  36
ATOM     36  C   UNL     1       7.474  -3.521   0.145  1.00  0.00    -0.045 A 
ATOM     37  C   UNL     1       6.937  -2.313  -0.327  1.00  0.00     0.007 A 
ATOM     38  C   UNL     1       6.692  -4.681   0.091  1.00  0.00     0.007 A 
ATOM     39  C   UNL     1       5.645  -2.272  -0.852  1.00  0.00     0.046 A 
ATOM     40  C   UNL     1       5.397  -4.640  -0.433  1.00  0.00     0.046 A 
ATOM     41  C   UNL     1       4.886  -3.434  -0.901  1.00  0.00     0.115 A 
BRANCH  41  42
ATOM     42  O   UNL     1       3.627  -3.350  -1.418  1.00  0.00    -0.508 OA
ATOM     43  H   UNL     1       3.461  -2.426  -1.666  1.00  0.00     0.293 HD
ENDBRANCH  41  42
ENDBRANCH  35  36
ENDBRANCH  34  35
BRANCH  34  44
ATOM     44  C   UNL     1      10.481  -5.501   0.362  1.00  0.00     0.243 C 
ATOM     45  O   UNL     1      11.384  -6.192   0.824  1.00  0.00    -0.273 OA
ATOM     46  N   UNL     1      10.513  -5.029  -0.933  1.00  0.00    -0.341 N 
ATOM     47  H   UNL     1       9.805  -4.365  -1.235  1.00  0.00     0.164 HD
BRANCH  46  48
ATOM     48  C   UNL     1      11.582  -5.352  -1.881  1.00  0.00     0.196 C 
BRANCH  48  49
ATOM     49  C   UNL     1      11.133  -5.117  -3.333  1.00  0.00     0.072 C 
BRANCH  49  50
ATOM     50  C   UNL     1       9.634  -5.218  -3.502  1.00  0.00    -0.045 A 
ATOM     51  C   UNL     1       8.837  -4.070  -3.378  1.00  0.00     0.007 A 
ATOM     52  C   UNL     1       9.019  -6.450  -3.760  1.00  0.00     0.007 A 
ATOM     53  C   UNL     1       7.452  -4.153  -3.519  1.00  0.00     0.046 A 
ATOM     54  C   UNL     1       7.632  -6.533  -3.900  1.00  0.00     0.046 A 
ATOM     55  C   UNL     1       6.860  -5.383  -3.779  1.00  0.00     0.115 A 
BRANCH  55  56
ATOM     56  O   UNL     1       5.503  -5.422  -3.907  1.00  0.00    -0.508 OA
ATOM     57  H   UNL     1       5.271  -6.173  -4.476  1.00  0.00     0.293 HD
ENDBRANCH  55  56
ENDBRANCH  49  50
ENDBRANCH  48  49
BRANCH  48  58
ATOM     58  C   UNL     1      12.805  -4.477  -1.572  1.00  0.00     0.326 C 
ATOM     59  O   UNL     1      13.891  -4.502  -2.129  1.00  0.00    -0.250 OA
BRANCH  58  60
ATOM     60  O   UNL     1      12.594  -3.587  -0.570  1.00  0.00    -0.480 OA
ATOM     61  H   UNL     1      13.244  -2.876  -0.760  1.00  0.00     0.296 HD
ENDBRANCH  58  60
ENDBRANCH  48  58
ENDBRANCH  46  48
ENDBRANCH  34  44
ENDBRANCH  32  34
ENDBRANCH  25  30
ENDBRANCH  23  25
ENDBRANCH   2  23
TORSDOF 28
ENDMDL
MODEL 10
REMARK VINA RESULT:    -5.977      2.837      7.394
REMARK INTER + INTRA:         -20.353
REMARK INTER:                 -14.219
REMARK INTRA:                  -6.134
REMARK UNBOUND:                -5.466
REMARK SMILES CCCCCCC[C@H](N)[C@H](O)C(=O)N[C@H](C)C(=O)N(C)[C@H](CC(C)C)C(=O)N[C@@H](Cc1ccc(O)cc1)C(=O)N[C@@H](Cc1ccc(O)cc1)C(=O)O
REMARK SMILES IDX 18 1 17 2 15 3 16 4 14 5 12 6 13 7 10 9 11 10 8 12 9 13 7 16
REMARK SMILES IDX 6 17 5 18 4 19 3 20 2 21 1 22 19 23 20 24 21 25 22 26 23 27
REMARK SMILES IDX 24 28 25 29 26 30 27 31 28 32 29 34 30 35 31 36 32 37 37 38
REMARK SMILES IDX 33 39 36 40 34 41 35 42 38 44 39 45 40 46 41 48 42 49 43 50
REMARK SMILES IDX 44 51 49 52 45 53 48 54 46 55 47 56 50 58 51 59 52 60
REMARK H PARENT 14 8 11 11 9 14 9 15 28 33 35 43 40 47 47 57 52 61
ROOT
ATOM      1  O   UNL     1       9.520  -6.837   3.042  1.00  0.00    -0.272 OA
ATOM      2  C   UNL     1      10.736  -6.936   3.264  1.00  0.00     0.245 C 
ENDROOT
BRANCH   2   3
ATOM      3  C   UNL     1      11.210  -7.910   4.371  1.00  0.00     0.168 C 
ATOM      4  C   UNL     1      12.724  -8.083   4.329  1.00  0.00     0.041 C 
BRANCH   3   5
ATOM      5  N   UNL     1      10.738  -7.591   5.710  1.00  0.00    -0.342 N 
ATOM      6  C   UNL     1       9.646  -8.222   6.267  1.00  0.00     0.251 C 
ATOM      7  O   UNL     1       8.972  -9.057   5.673  1.00  0.00    -0.272 OA
ATOM      8  H   UNL     1      11.196  -6.888   6.286  1.00  0.00     0.164 HD
BRANCH   6   9
ATOM      9  C   UNL     1       9.418  -7.830   7.735  1.00  0.00     0.219 C 
BRANCH   9  10
ATOM     10  O   UNL     1      10.443  -8.326   8.605  1.00  0.00    -0.382 OA
ATOM     11  H   UNL     1       9.955  -8.565   9.424  1.00  0.00     0.211 HD
ENDBRANCH   9  10
BRANCH   9  12
ATOM     12  C   UNL     1       9.217  -6.305   7.935  1.00  0.00     0.089 C 
BRANCH  12  13
ATOM     13  N   UNL     1      10.548  -5.655   7.942  1.00  0.00    -0.325 NA
ATOM     14  H   UNL     1      10.519  -4.837   8.553  1.00  0.00     0.119 HD
ATOM     15  H   UNL     1      10.740  -5.284   7.008  1.00  0.00     0.119 HD
ENDBRANCH  12  13
BRANCH  12  16
ATOM     16  C   UNL     1       8.289  -5.604   6.914  1.00  0.00     0.022 C 
BRANCH  16  17
ATOM     17  C   UNL     1       8.829  -4.416   6.106  1.00  0.00     0.002 C 
BRANCH  17  18
ATOM     18  C   UNL     1       7.819  -3.764   5.165  1.00  0.00     0.000 C 
BRANCH  18  19
ATOM     19  C   UNL     1       6.499  -3.372   5.841  1.00  0.00    -0.000 C 
BRANCH  19  20
ATOM     20  C   UNL     1       6.476  -1.971   6.460  1.00  0.00    -0.000 C 
BRANCH  20  21
ATOM     21  C   UNL     1       6.086  -0.880   5.459  1.00  0.00    -0.003 C 
ATOM     22  C   UNL     1       4.577  -0.805   5.280  1.00  0.00     0.004 C 
ENDBRANCH  20  21
ENDBRANCH  19  20
ENDBRANCH  18  19
ENDBRANCH  17  18
ENDBRANCH  16  17
ENDBRANCH  12  16
ENDBRANCH   9  12
ENDBRANCH   6   9
ENDBRANCH   3   5
ENDBRANCH   2   3
BRANCH   2  23
ATOM     23  N   UNL     1      11.648  -6.275   2.449  1.00  0.00    -0.332 N 
ATOM     24  C   UNL     1      12.352  -6.887   1.331  1.00  0.00     0.147 C 
BRANCH  23  25
ATOM     25  C   UNL     1      11.869  -4.811   2.602  1.00  0.00     0.174 C 
BRANCH  25  26
ATOM     26  C   UNL     1      11.828  -4.347   4.077  1.00  0.00     0.038 C 
BRANCH  26  27
ATOM     27  C   UNL     1      12.545  -3.020   4.414  1.00  0.00    -0.015 C 
ATOM     28  C   UNL     1      12.940  -2.927   5.887  1.00  0.00     0.007 C 
ATOM     29  C   UNL     1      13.747  -2.735   3.516  1.00  0.00     0.007 C 
ENDBRANCH  26  27
ENDBRANCH  25  26
BRANCH  25  30
ATOM     30  C   UNL     1      10.909  -4.028   1.677  1.00  0.00     0.243 C 
ATOM     31  O   UNL     1      11.310  -3.433   0.677  1.00  0.00    -0.273 OA
ATOM     32  N   UNL     1       9.589  -4.036   2.049  1.00  0.00    -0.342 N 
ATOM     33  H   UNL     1       9.315  -4.666   2.807  1.00  0.00     0.164 HD
BRANCH  32  34
ATOM     34  C   UNL     1       8.543  -3.326   1.307  1.00  0.00     0.175 C 
BRANCH  34  35
ATOM     35  C   UNL     1       7.236  -4.133   1.275  1.00  0.00     0.070 C 
BRANCH  35  36
ATOM     36  C   UNL     1       6.797  -4.478  -0.130  1.00  0.00    -0.045 A 
ATOM     37  C   UNL     1       5.490  -4.187  -0.549  1.00  0.00     0.007 A 
ATOM     38  C   UNL     1       7.673  -5.110  -1.022  1.00  0.00     0.007 A 
ATOM     39  C   UNL     1       5.072  -4.514  -1.839  1.00  0.00     0.046 A 
ATOM     40  C   UNL     1       7.255  -5.440  -2.314  1.00  0.00     0.046 A 
ATOM     41  C   UNL     1       5.957  -5.137  -2.711  1.00  0.00     0.115 A 
BRANCH  41  42
ATOM     42  O   UNL     1       5.508  -5.443  -3.961  1.00  0.00    -0.508 OA
ATOM     43  H   UNL     1       6.264  -5.742  -4.492  1.00  0.00     0.293 HD
ENDBRANCH  41  42
ENDBRANCH  35  36
ENDBRANCH  34  35
BRANCH  34  44
ATOM     44  C   UNL     1       8.350  -1.940   1.962  1.00  0.00     0.243 C 
ATOM     45  O   UNL     1       7.258  -1.443   2.225  1.00  0.00    -0.273 OA
ATOM     46  N   UNL     1       9.525  -1.235   2.112  1.00  0.00    -0.341 N 
ATOM     47  H   UNL     1      10.393  -1.642   1.771  1.00  0.00     0.164 HD
BRANCH  46  48
ATOM     48  C   UNL     1       9.585   0.128   2.646  1.00  0.00     0.196 C 
BRANCH  48  49
ATOM     49  C   UNL     1      10.974   0.440   3.228  1.00  0.00     0.072 C 
BRANCH  49  50
ATOM     50  C   UNL     1      11.033   0.247   4.727  1.00  0.00    -0.045 A 
ATOM     51  C   UNL     1       9.996  -0.431   5.385  1.00  0.00     0.007 A 
ATOM     52  C   UNL     1      12.102   0.753   5.477  1.00  0.00     0.007 A 
ATOM     53  C   UNL     1      10.034  -0.604   6.769  1.00  0.00     0.046 A 
ATOM     54  C   UNL     1      12.138   0.580   6.863  1.00  0.00     0.046 A 
ATOM     55  C   UNL     1      11.104  -0.098   7.497  1.00  0.00     0.115 A 
BRANCH  55  56
ATOM     56  O   UNL     1      11.101  -0.287   8.847  1.00  0.00    -0.508 OA
ATOM     57  H   UNL     1      10.547  -1.058   9.047  1.00  0.00     0.293 HD
ENDBRANCH  55  56
ENDBRANCH  49  50
ENDBRANCH  48  49
BRANCH  48  58
ATOM     58  C   UNL     1       9.265   1.120   1.519  1.00  0.00     0.326 C 
ATOM     59  O   UNL     1      10.014   1.501   0.634  1.00  0.00    -0.250 OA
BRANCH  58  60
ATOM     60  O   UNL     1       7.989   1.582   1.551  1.00  0.00    -0.480 OA
ATOM     61  H   UNL     1       7.454   0.782   1.358  1.00  0.00     0.296 HD
ENDBRANCH  58  60
ENDBRANCH  48  58
ENDBRANCH  46  48
ENDBRANCH  34  44
ENDBRANCH  32  34
ENDBRANCH  25  30
ENDBRANCH  23  25
ENDBRANCH   2  23
TORSDOF 28
ENDMDL
MODEL 11
REMARK VINA RESULT:    -5.964      1.765      2.692
REMARK INTER + INTRA:         -20.321
REMARK INTER:                 -14.955
REMARK INTRA:                  -5.366
REMARK UNBOUND:                -5.466
REMARK SMILES CCCCCCC[C@H](N)[C@H](O)C(=O)N[C@H](C)C(=O)N(C)[C@H](CC(C)C)C(=O)N[C@@H](Cc1ccc(O)cc1)C(=O)N[C@@H](Cc1ccc(O)cc1)C(=O)O
REMARK SMILES IDX 18 1 17 2 15 3 16 4 14 5 12 6 13 7 10 9 11 10 8 12 9 13 7 16
REMARK SMILES IDX 6 17 5 18 4 19 3 20 2 21 1 22 19 23 20 24 21 25 22 26 23 27
REMARK SMILES IDX 24 28 25 29 26 30 27 31 28 32 29 34 30 35 31 36 32 37 37 38
REMARK SMILES IDX 33 39 36 40 34 41 35 42 38 44 39 45 40 46 41 48 42 49 43 50
REMARK SMILES IDX 44 51 49 52 45 53 48 54 46 55 47 56 50 58 51 59 52 60
REMARK H PARENT 14 8 11 11 9 14 9 15 28 33 35 43 40 47 47 57 52 61
ROOT
ATOM      1  O   UNL     1      12.005  -3.768   6.652  1.00  0.00    -0.272 OA
ATOM      2  C   UNL     1      11.287  -3.690   5.644  1.00  0.00     0.245 C 
ENDROOT
BRANCH   2   3
ATOM      3  C   UNL     1      10.941  -2.286   5.089  1.00  0.00     0.168 C 
ATOM      4  C   UNL     1      11.457  -2.126   3.663  1.00  0.00     0.041 C 
BRANCH   3   5
ATOM      5  N   UNL     1       9.540  -1.911   5.204  1.00  0.00    -0.342 N 
ATOM      6  C   UNL     1       9.068  -1.179   6.273  1.00  0.00     0.251 C 
ATOM      7  O   UNL     1       9.770  -0.828   7.215  1.00  0.00    -0.272 OA
ATOM      8  H   UNL     1       8.855  -2.176   4.500  1.00  0.00     0.164 HD
BRANCH   6   9
ATOM      9  C   UNL     1       7.593  -0.779   6.113  1.00  0.00     0.219 C 
BRANCH   9  10
ATOM     10  O   UNL     1       7.350   0.589   6.464  1.00  0.00    -0.382 OA
ATOM     11  H   UNL     1       6.854   0.526   7.310  1.00  0.00     0.211 HD
ENDBRANCH   9  10
BRANCH   9  12
ATOM     12  C   UNL     1       7.025  -1.094   4.705  1.00  0.00     0.089 C 
BRANCH  12  13
ATOM     13  N   UNL     1       6.748  -2.547   4.628  1.00  0.00    -0.325 NA
ATOM     14  H   UNL     1       6.156  -2.819   5.415  1.00  0.00     0.119 HD
ATOM     15  H   UNL     1       7.623  -3.059   4.763  1.00  0.00     0.119 HD
ENDBRANCH  12  13
BRANCH  12  16
ATOM     16  C   UNL     1       5.771  -0.291   4.284  1.00  0.00     0.022 C 
BRANCH  16  17
ATOM     17  C   UNL     1       4.432  -1.025   4.124  1.00  0.00     0.002 C 
BRANCH  17  18
ATOM     18  C   UNL     1       3.830  -0.971   2.722  1.00  0.00     0.000 C 
BRANCH  18  19
ATOM     19  C   UNL     1       4.778  -1.454   1.616  1.00  0.00    -0.000 C 
BRANCH  19  20
ATOM     20  C   UNL     1       4.330  -1.130   0.188  1.00  0.00    -0.000 C 
BRANCH  20  21
ATOM     21  C   UNL     1       5.358  -0.304  -0.589  1.00  0.00    -0.003 C 
ATOM     22  C   UNL     1       5.019  -0.250  -2.071  1.00  0.00     0.004 C 
ENDBRANCH  20  21
ENDBRANCH  19  20
ENDBRANCH  18  19
ENDBRANCH  17  18
ENDBRANCH  16  17
ENDBRANCH  12  16
ENDBRANCH   9  12
ENDBRANCH   6   9
ENDBRANCH   3   5
ENDBRANCH   2   3
BRANCH   2  23
ATOM     23  N   UNL     1      10.910  -4.845   4.967  1.00  0.00    -0.332 N 
ATOM     24  C   UNL     1      11.840  -5.801   4.385  1.00  0.00     0.147 C 
BRANCH  23  25
ATOM     25  C   UNL     1       9.478  -5.247   4.907  1.00  0.00     0.174 C 
BRANCH  25  26
ATOM     26  C   UNL     1       9.148  -6.438   5.836  1.00  0.00     0.038 C 
BRANCH  26  27
ATOM     27  C   UNL     1       9.319  -6.210   7.355  1.00  0.00    -0.015 C 
ATOM     28  C   UNL     1       8.067  -6.586   8.147  1.00  0.00     0.007 C 
ATOM     29  C   UNL     1      10.550  -6.900   7.937  1.00  0.00     0.007 C 
ENDBRANCH  26  27
ENDBRANCH  25  26
BRANCH  25  30
ATOM     30  C   UNL     1       9.049  -5.466   3.438  1.00  0.00     0.243 C 
ATOM     31  O   UNL     1       8.575  -6.534   3.052  1.00  0.00    -0.273 OA
ATOM     32  N   UNL     1       9.237  -4.398   2.599  1.00  0.00    -0.342 N 
ATOM     33  H   UNL     1       9.501  -3.505   3.022  1.00  0.00     0.164 HD
BRANCH  32  34
ATOM     34  C   UNL     1       8.912  -4.434   1.170  1.00  0.00     0.175 C 
BRANCH  34  35
ATOM     35  C   UNL     1       7.928  -3.317   0.792  1.00  0.00     0.070 C 
BRANCH  35  36
ATOM     36  C   UNL     1       7.038  -3.690  -0.371  1.00  0.00    -0.045 A 
ATOM     37  C   UNL     1       5.937  -4.536  -0.169  1.00  0.00     0.007 A 
ATOM     38  C   UNL     1       7.309  -3.221  -1.663  1.00  0.00     0.007 A 
ATOM     39  C   UNL     1       5.118  -4.898  -1.239  1.00  0.00     0.046 A 
ATOM     40  C   UNL     1       6.490  -3.583  -2.736  1.00  0.00     0.046 A 
ATOM     41  C   UNL     1       5.400  -4.418  -2.513  1.00  0.00     0.115 A 
BRANCH  41  42
ATOM     42  O   UNL     1       4.577  -4.798  -3.531  1.00  0.00    -0.508 OA
ATOM     43  H   UNL     1       3.865  -4.141  -3.608  1.00  0.00     0.293 HD
ENDBRANCH  41  42
ENDBRANCH  35  36
ENDBRANCH  34  35
BRANCH  34  44
ATOM     44  C   UNL     1      10.235  -4.332   0.377  1.00  0.00     0.243 C 
ATOM     45  O   UNL     1      10.911  -3.312   0.283  1.00  0.00    -0.273 OA
ATOM     46  N   UNL     1      10.534  -5.471  -0.340  1.00  0.00    -0.341 N 
ATOM     47  H   UNL     1       9.881  -6.251  -0.323  1.00  0.00     0.164 HD
BRANCH  46  48
ATOM     48  C   UNL     1      11.699  -5.587  -1.219  1.00  0.00     0.196 C 
BRANCH  48  49
ATOM     49  C   UNL     1      11.653  -4.547  -2.351  1.00  0.00     0.072 C 
BRANCH  49  50
ATOM     50  C   UNL     1      10.515  -4.788  -3.317  1.00  0.00    -0.045 A 
ATOM     51  C   UNL     1       9.806  -5.997  -3.274  1.00  0.00     0.007 A 
ATOM     52  C   UNL     1      10.166  -3.827  -4.275  1.00  0.00     0.007 A 
ATOM     53  C   UNL     1       8.763  -6.236  -4.169  1.00  0.00     0.046 A 
ATOM     54  C   UNL     1       9.123  -4.067  -5.171  1.00  0.00     0.046 A 
ATOM     55  C   UNL     1       8.429  -5.270  -5.110  1.00  0.00     0.115 A 
BRANCH  55  56
ATOM     56  O   UNL     1       7.405  -5.544  -5.968  1.00  0.00    -0.508 OA
ATOM     57  H   UNL     1       7.261  -4.766  -6.530  1.00  0.00     0.293 HD
ENDBRANCH  55  56
ENDBRANCH  49  50
ENDBRANCH  48  49
BRANCH  48  58
ATOM     58  C   UNL     1      12.974  -5.388  -0.388  1.00  0.00     0.326 C 
ATOM     59  O   UNL     1      13.390  -6.101   0.510  1.00  0.00    -0.250 OA
BRANCH  58  60
ATOM     60  O   UNL     1      13.685  -4.288  -0.743  1.00  0.00    -0.480 OA
ATOM     61  H   UNL     1      14.342  -4.200  -0.019  1.00  0.00     0.296 HD
ENDBRANCH  58  60
ENDBRANCH  48  58
ENDBRANCH  46  48
ENDBRANCH  34  44
ENDBRANCH  32  34
ENDBRANCH  25  30
ENDBRANCH  23  25
ENDBRANCH   2  23
TORSDOF 28
ENDMDL
MODEL 12
REMARK VINA RESULT:    -5.920      2.302      5.287
REMARK INTER + INTRA:         -20.211
REMARK INTER:                 -13.886
REMARK INTRA:                  -6.325
REMARK UNBOUND:                -5.466
REMARK SMILES CCCCCCC[C@H](N)[C@H](O)C(=O)N[C@H](C)C(=O)N(C)[C@H](CC(C)C)C(=O)N[C@@H](Cc1ccc(O)cc1)C(=O)N[C@@H](Cc1ccc(O)cc1)C(=O)O
REMARK SMILES IDX 18 1 17 2 15 3 16 4 14 5 12 6 13 7 10 9 11 10 8 12 9 13 7 16
REMARK SMILES IDX 6 17 5 18 4 19 3 20 2 21 1 22 19 23 20 24 21 25 22 26 23 27
REMARK SMILES IDX 24 28 25 29 26 30 27 31 28 32 29 34 30 35 31 36 32 37 37 38
REMARK SMILES IDX 33 39 36 40 34 41 35 42 38 44 39 45 40 46 41 48 42 49 43 50
REMARK SMILES IDX 44 51 49 52 45 53 48 54 46 55 47 56 50 58 51 59 52 60
REMARK H PARENT 14 8 11 11 9 14 9 15 28 33 35 43 40 47 47 57 52 61
ROOT
ATOM      1  O   UNL     1      12.871  -5.578   4.719  1.00  0.00    -0.272 OA
ATOM      2  C   UNL     1      12.045  -5.629   3.795  1.00  0.00     0.245 C 
ENDROOT
BRANCH   2   3
ATOM      3  C   UNL     1      10.580  -6.004   4.130  1.00  0.00     0.168 C 
ATOM      4  C   UNL     1      10.484  -7.455   4.589  1.00  0.00     0.041 C 
BRANCH   3   5
ATOM      5  N   UNL     1       9.913  -5.098   5.053  1.00  0.00    -0.342 N 
ATOM      6  C   UNL     1       9.419  -3.878   4.645  1.00  0.00     0.251 C 
ATOM      7  O   UNL     1       9.538  -3.447   3.502  1.00  0.00    -0.272 OA
ATOM      8  H   UNL     1       9.786  -5.331   6.035  1.00  0.00     0.164 HD
BRANCH   6   9
ATOM      9  C   UNL     1       8.632  -3.156   5.750  1.00  0.00     0.219 C 
BRANCH   9  10
ATOM     10  O   UNL     1       8.446  -1.762   5.476  1.00  0.00    -0.382 OA
ATOM     11  H   UNL     1       8.269  -1.374   6.361  1.00  0.00     0.211 HD
ENDBRANCH   9  10
BRANCH   9  12
ATOM     12  C   UNL     1       7.278  -3.838   6.078  1.00  0.00     0.089 C 
BRANCH  12  13
ATOM     13  N   UNL     1       7.529  -4.939   7.035  1.00  0.00    -0.325 NA
ATOM     14  H   UNL     1       7.553  -5.826   6.529  1.00  0.00     0.119 HD
ATOM     15  H   UNL     1       6.730  -5.015   7.669  1.00  0.00     0.119 HD
ENDBRANCH  12  13
BRANCH  12  16
ATOM     16  C   UNL     1       6.163  -2.909   6.616  1.00  0.00     0.022 C 
BRANCH  16  17
ATOM     17  C   UNL     1       4.913  -2.668   5.759  1.00  0.00     0.002 C 
BRANCH  17  18
ATOM     18  C   UNL     1       4.755  -1.242   5.237  1.00  0.00     0.000 C 
BRANCH  18  19
ATOM     19  C   UNL     1       3.433  -0.989   4.499  1.00  0.00    -0.000 C 
BRANCH  19  20
ATOM     20  C   UNL     1       3.507  -1.108   2.974  1.00  0.00    -0.000 C 
BRANCH  20  21
ATOM     21  C   UNL     1       2.310  -0.468   2.265  1.00  0.00    -0.003 C 
ATOM     22  C   UNL     1       1.985  -1.190   0.966  1.00  0.00     0.004 C 
ENDBRANCH  20  21
ENDBRANCH  19  20
ENDBRANCH  18  19
ENDBRANCH  17  18
ENDBRANCH  16  17
ENDBRANCH  12  16
ENDBRANCH   9  12
ENDBRANCH   6   9
ENDBRANCH   3   5
ENDBRANCH   2   3
BRANCH   2  23
ATOM     23  N   UNL     1      12.412  -5.236   2.513  1.00  0.00    -0.332 N 
ATOM     24  C   UNL     1      13.023  -3.956   2.184  1.00  0.00     0.147 C 
BRANCH  23  25
ATOM     25  C   UNL     1      12.311  -6.192   1.376  1.00  0.00     0.174 C 
BRANCH  25  26
ATOM     26  C   UNL     1      13.682  -6.761   0.944  1.00  0.00     0.038 C 
BRANCH  26  27
ATOM     27  C   UNL     1      13.843  -8.298   0.974  1.00  0.00    -0.015 C 
ATOM     28  C   UNL     1      13.283  -8.919   2.253  1.00  0.00     0.007 C 
ATOM     29  C   UNL     1      13.267  -8.992  -0.258  1.00  0.00     0.007 C 
ENDBRANCH  26  27
ENDBRANCH  25  26
BRANCH  25  30
ATOM     30  C   UNL     1      11.508  -5.557   0.217  1.00  0.00     0.243 C 
ATOM     31  O   UNL     1      11.867  -5.661  -0.955  1.00  0.00    -0.273 OA
ATOM     32  N   UNL     1      10.380  -4.870   0.583  1.00  0.00    -0.342 N 
ATOM     33  H   UNL     1      10.072  -4.948   1.556  1.00  0.00     0.164 HD
BRANCH  32  34
ATOM     34  C   UNL     1       9.513  -4.182  -0.377  1.00  0.00     0.175 C 
BRANCH  34  35
ATOM     35  C   UNL     1       8.194  -4.942  -0.584  1.00  0.00     0.070 C 
BRANCH  35  36
ATOM     36  C   UNL     1       8.023  -5.444  -2.000  1.00  0.00    -0.045 A 
ATOM     37  C   UNL     1       8.894  -5.006  -3.009  1.00  0.00     0.007 A 
ATOM     38  C   UNL     1       6.988  -6.329  -2.330  1.00  0.00     0.007 A 
ATOM     39  C   UNL     1       8.736  -5.452  -4.322  1.00  0.00     0.046 A 
ATOM     40  C   UNL     1       6.829  -6.776  -3.644  1.00  0.00     0.046 A 
ATOM     41  C   UNL     1       7.706  -6.333  -4.628  1.00  0.00     0.115 A 
BRANCH  41  42
ATOM     42  O   UNL     1       7.585  -6.743  -5.923  1.00  0.00    -0.508 OA
ATOM     43  H   UNL     1       8.461  -6.694  -6.341  1.00  0.00     0.293 HD
ENDBRANCH  41  42
ENDBRANCH  35  36
ENDBRANCH  34  35
BRANCH  34  44
ATOM     44  C   UNL     1       9.276  -2.744   0.136  1.00  0.00     0.243 C 
ATOM     45  O   UNL     1      10.166  -1.986   0.512  1.00  0.00    -0.273 OA
ATOM     46  N   UNL     1       7.942  -2.419   0.261  1.00  0.00    -0.341 N 
ATOM     47  H   UNL     1       7.240  -3.122   0.047  1.00  0.00     0.164 HD
BRANCH  46  48
ATOM     48  C   UNL     1       7.471  -1.137   0.791  1.00  0.00     0.196 C 
BRANCH  48  49
ATOM     49  C   UNL     1       6.114  -0.744   0.183  1.00  0.00     0.072 C 
BRANCH  49  50
ATOM     50  C   UNL     1       5.621  -1.746  -0.835  1.00  0.00    -0.045 A 
ATOM     51  C   UNL     1       6.026  -1.640  -2.174  1.00  0.00     0.007 A 
ATOM     52  C   UNL     1       4.743  -2.774  -0.469  1.00  0.00     0.007 A 
ATOM     53  C   UNL     1       5.567  -2.551  -3.125  1.00  0.00     0.046 A 
ATOM     54  C   UNL     1       4.283  -3.686  -1.422  1.00  0.00     0.046 A 
ATOM     55  C   UNL     1       4.700  -3.566  -2.743  1.00  0.00     0.115 A 
BRANCH  55  56
ATOM     56  O   UNL     1       4.273  -4.435  -3.703  1.00  0.00    -0.508 OA
ATOM     57  H   UNL     1       3.394  -4.152  -4.002  1.00  0.00     0.293 HD
ENDBRANCH  55  56
ENDBRANCH  49  50
ENDBRANCH  48  49
BRANCH  48  58
ATOM     58  C   UNL     1       7.340  -1.245   2.317  1.00  0.00     0.326 C 
ATOM     59  O   UNL     1       7.624  -0.396   3.145  1.00  0.00    -0.250 OA
BRANCH  58  60
ATOM     60  O   UNL     1       6.835  -2.434   2.733  1.00  0.00    -0.480 OA
ATOM     61  H   UNL     1       7.102  -3.055   2.021  1.00  0.00     0.296 HD
ENDBRANCH  58  60
ENDBRANCH  48  58
ENDBRANCH  46  48
ENDBRANCH  34  44
ENDBRANCH  32  34
ENDBRANCH  25  30
ENDBRANCH  23  25
ENDBRANCH   2  23
TORSDOF 28
ENDMDL
MODEL 13
REMARK VINA RESULT:    -5.887      2.379      4.993
REMARK INTER + INTRA:         -20.128
REMARK INTER:                 -13.175
REMARK INTRA:                  -6.953
REMARK UNBOUND:                -5.466
REMARK SMILES CCCCCCC[C@H](N)[C@H](O)C(=O)N[C@H](C)C(=O)N(C)[C@H](CC(C)C)C(=O)N[C@@H](Cc1ccc(O)cc1)C(=O)N[C@@H](Cc1ccc(O)cc1)C(=O)O
REMARK SMILES IDX 18 1 17 2 15 3 16 4 14 5 12 6 13 7 10 9 11 10 8 12 9 13 7 16
REMARK SMILES IDX 6 17 5 18 4 19 3 20 2 21 1 22 19 23 20 24 21 25 22 26 23 27
REMARK SMILES IDX 24 28 25 29 26 30 27 31 28 32 29 34 30 35 31 36 32 37 37 38
REMARK SMILES IDX 33 39 36 40 34 41 35 42 38 44 39 45 40 46 41 48 42 49 43 50
REMARK SMILES IDX 44 51 49 52 45 53 48 54 46 55 47 56 50 58 51 59 52 60
REMARK H PARENT 14 8 11 11 9 14 9 15 28 33 35 43 40 47 47 57 52 61
ROOT
ATOM      1  O   UNL     1      12.705  -4.837   6.049  1.00  0.00    -0.272 OA
ATOM      2  C   UNL     1      11.728  -5.183   5.368  1.00  0.00     0.245 C 
ENDROOT
BRANCH   2   3
ATOM      3  C   UNL     1      10.387  -5.470   6.089  1.00  0.00     0.168 C 
ATOM      4  C   UNL     1      10.628  -6.155   7.430  1.00  0.00     0.041 C 
BRANCH   3   5
ATOM      5  N   UNL     1       9.504  -4.321   6.218  1.00  0.00    -0.342 N 
ATOM      6  C   UNL     1       8.162  -4.462   6.501  1.00  0.00     0.251 C 
ATOM      7  O   UNL     1       7.607  -5.549   6.623  1.00  0.00    -0.272 OA
ATOM      8  H   UNL     1       9.844  -3.369   6.103  1.00  0.00     0.164 HD
BRANCH   6   9
ATOM      9  C   UNL     1       7.459  -3.115   6.732  1.00  0.00     0.219 C 
BRANCH   9  10
ATOM     10  O   UNL     1       8.375  -2.061   7.054  1.00  0.00    -0.382 OA
ATOM     11  H   UNL     1       9.221  -2.361   6.655  1.00  0.00     0.211 HD
ENDBRANCH   9  10
BRANCH   9  12
ATOM     12  C   UNL     1       6.535  -2.701   5.557  1.00  0.00     0.089 C 
BRANCH  12  13
ATOM     13  N   UNL     1       6.850  -3.557   4.390  1.00  0.00    -0.325 NA
ATOM     14  H   UNL     1       5.980  -3.843   3.939  1.00  0.00     0.119 HD
ATOM     15  H   UNL     1       7.277  -4.425   4.722  1.00  0.00     0.119 HD
ENDBRANCH  12  13
BRANCH  12  16
ATOM     16  C   UNL     1       5.015  -2.735   5.846  1.00  0.00     0.022 C 
BRANCH  16  17
ATOM     17  C   UNL     1       4.048  -2.107   4.832  1.00  0.00     0.002 C 
BRANCH  17  18
ATOM     18  C   UNL     1       3.955  -0.584   4.889  1.00  0.00     0.000 C 
BRANCH  18  19
ATOM     19  C   UNL     1       2.819   0.004   4.041  1.00  0.00    -0.000 C 
BRANCH  19  20
ATOM     20  C   UNL     1       2.354  -0.875   2.877  1.00  0.00    -0.000 C 
BRANCH  20  21
ATOM     21  C   UNL     1       1.914  -0.067   1.653  1.00  0.00    -0.003 C 
ATOM     22  C   UNL     1       2.905   1.042   1.336  1.00  0.00     0.004 C 
ENDBRANCH  20  21
ENDBRANCH  19  20
ENDBRANCH  18  19
ENDBRANCH  17  18
ENDBRANCH  16  17
ENDBRANCH  12  16
ENDBRANCH   9  12
ENDBRANCH   6   9
ENDBRANCH   3   5
ENDBRANCH   2   3
BRANCH   2  23
ATOM     23  N   UNL     1      11.814  -5.190   3.980  1.00  0.00    -0.332 N 
ATOM     24  C   UNL     1      12.554  -4.213   3.194  1.00  0.00     0.147 C 
BRANCH  23  25
ATOM     25  C   UNL     1      11.235  -6.315   3.197  1.00  0.00     0.174 C 
BRANCH  25  26
ATOM     26  C   UNL     1      12.141  -7.569   3.185  1.00  0.00     0.038 C 
BRANCH  26  27
ATOM     27  C   UNL     1      11.755  -8.720   4.140  1.00  0.00    -0.015 C 
ATOM     28  C   UNL     1      12.606  -8.736   5.410  1.00  0.00     0.007 C 
ATOM     29  C   UNL     1      10.269  -8.748   4.489  1.00  0.00     0.007 C 
ENDBRANCH  26  27
ENDBRANCH  25  26
BRANCH  25  30
ATOM     30  C   UNL     1      10.829  -5.828   1.787  1.00  0.00     0.243 C 
ATOM     31  O   UNL     1      11.431  -6.188   0.776  1.00  0.00    -0.273 OA
ATOM     32  N   UNL     1       9.761  -4.969   1.741  1.00  0.00    -0.342 N 
ATOM     33  H   UNL     1       9.227  -4.831   2.602  1.00  0.00     0.164 HD
BRANCH  32  34
ATOM     34  C   UNL     1       9.254  -4.386   0.495  1.00  0.00     0.175 C 
BRANCH  34  35
ATOM     35  C   UNL     1       7.894  -4.987   0.110  1.00  0.00     0.070 C 
BRANCH  35  36
ATOM     36  C   UNL     1       7.719  -5.129  -1.385  1.00  0.00    -0.045 A 
ATOM     37  C   UNL     1       6.434  -5.270  -1.931  1.00  0.00     0.007 A 
ATOM     38  C   UNL     1       8.829  -5.147  -2.240  1.00  0.00     0.007 A 
ATOM     39  C   UNL     1       6.264  -5.416  -3.308  1.00  0.00     0.046 A 
ATOM     40  C   UNL     1       8.660  -5.294  -3.619  1.00  0.00     0.046 A 
ATOM     41  C   UNL     1       7.377  -5.427  -4.141  1.00  0.00     0.115 A 
BRANCH  41  42
ATOM     42  O   UNL     1       7.168  -5.575  -5.480  1.00  0.00    -0.508 OA
ATOM     43  H   UNL     1       7.168  -4.693  -5.887  1.00  0.00     0.293 HD
ENDBRANCH  41  42
ENDBRANCH  35  36
ENDBRANCH  34  35
BRANCH  34  44
ATOM     44  C   UNL     1       9.178  -2.854   0.680  1.00  0.00     0.243 C 
ATOM     45  O   UNL     1       9.553  -2.035  -0.154  1.00  0.00    -0.273 OA
ATOM     46  N   UNL     1       8.764  -2.473   1.939  1.00  0.00    -0.341 N 
ATOM     47  H   UNL     1       8.576  -3.191   2.635  1.00  0.00     0.164 HD
BRANCH  46  48
ATOM     48  C   UNL     1       8.678  -1.077   2.371  1.00  0.00     0.196 C 
BRANCH  48  49
ATOM     49  C   UNL     1       7.219  -0.650   2.602  1.00  0.00     0.072 C 
BRANCH  49  50
ATOM     50  C   UNL     1       6.349  -0.872   1.386  1.00  0.00    -0.045 A 
ATOM     51  C   UNL     1       5.482  -1.974   1.339  1.00  0.00     0.007 A 
ATOM     52  C   UNL     1       6.407  -0.004   0.289  1.00  0.00     0.007 A 
ATOM     53  C   UNL     1       4.684  -2.197   0.216  1.00  0.00     0.046 A 
ATOM     54  C   UNL     1       5.609  -0.227  -0.835  1.00  0.00     0.046 A 
ATOM     55  C   UNL     1       4.753  -1.323  -0.861  1.00  0.00     0.115 A 
BRANCH  55  56
ATOM     56  O   UNL     1       3.958  -1.577  -1.939  1.00  0.00    -0.508 OA
ATOM     57  H   UNL     1       4.523  -1.855  -2.678  1.00  0.00     0.293 HD
ENDBRANCH  55  56
ENDBRANCH  49  50
ENDBRANCH  48  49
BRANCH  48  58
ATOM     58  C   UNL     1       9.476  -0.907   3.672  1.00  0.00     0.326 C 
ATOM     59  O   UNL     1       9.876   0.137   4.162  1.00  0.00    -0.250 OA
BRANCH  58  60
ATOM     60  O   UNL     1       9.724  -2.077   4.312  1.00  0.00    -0.480 OA
ATOM     61  H   UNL     1      10.701  -2.080   4.408  1.00  0.00     0.296 HD
ENDBRANCH  58  60
ENDBRANCH  48  58
ENDBRANCH  46  48
ENDBRANCH  34  44
ENDBRANCH  32  34
ENDBRANCH  25  30
ENDBRANCH  23  25
ENDBRANCH   2  23
TORSDOF 28
ENDMDL
MODEL 14
REMARK VINA RESULT:    -5.878      2.228      7.882
REMARK INTER + INTRA:         -20.105
REMARK INTER:                 -14.867
REMARK INTRA:                  -5.238
REMARK UNBOUND:                -5.466
REMARK SMILES CCCCCCC[C@H](N)[C@H](O)C(=O)N[C@H](C)C(=O)N(C)[C@H](CC(C)C)C(=O)N[C@@H](Cc1ccc(O)cc1)C(=O)N[C@@H](Cc1ccc(O)cc1)C(=O)O
REMARK SMILES IDX 18 1 17 2 15 3 16 4 14 5 12 6 13 7 10 9 11 10 8 12 9 13 7 16
REMARK SMILES IDX 6 17 5 18 4 19 3 20 2 21 1 22 19 23 20 24 21 25 22 26 23 27
REMARK SMILES IDX 24 28 25 29 26 30 27 31 28 32 29 34 30 35 31 36 32 37 37 38
REMARK SMILES IDX 33 39 36 40 34 41 35 42 38 44 39 45 40 46 41 48 42 49 43 50
REMARK SMILES IDX 44 51 49 52 45 53 48 54 46 55 47 56 50 58 51 59 52 60
REMARK H PARENT 14 8 11 11 9 14 9 15 28 33 35 43 40 47 47 57 52 61
ROOT
ATOM      1  O   UNL     1       8.703  -4.924  -5.700  1.00  0.00    -0.272 OA
ATOM      2  C   UNL     1       8.223  -4.677  -4.584  1.00  0.00     0.245 C 
ENDROOT
BRANCH   2   3
ATOM      3  C   UNL     1       6.965  -5.458  -4.129  1.00  0.00     0.168 C 
ATOM      4  C   UNL     1       7.228  -6.960  -4.136  1.00  0.00     0.041 C 
BRANCH   3   5
ATOM      5  N   UNL     1       6.392  -5.014  -2.868  1.00  0.00    -0.342 N 
ATOM      6  C   UNL     1       5.061  -4.672  -2.753  1.00  0.00     0.251 C 
ATOM      7  O   UNL     1       4.279  -4.674  -3.697  1.00  0.00    -0.272 OA
ATOM      8  H   UNL     1       6.952  -4.938  -2.022  1.00  0.00     0.164 HD
BRANCH   6   9
ATOM      9  C   UNL     1       4.648  -4.372  -1.303  1.00  0.00     0.219 C 
BRANCH   9  10
ATOM     10  O   UNL     1       5.356  -5.174  -0.350  1.00  0.00    -0.382 OA
ATOM     11  H   UNL     1       5.367  -4.615   0.459  1.00  0.00     0.211 HD
ENDBRANCH   9  10
BRANCH   9  12
ATOM     12  C   UNL     1       4.748  -2.867  -0.940  1.00  0.00     0.089 C 
BRANCH  12  13
ATOM     13  N   UNL     1       5.273  -2.137  -2.116  1.00  0.00    -0.325 NA
ATOM     14  H   UNL     1       4.771  -1.252  -2.214  1.00  0.00     0.119 HD
ATOM     15  H   UNL     1       5.048  -2.666  -2.962  1.00  0.00     0.119 HD
ENDBRANCH  12  13
BRANCH  12  16
ATOM     16  C   UNL     1       3.443  -2.202  -0.440  1.00  0.00     0.022 C 
BRANCH  16  17
ATOM     17  C   UNL     1       3.494  -1.296   0.798  1.00  0.00     0.002 C 
BRANCH  17  18
ATOM     18  C   UNL     1       2.866   0.084   0.613  1.00  0.00     0.000 C 
BRANCH  18  19
ATOM     19  C   UNL     1       2.566   0.815   1.928  1.00  0.00    -0.000 C 
BRANCH  19  20
ATOM     20  C   UNL     1       2.602  -0.063   3.183  1.00  0.00    -0.000 C 
BRANCH  20  21
ATOM     21  C   UNL     1       1.213  -0.528   3.628  1.00  0.00    -0.003 C 
ATOM     22  C   UNL     1       0.470   0.572   4.370  1.00  0.00     0.004 C 
ENDBRANCH  20  21
ENDBRANCH  19  20
ENDBRANCH  18  19
ENDBRANCH  17  18
ENDBRANCH  16  17
ENDBRANCH  12  16
ENDBRANCH   9  12
ENDBRANCH   6   9
ENDBRANCH   3   5
ENDBRANCH   2   3
BRANCH   2  23
ATOM     23  N   UNL     1       8.879  -3.806  -3.721  1.00  0.00    -0.332 N 
ATOM     24  C   UNL     1       8.558  -2.394  -3.571  1.00  0.00     0.147 C 
BRANCH  23  25
ATOM     25  C   UNL     1       9.906  -4.319  -2.773  1.00  0.00     0.174 C 
BRANCH  25  26
ATOM     26  C   UNL     1      10.484  -5.690  -3.197  1.00  0.00     0.038 C 
BRANCH  26  27
ATOM     27  C   UNL     1      12.023  -5.809  -3.268  1.00  0.00    -0.015 C 
ATOM     28  C   UNL     1      12.732  -4.658  -2.554  1.00  0.00     0.007 C 
ATOM     29  C   UNL     1      12.552  -7.154  -2.775  1.00  0.00     0.007 C 
ENDBRANCH  26  27
ENDBRANCH  25  26
BRANCH  25  30
ATOM     30  C   UNL     1       9.356  -4.296  -1.329  1.00  0.00     0.243 C 
ATOM     31  O   UNL     1       8.453  -5.047  -0.965  1.00  0.00    -0.273 OA
ATOM     32  N   UNL     1       9.937  -3.381  -0.488  1.00  0.00    -0.342 N 
ATOM     33  H   UNL     1      10.773  -2.895  -0.822  1.00  0.00     0.164 HD
BRANCH  32  34
ATOM     34  C   UNL     1       9.525  -3.200   0.907  1.00  0.00     0.175 C 
BRANCH  34  35
ATOM     35  C   UNL     1       7.995  -3.241   1.047  1.00  0.00     0.070 C 
BRANCH  35  36
ATOM     36  C   UNL     1       7.416  -1.926   1.519  1.00  0.00    -0.045 A 
ATOM     37  C   UNL     1       6.863  -1.824   2.804  1.00  0.00     0.007 A 
ATOM     38  C   UNL     1       7.402  -0.804   0.679  1.00  0.00     0.007 A 
ATOM     39  C   UNL     1       6.314  -0.618   3.243  1.00  0.00     0.046 A 
ATOM     40  C   UNL     1       6.851   0.402   1.118  1.00  0.00     0.046 A 
ATOM     41  C   UNL     1       6.313   0.484   2.397  1.00  0.00     0.115 A 
BRANCH  41  42
ATOM     42  O   UNL     1       5.764   1.642   2.863  1.00  0.00    -0.508 OA
ATOM     43  H   UNL     1       5.690   2.265   2.121  1.00  0.00     0.293 HD
ENDBRANCH  41  42
ENDBRANCH  35  36
ENDBRANCH  34  35
BRANCH  34  44
ATOM     44  C   UNL     1      10.212  -4.294   1.755  1.00  0.00     0.243 C 
ATOM     45  O   UNL     1      11.135  -5.000   1.360  1.00  0.00    -0.273 OA
ATOM     46  N   UNL     1       9.604  -4.505   2.975  1.00  0.00    -0.341 N 
ATOM     47  H   UNL     1       8.769  -3.974   3.209  1.00  0.00     0.164 HD
BRANCH  46  48
ATOM     48  C   UNL     1      10.035  -5.536   3.922  1.00  0.00     0.196 C 
BRANCH  48  49
ATOM     49  C   UNL     1      10.369  -4.929   5.295  1.00  0.00     0.072 C 
BRANCH  49  50
ATOM     50  C   UNL     1       9.382  -3.865   5.717  1.00  0.00    -0.045 A 
ATOM     51  C   UNL     1       8.091  -4.231   6.127  1.00  0.00     0.007 A 
ATOM     52  C   UNL     1       9.727  -2.508   5.686  1.00  0.00     0.007 A 
ATOM     53  C   UNL     1       7.167  -3.257   6.506  1.00  0.00     0.046 A 
ATOM     54  C   UNL     1       8.802  -1.532   6.064  1.00  0.00     0.046 A 
ATOM     55  C   UNL     1       7.529  -1.916   6.472  1.00  0.00     0.115 A 
BRANCH  55  56
ATOM     56  O   UNL     1       6.597  -0.995   6.848  1.00  0.00    -0.508 OA
ATOM     57  H   UNL     1       5.996  -1.412   7.487  1.00  0.00     0.293 HD
ENDBRANCH  55  56
ENDBRANCH  49  50
ENDBRANCH  48  49
BRANCH  48  58
ATOM     58  C   UNL     1       8.914  -6.572   4.076  1.00  0.00     0.326 C 
ATOM     59  O   UNL     1       8.828  -7.448   4.921  1.00  0.00    -0.250 OA
BRANCH  58  60
ATOM     60  O   UNL     1       7.929  -6.446   3.151  1.00  0.00    -0.480 OA
ATOM     61  H   UNL     1       8.244  -7.005   2.408  1.00  0.00     0.296 HD
ENDBRANCH  58  60
ENDBRANCH  48  58
ENDBRANCH  46  48
ENDBRANCH  34  44
ENDBRANCH  32  34
ENDBRANCH  25  30
ENDBRANCH  23  25
ENDBRANCH   2  23
TORSDOF 28
ENDMDL
MODEL 15
REMARK VINA RESULT:    -5.863      2.358      7.836
REMARK INTER + INTRA:         -20.069
REMARK INTER:                 -13.618
REMARK INTRA:                  -6.451
REMARK UNBOUND:                -5.466
REMARK SMILES CCCCCCC[C@H](N)[C@H](O)C(=O)N[C@H](C)C(=O)N(C)[C@H](CC(C)C)C(=O)N[C@@H](Cc1ccc(O)cc1)C(=O)N[C@@H](Cc1ccc(O)cc1)C(=O)O
REMARK SMILES IDX 18 1 17 2 15 3 16 4 14 5 12 6 13 7 10 9 11 10 8 12 9 13 7 16
REMARK SMILES IDX 6 17 5 18 4 19 3 20 2 21 1 22 19 23 20 24 21 25 22 26 23 27
REMARK SMILES IDX 24 28 25 29 26 30 27 31 28 32 29 34 30 35 31 36 32 37 37 38
REMARK SMILES IDX 33 39 36 40 34 41 35 42 38 44 39 45 40 46 41 48 42 49 43 50
REMARK SMILES IDX 44 51 49 52 45 53 48 54 46 55 47 56 50 58 51 59 52 60
REMARK H PARENT 14 8 11 11 9 14 9 15 28 33 35 43 40 47 47 57 52 61
ROOT
ATOM      1  O   UNL     1      10.261  -3.962   0.006  1.00  0.00    -0.272 OA
ATOM      2  C   UNL     1      10.807  -4.270  -1.064  1.00  0.00     0.245 C 
ENDROOT
BRANCH   2   3
ATOM      3  C   UNL     1       9.914  -4.513  -2.307  1.00  0.00     0.168 C 
ATOM      4  C   UNL     1      10.632  -5.392  -3.325  1.00  0.00     0.041 C 
BRANCH   3   5
ATOM      5  N   UNL     1       8.578  -5.005  -2.012  1.00  0.00    -0.342 N 
ATOM      6  C   UNL     1       7.447  -4.353  -2.457  1.00  0.00     0.251 C 
ATOM      7  O   UNL     1       7.477  -3.302  -3.088  1.00  0.00    -0.272 OA
ATOM      8  H   UNL     1       8.426  -5.850  -1.466  1.00  0.00     0.164 HD
BRANCH   6   9
ATOM      9  C   UNL     1       6.155  -5.128  -2.151  1.00  0.00     0.219 C 
BRANCH   9  10
ATOM     10  O   UNL     1       6.320  -6.546  -2.270  1.00  0.00    -0.382 OA
ATOM     11  H   UNL     1       6.742  -6.657  -3.150  1.00  0.00     0.211 HD
ENDBRANCH   9  10
BRANCH   9  12
ATOM     12  C   UNL     1       5.534  -4.759  -0.779  1.00  0.00     0.089 C 
BRANCH  12  13
ATOM     13  N   UNL     1       6.506  -5.106   0.283  1.00  0.00    -0.325 NA
ATOM     14  H   UNL     1       7.364  -4.570   0.141  1.00  0.00     0.119 HD
ATOM     15  H   UNL     1       6.781  -6.085   0.172  1.00  0.00     0.119 HD
ENDBRANCH  12  13
BRANCH  12  16
ATOM     16  C   UNL     1       5.072  -3.291  -0.617  1.00  0.00     0.022 C 
BRANCH  16  17
ATOM     17  C   UNL     1       5.539  -2.491   0.607  1.00  0.00     0.002 C 
BRANCH  17  18
ATOM     18  C   UNL     1       5.332  -0.982   0.509  1.00  0.00     0.000 C 
BRANCH  18  19
ATOM     19  C   UNL     1       4.551  -0.381   1.686  1.00  0.00    -0.000 C 
BRANCH  19  20
ATOM     20  C   UNL     1       3.040  -0.623   1.655  1.00  0.00    -0.000 C 
BRANCH  20  21
ATOM     21  C   UNL     1       2.486  -1.124   2.992  1.00  0.00    -0.003 C 
ATOM     22  C   UNL     1       3.605  -1.501   3.950  1.00  0.00     0.004 C 
ENDBRANCH  20  21
ENDBRANCH  19  20
ENDBRANCH  18  19
ENDBRANCH  17  18
ENDBRANCH  16  17
ENDBRANCH  12  16
ENDBRANCH   9  12
ENDBRANCH   6   9
ENDBRANCH   3   5
ENDBRANCH   2   3
BRANCH   2  23
ATOM     23  N   UNL     1      12.194  -4.271  -1.163  1.00  0.00    -0.332 N 
ATOM     24  C   UNL     1      12.980  -3.205  -1.764  1.00  0.00     0.147 C 
BRANCH  23  25
ATOM     25  C   UNL     1      12.991  -5.351  -0.519  1.00  0.00     0.174 C 
BRANCH  25  26
ATOM     26  C   UNL     1      12.245  -6.705  -0.474  1.00  0.00     0.038 C 
BRANCH  26  27
ATOM     27  C   UNL     1      13.056  -7.965  -0.849  1.00  0.00    -0.015 C 
ATOM     28  C   UNL     1      14.223  -7.652  -1.785  1.00  0.00     0.007 C 
ATOM     29  C   UNL     1      13.538  -8.760   0.362  1.00  0.00     0.007 C 
ENDBRANCH  26  27
ENDBRANCH  25  26
BRANCH  25  30
ATOM     30  C   UNL     1      13.509  -4.881   0.859  1.00  0.00     0.243 C 
ATOM     31  O   UNL     1      14.691  -4.993   1.182  1.00  0.00    -0.273 OA
ATOM     32  N   UNL     1      12.566  -4.340   1.694  1.00  0.00    -0.342 N 
ATOM     33  H   UNL     1      11.640  -4.152   1.304  1.00  0.00     0.164 HD
BRANCH  32  34
ATOM     34  C   UNL     1      12.871  -3.866   3.047  1.00  0.00     0.175 C 
BRANCH  34  35
ATOM     35  C   UNL     1      13.334  -2.401   3.036  1.00  0.00     0.070 C 
BRANCH  35  36
ATOM     36  C   UNL     1      12.202  -1.431   2.784  1.00  0.00    -0.045 A 
ATOM     37  C   UNL     1      11.745  -1.211   1.476  1.00  0.00     0.007 A 
ATOM     38  C   UNL     1      11.612  -0.726   3.841  1.00  0.00     0.007 A 
ATOM     39  C   UNL     1      10.710  -0.307   1.233  1.00  0.00     0.046 A 
ATOM     40  C   UNL     1      10.576   0.180   3.598  1.00  0.00     0.046 A 
ATOM     41  C   UNL     1      10.133   0.380   2.294  1.00  0.00     0.115 A 
BRANCH  41  42
ATOM     42  O   UNL     1       9.127   1.256   2.013  1.00  0.00    -0.508 OA
ATOM     43  H   UNL     1       9.464   2.158   2.141  1.00  0.00     0.293 HD
ENDBRANCH  41  42
ENDBRANCH  35  36
ENDBRANCH  34  35
BRANCH  34  44
ATOM     44  C   UNL     1      11.610  -4.066   3.919  1.00  0.00     0.243 C 
ATOM     45  O   UNL     1      11.609  -4.067   5.147  1.00  0.00    -0.273 OA
ATOM     46  N   UNL     1      10.482  -4.378   3.190  1.00  0.00    -0.341 N 
ATOM     47  H   UNL     1      10.559  -4.480   2.181  1.00  0.00     0.164 HD
BRANCH  46  48
ATOM     48  C   UNL     1       9.185  -4.677   3.801  1.00  0.00     0.196 C 
BRANCH  48  49
ATOM     49  C   UNL     1       8.091  -3.727   3.286  1.00  0.00     0.072 C 
BRANCH  49  50
ATOM     50  C   UNL     1       7.747  -2.642   4.281  1.00  0.00    -0.045 A 
ATOM     51  C   UNL     1       7.833  -2.903   5.657  1.00  0.00     0.007 A 
ATOM     52  C   UNL     1       7.320  -1.379   3.853  1.00  0.00     0.007 A 
ATOM     53  C   UNL     1       7.504  -1.915   6.585  1.00  0.00     0.046 A 
ATOM     54  C   UNL     1       6.990  -0.390   4.782  1.00  0.00     0.046 A 
ATOM     55  C   UNL     1       7.086  -0.666   6.141  1.00  0.00     0.115 A 
BRANCH  55  56
ATOM     56  O   UNL     1       6.773   0.271   7.080  1.00  0.00    -0.508 OA
ATOM     57  H   UNL     1       6.218   0.949   6.662  1.00  0.00     0.293 HD
ENDBRANCH  55  56
ENDBRANCH  49  50
ENDBRANCH  48  49
BRANCH  48  58
ATOM     58  C   UNL     1       8.803  -6.127   3.475  1.00  0.00     0.326 C 
ATOM     59  O   UNL     1       9.395  -7.141   3.808  1.00  0.00    -0.250 OA
BRANCH  58  60
ATOM     60  O   UNL     1       7.664  -6.236   2.745  1.00  0.00    -0.480 OA
ATOM     61  H   UNL     1       7.780  -7.088   2.272  1.00  0.00     0.296 HD
ENDBRANCH  58  60
ENDBRANCH  48  58
ENDBRANCH  46  48
ENDBRANCH  34  44
ENDBRANCH  32  34
ENDBRANCH  25  30
ENDBRANCH  23  25
ENDBRANCH   2  23
TORSDOF 28
ENDMDL
MODEL 16
REMARK VINA RESULT:    -5.857      2.456      4.034
REMARK INTER + INTRA:         -20.053
REMARK INTER:                 -12.888
REMARK INTRA:                  -7.166
REMARK UNBOUND:                -5.466
REMARK SMILES CCCCCCC[C@H](N)[C@H](O)C(=O)N[C@H](C)C(=O)N(C)[C@H](CC(C)C)C(=O)N[C@@H](Cc1ccc(O)cc1)C(=O)N[C@@H](Cc1ccc(O)cc1)C(=O)O
REMARK SMILES IDX 18 1 17 2 15 3 16 4 14 5 12 6 13 7 10 9 11 10 8 12 9 13 7 16
REMARK SMILES IDX 6 17 5 18 4 19 3 20 2 21 1 22 19 23 20 24 21 25 22 26 23 27
REMARK SMILES IDX 24 28 25 29 26 30 27 31 28 32 29 34 30 35 31 36 32 37 37 38
REMARK SMILES IDX 33 39 36 40 34 41 35 42 38 44 39 45 40 46 41 48 42 49 43 50
REMARK SMILES IDX 44 51 49 52 45 53 48 54 46 55 47 56 50 58 51 59 52 60
REMARK H PARENT 14 8 11 11 9 14 9 15 28 33 35 43 40 47 47 57 52 61
ROOT
ATOM      1  O   UNL     1      12.156  -4.350   6.797  1.00  0.00    -0.272 OA
ATOM      2  C   UNL     1      11.454  -4.155   5.794  1.00  0.00     0.245 C 
ENDROOT
BRANCH   2   3
ATOM      3  C   UNL     1      11.255  -2.699   5.302  1.00  0.00     0.168 C 
ATOM      4  C   UNL     1      11.834  -2.516   3.903  1.00  0.00     0.041 C 
BRANCH   3   5
ATOM      5  N   UNL     1       9.890  -2.205   5.392  1.00  0.00    -0.342 N 
ATOM      6  C   UNL     1       9.456  -1.456   6.465  1.00  0.00     0.251 C 
ATOM      7  O   UNL     1      10.162  -1.187   7.432  1.00  0.00    -0.272 OA
ATOM      8  H   UNL     1       9.202  -2.394   4.667  1.00  0.00     0.164 HD
BRANCH   6   9
ATOM      9  C   UNL     1       8.026  -0.925   6.280  1.00  0.00     0.219 C 
BRANCH   9  10
ATOM     10  O   UNL     1       7.959   0.174   5.363  1.00  0.00    -0.382 OA
ATOM     11  H   UNL     1       7.552  -0.219   4.560  1.00  0.00     0.211 HD
ENDBRANCH   9  10
BRANCH   9  12
ATOM     12  C   UNL     1       7.011  -2.030   5.889  1.00  0.00     0.089 C 
BRANCH  12  13
ATOM     13  N   UNL     1       7.197  -3.180   6.804  1.00  0.00    -0.325 NA
ATOM     14  H   UNL     1       7.916  -3.798   6.424  1.00  0.00     0.119 HD
ATOM     15  H   UNL     1       6.340  -3.739   6.810  1.00  0.00     0.119 HD
ENDBRANCH  12  13
BRANCH  12  16
ATOM     16  C   UNL     1       5.523  -1.606   5.863  1.00  0.00     0.022 C 
BRANCH  16  17
ATOM     17  C   UNL     1       4.721  -1.772   4.565  1.00  0.00     0.002 C 
BRANCH  17  18
ATOM     18  C   UNL     1       5.549  -1.704   3.283  1.00  0.00     0.000 C 
BRANCH  18  19
ATOM     19  C   UNL     1       5.655  -0.296   2.682  1.00  0.00    -0.000 C 
BRANCH  19  20
ATOM     20  C   UNL     1       4.840  -0.072   1.405  1.00  0.00    -0.000 C 
BRANCH  20  21
ATOM     21  C   UNL     1       3.557  -0.905   1.358  1.00  0.00    -0.003 C 
ATOM     22  C   UNL     1       3.301  -1.451  -0.038  1.00  0.00     0.004 C 
ENDBRANCH  20  21
ENDBRANCH  19  20
ENDBRANCH  18  19
ENDBRANCH  17  18
ENDBRANCH  16  17
ENDBRANCH  12  16
ENDBRANCH   9  12
ENDBRANCH   6   9
ENDBRANCH   3   5
ENDBRANCH   2   3
BRANCH   2  23
ATOM     23  N   UNL     1      10.967  -5.234   5.064  1.00  0.00    -0.332 N 
ATOM     24  C   UNL     1      11.799  -6.218   4.389  1.00  0.00     0.147 C 
BRANCH  23  25
ATOM     25  C   UNL     1       9.507  -5.524   5.038  1.00  0.00     0.174 C 
BRANCH  25  26
ATOM     26  C   UNL     1       9.128  -6.780   5.859  1.00  0.00     0.038 C 
BRANCH  26  27
ATOM     27  C   UNL     1       9.282  -6.685   7.394  1.00  0.00    -0.015 C 
ATOM     28  C   UNL     1       7.968  -6.948   8.130  1.00  0.00     0.007 C 
ATOM     29  C   UNL     1      10.394  -7.571   7.948  1.00  0.00     0.007 C 
ENDBRANCH  26  27
ENDBRANCH  25  26
BRANCH  25  30
ATOM     30  C   UNL     1       8.997  -5.559   3.579  1.00  0.00     0.243 C 
ATOM     31  O   UNL     1       8.490  -6.568   3.092  1.00  0.00    -0.273 OA
ATOM     32  N   UNL     1       9.154  -4.397   2.869  1.00  0.00    -0.342 N 
ATOM     33  H   UNL     1       9.451  -3.563   3.383  1.00  0.00     0.164 HD
BRANCH  32  34
ATOM     34  C   UNL     1       8.754  -4.254   1.466  1.00  0.00     0.175 C 
BRANCH  34  35
ATOM     35  C   UNL     1       7.225  -4.188   1.325  1.00  0.00     0.070 C 
BRANCH  35  36
ATOM     36  C   UNL     1       6.753  -4.510  -0.075  1.00  0.00    -0.045 A 
ATOM     37  C   UNL     1       5.419  -4.271  -0.438  1.00  0.00     0.007 A 
ATOM     38  C   UNL     1       7.626  -5.069  -1.018  1.00  0.00     0.007 A 
ATOM     39  C   UNL     1       4.970  -4.578  -1.723  1.00  0.00     0.046 A 
ATOM     40  C   UNL     1       7.177  -5.378  -2.304  1.00  0.00     0.046 A 
ATOM     41  C   UNL     1       5.852  -5.128  -2.645  1.00  0.00     0.115 A 
BRANCH  41  42
ATOM     42  O   UNL     1       5.373  -5.416  -3.889  1.00  0.00    -0.508 OA
ATOM     43  H   UNL     1       5.469  -6.372  -4.038  1.00  0.00     0.293 HD
ENDBRANCH  41  42
ENDBRANCH  35  36
ENDBRANCH  34  35
BRANCH  34  44
ATOM     44  C   UNL     1       9.441  -2.992   0.898  1.00  0.00     0.243 C 
ATOM     45  O   UNL     1      10.562  -2.979   0.396  1.00  0.00    -0.273 OA
ATOM     46  N   UNL     1       8.730  -1.832   1.122  1.00  0.00    -0.341 N 
ATOM     47  H   UNL     1       7.860  -1.880   1.646  1.00  0.00     0.164 HD
BRANCH  46  48
ATOM     48  C   UNL     1       9.212  -0.505   0.735  1.00  0.00     0.196 C 
BRANCH  48  49
ATOM     49  C   UNL     1       8.203   0.214  -0.176  1.00  0.00     0.072 C 
BRANCH  49  50
ATOM     50  C   UNL     1       7.880  -0.576  -1.424  1.00  0.00    -0.045 A 
ATOM     51  C   UNL     1       6.543  -0.795  -1.786  1.00  0.00     0.007 A 
ATOM     52  C   UNL     1       8.900  -1.114  -2.220  1.00  0.00     0.007 A 
ATOM     53  C   UNL     1       6.233  -1.534  -2.929  1.00  0.00     0.046 A 
ATOM     54  C   UNL     1       8.589  -1.854  -3.363  1.00  0.00     0.046 A 
ATOM     55  C   UNL     1       7.258  -2.057  -3.708  1.00  0.00     0.115 A 
BRANCH  55  56
ATOM     56  O   UNL     1       6.913  -2.774  -4.815  1.00  0.00    -0.508 OA
ATOM     57  H   UNL     1       6.346  -3.511  -4.538  1.00  0.00     0.293 HD
ENDBRANCH  55  56
ENDBRANCH  49  50
ENDBRANCH  48  49
BRANCH  48  58
ATOM     58  C   UNL     1       9.448   0.330   2.002  1.00  0.00     0.326 C 
ATOM     59  O   UNL     1       9.541  -0.078   3.148  1.00  0.00    -0.250 OA
BRANCH  58  60
ATOM     60  O   UNL     1       9.572   1.659   1.759  1.00  0.00    -0.480 OA
ATOM     61  H   UNL     1       8.646   1.948   1.603  1.00  0.00     0.296 HD
ENDBRANCH  58  60
ENDBRANCH  48  58
ENDBRANCH  46  48
ENDBRANCH  34  44
ENDBRANCH  32  34
ENDBRANCH  25  30
ENDBRANCH  23  25
ENDBRANCH   2  23
TORSDOF 28
ENDMDL
MODEL 17
REMARK VINA RESULT:    -5.850      2.553      5.467
REMARK INTER + INTRA:         -20.035
REMARK INTER:                 -14.540
REMARK INTRA:                  -5.495
REMARK UNBOUND:                -5.466
REMARK SMILES CCCCCCC[C@H](N)[C@H](O)C(=O)N[C@H](C)C(=O)N(C)[C@H](CC(C)C)C(=O)N[C@@H](Cc1ccc(O)cc1)C(=O)N[C@@H](Cc1ccc(O)cc1)C(=O)O
REMARK SMILES IDX 18 1 17 2 15 3 16 4 14 5 12 6 13 7 10 9 11 10 8 12 9 13 7 16
REMARK SMILES IDX 6 17 5 18 4 19 3 20 2 21 1 22 19 23 20 24 21 25 22 26 23 27
REMARK SMILES IDX 24 28 25 29 26 30 27 31 28 32 29 34 30 35 31 36 32 37 37 38
REMARK SMILES IDX 33 39 36 40 34 41 35 42 38 44 39 45 40 46 41 48 42 49 43 50
REMARK SMILES IDX 44 51 49 52 45 53 48 54 46 55 47 56 50 58 51 59 52 60
REMARK H PARENT 14 8 11 11 9 14 9 15 28 33 35 43 40 47 47 57 52 61
ROOT
ATOM      1  O   UNL     1       8.430  -8.085   7.947  1.00  0.00    -0.272 OA
ATOM      2  C   UNL     1       8.547  -6.986   7.385  1.00  0.00     0.245 C 
ENDROOT
BRANCH   2   3
ATOM      3  C   UNL     1       7.362  -5.991   7.449  1.00  0.00     0.168 C 
ATOM      4  C   UNL     1       6.554  -6.191   8.726  1.00  0.00     0.041 C 
BRANCH   3   5
ATOM      5  N   UNL     1       7.724  -4.596   7.249  1.00  0.00    -0.342 N 
ATOM      6  C   UNL     1       6.848  -3.689   6.690  1.00  0.00     0.251 C 
ATOM      7  O   UNL     1       5.730  -3.990   6.285  1.00  0.00    -0.272 OA
ATOM      8  H   UNL     1       8.637  -4.236   7.515  1.00  0.00     0.164 HD
BRANCH   6   9
ATOM      9  C   UNL     1       7.389  -2.251   6.709  1.00  0.00     0.219 C 
BRANCH   9  10
ATOM     10  O   UNL     1       8.814  -2.198   6.855  1.00  0.00    -0.382 OA
ATOM     11  H   UNL     1       9.132  -2.929   6.281  1.00  0.00     0.211 HD
ENDBRANCH   9  10
BRANCH   9  12
ATOM     12  C   UNL     1       6.929  -1.411   5.489  1.00  0.00     0.089 C 
BRANCH  12  13
ATOM     13  N   UNL     1       5.826  -0.523   5.922  1.00  0.00    -0.325 NA
ATOM     14  H   UNL     1       6.192   0.420   6.069  1.00  0.00     0.119 HD
ATOM     15  H   UNL     1       5.497  -0.828   6.841  1.00  0.00     0.119 HD
ENDBRANCH  12  13
BRANCH  12  16
ATOM     16  C   UNL     1       8.030  -0.585   4.781  1.00  0.00     0.022 C 
BRANCH  16  17
ATOM     17  C   UNL     1       8.294  -0.818   3.287  1.00  0.00     0.002 C 
BRANCH  17  18
ATOM     18  C   UNL     1       8.308  -2.283   2.856  1.00  0.00     0.000 C 
BRANCH  18  19
ATOM     19  C   UNL     1       8.405  -2.487   1.338  1.00  0.00    -0.000 C 
BRANCH  19  20
ATOM     20  C   UNL     1       7.827  -1.349   0.492  1.00  0.00    -0.000 C 
BRANCH  20  21
ATOM     21  C   UNL     1       6.751  -1.820  -0.491  1.00  0.00    -0.003 C 
ATOM     22  C   UNL     1       5.795  -2.805   0.163  1.00  0.00     0.004 C 
ENDBRANCH  20  21
ENDBRANCH  19  20
ENDBRANCH  18  19
ENDBRANCH  17  18
ENDBRANCH  16  17
ENDBRANCH  12  16
ENDBRANCH   9  12
ENDBRANCH   6   9
ENDBRANCH   3   5
ENDBRANCH   2   3
BRANCH   2  23
ATOM     23  N   UNL     1       9.764  -6.620   6.820  1.00  0.00    -0.332 N 
ATOM     24  C   UNL     1      10.831  -5.932   7.532  1.00  0.00     0.147 C 
BRANCH  23  25
ATOM     25  C   UNL     1      10.106  -7.041   5.434  1.00  0.00     0.174 C 
BRANCH  25  26
ATOM     26  C   UNL     1      11.370  -7.930   5.369  1.00  0.00     0.038 C 
BRANCH  26  27
ATOM     27  C   UNL     1      11.159  -9.457   5.476  1.00  0.00    -0.015 C 
ATOM     28  C   UNL     1      11.424  -9.986   6.885  1.00  0.00     0.007 C 
ATOM     29  C   UNL     1       9.791  -9.917   4.978  1.00  0.00     0.007 C 
ENDBRANCH  26  27
ENDBRANCH  25  26
BRANCH  25  30
ATOM     30  C   UNL     1      10.165  -5.808   4.503  1.00  0.00     0.243 C 
ATOM     31  O   UNL     1       9.303  -4.931   4.530  1.00  0.00    -0.273 OA
ATOM     32  N   UNL     1      11.235  -5.763   3.646  1.00  0.00    -0.342 N 
ATOM     33  H   UNL     1      11.979  -6.451   3.781  1.00  0.00     0.164 HD
BRANCH  32  34
ATOM     34  C   UNL     1      11.438  -4.685   2.674  1.00  0.00     0.175 C 
BRANCH  34  35
ATOM     35  C   UNL     1      12.752  -3.934   2.940  1.00  0.00     0.070 C 
BRANCH  35  36
ATOM     36  C   UNL     1      12.680  -3.043   4.160  1.00  0.00    -0.045 A 
ATOM     37  C   UNL     1      13.469  -3.328   5.285  1.00  0.00     0.007 A 
ATOM     38  C   UNL     1      11.815  -1.942   4.196  1.00  0.00     0.007 A 
ATOM     39  C   UNL     1      13.400  -2.520   6.420  1.00  0.00     0.046 A 
ATOM     40  C   UNL     1      11.743  -1.133   5.333  1.00  0.00     0.046 A 
ATOM     41  C   UNL     1      12.538  -1.429   6.435  1.00  0.00     0.115 A 
BRANCH  41  42
ATOM     42  O   UNL     1      12.498  -0.667   7.565  1.00  0.00    -0.508 OA
ATOM     43  H   UNL     1      11.574  -0.415   7.729  1.00  0.00     0.293 HD
ENDBRANCH  41  42
ENDBRANCH  35  36
ENDBRANCH  34  35
BRANCH  34  44
ATOM     44  C   UNL     1      11.403  -5.303   1.259  1.00  0.00     0.243 C 
ATOM     45  O   UNL     1      11.414  -6.509   1.027  1.00  0.00    -0.273 OA
ATOM     46  N   UNL     1      11.491  -4.367   0.249  1.00  0.00    -0.341 N 
ATOM     47  H   UNL     1      11.598  -3.386   0.493  1.00  0.00     0.164 HD
BRANCH  46  48
ATOM     48  C   UNL     1      11.544  -4.718  -1.172  1.00  0.00     0.196 C 
BRANCH  48  49
ATOM     49  C   UNL     1      10.515  -3.916  -1.986  1.00  0.00     0.072 C 
BRANCH  49  50
ATOM     50  C   UNL     1       9.402  -4.781  -2.531  1.00  0.00    -0.045 A 
ATOM     51  C   UNL     1       8.169  -4.835  -1.866  1.00  0.00     0.007 A 
ATOM     52  C   UNL     1       9.588  -5.552  -3.686  1.00  0.00     0.007 A 
ATOM     53  C   UNL     1       7.139  -5.640  -2.352  1.00  0.00     0.046 A 
ATOM     54  C   UNL     1       8.557  -6.359  -4.172  1.00  0.00     0.046 A 
ATOM     55  C   UNL     1       7.340  -6.396  -3.501  1.00  0.00     0.115 A 
BRANCH  55  56
ATOM     56  O   UNL     1       6.309  -7.171  -3.943  1.00  0.00    -0.508 OA
ATOM     57  H   UNL     1       5.844  -6.690  -4.645  1.00  0.00     0.293 HD
ENDBRANCH  55  56
ENDBRANCH  49  50
ENDBRANCH  48  49
BRANCH  48  58
ATOM     58  C   UNL     1      12.956  -4.434  -1.703  1.00  0.00     0.326 C 
ATOM     59  O   UNL     1      13.982  -5.039  -1.437  1.00  0.00    -0.250 OA
BRANCH  58  60
ATOM     60  O   UNL     1      13.008  -3.393  -2.572  1.00  0.00    -0.480 OA
ATOM     61  H   UNL     1      13.032  -3.832  -3.450  1.00  0.00     0.296 HD
ENDBRANCH  58  60
ENDBRANCH  48  58
ENDBRANCH  46  48
ENDBRANCH  34  44
ENDBRANCH  32  34
ENDBRANCH  25  30
ENDBRANCH  23  25
ENDBRANCH   2  23
TORSDOF 28
ENDMDL
MODEL 18
REMARK VINA RESULT:    -5.829      2.781      4.048
REMARK INTER + INTRA:         -19.985
REMARK INTER:                 -15.541
REMARK INTRA:                  -4.444
REMARK UNBOUND:                -5.466
REMARK SMILES CCCCCCC[C@H](N)[C@H](O)C(=O)N[C@H](C)C(=O)N(C)[C@H](CC(C)C)C(=O)N[C@@H](Cc1ccc(O)cc1)C(=O)N[C@@H](Cc1ccc(O)cc1)C(=O)O
REMARK SMILES IDX 18 1 17 2 15 3 16 4 14 5 12 6 13 7 10 9 11 10 8 12 9 13 7 16
REMARK SMILES IDX 6 17 5 18 4 19 3 20 2 21 1 22 19 23 20 24 21 25 22 26 23 27
REMARK SMILES IDX 24 28 25 29 26 30 27 31 28 32 29 34 30 35 31 36 32 37 37 38
REMARK SMILES IDX 33 39 36 40 34 41 35 42 38 44 39 45 40 46 41 48 42 49 43 50
REMARK SMILES IDX 44 51 49 52 45 53 48 54 46 55 47 56 50 58 51 59 52 60
REMARK H PARENT 14 8 11 11 9 14 9 15 28 33 35 43 40 47 47 57 52 61
ROOT
ATOM      1  O   UNL     1       7.524  -0.805   6.451  1.00  0.00    -0.272 OA
ATOM      2  C   UNL     1       7.117  -1.255   5.370  1.00  0.00     0.245 C 
ENDROOT
BRANCH   2   3
ATOM      3  C   UNL     1       5.608  -1.572   5.219  1.00  0.00     0.168 C 
ATOM      4  C   UNL     1       5.228  -2.799   6.040  1.00  0.00     0.041 C 
BRANCH   3   5
ATOM      5  N   UNL     1       4.719  -0.450   5.478  1.00  0.00    -0.342 N 
ATOM      6  C   UNL     1       4.379   0.451   4.492  1.00  0.00     0.251 C 
ATOM      7  O   UNL     1       4.825   0.405   3.350  1.00  0.00    -0.272 OA
ATOM      8  H   UNL     1       4.315  -0.288   6.397  1.00  0.00     0.164 HD
BRANCH   6   9
ATOM      9  C   UNL     1       3.320   1.465   4.953  1.00  0.00     0.219 C 
BRANCH   9  10
ATOM     10  O   UNL     1       2.327   0.879   5.802  1.00  0.00    -0.382 OA
ATOM     11  H   UNL     1       1.489   1.020   5.309  1.00  0.00     0.211 HD
ENDBRANCH   9  10
BRANCH   9  12
ATOM     12  C   UNL     1       3.933   2.728   5.613  1.00  0.00     0.089 C 
BRANCH  12  13
ATOM     13  N   UNL     1       5.407   2.589   5.610  1.00  0.00    -0.325 NA
ATOM     14  H   UNL     1       5.827   3.465   5.294  1.00  0.00     0.119 HD
ATOM     15  H   UNL     1       5.673   1.897   4.906  1.00  0.00     0.119 HD
ENDBRANCH  12  13
BRANCH  12  16
ATOM     16  C   UNL     1       3.526   4.085   4.988  1.00  0.00     0.022 C 
BRANCH  16  17
ATOM     17  C   UNL     1       3.571   5.350   5.856  1.00  0.00     0.002 C 
BRANCH  17  18
ATOM     18  C   UNL     1       2.504   5.423   6.945  1.00  0.00     0.000 C 
BRANCH  18  19
ATOM     19  C   UNL     1       2.618   6.658   7.849  1.00  0.00    -0.000 C 
BRANCH  19  20
ATOM     20  C   UNL     1       1.340   7.493   7.974  1.00  0.00    -0.000 C 
BRANCH  20  21
ATOM     21  C   UNL     1       1.613   8.997   8.062  1.00  0.00    -0.003 C 
ATOM     22  C   UNL     1       3.075   9.312   7.788  1.00  0.00     0.004 C 
ENDBRANCH  20  21
ENDBRANCH  19  20
ENDBRANCH  18  19
ENDBRANCH  17  18
ENDBRANCH  16  17
ENDBRANCH  12  16
ENDBRANCH   9  12
ENDBRANCH   6   9
ENDBRANCH   3   5
ENDBRANCH   2   3
BRANCH   2  23
ATOM     23  N   UNL     1       7.984  -1.351   4.286  1.00  0.00    -0.332 N 
ATOM     24  C   UNL     1       8.204  -0.296   3.309  1.00  0.00     0.147 C 
BRANCH  23  25
ATOM     25  C   UNL     1       8.865  -2.541   4.133  1.00  0.00     0.174 C 
BRANCH  25  26
ATOM     26  C   UNL     1      10.370  -2.190   4.201  1.00  0.00     0.038 C 
BRANCH  26  27
ATOM     27  C   UNL     1      11.160  -2.725   5.416  1.00  0.00    -0.015 C 
ATOM     28  C   UNL     1      11.410  -1.648   6.471  1.00  0.00     0.007 C 
ATOM     29  C   UNL     1      10.531  -3.963   6.051  1.00  0.00     0.007 C 
ENDBRANCH  26  27
ENDBRANCH  25  26
BRANCH  25  30
ATOM     30  C   UNL     1       8.469  -3.336   2.867  1.00  0.00     0.243 C 
ATOM     31  O   UNL     1       7.318  -3.725   2.678  1.00  0.00    -0.273 OA
ATOM     32  N   UNL     1       9.485  -3.582   1.979  1.00  0.00    -0.342 N 
ATOM     33  H   UNL     1      10.377  -3.107   2.137  1.00  0.00     0.164 HD
BRANCH  32  34
ATOM     34  C   UNL     1       9.300  -4.343   0.741  1.00  0.00     0.175 C 
BRANCH  34  35
ATOM     35  C   UNL     1       9.076  -3.410  -0.460  1.00  0.00     0.070 C 
BRANCH  35  36
ATOM     36  C   UNL     1       7.831  -3.757  -1.245  1.00  0.00    -0.045 A 
ATOM     37  C   UNL     1       7.324  -5.065  -1.216  1.00  0.00     0.007 A 
ATOM     38  C   UNL     1       7.182  -2.792  -2.026  1.00  0.00     0.007 A 
ATOM     39  C   UNL     1       6.184  -5.397  -1.948  1.00  0.00     0.046 A 
ATOM     40  C   UNL     1       6.041  -3.124  -2.761  1.00  0.00     0.046 A 
ATOM     41  C   UNL     1       5.552  -4.425  -2.713  1.00  0.00     0.115 A 
BRANCH  41  42
ATOM     42  O   UNL     1       4.442  -4.792  -3.416  1.00  0.00    -0.508 OA
ATOM     43  H   UNL     1       3.856  -5.290  -2.823  1.00  0.00     0.293 HD
ENDBRANCH  41  42
ENDBRANCH  35  36
ENDBRANCH  34  35
BRANCH  34  44
ATOM     44  C   UNL     1      10.538  -5.248   0.546  1.00  0.00     0.243 C 
ATOM     45  O   UNL     1      11.091  -5.870   1.448  1.00  0.00    -0.273 OA
ATOM     46  N   UNL     1      11.059  -5.196  -0.730  1.00  0.00    -0.341 N 
ATOM     47  H   UNL     1      10.634  -4.574  -1.413  1.00  0.00     0.164 HD
BRANCH  46  48
ATOM     48  C   UNL     1      12.270  -5.915  -1.134  1.00  0.00     0.196 C 
BRANCH  48  49
ATOM     49  C   UNL     1      12.154  -6.438  -2.576  1.00  0.00     0.072 C 
BRANCH  49  50
ATOM     50  C   UNL     1      11.014  -5.800  -3.337  1.00  0.00    -0.045 A 
ATOM     51  C   UNL     1      11.097  -4.453  -3.720  1.00  0.00     0.007 A 
ATOM     52  C   UNL     1       9.860  -6.528  -3.651  1.00  0.00     0.007 A 
ATOM     53  C   UNL     1      10.046  -3.849  -4.411  1.00  0.00     0.046 A 
ATOM     54  C   UNL     1       8.807  -5.923  -4.342  1.00  0.00     0.046 A 
ATOM     55  C   UNL     1       8.910  -4.588  -4.717  1.00  0.00     0.115 A 
BRANCH  55  56
ATOM     56  O   UNL     1       7.905  -3.961  -5.391  1.00  0.00    -0.508 OA
ATOM     57  H   UNL     1       7.103  -4.502  -5.318  1.00  0.00     0.293 HD
ENDBRANCH  55  56
ENDBRANCH  49  50
ENDBRANCH  48  49
BRANCH  48  58
ATOM     58  C   UNL     1      13.473  -4.969  -1.025  1.00  0.00     0.326 C 
ATOM     59  O   UNL     1      13.513  -3.786  -1.323  1.00  0.00    -0.250 OA
BRANCH  58  60
ATOM     60  O   UNL     1      14.585  -5.563  -0.522  1.00  0.00    -0.480 OA
ATOM     61  H   UNL     1      15.308  -5.192  -1.073  1.00  0.00     0.296 HD
ENDBRANCH  58  60
ENDBRANCH  48  58
ENDBRANCH  46  48
ENDBRANCH  34  44
ENDBRANCH  32  34
ENDBRANCH  25  30
ENDBRANCH  23  25
ENDBRANCH   2  23
TORSDOF 28
ENDMDL
MODEL 19
REMARK VINA RESULT:    -5.827      2.689      8.209
REMARK INTER + INTRA:         -19.980
REMARK INTER:                 -14.929
REMARK INTRA:                  -5.051
REMARK UNBOUND:                -5.466
REMARK SMILES CCCCCCC[C@H](N)[C@H](O)C(=O)N[C@H](C)C(=O)N(C)[C@H](CC(C)C)C(=O)N[C@@H](Cc1ccc(O)cc1)C(=O)N[C@@H](Cc1ccc(O)cc1)C(=O)O
REMARK SMILES IDX 18 1 17 2 15 3 16 4 14 5 12 6 13 7 10 9 11 10 8 12 9 13 7 16
REMARK SMILES IDX 6 17 5 18 4 19 3 20 2 21 1 22 19 23 20 24 21 25 22 26 23 27
REMARK SMILES IDX 24 28 25 29 26 30 27 31 28 32 29 34 30 35 31 36 32 37 37 38
REMARK SMILES IDX 33 39 36 40 34 41 35 42 38 44 39 45 40 46 41 48 42 49 43 50
REMARK SMILES IDX 44 51 49 52 45 53 48 54 46 55 47 56 50 58 51 59 52 60
REMARK H PARENT 14 8 11 11 9 14 9 15 28 33 35 43 40 47 47 57 52 61
ROOT
ATOM      1  O   UNL     1      10.160  -0.083   3.373  1.00  0.00    -0.272 OA
ATOM      2  C   UNL     1      11.343  -0.331   3.096  1.00  0.00     0.245 C 
ENDROOT
BRANCH   2   3
ATOM      3  C   UNL     1      12.429  -0.058   4.167  1.00  0.00     0.168 C 
ATOM      4  C   UNL     1      12.142   1.242   4.909  1.00  0.00     0.041 C 
BRANCH   3   5
ATOM      5  N   UNL     1      12.675  -1.162   5.082  1.00  0.00    -0.342 N 
ATOM      6  C   UNL     1      13.633  -2.119   4.827  1.00  0.00     0.251 C 
ATOM      7  O   UNL     1      14.313  -2.140   3.807  1.00  0.00    -0.272 OA
ATOM      8  H   UNL     1      12.148  -1.270   5.946  1.00  0.00     0.164 HD
BRANCH   6   9
ATOM      9  C   UNL     1      13.816  -3.103   5.994  1.00  0.00     0.219 C 
BRANCH   9  10
ATOM     10  O   UNL     1      14.070  -2.442   7.239  1.00  0.00    -0.382 OA
ATOM     11  H   UNL     1      13.191  -2.085   7.495  1.00  0.00     0.211 HD
ENDBRANCH   9  10
BRANCH   9  12
ATOM     12  C   UNL     1      12.643  -4.108   6.133  1.00  0.00     0.089 C 
BRANCH  12  13
ATOM     13  N   UNL     1      11.516  -3.421   6.804  1.00  0.00    -0.325 NA
ATOM     14  H   UNL     1      11.176  -4.004   7.571  1.00  0.00     0.119 HD
ATOM     15  H   UNL     1      10.732  -3.355   6.151  1.00  0.00     0.119 HD
ENDBRANCH  12  13
BRANCH  12  16
ATOM     16  C   UNL     1      12.157  -4.768   4.821  1.00  0.00     0.022 C 
BRANCH  16  17
ATOM     17  C   UNL     1      10.712  -5.280   4.733  1.00  0.00     0.002 C 
BRANCH  17  18
ATOM     18  C   UNL     1      10.526  -6.751   5.099  1.00  0.00     0.000 C 
BRANCH  18  19
ATOM     19  C   UNL     1      10.573  -7.030   6.607  1.00  0.00    -0.000 C 
BRANCH  19  20
ATOM     20  C   UNL     1      11.516  -8.160   7.030  1.00  0.00    -0.000 C 
BRANCH  20  21
ATOM     21  C   UNL     1      12.987  -7.735   7.055  1.00  0.00    -0.003 C 
ATOM     22  C   UNL     1      13.784  -8.433   5.964  1.00  0.00     0.004 C 
ENDBRANCH  20  21
ENDBRANCH  19  20
ENDBRANCH  18  19
ENDBRANCH  17  18
ENDBRANCH  16  17
ENDBRANCH  12  16
ENDBRANCH   9  12
ENDBRANCH   6   9
ENDBRANCH   3   5
ENDBRANCH   2   3
BRANCH   2  23
ATOM     23  N   UNL     1      11.660  -0.954   1.893  1.00  0.00    -0.332 N 
ATOM     24  C   UNL     1      12.493  -0.369   0.854  1.00  0.00     0.147 C 
BRANCH  23  25
ATOM     25  C   UNL     1      11.249  -2.364   1.647  1.00  0.00     0.174 C 
BRANCH  25  26
ATOM     26  C   UNL     1      12.340  -3.192   0.928  1.00  0.00     0.038 C 
BRANCH  26  27
ATOM     27  C   UNL     1      12.460  -4.682   1.320  1.00  0.00    -0.015 C 
ATOM     28  C   UNL     1      11.203  -5.480   0.975  1.00  0.00     0.007 C 
ATOM     29  C   UNL     1      13.702  -5.362   0.748  1.00  0.00     0.007 C 
ENDBRANCH  26  27
ENDBRANCH  25  26
BRANCH  25  30
ATOM     30  C   UNL     1       9.874  -2.402   0.942  1.00  0.00     0.243 C 
ATOM     31  O   UNL     1       9.772  -2.401  -0.283  1.00  0.00    -0.273 OA
ATOM     32  N   UNL     1       8.783  -2.431   1.772  1.00  0.00    -0.342 N 
ATOM     33  H   UNL     1       8.951  -2.573   2.771  1.00  0.00     0.164 HD
BRANCH  32  34
ATOM     34  C   UNL     1       7.402  -2.443   1.281  1.00  0.00     0.175 C 
BRANCH  34  35
ATOM     35  C   UNL     1       6.848  -3.874   1.203  1.00  0.00     0.070 C 
BRANCH  35  36
ATOM     36  C   UNL     1       6.478  -4.282  -0.205  1.00  0.00    -0.045 A 
ATOM     37  C   UNL     1       5.221  -3.939  -0.727  1.00  0.00     0.007 A 
ATOM     38  C   UNL     1       7.366  -5.022  -0.996  1.00  0.00     0.007 A 
ATOM     39  C   UNL     1       4.865  -4.322  -2.020  1.00  0.00     0.046 A 
ATOM     40  C   UNL     1       7.009  -5.408  -2.291  1.00  0.00     0.046 A 
ATOM     41  C   UNL     1       5.761  -5.053  -2.791  1.00  0.00     0.115 A 
BRANCH  41  42
ATOM     42  O   UNL     1       5.373  -5.411  -4.049  1.00  0.00    -0.508 OA
ATOM     43  H   UNL     1       4.882  -4.669  -4.439  1.00  0.00     0.293 HD
ENDBRANCH  41  42
ENDBRANCH  35  36
ENDBRANCH  34  35
BRANCH  34  44
ATOM     44  C   UNL     1       6.556  -1.545   2.211  1.00  0.00     0.243 C 
ATOM     45  O   UNL     1       5.872  -0.599   1.830  1.00  0.00    -0.273 OA
ATOM     46  N   UNL     1       6.735  -1.820   3.551  1.00  0.00    -0.341 N 
ATOM     47  H   UNL     1       7.403  -2.538   3.823  1.00  0.00     0.164 HD
BRANCH  46  48
ATOM     48  C   UNL     1       6.092  -1.058   4.623  1.00  0.00     0.196 C 
BRANCH  48  49
ATOM     49  C   UNL     1       4.838  -1.778   5.147  1.00  0.00     0.072 C 
BRANCH  49  50
ATOM     50  C   UNL     1       3.556  -1.104   4.713  1.00  0.00    -0.045 A 
ATOM     51  C   UNL     1       2.645  -1.793   3.899  1.00  0.00     0.007 A 
ATOM     52  C   UNL     1       3.269   0.213   5.094  1.00  0.00     0.007 A 
ATOM     53  C   UNL     1       1.465  -1.177   3.482  1.00  0.00     0.046 A 
ATOM     54  C   UNL     1       2.088   0.830   4.675  1.00  0.00     0.046 A 
ATOM     55  C   UNL     1       1.195   0.129   3.873  1.00  0.00     0.115 A 
BRANCH  55  56
ATOM     56  O   UNL     1       0.032   0.696   3.441  1.00  0.00    -0.508 OA
ATOM     57  H   UNL     1      -0.597   0.704   4.181  1.00  0.00     0.293 HD
ENDBRANCH  55  56
ENDBRANCH  49  50
ENDBRANCH  48  49
BRANCH  48  58
ATOM     58  C   UNL     1       7.093  -0.867   5.770  1.00  0.00     0.326 C 
ATOM     59  O   UNL     1       7.018  -1.324   6.900  1.00  0.00    -0.250 OA
BRANCH  58  60
ATOM     60  O   UNL     1       8.167  -0.110   5.432  1.00  0.00    -0.480 OA
ATOM     61  H   UNL     1       7.768   0.757   5.202  1.00  0.00     0.296 HD
ENDBRANCH  58  60
ENDBRANCH  48  58
ENDBRANCH  46  48
ENDBRANCH  34  44
ENDBRANCH  32  34
ENDBRANCH  25  30
ENDBRANCH  23  25
ENDBRANCH   2  23
TORSDOF 28
ENDMDL
MODEL 20
REMARK VINA RESULT:    -5.814      1.015      1.660
REMARK INTER + INTRA:         -19.948
REMARK INTER:                 -14.825
REMARK INTRA:                  -5.123
REMARK UNBOUND:                -5.466
REMARK SMILES CCCCCCC[C@H](N)[C@H](O)C(=O)N[C@H](C)C(=O)N(C)[C@H](CC(C)C)C(=O)N[C@@H](Cc1ccc(O)cc1)C(=O)N[C@@H](Cc1ccc(O)cc1)C(=O)O
REMARK SMILES IDX 18 1 17 2 15 3 16 4 14 5 12 6 13 7 10 9 11 10 8 12 9 13 7 16
REMARK SMILES IDX 6 17 5 18 4 19 3 20 2 21 1 22 19 23 20 24 21 25 22 26 23 27
REMARK SMILES IDX 24 28 25 29 26 30 27 31 28 32 29 34 30 35 31 36 32 37 37 38
REMARK SMILES IDX 33 39 36 40 34 41 35 42 38 44 39 45 40 46 41 48 42 49 43 50
REMARK SMILES IDX 44 51 49 52 45 53 48 54 46 55 47 56 50 58 51 59 52 60
REMARK H PARENT 14 8 11 11 9 14 9 15 28 33 35 43 40 47 47 57 52 61
ROOT
ATOM      1  O   UNL     1       7.734  -1.312   3.747  1.00  0.00    -0.272 OA
ATOM      2  C   UNL     1       8.045  -1.573   4.919  1.00  0.00     0.245 C 
ENDROOT
BRANCH   2   3
ATOM      3  C   UNL     1       7.824  -0.489   6.003  1.00  0.00     0.168 C 
ATOM      4  C   UNL     1       9.153   0.110   6.450  1.00  0.00     0.041 C 
BRANCH   3   5
ATOM      5  N   UNL     1       6.857   0.540   5.650  1.00  0.00    -0.342 N 
ATOM      6  C   UNL     1       5.499   0.303   5.679  1.00  0.00     0.251 C 
ATOM      7  O   UNL     1       5.008  -0.786   5.958  1.00  0.00    -0.272 OA
ATOM      8  H   UNL     1       7.147   1.473   5.368  1.00  0.00     0.164 HD
BRANCH   6   9
ATOM      9  C   UNL     1       4.669   1.568   5.408  1.00  0.00     0.219 C 
BRANCH   9  10
ATOM     10  O   UNL     1       5.388   2.773   5.699  1.00  0.00    -0.382 OA
ATOM     11  H   UNL     1       4.679   3.428   5.880  1.00  0.00     0.211 HD
ENDBRANCH   9  10
BRANCH   9  12
ATOM     12  C   UNL     1       4.076   1.613   3.976  1.00  0.00     0.089 C 
BRANCH  12  13
ATOM     13  N   UNL     1       3.103   2.727   3.908  1.00  0.00    -0.325 NA
ATOM     14  H   UNL     1       2.462   2.566   3.129  1.00  0.00     0.119 HD
ATOM     15  H   UNL     1       3.602   3.588   3.670  1.00  0.00     0.119 HD
ENDBRANCH  12  13
BRANCH  12  16
ATOM     16  C   UNL     1       5.099   1.729   2.821  1.00  0.00     0.022 C 
BRANCH  16  17
ATOM     17  C   UNL     1       4.742   1.149   1.446  1.00  0.00     0.002 C 
BRANCH  17  18
ATOM     18  C   UNL     1       5.451  -0.157   1.093  1.00  0.00     0.000 C 
BRANCH  18  19
ATOM     19  C   UNL     1       4.555  -1.399   1.186  1.00  0.00    -0.000 C 
BRANCH  19  20
ATOM     20  C   UNL     1       3.426  -1.464   0.154  1.00  0.00    -0.000 C 
BRANCH  20  21
ATOM     21  C   UNL     1       2.033  -1.351   0.780  1.00  0.00    -0.003 C 
ATOM     22  C   UNL     1       2.114  -1.233   2.294  1.00  0.00     0.004 C 
ENDBRANCH  20  21
ENDBRANCH  19  20
ENDBRANCH  18  19
ENDBRANCH  17  18
ENDBRANCH  16  17
ENDBRANCH  12  16
ENDBRANCH   9  12
ENDBRANCH   6   9
ENDBRANCH   3   5
ENDBRANCH   2   3
BRANCH   2  23
ATOM     23  N   UNL     1       8.466  -2.854   5.258  1.00  0.00    -0.332 N 
ATOM     24  C   UNL     1       7.714  -3.775   6.098  1.00  0.00     0.147 C 
BRANCH  23  25
ATOM     25  C   UNL     1       9.701  -3.424   4.653  1.00  0.00     0.174 C 
BRANCH  25  26
ATOM     26  C   UNL     1      10.867  -2.410   4.596  1.00  0.00     0.038 C 
BRANCH  26  27
ATOM     27  C   UNL     1      12.255  -2.912   5.050  1.00  0.00    -0.015 C 
ATOM     28  C   UNL     1      12.164  -4.126   5.975  1.00  0.00     0.007 C 
ATOM     29  C   UNL     1      13.210  -3.191   3.892  1.00  0.00     0.007 C 
ENDBRANCH  26  27
ENDBRANCH  25  26
BRANCH  25  30
ATOM     30  C   UNL     1       9.374  -4.074   3.289  1.00  0.00     0.243 C 
ATOM     31  O   UNL     1       9.098  -5.268   3.187  1.00  0.00    -0.273 OA
ATOM     32  N   UNL     1       9.419  -3.234   2.206  1.00  0.00    -0.342 N 
ATOM     33  H   UNL     1       9.516  -2.231   2.388  1.00  0.00     0.164 HD
BRANCH  32  34
ATOM     34  C   UNL     1       9.165  -3.680   0.834  1.00  0.00     0.175 C 
BRANCH  34  35
ATOM     35  C   UNL     1       8.333  -2.649   0.055  1.00  0.00     0.070 C 
BRANCH  35  36
ATOM     36  C   UNL     1       7.398  -3.287  -0.947  1.00  0.00    -0.045 A 
ATOM     37  C   UNL     1       6.843  -2.516  -1.979  1.00  0.00     0.007 A 
ATOM     38  C   UNL     1       7.056  -4.642  -0.848  1.00  0.00     0.007 A 
ATOM     39  C   UNL     1       5.969  -3.093  -2.900  1.00  0.00     0.046 A 
ATOM     40  C   UNL     1       6.179  -5.221  -1.769  1.00  0.00     0.046 A 
ATOM     41  C   UNL     1       5.644  -4.440  -2.789  1.00  0.00     0.115 A 
BRANCH  41  42
ATOM     42  O   UNL     1       4.784  -4.964  -3.707  1.00  0.00    -0.508 OA
ATOM     43  H   UNL     1       3.906  -4.573  -3.561  1.00  0.00     0.293 HD
ENDBRANCH  41  42
ENDBRANCH  35  36
ENDBRANCH  34  35
BRANCH  34  44
ATOM     44  C   UNL     1      10.528  -3.951   0.158  1.00  0.00     0.243 C 
ATOM     45  O   UNL     1      11.408  -3.108   0.008  1.00  0.00    -0.273 OA
ATOM     46  N   UNL     1      10.627  -5.212  -0.390  1.00  0.00    -0.341 N 
ATOM     47  H   UNL     1       9.826  -5.836  -0.342  1.00  0.00     0.164 HD
BRANCH  46  48
ATOM     48  C   UNL     1      11.798  -5.675  -1.140  1.00  0.00     0.196 C 
BRANCH  48  49
ATOM     49  C   UNL     1      11.962  -4.898  -2.457  1.00  0.00     0.072 C 
BRANCH  49  50
ATOM     50  C   UNL     1      10.721  -4.944  -3.319  1.00  0.00    -0.045 A 
ATOM     51  C   UNL     1       9.997  -6.139  -3.438  1.00  0.00     0.007 A 
ATOM     52  C   UNL     1      10.289  -3.812  -4.022  1.00  0.00     0.007 A 
ATOM     53  C   UNL     1       8.857  -6.198  -4.240  1.00  0.00     0.046 A 
ATOM     54  C   UNL     1       9.148  -3.871  -4.826  1.00  0.00     0.046 A 
ATOM     55  C   UNL     1       8.441  -5.064  -4.928  1.00  0.00     0.115 A 
BRANCH  55  56
ATOM     56  O   UNL     1       7.324  -5.163  -5.703  1.00  0.00    -0.508 OA
ATOM     57  H   UNL     1       7.574  -5.563  -6.551  1.00  0.00     0.293 HD
ENDBRANCH  55  56
ENDBRANCH  49  50
ENDBRANCH  48  49
BRANCH  48  58
ATOM     58  C   UNL     1      13.051  -5.490  -0.273  1.00  0.00     0.326 C 
ATOM     59  O   UNL     1      13.311  -6.050   0.780  1.00  0.00    -0.250 OA
BRANCH  58  60
ATOM     60  O   UNL     1      13.940  -4.604  -0.789  1.00  0.00    -0.480 OA
ATOM     61  H   UNL     1      13.743  -4.620  -1.751  1.00  0.00     0.296 HD
ENDBRANCH  58  60
ENDBRANCH  48  58
ENDBRANCH  46  48
ENDBRANCH  34  44
ENDBRANCH  32  34
ENDBRANCH  25  30
ENDBRANCH  23  25
ENDBRANCH   2  23
TORSDOF 28
ENDMDL
MODEL 21
REMARK VINA RESULT:    -5.803      2.774      8.074
REMARK INTER + INTRA:         -19.921
REMARK INTER:                 -13.561
REMARK INTRA:                  -6.359
REMARK UNBOUND:                -5.466
REMARK SMILES CCCCCCC[C@H](N)[C@H](O)C(=O)N[C@H](C)C(=O)N(C)[C@H](CC(C)C)C(=O)N[C@@H](Cc1ccc(O)cc1)C(=O)N[C@@H](Cc1ccc(O)cc1)C(=O)O
REMARK SMILES IDX 18 1 17 2 15 3 16 4 14 5 12 6 13 7 10 9 11 10 8 12 9 13 7 16
REMARK SMILES IDX 6 17 5 18 4 19 3 20 2 21 1 22 19 23 20 24 21 25 22 26 23 27
REMARK SMILES IDX 24 28 25 29 26 30 27 31 28 32 29 34 30 35 31 36 32 37 37 38
REMARK SMILES IDX 33 39 36 40 34 41 35 42 38 44 39 45 40 46 41 48 42 49 43 50
REMARK SMILES IDX 44 51 49 52 45 53 48 54 46 55 47 56 50 58 51 59 52 60
REMARK H PARENT 14 8 11 11 9 14 9 15 28 33 35 43 40 47 47 57 52 61
ROOT
ATOM      1  O   UNL     1       8.686  -5.053  -5.734  1.00  0.00    -0.272 OA
ATOM      2  C   UNL     1       8.134  -4.684  -4.687  1.00  0.00     0.245 C 
ENDROOT
BRANCH   2   3
ATOM      3  C   UNL     1       6.931  -5.503  -4.156  1.00  0.00     0.168 C 
ATOM      4  C   UNL     1       7.254  -6.993  -4.142  1.00  0.00     0.041 C 
BRANCH   3   5
ATOM      5  N   UNL     1       6.401  -5.051  -2.879  1.00  0.00    -0.342 N 
ATOM      6  C   UNL     1       5.076  -4.703  -2.722  1.00  0.00     0.251 C 
ATOM      7  O   UNL     1       4.263  -4.706  -3.641  1.00  0.00    -0.272 OA
ATOM      8  H   UNL     1       6.988  -4.974  -2.051  1.00  0.00     0.164 HD
BRANCH   6   9
ATOM      9  C   UNL     1       4.711  -4.396  -1.261  1.00  0.00     0.219 C 
BRANCH   9  10
ATOM     10  O   UNL     1       5.501  -5.140  -0.326  1.00  0.00    -0.382 OA
ATOM     11  H   UNL     1       5.050  -4.984   0.533  1.00  0.00     0.211 HD
ENDBRANCH   9  10
BRANCH   9  12
ATOM     12  C   UNL     1       4.746  -2.881  -0.930  1.00  0.00     0.089 C 
BRANCH  12  13
ATOM     13  N   UNL     1       5.440  -2.178  -2.033  1.00  0.00    -0.325 NA
ATOM     14  H   UNL     1       4.756  -1.912  -2.745  1.00  0.00     0.119 HD
ATOM     15  H   UNL     1       6.069  -2.835  -2.500  1.00  0.00     0.119 HD
ENDBRANCH  12  13
BRANCH  12  16
ATOM     16  C   UNL     1       3.376  -2.216  -0.654  1.00  0.00     0.022 C 
BRANCH  16  17
ATOM     17  C   UNL     1       3.164  -1.463   0.666  1.00  0.00     0.002 C 
BRANCH  17  18
ATOM     18  C   UNL     1       4.401  -0.750   1.208  1.00  0.00     0.000 C 
BRANCH  18  19
ATOM     19  C   UNL     1       5.030  -1.433   2.430  1.00  0.00    -0.000 C 
BRANCH  19  20
ATOM     20  C   UNL     1       5.543  -0.480   3.514  1.00  0.00    -0.000 C 
BRANCH  20  21
ATOM     21  C   UNL     1       4.604   0.703   3.766  1.00  0.00    -0.003 C 
ATOM     22  C   UNL     1       3.632   0.409   4.898  1.00  0.00     0.004 C 
ENDBRANCH  20  21
ENDBRANCH  19  20
ENDBRANCH  18  19
ENDBRANCH  17  18
ENDBRANCH  16  17
ENDBRANCH  12  16
ENDBRANCH   9  12
ENDBRANCH   6   9
ENDBRANCH   3   5
ENDBRANCH   2   3
BRANCH   2  23
ATOM     23  N   UNL     1       8.670  -3.633  -3.951  1.00  0.00    -0.332 N 
ATOM     24  C   UNL     1       8.270  -2.241  -4.088  1.00  0.00     0.147 C 
BRANCH  23  25
ATOM     25  C   UNL     1       9.634  -3.902  -2.849  1.00  0.00     0.174 C 
BRANCH  25  26
ATOM     26  C   UNL     1      10.050  -5.390  -2.762  1.00  0.00     0.038 C 
BRANCH  26  27
ATOM     27  C   UNL     1      11.463  -5.752  -3.270  1.00  0.00    -0.015 C 
ATOM     28  C   UNL     1      12.326  -4.517  -3.528  1.00  0.00     0.007 C 
ATOM     29  C   UNL     1      12.197  -6.742  -2.370  1.00  0.00     0.007 C 
ENDBRANCH  26  27
ENDBRANCH  25  26
BRANCH  25  30
ATOM     30  C   UNL     1       9.094  -3.330  -1.518  1.00  0.00     0.243 C 
ATOM     31  O   UNL     1       8.089  -3.786  -0.974  1.00  0.00    -0.273 OA
ATOM     32  N   UNL     1       9.803  -2.280  -0.992  1.00  0.00    -0.342 N 
ATOM     33  H   UNL     1      10.702  -2.052  -1.425  1.00  0.00     0.164 HD
BRANCH  32  34
ATOM     34  C   UNL     1       9.423  -1.596   0.246  1.00  0.00     0.175 C 
BRANCH  34  35
ATOM     35  C   UNL     1       7.942  -1.184   0.225  1.00  0.00     0.070 C 
BRANCH  35  36
ATOM     36  C   UNL     1       7.751   0.299   0.001  1.00  0.00    -0.045 A 
ATOM     37  C   UNL     1       7.568   0.794  -1.299  1.00  0.00     0.007 A 
ATOM     38  C   UNL     1       7.776   1.197   1.075  1.00  0.00     0.007 A 
ATOM     39  C   UNL     1       7.404   2.162  -1.517  1.00  0.00     0.046 A 
ATOM     40  C   UNL     1       7.613   2.568   0.857  1.00  0.00     0.046 A 
ATOM     41  C   UNL     1       7.428   3.038  -0.438  1.00  0.00     0.115 A 
BRANCH  41  42
ATOM     42  O   UNL     1       7.267   4.367  -0.695  1.00  0.00    -0.508 OA
ATOM     43  H   UNL     1       7.033   4.470  -1.633  1.00  0.00     0.293 HD
ENDBRANCH  41  42
ENDBRANCH  35  36
ENDBRANCH  34  35
BRANCH  34  44
ATOM     44  C   UNL     1       9.744  -2.535   1.430  1.00  0.00     0.243 C 
ATOM     45  O   UNL     1      10.874  -2.747   1.861  1.00  0.00    -0.273 OA
ATOM     46  N   UNL     1       8.647  -3.232   1.891  1.00  0.00    -0.341 N 
ATOM     47  H   UNL     1       7.752  -3.109   1.425  1.00  0.00     0.164 HD
BRANCH  46  48
ATOM     48  C   UNL     1       8.718  -4.230   2.961  1.00  0.00     0.196 C 
BRANCH  48  49
ATOM     49  C   UNL     1       7.904  -3.792   4.191  1.00  0.00     0.072 C 
BRANCH  49  50
ATOM     50  C   UNL     1       8.715  -2.959   5.158  1.00  0.00    -0.045 A 
ATOM     51  C   UNL     1       8.209  -1.736   5.621  1.00  0.00     0.007 A 
ATOM     52  C   UNL     1       9.980  -3.380   5.587  1.00  0.00     0.007 A 
ATOM     53  C   UNL     1       8.954  -0.952   6.503  1.00  0.00     0.046 A 
ATOM     54  C   UNL     1      10.726  -2.595   6.469  1.00  0.00     0.046 A 
ATOM     55  C   UNL     1      10.206  -1.388   6.921  1.00  0.00     0.115 A 
BRANCH  55  56
ATOM     56  O   UNL     1      10.902  -0.592   7.782  1.00  0.00    -0.508 OA
ATOM     57  H   UNL     1      11.335   0.109   7.268  1.00  0.00     0.293 HD
ENDBRANCH  55  56
ENDBRANCH  49  50
ENDBRANCH  48  49
BRANCH  48  58
ATOM     58  C   UNL     1       8.175  -5.566   2.434  1.00  0.00     0.326 C 
ATOM     59  O   UNL     1       7.891  -6.557   3.087  1.00  0.00    -0.250 OA
BRANCH  58  60
ATOM     60  O   UNL     1       7.998  -5.585   1.089  1.00  0.00    -0.480 OA
ATOM     61  H   UNL     1       8.714  -5.001   0.758  1.00  0.00     0.296 HD
ENDBRANCH  58  60
ENDBRANCH  48  58
ENDBRANCH  46  48
ENDBRANCH  34  44
ENDBRANCH  32  34
ENDBRANCH  25  30
ENDBRANCH  23  25
ENDBRANCH   2  23
TORSDOF 28
ENDMDL
MODEL 22
REMARK VINA RESULT:    -5.792      2.640      4.951
REMARK INTER + INTRA:         -19.892
REMARK INTER:                 -13.024
REMARK INTRA:                  -6.869
REMARK UNBOUND:                -5.466
REMARK SMILES CCCCCCC[C@H](N)[C@H](O)C(=O)N[C@H](C)C(=O)N(C)[C@H](CC(C)C)C(=O)N[C@@H](Cc1ccc(O)cc1)C(=O)N[C@@H](Cc1ccc(O)cc1)C(=O)O
REMARK SMILES IDX 18 1 17 2 15 3 16 4 14 5 12 6 13 7 10 9 11 10 8 12 9 13 7 16
REMARK SMILES IDX 6 17 5 18 4 19 3 20 2 21 1 22 19 23 20 24 21 25 22 26 23 27
REMARK SMILES IDX 24 28 25 29 26 30 27 31 28 32 29 34 30 35 31 36 32 37 37 38
REMARK SMILES IDX 33 39 36 40 34 41 35 42 38 44 39 45 40 46 41 48 42 49 43 50
REMARK SMILES IDX 44 51 49 52 45 53 48 54 46 55 47 56 50 58 51 59 52 60
REMARK H PARENT 14 8 11 11 9 14 9 15 28 33 35 43 40 47 47 57 52 61
ROOT
ATOM      1  O   UNL     1       9.045  -8.175   5.233  1.00  0.00    -0.272 OA
ATOM      2  C   UNL     1       9.523  -7.078   5.558  1.00  0.00     0.245 C 
ENDROOT
BRANCH   2   3
ATOM      3  C   UNL     1       8.948  -6.359   6.804  1.00  0.00     0.168 C 
ATOM      4  C   UNL     1       9.871  -6.534   8.005  1.00  0.00     0.041 C 
BRANCH   3   5
ATOM      5  N   UNL     1       8.590  -4.964   6.594  1.00  0.00    -0.342 N 
ATOM      6  C   UNL     1       7.357  -4.466   6.958  1.00  0.00     0.251 C 
ATOM      7  O   UNL     1       6.465  -5.156   7.440  1.00  0.00    -0.272 OA
ATOM      8  H   UNL     1       9.237  -4.303   6.169  1.00  0.00     0.164 HD
BRANCH   6   9
ATOM      9  C   UNL     1       7.254  -2.944   6.774  1.00  0.00     0.219 C 
BRANCH   9  10
ATOM     10  O   UNL     1       8.530  -2.294   6.817  1.00  0.00    -0.382 OA
ATOM     11  H   UNL     1       8.529  -1.729   6.013  1.00  0.00     0.211 HD
ENDBRANCH   9  10
BRANCH   9  12
ATOM     12  C   UNL     1       6.470  -2.535   5.499  1.00  0.00     0.089 C 
BRANCH  12  13
ATOM     13  N   UNL     1       6.748  -3.533   4.441  1.00  0.00    -0.325 NA
ATOM     14  H   UNL     1       7.227  -4.336   4.853  1.00  0.00     0.119 HD
ATOM     15  H   UNL     1       7.417  -3.135   3.778  1.00  0.00     0.119 HD
ENDBRANCH  12  13
BRANCH  12  16
ATOM     16  C   UNL     1       4.943  -2.353   5.671  1.00  0.00     0.022 C 
BRANCH  16  17
ATOM     17  C   UNL     1       4.132  -1.733   4.525  1.00  0.00     0.002 C 
BRANCH  17  18
ATOM     18  C   UNL     1       3.315  -0.500   4.907  1.00  0.00     0.000 C 
BRANCH  18  19
ATOM     19  C   UNL     1       4.147   0.781   5.047  1.00  0.00    -0.000 C 
BRANCH  19  20
ATOM     20  C   UNL     1       4.634   1.388   3.728  1.00  0.00    -0.000 C 
BRANCH  20  21
ATOM     21  C   UNL     1       3.538   2.148   2.977  1.00  0.00    -0.003 C 
ATOM     22  C   UNL     1       3.583   1.855   1.485  1.00  0.00     0.004 C 
ENDBRANCH  20  21
ENDBRANCH  19  20
ENDBRANCH  18  19
ENDBRANCH  17  18
ENDBRANCH  16  17
ENDBRANCH  12  16
ENDBRANCH   9  12
ENDBRANCH   6   9
ENDBRANCH   3   5
ENDBRANCH   2   3
BRANCH   2  23
ATOM     23  N   UNL     1      10.632  -6.575   4.885  1.00  0.00    -0.332 N 
ATOM     24  C   UNL     1      11.818  -6.037   5.534  1.00  0.00     0.147 C 
BRANCH  23  25
ATOM     25  C   UNL     1      10.722  -6.680   3.403  1.00  0.00     0.174 C 
BRANCH  25  26
ATOM     26  C   UNL     1      12.173  -6.574   2.879  1.00  0.00     0.038 C 
BRANCH  26  27
ATOM     27  C   UNL     1      12.650  -7.679   1.910  1.00  0.00    -0.015 C 
ATOM     28  C   UNL     1      13.240  -7.111   0.620  1.00  0.00     0.007 C 
ATOM     29  C   UNL     1      13.617  -8.673   2.550  1.00  0.00     0.007 C 
ENDBRANCH  26  27
ENDBRANCH  25  26
BRANCH  25  30
ATOM     30  C   UNL     1       9.747  -5.682   2.738  1.00  0.00     0.243 C 
ATOM     31  O   UNL     1       8.873  -5.101   3.381  1.00  0.00    -0.273 OA
ATOM     32  N   UNL     1       9.917  -5.494   1.391  1.00  0.00    -0.342 N 
ATOM     33  H   UNL     1      10.750  -5.901   0.957  1.00  0.00     0.164 HD
BRANCH  32  34
ATOM     34  C   UNL     1       9.068  -4.606   0.591  1.00  0.00     0.175 C 
BRANCH  34  35
ATOM     35  C   UNL     1       7.578  -4.893   0.831  1.00  0.00     0.070 C 
BRANCH  35  36
ATOM     36  C   UNL     1       6.747  -4.754  -0.425  1.00  0.00    -0.045 A 
ATOM     37  C   UNL     1       5.359  -4.954  -0.373  1.00  0.00     0.007 A 
ATOM     38  C   UNL     1       7.346  -4.449  -1.654  1.00  0.00     0.007 A 
ATOM     39  C   UNL     1       4.585  -4.842  -1.529  1.00  0.00     0.046 A 
ATOM     40  C   UNL     1       6.572  -4.338  -2.812  1.00  0.00     0.046 A 
ATOM     41  C   UNL     1       5.197  -4.534  -2.738  1.00  0.00     0.115 A 
BRANCH  41  42
ATOM     42  O   UNL     1       4.406  -4.437  -3.844  1.00  0.00    -0.508 OA
ATOM     43  H   UNL     1       4.966  -4.554  -4.630  1.00  0.00     0.293 HD
ENDBRANCH  41  42
ENDBRANCH  35  36
ENDBRANCH  34  35
BRANCH  34  44
ATOM     44  C   UNL     1       9.439  -3.147   0.941  1.00  0.00     0.243 C 
ATOM     45  O   UNL     1      10.475  -2.591   0.588  1.00  0.00    -0.273 OA
ATOM     46  N   UNL     1       8.550  -2.548   1.809  1.00  0.00    -0.341 N 
ATOM     47  H   UNL     1       7.768  -3.090   2.167  1.00  0.00     0.164 HD
BRANCH  46  48
ATOM     48  C   UNL     1       8.728  -1.193   2.335  1.00  0.00     0.196 C 
BRANCH  48  49
ATOM     49  C   UNL     1       7.382  -0.458   2.454  1.00  0.00     0.072 C 
BRANCH  49  50
ATOM     50  C   UNL     1       6.463  -0.735   1.286  1.00  0.00    -0.045 A 
ATOM     51  C   UNL     1       6.815  -0.297   0.000  1.00  0.00     0.007 A 
ATOM     52  C   UNL     1       5.248  -1.406   1.468  1.00  0.00     0.007 A 
ATOM     53  C   UNL     1       5.969  -0.535  -1.083  1.00  0.00     0.046 A 
ATOM     54  C   UNL     1       4.400  -1.643   0.383  1.00  0.00     0.046 A 
ATOM     55  C   UNL     1       4.769  -1.206  -0.884  1.00  0.00     0.115 A 
BRANCH  55  56
ATOM     56  O   UNL     1       3.970  -1.417  -1.968  1.00  0.00    -0.508 OA
ATOM     57  H   UNL     1       3.051  -1.479  -1.663  1.00  0.00     0.293 HD
ENDBRANCH  55  56
ENDBRANCH  49  50
ENDBRANCH  48  49
BRANCH  48  58
ATOM     58  C   UNL     1       9.392  -1.277   3.717  1.00  0.00     0.326 C 
ATOM     59  O   UNL     1       9.609  -0.358   4.490  1.00  0.00    -0.250 OA
BRANCH  58  60
ATOM     60  O   UNL     1       9.744  -2.538   4.072  1.00  0.00    -0.480 OA
ATOM     61  H   UNL     1      10.721  -2.537   3.970  1.00  0.00     0.296 HD
ENDBRANCH  58  60
ENDBRANCH  48  58
ENDBRANCH  46  48
ENDBRANCH  34  44
ENDBRANCH  32  34
ENDBRANCH  25  30
ENDBRANCH  23  25
ENDBRANCH   2  23
TORSDOF 28
ENDMDL
MODEL 23
REMARK VINA RESULT:    -5.792      1.385      2.092
REMARK INTER + INTRA:         -19.892
REMARK INTER:                 -14.277
REMARK INTRA:                  -5.615
REMARK UNBOUND:                -5.466
REMARK SMILES CCCCCCC[C@H](N)[C@H](O)C(=O)N[C@H](C)C(=O)N(C)[C@H](CC(C)C)C(=O)N[C@@H](Cc1ccc(O)cc1)C(=O)N[C@@H](Cc1ccc(O)cc1)C(=O)O
REMARK SMILES IDX 18 1 17 2 15 3 16 4 14 5 12 6 13 7 10 9 11 10 8 12 9 13 7 16
REMARK SMILES IDX 6 17 5 18 4 19 3 20 2 21 1 22 19 23 20 24 21 25 22 26 23 27
REMARK SMILES IDX 24 28 25 29 26 30 27 31 28 32 29 34 30 35 31 36 32 37 37 38
REMARK SMILES IDX 33 39 36 40 34 41 35 42 38 44 39 45 40 46 41 48 42 49 43 50
REMARK SMILES IDX 44 51 49 52 45 53 48 54 46 55 47 56 50 58 51 59 52 60
REMARK H PARENT 14 8 11 11 9 14 9 15 28 33 35 43 40 47 47 57 52 61
ROOT
ATOM      1  O   UNL     1       7.892  -1.742   7.155  1.00  0.00    -0.272 OA
ATOM      2  C   UNL     1       7.559  -2.673   6.408  1.00  0.00     0.245 C 
ENDROOT
BRANCH   2   3
ATOM      3  C   UNL     1       6.118  -2.688   5.838  1.00  0.00     0.168 C 
ATOM      4  C   UNL     1       5.171  -3.423   6.780  1.00  0.00     0.041 C 
BRANCH   3   5
ATOM      5  N   UNL     1       5.599  -1.384   5.456  1.00  0.00    -0.342 N 
ATOM      6  C   UNL     1       5.764  -0.879   4.183  1.00  0.00     0.251 C 
ATOM      7  O   UNL     1       6.387  -1.460   3.301  1.00  0.00    -0.272 OA
ATOM      8  H   UNL     1       5.095  -0.794   6.113  1.00  0.00     0.164 HD
BRANCH   6   9
ATOM      9  C   UNL     1       5.013   0.445   3.967  1.00  0.00     0.219 C 
BRANCH   9  10
ATOM     10  O   UNL     1       5.504   1.180   2.839  1.00  0.00    -0.382 OA
ATOM     11  H   UNL     1       5.177   2.092   2.999  1.00  0.00     0.211 HD
ENDBRANCH   9  10
BRANCH   9  12
ATOM     12  C   UNL     1       3.475   0.265   3.881  1.00  0.00     0.089 C 
BRANCH  12  13
ATOM     13  N   UNL     1       2.907   0.455   5.235  1.00  0.00    -0.325 NA
ATOM     14  H   UNL     1       2.444   1.365   5.281  1.00  0.00     0.119 HD
ATOM     15  H   UNL     1       3.672   0.511   5.911  1.00  0.00     0.119 HD
ENDBRANCH  12  13
BRANCH  12  16
ATOM     16  C   UNL     1       2.742   1.173   2.865  1.00  0.00     0.022 C 
BRANCH  16  17
ATOM     17  C   UNL     1       2.124   0.542   1.610  1.00  0.00     0.002 C 
BRANCH  17  18
ATOM     18  C   UNL     1       2.111  -0.985   1.596  1.00  0.00     0.000 C 
BRANCH  18  19
ATOM     19  C   UNL     1       2.928  -1.606   0.455  1.00  0.00    -0.000 C 
BRANCH  19  20
ATOM     20  C   UNL     1       4.316  -0.994   0.241  1.00  0.00    -0.000 C 
BRANCH  20  21
ATOM     21  C   UNL     1       4.558  -0.550  -1.204  1.00  0.00    -0.003 C 
ATOM     22  C   UNL     1       5.947   0.047  -1.375  1.00  0.00     0.004 C 
ENDBRANCH  20  21
ENDBRANCH  19  20
ENDBRANCH  18  19
ENDBRANCH  17  18
ENDBRANCH  16  17
ENDBRANCH  12  16
ENDBRANCH   9  12
ENDBRANCH   6   9
ENDBRANCH   3   5
ENDBRANCH   2   3
BRANCH   2  23
ATOM     23  N   UNL     1       8.503  -3.610   6.000  1.00  0.00    -0.332 N 
ATOM     24  C   UNL     1       8.652  -4.937   6.577  1.00  0.00     0.147 C 
BRANCH  23  25
ATOM     25  C   UNL     1       9.366  -3.340   4.817  1.00  0.00     0.174 C 
BRANCH  25  26
ATOM     26  C   UNL     1       9.678  -1.836   4.630  1.00  0.00     0.038 C 
BRANCH  26  27
ATOM     27  C   UNL     1      11.078  -1.352   5.066  1.00  0.00    -0.015 C 
ATOM     28  C   UNL     1      11.030  -0.475   6.317  1.00  0.00     0.007 C 
ATOM     29  C   UNL     1      12.085  -2.486   5.244  1.00  0.00     0.007 C 
ENDBRANCH  26  27
ENDBRANCH  25  26
BRANCH  25  30
ATOM     30  C   UNL     1       8.770  -4.013   3.559  1.00  0.00     0.243 C 
ATOM     31  O   UNL     1       7.855  -4.831   3.632  1.00  0.00    -0.273 OA
ATOM     32  N   UNL     1       9.333  -3.641   2.365  1.00  0.00    -0.342 N 
ATOM     33  H   UNL     1       9.988  -2.855   2.374  1.00  0.00     0.164 HD
BRANCH  32  34
ATOM     34  C   UNL     1       8.914  -4.196   1.075  1.00  0.00     0.175 C 
BRANCH  34  35
ATOM     35  C   UNL     1       8.355  -3.102   0.152  1.00  0.00     0.070 C 
BRANCH  35  36
ATOM     36  C   UNL     1       7.172  -3.573  -0.663  1.00  0.00    -0.045 A 
ATOM     37  C   UNL     1       7.117  -3.305  -2.040  1.00  0.00     0.007 A 
ATOM     38  C   UNL     1       6.110  -4.259  -0.059  1.00  0.00     0.007 A 
ATOM     39  C   UNL     1       6.023  -3.724  -2.798  1.00  0.00     0.046 A 
ATOM     40  C   UNL     1       5.014  -4.677  -0.817  1.00  0.00     0.046 A 
ATOM     41  C   UNL     1       4.981  -4.407  -2.181  1.00  0.00     0.115 A 
BRANCH  41  42
ATOM     42  O   UNL     1       3.929  -4.796  -2.957  1.00  0.00    -0.508 OA
ATOM     43  H   UNL     1       3.594  -5.640  -2.613  1.00  0.00     0.293 HD
ENDBRANCH  41  42
ENDBRANCH  35  36
ENDBRANCH  34  35
BRANCH  34  44
ATOM     44  C   UNL     1      10.128  -4.917   0.447  1.00  0.00     0.243 C 
ATOM     45  O   UNL     1      10.670  -5.909   0.926  1.00  0.00    -0.273 OA
ATOM     46  N   UNL     1      10.646  -4.264  -0.651  1.00  0.00    -0.341 N 
ATOM     47  H   UNL     1      10.234  -3.380  -0.941  1.00  0.00     0.164 HD
BRANCH  46  48
ATOM     48  C   UNL     1      11.837  -4.720  -1.372  1.00  0.00     0.196 C 
BRANCH  48  49
ATOM     49  C   UNL     1      11.823  -4.243  -2.835  1.00  0.00     0.072 C 
BRANCH  49  50
ATOM     50  C   UNL     1      10.581  -4.682  -3.578  1.00  0.00    -0.045 A 
ATOM     51  C   UNL     1      10.048  -5.960  -3.353  1.00  0.00     0.007 A 
ATOM     52  C   UNL     1       9.962  -3.838  -4.508  1.00  0.00     0.007 A 
ATOM     53  C   UNL     1       8.910  -6.381  -4.043  1.00  0.00     0.046 A 
ATOM     54  C   UNL     1       8.824  -4.261  -5.200  1.00  0.00     0.046 A 
ATOM     55  C   UNL     1       8.307  -5.529  -4.960  1.00  0.00     0.115 A 
BRANCH  55  56
ATOM     56  O   UNL     1       7.199  -5.979  -5.614  1.00  0.00    -0.508 OA
ATOM     57  H   UNL     1       6.445  -5.424  -5.358  1.00  0.00     0.293 HD
ENDBRANCH  55  56
ENDBRANCH  49  50
ENDBRANCH  48  49
BRANCH  48  58
ATOM     58  C   UNL     1      13.087  -4.177  -0.666  1.00  0.00     0.326 C 
ATOM     59  O   UNL     1      14.130  -4.771  -0.449  1.00  0.00    -0.250 OA
BRANCH  58  60
ATOM     60  O   UNL     1      12.967  -2.884  -0.272  1.00  0.00    -0.480 OA
ATOM     61  H   UNL     1      13.617  -2.809   0.460  1.00  0.00     0.296 HD
ENDBRANCH  58  60
ENDBRANCH  48  58
ENDBRANCH  46  48
ENDBRANCH  34  44
ENDBRANCH  32  34
ENDBRANCH  25  30
ENDBRANCH  23  25
ENDBRANCH   2  23
TORSDOF 28
ENDMDL
MODEL 24
REMARK VINA RESULT:    -5.749      2.209      3.434
REMARK INTER + INTRA:         -19.785
REMARK INTER:                 -14.466
REMARK INTRA:                  -5.319
REMARK UNBOUND:                -5.466
REMARK SMILES CCCCCCC[C@H](N)[C@H](O)C(=O)N[C@H](C)C(=O)N(C)[C@H](CC(C)C)C(=O)N[C@@H](Cc1ccc(O)cc1)C(=O)N[C@@H](Cc1ccc(O)cc1)C(=O)O
REMARK SMILES IDX 18 1 17 2 15 3 16 4 14 5 12 6 13 7 10 9 11 10 8 12 9 13 7 16
REMARK SMILES IDX 6 17 5 18 4 19 3 20 2 21 1 22 19 23 20 24 21 25 22 26 23 27
REMARK SMILES IDX 24 28 25 29 26 30 27 31 28 32 29 34 30 35 31 36 32 37 37 38
REMARK SMILES IDX 33 39 36 40 34 41 35 42 38 44 39 45 40 46 41 48 42 49 43 50
REMARK SMILES IDX 44 51 49 52 45 53 48 54 46 55 47 56 50 58 51 59 52 60
REMARK H PARENT 14 8 11 11 9 14 9 15 28 33 35 43 40 47 47 57 52 61
ROOT
ATOM      1  O   UNL     1      12.887  -4.880   6.441  1.00  0.00    -0.272 OA
ATOM      2  C   UNL     1      11.692  -4.795   6.119  1.00  0.00     0.245 C 
ENDROOT
BRANCH   2   3
ATOM      3  C   UNL     1      11.181  -3.465   5.511  1.00  0.00     0.168 C 
ATOM      4  C   UNL     1      12.039  -3.049   4.321  1.00  0.00     0.041 C 
BRANCH   3   5
ATOM      5  N   UNL     1       9.763  -3.446   5.190  1.00  0.00    -0.342 N 
ATOM      6  C   UNL     1       8.878  -2.621   5.852  1.00  0.00     0.251 C 
ATOM      7  O   UNL     1       9.203  -1.883   6.776  1.00  0.00    -0.272 OA
ATOM      8  H   UNL     1       9.369  -4.041   4.464  1.00  0.00     0.164 HD
BRANCH   6   9
ATOM      9  C   UNL     1       7.463  -2.664   5.251  1.00  0.00     0.219 C 
BRANCH   9  10
ATOM     10  O   UNL     1       7.203  -3.877   4.535  1.00  0.00    -0.382 OA
ATOM     11  H   UNL     1       6.950  -3.566   3.638  1.00  0.00     0.211 HD
ENDBRANCH   9  10
BRANCH   9  12
ATOM     12  C   UNL     1       6.350  -2.391   6.296  1.00  0.00     0.089 C 
BRANCH  12  13
ATOM     13  N   UNL     1       6.562  -1.040   6.863  1.00  0.00    -0.325 NA
ATOM     14  H   UNL     1       6.589  -0.357   6.104  1.00  0.00     0.119 HD
ATOM     15  H   UNL     1       7.491  -1.001   7.290  1.00  0.00     0.119 HD
ENDBRANCH  12  13
BRANCH  12  16
ATOM     16  C   UNL     1       4.895  -2.532   5.789  1.00  0.00     0.022 C 
BRANCH  16  17
ATOM     17  C   UNL     1       4.165  -1.291   5.259  1.00  0.00     0.002 C 
BRANCH  17  18
ATOM     18  C   UNL     1       3.544  -1.451   3.873  1.00  0.00     0.000 C 
BRANCH  18  19
ATOM     19  C   UNL     1       4.157  -0.537   2.804  1.00  0.00    -0.000 C 
BRANCH  19  20
ATOM     20  C   UNL     1       5.594  -0.086   3.080  1.00  0.00    -0.000 C 
BRANCH  20  21
ATOM     21  C   UNL     1       6.158   0.824   1.986  1.00  0.00    -0.003 C 
ATOM     22  C   UNL     1       5.179   0.975   0.832  1.00  0.00     0.004 C 
ENDBRANCH  20  21
ENDBRANCH  19  20
ENDBRANCH  18  19
ENDBRANCH  17  18
ENDBRANCH  16  17
ENDBRANCH  12  16
ENDBRANCH   9  12
ENDBRANCH   6   9
ENDBRANCH   3   5
ENDBRANCH   2   3
BRANCH   2  23
ATOM     23  N   UNL     1      10.871  -5.915   6.193  1.00  0.00    -0.332 N 
ATOM     24  C   UNL     1       9.854  -6.128   7.213  1.00  0.00     0.147 C 
BRANCH  23  25
ATOM     25  C   UNL     1      10.902  -6.942   5.116  1.00  0.00     0.174 C 
BRANCH  25  26
ATOM     26  C   UNL     1      12.338  -7.372   4.736  1.00  0.00     0.038 C 
BRANCH  26  27
ATOM     27  C   UNL     1      12.691  -8.867   4.910  1.00  0.00    -0.015 C 
ATOM     28  C   UNL     1      12.983  -9.233   6.364  1.00  0.00     0.007 C 
ATOM     29  C   UNL     1      11.646  -9.810   4.318  1.00  0.00     0.007 C 
ENDBRANCH  26  27
ENDBRANCH  25  26
BRANCH  25  30
ATOM     30  C   UNL     1      10.053  -6.475   3.911  1.00  0.00     0.243 C 
ATOM     31  O   UNL     1       8.826  -6.409   3.967  1.00  0.00    -0.273 OA
ATOM     32  N   UNL     1      10.757  -6.148   2.781  1.00  0.00    -0.342 N 
ATOM     33  H   UNL     1      11.776  -6.092   2.857  1.00  0.00     0.164 HD
BRANCH  32  34
ATOM     34  C   UNL     1      10.118  -5.711   1.537  1.00  0.00     0.175 C 
BRANCH  34  35
ATOM     35  C   UNL     1       9.721  -4.229   1.602  1.00  0.00     0.070 C 
BRANCH  35  36
ATOM     36  C   UNL     1       8.367  -3.958   0.986  1.00  0.00    -0.045 A 
ATOM     37  C   UNL     1       7.551  -5.028   0.588  1.00  0.00     0.007 A 
ATOM     38  C   UNL     1       7.919  -2.647   0.782  1.00  0.00     0.007 A 
ATOM     39  C   UNL     1       6.306  -4.789   0.005  1.00  0.00     0.046 A 
ATOM     40  C   UNL     1       6.673  -2.406   0.197  1.00  0.00     0.046 A 
ATOM     41  C   UNL     1       5.877  -3.481  -0.185  1.00  0.00     0.115 A 
BRANCH  41  42
ATOM     42  O   UNL     1       4.655  -3.290  -0.761  1.00  0.00    -0.508 OA
ATOM     43  H   UNL     1       4.450  -4.068  -1.305  1.00  0.00     0.293 HD
ENDBRANCH  41  42
ENDBRANCH  35  36
ENDBRANCH  34  35
BRANCH  34  44
ATOM     44  C   UNL     1      11.093  -5.997   0.372  1.00  0.00     0.243 C 
ATOM     45  O   UNL     1      11.976  -6.850   0.399  1.00  0.00    -0.273 OA
ATOM     46  N   UNL     1      10.972  -5.108  -0.675  1.00  0.00    -0.341 N 
ATOM     47  H   UNL     1      10.304  -4.345  -0.601  1.00  0.00     0.164 HD
BRANCH  46  48
ATOM     48  C   UNL     1      11.833  -5.136  -1.859  1.00  0.00     0.196 C 
BRANCH  48  49
ATOM     49  C   UNL     1      11.210  -4.348  -3.024  1.00  0.00     0.072 C 
BRANCH  49  50
ATOM     50  C   UNL     1       9.779  -4.750  -3.298  1.00  0.00    -0.045 A 
ATOM     51  C   UNL     1       9.487  -6.058  -3.712  1.00  0.00     0.007 A 
ATOM     52  C   UNL     1       8.733  -3.828  -3.166  1.00  0.00     0.007 A 
ATOM     53  C   UNL     1       8.172  -6.437  -3.981  1.00  0.00     0.046 A 
ATOM     54  C   UNL     1       7.416  -4.207  -3.436  1.00  0.00     0.046 A 
ATOM     55  C   UNL     1       7.147  -5.510  -3.840  1.00  0.00     0.115 A 
BRANCH  55  56
ATOM     56  O   UNL     1       5.875  -5.920  -4.115  1.00  0.00    -0.508 OA
ATOM     57  H   UNL     1       5.400  -6.024  -3.275  1.00  0.00     0.293 HD
ENDBRANCH  55  56
ENDBRANCH  49  50
ENDBRANCH  48  49
BRANCH  48  58
ATOM     58  C   UNL     1      13.197  -4.530  -1.500  1.00  0.00     0.326 C 
ATOM     59  O   UNL     1      13.470  -3.347  -1.374  1.00  0.00    -0.250 OA
BRANCH  58  60
ATOM     60  O   UNL     1      14.165  -5.459  -1.297  1.00  0.00    -0.480 OA
ATOM     61  H   UNL     1      14.450  -5.691  -2.207  1.00  0.00     0.296 HD
ENDBRANCH  58  60
ENDBRANCH  48  58
ENDBRANCH  46  48
ENDBRANCH  34  44
ENDBRANCH  32  34
ENDBRANCH  25  30
ENDBRANCH  23  25
ENDBRANCH   2  23
TORSDOF 28
ENDMDL
MODEL 25
REMARK VINA RESULT:    -5.735      2.586      5.169
REMARK INTER + INTRA:         -19.749
REMARK INTER:                 -13.596
REMARK INTRA:                  -6.153
REMARK UNBOUND:                -5.466
REMARK SMILES CCCCCCC[C@H](N)[C@H](O)C(=O)N[C@H](C)C(=O)N(C)[C@H](CC(C)C)C(=O)N[C@@H](Cc1ccc(O)cc1)C(=O)N[C@@H](Cc1ccc(O)cc1)C(=O)O
REMARK SMILES IDX 18 1 17 2 15 3 16 4 14 5 12 6 13 7 10 9 11 10 8 12 9 13 7 16
REMARK SMILES IDX 6 17 5 18 4 19 3 20 2 21 1 22 19 23 20 24 21 25 22 26 23 27
REMARK SMILES IDX 24 28 25 29 26 30 27 31 28 32 29 34 30 35 31 36 32 37 37 38
REMARK SMILES IDX 33 39 36 40 34 41 35 42 38 44 39 45 40 46 41 48 42 49 43 50
REMARK SMILES IDX 44 51 49 52 45 53 48 54 46 55 47 56 50 58 51 59 52 60
REMARK H PARENT 14 8 11 11 9 14 9 15 28 33 35 43 40 47 47 57 52 61
ROOT
ATOM      1  O   UNL     1      12.453  -1.981   5.945  1.00  0.00    -0.272 OA
ATOM      2  C   UNL     1      12.352  -1.069   5.111  1.00  0.00     0.245 C 
ENDROOT
BRANCH   2   3
ATOM      3  C   UNL     1      11.534   0.192   5.487  1.00  0.00     0.168 C 
ATOM      4  C   UNL     1      11.985   1.394   4.665  1.00  0.00     0.041 C 
BRANCH   3   5
ATOM      5  N   UNL     1      10.091   0.018   5.448  1.00  0.00    -0.342 N 
ATOM      6  C   UNL     1       9.393  -0.519   6.509  1.00  0.00     0.251 C 
ATOM      7  O   UNL     1       9.929  -0.926   7.534  1.00  0.00    -0.272 OA
ATOM      8  H   UNL     1       9.540   0.286   4.636  1.00  0.00     0.164 HD
BRANCH   6   9
ATOM      9  C   UNL     1       7.871  -0.475   6.303  1.00  0.00     0.219 C 
BRANCH   9  10
ATOM     10  O   UNL     1       7.338   0.851   6.402  1.00  0.00    -0.382 OA
ATOM     11  H   UNL     1       8.134   1.411   6.537  1.00  0.00     0.211 HD
ENDBRANCH   9  10
BRANCH   9  12
ATOM     12  C   UNL     1       7.414  -1.154   4.985  1.00  0.00     0.089 C 
BRANCH  12  13
ATOM     13  N   UNL     1       7.658  -0.215   3.867  1.00  0.00    -0.325 NA
ATOM     14  H   UNL     1       7.917  -0.745   3.033  1.00  0.00     0.119 HD
ATOM     15  H   UNL     1       8.478   0.356   4.086  1.00  0.00     0.119 HD
ENDBRANCH  12  13
BRANCH  12  16
ATOM     16  C   UNL     1       8.054  -2.528   4.674  1.00  0.00     0.022 C 
BRANCH  16  17
ATOM     17  C   UNL     1       7.364  -3.464   3.671  1.00  0.00     0.002 C 
BRANCH  17  18
ATOM     18  C   UNL     1       8.013  -3.521   2.291  1.00  0.00     0.000 C 
BRANCH  18  19
ATOM     19  C   UNL     1       7.011  -3.569   1.130  1.00  0.00    -0.000 C 
BRANCH  19  20
ATOM     20  C   UNL     1       6.382  -2.223   0.758  1.00  0.00    -0.000 C 
BRANCH  20  21
ATOM     21  C   UNL     1       6.662  -1.810  -0.690  1.00  0.00    -0.003 C 
ATOM     22  C   UNL     1       6.662  -0.297  -0.845  1.00  0.00     0.004 C 
ENDBRANCH  20  21
ENDBRANCH  19  20
ENDBRANCH  18  19
ENDBRANCH  17  18
ENDBRANCH  16  17
ENDBRANCH  12  16
ENDBRANCH   9  12
ENDBRANCH   6   9
ENDBRANCH   3   5
ENDBRANCH   2   3
BRANCH   2  23
ATOM     23  N   UNL     1      13.063  -1.136   3.917  1.00  0.00    -0.332 N 
ATOM     24  C   UNL     1      14.428  -0.664   3.742  1.00  0.00     0.147 C 
BRANCH  23  25
ATOM     25  C   UNL     1      12.487  -1.838   2.738  1.00  0.00     0.174 C 
BRANCH  25  26
ATOM     26  C   UNL     1      11.028  -1.419   2.441  1.00  0.00     0.038 C 
BRANCH  26  27
ATOM     27  C   UNL     1      10.763  -0.709   1.095  1.00  0.00    -0.015 C 
ATOM     28  C   UNL     1      10.265  -1.669   0.016  1.00  0.00     0.007 C 
ATOM     29  C   UNL     1       9.830   0.494   1.215  1.00  0.00     0.007 C 
ENDBRANCH  26  27
ENDBRANCH  25  26
BRANCH  25  30
ATOM     30  C   UNL     1      12.677  -3.365   2.882  1.00  0.00     0.243 C 
ATOM     31  O   UNL     1      13.654  -3.847   3.453  1.00  0.00    -0.273 OA
ATOM     32  N   UNL     1      11.693  -4.141   2.327  1.00  0.00    -0.342 N 
ATOM     33  H   UNL     1      10.847  -3.668   1.996  1.00  0.00     0.164 HD
BRANCH  32  34
ATOM     34  C   UNL     1      11.721  -5.606   2.344  1.00  0.00     0.175 C 
BRANCH  34  35
ATOM     35  C   UNL     1      10.431  -6.183   2.948  1.00  0.00     0.070 C 
BRANCH  35  36
ATOM     36  C   UNL     1      10.430  -6.153   4.460  1.00  0.00    -0.045 A 
ATOM     37  C   UNL     1      11.636  -6.279   5.165  1.00  0.00     0.007 A 
ATOM     38  C   UNL     1       9.232  -6.024   5.175  1.00  0.00     0.007 A 
ATOM     39  C   UNL     1      11.643  -6.267   6.560  1.00  0.00     0.046 A 
ATOM     40  C   UNL     1       9.238  -6.013   6.572  1.00  0.00     0.046 A 
ATOM     41  C   UNL     1      10.446  -6.133   7.252  1.00  0.00     0.115 A 
BRANCH  41  42
ATOM     42  O   UNL     1      10.496  -6.129   8.615  1.00  0.00    -0.508 OA
ATOM     43  H   UNL     1      10.861  -5.276   8.904  1.00  0.00     0.293 HD
ENDBRANCH  41  42
ENDBRANCH  35  36
ENDBRANCH  34  35
BRANCH  34  44
ATOM     44  C   UNL     1      11.950  -6.097   0.896  1.00  0.00     0.243 C 
ATOM     45  O   UNL     1      12.382  -7.208   0.601  1.00  0.00    -0.273 OA
ATOM     46  N   UNL     1      11.748  -5.119  -0.054  1.00  0.00    -0.341 N 
ATOM     47  H   UNL     1      11.503  -4.179   0.249  1.00  0.00     0.164 HD
BRANCH  46  48
ATOM     48  C   UNL     1      11.969  -5.329  -1.486  1.00  0.00     0.196 C 
BRANCH  48  49
ATOM     49  C   UNL     1      11.098  -4.384  -2.332  1.00  0.00     0.072 C 
BRANCH  49  50
ATOM     50  C   UNL     1       9.779  -5.007  -2.728  1.00  0.00    -0.045 A 
ATOM     51  C   UNL     1       8.606  -4.655  -2.045  1.00  0.00     0.007 A 
ATOM     52  C   UNL     1       9.710  -5.952  -3.760  1.00  0.00     0.007 A 
ATOM     53  C   UNL     1       7.386  -5.234  -2.393  1.00  0.00     0.046 A 
ATOM     54  C   UNL     1       8.488  -6.532  -4.108  1.00  0.00     0.046 A 
ATOM     55  C   UNL     1       7.335  -6.167  -3.422  1.00  0.00     0.115 A 
BRANCH  55  56
ATOM     56  O   UNL     1       6.123  -6.710  -3.730  1.00  0.00    -0.508 OA
ATOM     57  H   UNL     1       5.764  -6.240  -4.499  1.00  0.00     0.293 HD
ENDBRANCH  55  56
ENDBRANCH  49  50
ENDBRANCH  48  49
BRANCH  48  58
ATOM     58  C   UNL     1      13.451  -5.085  -1.803  1.00  0.00     0.326 C 
ATOM     59  O   UNL     1      13.995  -4.013  -2.016  1.00  0.00    -0.250 OA
BRANCH  58  60
ATOM     60  O   UNL     1      14.194  -6.220  -1.824  1.00  0.00    -0.480 OA
ATOM     61  H   UNL     1      14.708  -6.169  -0.989  1.00  0.00     0.296 HD
ENDBRANCH  58  60
ENDBRANCH  48  58
ENDBRANCH  46  48
ENDBRANCH  34  44
ENDBRANCH  32  34
ENDBRANCH  25  30
ENDBRANCH  23  25
ENDBRANCH   2  23
TORSDOF 28
ENDMDL
MODEL 26
REMARK VINA RESULT:    -5.727      3.247      6.573
REMARK INTER + INTRA:         -19.730
REMARK INTER:                 -15.176
REMARK INTRA:                  -4.553
REMARK UNBOUND:                -5.466
REMARK SMILES CCCCCCC[C@H](N)[C@H](O)C(=O)N[C@H](C)C(=O)N(C)[C@H](CC(C)C)C(=O)N[C@@H](Cc1ccc(O)cc1)C(=O)N[C@@H](Cc1ccc(O)cc1)C(=O)O
REMARK SMILES IDX 18 1 17 2 15 3 16 4 14 5 12 6 13 7 10 9 11 10 8 12 9 13 7 16
REMARK SMILES IDX 6 17 5 18 4 19 3 20 2 21 1 22 19 23 20 24 21 25 22 26 23 27
REMARK SMILES IDX 24 28 25 29 26 30 27 31 28 32 29 34 30 35 31 36 32 37 37 38
REMARK SMILES IDX 33 39 36 40 34 41 35 42 38 44 39 45 40 46 41 48 42 49 43 50
REMARK SMILES IDX 44 51 49 52 45 53 48 54 46 55 47 56 50 58 51 59 52 60
REMARK H PARENT 14 8 11 11 9 14 9 15 28 33 35 43 40 47 47 57 52 61
ROOT
ATOM      1  O   UNL     1      10.334  -5.836   0.316  1.00  0.00    -0.272 OA
ATOM      2  C   UNL     1       9.960  -4.863   0.987  1.00  0.00     0.245 C 
ENDROOT
BRANCH   2   3
ATOM      3  C   UNL     1       8.857  -3.943   0.408  1.00  0.00     0.168 C 
ATOM      4  C   UNL     1       9.470  -2.729  -0.281  1.00  0.00     0.041 C 
BRANCH   3   5
ATOM      5  N   UNL     1       7.885  -4.614  -0.440  1.00  0.00    -0.342 N 
ATOM      6  C   UNL     1       6.535  -4.342  -0.358  1.00  0.00     0.251 C 
ATOM      7  O   UNL     1       6.052  -3.557   0.451  1.00  0.00    -0.272 OA
ATOM      8  H   UNL     1       8.163  -5.312  -1.127  1.00  0.00     0.164 HD
BRANCH   6   9
ATOM      9  C   UNL     1       5.717  -5.060  -1.444  1.00  0.00     0.219 C 
BRANCH   9  10
ATOM     10  O   UNL     1       4.311  -5.057  -1.168  1.00  0.00    -0.382 OA
ATOM     11  H   UNL     1       4.228  -5.639  -0.381  1.00  0.00     0.211 HD
ENDBRANCH   9  10
BRANCH   9  12
ATOM     12  C   UNL     1       6.000  -4.526  -2.872  1.00  0.00     0.089 C 
BRANCH  12  13
ATOM     13  N   UNL     1       4.918  -4.996  -3.769  1.00  0.00    -0.325 NA
ATOM     14  H   UNL     1       4.015  -4.821  -3.325  1.00  0.00     0.119 HD
ATOM     15  H   UNL     1       4.980  -6.013  -3.858  1.00  0.00     0.119 HD
ENDBRANCH  12  13
BRANCH  12  16
ATOM     16  C   UNL     1       6.170  -2.994  -3.002  1.00  0.00     0.022 C 
BRANCH  16  17
ATOM     17  C   UNL     1       4.923  -2.099  -2.985  1.00  0.00     0.002 C 
BRANCH  17  18
ATOM     18  C   UNL     1       4.703  -1.325  -1.687  1.00  0.00     0.000 C 
BRANCH  18  19
ATOM     19  C   UNL     1       3.883  -0.040  -1.857  1.00  0.00    -0.000 C 
BRANCH  19  20
ATOM     20  C   UNL     1       3.122   0.416  -0.609  1.00  0.00    -0.000 C 
BRANCH  20  21
ATOM     21  C   UNL     1       3.270  -0.550   0.569  1.00  0.00    -0.003 C 
ATOM     22  C   UNL     1       2.007  -1.373   0.773  1.00  0.00     0.004 C 
ENDBRANCH  20  21
ENDBRANCH  19  20
ENDBRANCH  18  19
ENDBRANCH  17  18
ENDBRANCH  16  17
ENDBRANCH  12  16
ENDBRANCH   9  12
ENDBRANCH   6   9
ENDBRANCH   3   5
ENDBRANCH   2   3
BRANCH   2  23
ATOM     23  N   UNL     1      10.440  -4.685   2.280  1.00  0.00    -0.332 N 
ATOM     24  C   UNL     1      10.197  -3.504   3.096  1.00  0.00     0.147 C 
BRANCH  23  25
ATOM     25  C   UNL     1      11.154  -5.791   2.976  1.00  0.00     0.174 C 
BRANCH  25  26
ATOM     26  C   UNL     1      11.486  -5.461   4.450  1.00  0.00     0.038 C 
BRANCH  26  27
ATOM     27  C   UNL     1      11.155  -6.543   5.502  1.00  0.00    -0.015 C 
ATOM     28  C   UNL     1      10.556  -7.802   4.876  1.00  0.00     0.007 C 
ATOM     29  C   UNL     1      12.337  -6.899   6.400  1.00  0.00     0.007 C 
ENDBRANCH  26  27
ENDBRANCH  25  26
BRANCH  25  30
ATOM     30  C   UNL     1      12.380  -6.237   2.147  1.00  0.00     0.243 C 
ATOM     31  O   UNL     1      13.320  -5.477   1.916  1.00  0.00    -0.273 OA
ATOM     32  N   UNL     1      12.347  -7.528   1.686  1.00  0.00    -0.342 N 
ATOM     33  H   UNL     1      11.604  -8.137   2.037  1.00  0.00     0.164 HD
BRANCH  32  34
ATOM     34  C   UNL     1      13.409  -8.112   0.862  1.00  0.00     0.175 C 
BRANCH  34  35
ATOM     35  C   UNL     1      13.678  -9.574   1.252  1.00  0.00     0.070 C 
BRANCH  35  36
ATOM     36  C   UNL     1      13.692  -9.787   2.749  1.00  0.00    -0.045 A 
ATOM     37  C   UNL     1      12.690 -10.558   3.358  1.00  0.00     0.007 A 
ATOM     38  C   UNL     1      14.684  -9.204   3.549  1.00  0.00     0.007 A 
ATOM     39  C   UNL     1      12.687 -10.748   4.740  1.00  0.00     0.046 A 
ATOM     40  C   UNL     1      14.680  -9.393   4.933  1.00  0.00     0.046 A 
ATOM     41  C   UNL     1      13.682 -10.166   5.516  1.00  0.00     0.115 A 
BRANCH  41  42
ATOM     42  O   UNL     1      13.641 -10.374   6.863  1.00  0.00    -0.508 OA
ATOM     43  H   UNL     1      14.529 -10.214   7.223  1.00  0.00     0.293 HD
ENDBRANCH  41  42
ENDBRANCH  35  36
ENDBRANCH  34  35
BRANCH  34  44
ATOM     44  C   UNL     1      12.995  -7.977  -0.620  1.00  0.00     0.243 C 
ATOM     45  O   UNL     1      12.907  -8.917  -1.405  1.00  0.00    -0.273 OA
ATOM     46  N   UNL     1      12.852  -6.669  -1.033  1.00  0.00    -0.341 N 
ATOM     47  H   UNL     1      13.049  -5.919  -0.375  1.00  0.00     0.164 HD
BRANCH  46  48
ATOM     48  C   UNL     1      12.531  -6.289  -2.410  1.00  0.00     0.196 C 
BRANCH  48  49
ATOM     49  C   UNL     1      11.734  -4.975  -2.458  1.00  0.00     0.072 C 
BRANCH  49  50
ATOM     50  C   UNL     1      10.558  -5.041  -3.406  1.00  0.00    -0.045 A 
ATOM     51  C   UNL     1       9.764  -6.195  -3.456  1.00  0.00     0.007 A 
ATOM     52  C   UNL     1      10.259  -3.970  -4.258  1.00  0.00     0.007 A 
ATOM     53  C   UNL     1       8.685  -6.273  -4.337  1.00  0.00     0.046 A 
ATOM     54  C   UNL     1       9.179  -4.048  -5.141  1.00  0.00     0.046 A 
ATOM     55  C   UNL     1       8.400  -5.199  -5.172  1.00  0.00     0.115 A 
BRANCH  55  56
ATOM     56  O   UNL     1       7.339  -5.316  -6.019  1.00  0.00    -0.508 OA
ATOM     57  H   UNL     1       6.864  -4.469  -6.034  1.00  0.00     0.293 HD
ENDBRANCH  55  56
ENDBRANCH  49  50
ENDBRANCH  48  49
BRANCH  48  58
ATOM     58  C   UNL     1      13.836  -6.128  -3.202  1.00  0.00     0.326 C 
ATOM     59  O   UNL     1      14.773  -5.391  -2.940  1.00  0.00    -0.250 OA
BRANCH  58  60
ATOM     60  O   UNL     1      13.908  -6.928  -4.295  1.00  0.00    -0.480 OA
ATOM     61  H   UNL     1      14.155  -7.802  -3.921  1.00  0.00     0.296 HD
ENDBRANCH  58  60
ENDBRANCH  48  58
ENDBRANCH  46  48
ENDBRANCH  34  44
ENDBRANCH  32  34
ENDBRANCH  25  30
ENDBRANCH  23  25
ENDBRANCH   2  23
TORSDOF 28
ENDMDL
MODEL 27
REMARK VINA RESULT:    -5.724      2.447      6.260
REMARK INTER + INTRA:         -19.722
REMARK INTER:                 -14.049
REMARK INTRA:                  -5.673
REMARK UNBOUND:                -5.466
REMARK SMILES CCCCCCC[C@H](N)[C@H](O)C(=O)N[C@H](C)C(=O)N(C)[C@H](CC(C)C)C(=O)N[C@@H](Cc1ccc(O)cc1)C(=O)N[C@@H](Cc1ccc(O)cc1)C(=O)O
REMARK SMILES IDX 18 1 17 2 15 3 16 4 14 5 12 6 13 7 10 9 11 10 8 12 9 13 7 16
REMARK SMILES IDX 6 17 5 18 4 19 3 20 2 21 1 22 19 23 20 24 21 25 22 26 23 27
REMARK SMILES IDX 24 28 25 29 26 30 27 31 28 32 29 34 30 35 31 36 32 37 37 38
REMARK SMILES IDX 33 39 36 40 34 41 35 42 38 44 39 45 40 46 41 48 42 49 43 50
REMARK SMILES IDX 44 51 49 52 45 53 48 54 46 55 47 56 50 58 51 59 52 60
REMARK H PARENT 14 8 11 11 9 14 9 15 28 33 35 43 40 47 47 57 52 61
ROOT
ATOM      1  O   UNL     1       8.749  -1.400   6.990  1.00  0.00    -0.272 OA
ATOM      2  C   UNL     1       8.418  -2.190   6.093  1.00  0.00     0.245 C 
ENDROOT
BRANCH   2   3
ATOM      3  C   UNL     1       7.919  -3.601   6.495  1.00  0.00     0.168 C 
ATOM      4  C   UNL     1       6.414  -3.594   6.737  1.00  0.00     0.041 C 
BRANCH   3   5
ATOM      5  N   UNL     1       8.318  -4.670   5.594  1.00  0.00    -0.342 N 
ATOM      6  C   UNL     1       9.434  -5.444   5.832  1.00  0.00     0.251 C 
ATOM      7  O   UNL     1      10.188  -5.269   6.783  1.00  0.00    -0.272 OA
ATOM      8  H   UNL     1       7.790  -4.887   4.752  1.00  0.00     0.164 HD
BRANCH   6   9
ATOM      9  C   UNL     1       9.580  -6.600   4.829  1.00  0.00     0.219 C 
BRANCH   9  10
ATOM     10  O   UNL     1       8.471  -6.694   3.927  1.00  0.00    -0.382 OA
ATOM     11  H   UNL     1       8.893  -6.697   3.041  1.00  0.00     0.211 HD
ENDBRANCH   9  10
BRANCH   9  12
ATOM     12  C   UNL     1      10.921  -6.564   4.050  1.00  0.00     0.089 C 
BRANCH  12  13
ATOM     13  N   UNL     1      11.191  -5.165   3.648  1.00  0.00    -0.325 NA
ATOM     14  H   UNL     1      10.629  -4.536   4.224  1.00  0.00     0.119 HD
ATOM     15  H   UNL     1      10.854  -5.024   2.693  1.00  0.00     0.119 HD
ENDBRANCH  12  13
BRANCH  12  16
ATOM     16  C   UNL     1      12.149  -7.152   4.786  1.00  0.00     0.022 C 
BRANCH  16  17
ATOM     17  C   UNL     1      12.432  -8.657   4.682  1.00  0.00     0.002 C 
BRANCH  17  18
ATOM     18  C   UNL     1      13.909  -9.029   4.579  1.00  0.00     0.000 C 
BRANCH  18  19
ATOM     19  C   UNL     1      14.537  -9.471   5.907  1.00  0.00    -0.000 C 
BRANCH  19  20
ATOM     20  C   UNL     1      13.545  -9.987   6.955  1.00  0.00    -0.000 C 
BRANCH  20  21
ATOM     21  C   UNL     1      13.601  -9.204   8.269  1.00  0.00    -0.003 C 
ATOM     22  C   UNL     1      14.065  -7.773   8.043  1.00  0.00     0.004 C 
ENDBRANCH  20  21
ENDBRANCH  19  20
ENDBRANCH  18  19
ENDBRANCH  17  18
ENDBRANCH  16  17
ENDBRANCH  12  16
ENDBRANCH   9  12
ENDBRANCH   6   9
ENDBRANCH   3   5
ENDBRANCH   2   3
BRANCH   2  23
ATOM     23  N   UNL     1       8.383  -1.765   4.770  1.00  0.00    -0.332 N 
ATOM     24  C   UNL     1       7.357  -0.899   4.208  1.00  0.00     0.147 C 
BRANCH  23  25
ATOM     25  C   UNL     1       9.508  -2.083   3.848  1.00  0.00     0.174 C 
BRANCH  25  26
ATOM     26  C   UNL     1      10.236  -0.821   3.329  1.00  0.00     0.038 C 
BRANCH  26  27
ATOM     27  C   UNL     1      11.555  -0.434   4.035  1.00  0.00    -0.015 C 
ATOM     28  C   UNL     1      11.344   0.599   5.141  1.00  0.00     0.007 C 
ATOM     29  C   UNL     1      12.336  -1.635   4.563  1.00  0.00     0.007 C 
ENDBRANCH  26  27
ENDBRANCH  25  26
BRANCH  25  30
ATOM     30  C   UNL     1       9.024  -3.028   2.724  1.00  0.00     0.243 C 
ATOM     31  O   UNL     1       8.146  -3.868   2.915  1.00  0.00    -0.273 OA
ATOM     32  N   UNL     1       9.641  -2.870   1.510  1.00  0.00    -0.342 N 
ATOM     33  H   UNL     1      10.255  -2.060   1.393  1.00  0.00     0.164 HD
BRANCH  32  34
ATOM     34  C   UNL     1       9.330  -3.695   0.340  1.00  0.00     0.175 C 
BRANCH  34  35
ATOM     35  C   UNL     1       8.694  -2.858  -0.781  1.00  0.00     0.070 C 
BRANCH  35  36
ATOM     36  C   UNL     1       7.337  -3.376  -1.200  1.00  0.00    -0.045 A 
ATOM     37  C   UNL     1       6.861  -4.593  -0.687  1.00  0.00     0.007 A 
ATOM     38  C   UNL     1       6.549  -2.669  -2.117  1.00  0.00     0.007 A 
ATOM     39  C   UNL     1       5.616  -5.086  -1.078  1.00  0.00     0.046 A 
ATOM     40  C   UNL     1       5.303  -3.163  -2.511  1.00  0.00     0.046 A 
ATOM     41  C   UNL     1       4.847  -4.367  -1.986  1.00  0.00     0.115 A 
BRANCH  41  42
ATOM     42  O   UNL     1       3.638  -4.886  -2.344  1.00  0.00    -0.508 OA
ATOM     43  H   UNL     1       3.532  -5.745  -1.903  1.00  0.00     0.293 HD
ENDBRANCH  41  42
ENDBRANCH  35  36
ENDBRANCH  34  35
BRANCH  34  44
ATOM     44  C   UNL     1      10.635  -4.382  -0.122  1.00  0.00     0.243 C 
ATOM     45  O   UNL     1      11.308  -5.133   0.577  1.00  0.00    -0.273 OA
ATOM     46  N   UNL     1      11.059  -3.972  -1.368  1.00  0.00    -0.341 N 
ATOM     47  H   UNL     1      10.528  -3.258  -1.861  1.00  0.00     0.164 HD
BRANCH  46  48
ATOM     48  C   UNL     1      12.304  -4.433  -1.987  1.00  0.00     0.196 C 
BRANCH  48  49
ATOM     49  C   UNL     1      12.106  -4.740  -3.481  1.00  0.00     0.072 C 
BRANCH  49  50
ATOM     50  C   UNL     1      10.654  -4.947  -3.845  1.00  0.00    -0.045 A 
ATOM     51  C   UNL     1       9.948  -3.933  -4.509  1.00  0.00     0.007 A 
ATOM     52  C   UNL     1       9.989  -6.133  -3.511  1.00  0.00     0.007 A 
ATOM     53  C   UNL     1       8.604  -4.107  -4.838  1.00  0.00     0.046 A 
ATOM     54  C   UNL     1       8.642  -6.307  -3.839  1.00  0.00     0.046 A 
ATOM     55  C   UNL     1       7.961  -5.292  -4.502  1.00  0.00     0.115 A 
BRANCH  55  56
ATOM     56  O   UNL     1       6.647  -5.422  -4.840  1.00  0.00    -0.508 OA
ATOM     57  H   UNL     1       6.479  -6.351  -5.066  1.00  0.00     0.293 HD
ENDBRANCH  55  56
ENDBRANCH  49  50
ENDBRANCH  48  49
BRANCH  48  58
ATOM     58  C   UNL     1      13.376  -3.346  -1.823  1.00  0.00     0.326 C 
ATOM     59  O   UNL     1      13.667  -2.744  -0.802  1.00  0.00    -0.250 OA
BRANCH  58  60
ATOM     60  O   UNL     1      14.052  -3.075  -2.968  1.00  0.00    -0.480 OA
ATOM     61  H   UNL     1      14.306  -3.964  -3.296  1.00  0.00     0.296 HD
ENDBRANCH  58  60
ENDBRANCH  48  58
ENDBRANCH  46  48
ENDBRANCH  34  44
ENDBRANCH  32  34
ENDBRANCH  25  30
ENDBRANCH  23  25
ENDBRANCH   2  23
TORSDOF 28
ENDMDL
MODEL 28
REMARK VINA RESULT:    -5.711      2.707      6.094
REMARK INTER + INTRA:         -19.691
REMARK INTER:                 -13.715
REMARK INTRA:                  -5.975
REMARK UNBOUND:                -5.466
REMARK SMILES CCCCCCC[C@H](N)[C@H](O)C(=O)N[C@H](C)C(=O)N(C)[C@H](CC(C)C)C(=O)N[C@@H](Cc1ccc(O)cc1)C(=O)N[C@@H](Cc1ccc(O)cc1)C(=O)O
REMARK SMILES IDX 18 1 17 2 15 3 16 4 14 5 12 6 13 7 10 9 11 10 8 12 9 13 7 16
REMARK SMILES IDX 6 17 5 18 4 19 3 20 2 21 1 22 19 23 20 24 21 25 22 26 23 27
REMARK SMILES IDX 24 28 25 29 26 30 27 31 28 32 29 34 30 35 31 36 32 37 37 38
REMARK SMILES IDX 33 39 36 40 34 41 35 42 38 44 39 45 40 46 41 48 42 49 43 50
REMARK SMILES IDX 44 51 49 52 45 53 48 54 46 55 47 56 50 58 51 59 52 60
REMARK H PARENT 14 8 11 11 9 14 9 15 28 33 35 43 40 47 47 57 52 61
ROOT
ATOM      1  O   UNL     1       9.436  -1.716   7.007  1.00  0.00    -0.272 OA
ATOM      2  C   UNL     1       9.016  -2.459   6.108  1.00  0.00     0.245 C 
ENDROOT
BRANCH   2   3
ATOM      3  C   UNL     1       8.326  -3.787   6.506  1.00  0.00     0.168 C 
ATOM      4  C   UNL     1       6.812  -3.616   6.563  1.00  0.00     0.041 C 
BRANCH   3   5
ATOM      5  N   UNL     1       8.711  -4.939   5.705  1.00  0.00    -0.342 N 
ATOM      6  C   UNL     1       9.773  -5.747   6.055  1.00  0.00     0.251 C 
ATOM      7  O   UNL     1      10.490  -5.538   7.028  1.00  0.00    -0.272 OA
ATOM      8  H   UNL     1       8.212  -5.193   4.856  1.00  0.00     0.164 HD
BRANCH   6   9
ATOM      9  C   UNL     1       9.906  -6.980   5.147  1.00  0.00     0.219 C 
BRANCH   9  10
ATOM     10  O   UNL     1       8.740  -7.204   4.344  1.00  0.00    -0.382 OA
ATOM     11  H   UNL     1       8.977  -7.992   3.808  1.00  0.00     0.211 HD
ENDBRANCH   9  10
BRANCH   9  12
ATOM     12  C   UNL     1      11.183  -6.954   4.268  1.00  0.00     0.089 C 
BRANCH  12  13
ATOM     13  N   UNL     1      11.793  -5.609   4.369  1.00  0.00    -0.325 NA
ATOM     14  H   UNL     1      11.056  -4.902   4.327  1.00  0.00     0.119 HD
ATOM     15  H   UNL     1      12.368  -5.443   3.540  1.00  0.00     0.119 HD
ENDBRANCH  12  13
BRANCH  12  16
ATOM     16  C   UNL     1      12.241  -8.041   4.577  1.00  0.00     0.022 C 
BRANCH  16  17
ATOM     17  C   UNL     1      12.537  -9.116   3.522  1.00  0.00     0.002 C 
BRANCH  17  18
ATOM     18  C   UNL     1      14.006  -9.240   3.123  1.00  0.00     0.000 C 
BRANCH  18  19
ATOM     19  C   UNL     1      14.294  -8.835   1.671  1.00  0.00    -0.000 C 
BRANCH  19  20
ATOM     20  C   UNL     1      13.224  -7.958   1.015  1.00  0.00    -0.000 C 
BRANCH  20  21
ATOM     21  C   UNL     1      13.048  -8.242  -0.479  1.00  0.00    -0.003 C 
ATOM     22  C   UNL     1      13.893  -9.426  -0.921  1.00  0.00     0.004 C 
ENDBRANCH  20  21
ENDBRANCH  19  20
ENDBRANCH  18  19
ENDBRANCH  17  18
ENDBRANCH  16  17
ENDBRANCH  12  16
ENDBRANCH   9  12
ENDBRANCH   6   9
ENDBRANCH   3   5
ENDBRANCH   2   3
BRANCH   2  23
ATOM     23  N   UNL     1       9.059  -2.039   4.782  1.00  0.00    -0.332 N 
ATOM     24  C   UNL     1       8.147  -1.069   4.193  1.00  0.00     0.147 C 
BRANCH  23  25
ATOM     25  C   UNL     1      10.164  -2.483   3.889  1.00  0.00     0.174 C 
BRANCH  25  26
ATOM     26  C   UNL     1      11.046  -1.313   3.394  1.00  0.00     0.038 C 
BRANCH  26  27
ATOM     27  C   UNL     1      12.504  -1.272   3.902  1.00  0.00    -0.015 C 
ATOM     28  C   UNL     1      13.141   0.108   3.741  1.00  0.00     0.007 C 
ATOM     29  C   UNL     1      12.662  -1.773   5.336  1.00  0.00     0.007 C 
ENDBRANCH  26  27
ENDBRANCH  25  26
BRANCH  25  30
ATOM     30  C   UNL     1       9.605  -3.365   2.749  1.00  0.00     0.243 C 
ATOM     31  O   UNL     1       9.043  -4.437   2.972  1.00  0.00    -0.273 OA
ATOM     32  N   UNL     1       9.782  -2.877   1.480  1.00  0.00    -0.342 N 
ATOM     33  H   UNL     1      10.128  -1.919   1.385  1.00  0.00     0.164 HD
BRANCH  32  34
ATOM     34  C   UNL     1       9.341  -3.590   0.278  1.00  0.00     0.175 C 
BRANCH  34  35
ATOM     35  C   UNL     1       8.570  -2.661  -0.672  1.00  0.00     0.070 C 
BRANCH  35  36
ATOM     36  C   UNL     1       7.238  -3.236  -1.099  1.00  0.00    -0.045 A 
ATOM     37  C   UNL     1       6.852  -4.512  -0.662  1.00  0.00     0.007 A 
ATOM     38  C   UNL     1       6.385  -2.520  -1.949  1.00  0.00     0.007 A 
ATOM     39  C   UNL     1       5.631  -5.057  -1.061  1.00  0.00     0.046 A 
ATOM     40  C   UNL     1       5.163  -3.065  -2.351  1.00  0.00     0.046 A 
ATOM     41  C   UNL     1       4.797  -4.329  -1.901  1.00  0.00     0.115 A 
BRANCH  41  42
ATOM     42  O   UNL     1       3.614  -4.899  -2.271  1.00  0.00    -0.508 OA
ATOM     43  H   UNL     1       3.183  -4.313  -2.915  1.00  0.00     0.293 HD
ENDBRANCH  41  42
ENDBRANCH  35  36
ENDBRANCH  34  35
BRANCH  34  44
ATOM     44  C   UNL     1      10.588  -4.203  -0.399  1.00  0.00     0.243 C 
ATOM     45  O   UNL     1      11.492  -4.777   0.201  1.00  0.00    -0.273 OA
ATOM     46  N   UNL     1      10.667  -3.933  -1.749  1.00  0.00    -0.341 N 
ATOM     47  H   UNL     1       9.951  -3.353  -2.180  1.00  0.00     0.164 HD
BRANCH  46  48
ATOM     48  C   UNL     1      11.791  -4.351  -2.590  1.00  0.00     0.196 C 
BRANCH  48  49
ATOM     49  C   UNL     1      11.343  -4.603  -4.039  1.00  0.00     0.072 C 
BRANCH  49  50
ATOM     50  C   UNL     1       9.879  -4.968  -4.141  1.00  0.00    -0.045 A 
ATOM     51  C   UNL     1       9.437  -6.218  -3.684  1.00  0.00     0.007 A 
ATOM     52  C   UNL     1       8.953  -4.082  -4.706  1.00  0.00     0.007 A 
ATOM     53  C   UNL     1       8.092  -6.571  -3.785  1.00  0.00     0.046 A 
ATOM     54  C   UNL     1       7.606  -4.436  -4.807  1.00  0.00     0.046 A 
ATOM     55  C   UNL     1       7.186  -5.678  -4.345  1.00  0.00     0.115 A 
BRANCH  55  56
ATOM     56  O   UNL     1       5.880  -6.063  -4.426  1.00  0.00    -0.508 OA
ATOM     57  H   UNL     1       5.755  -6.842  -3.862  1.00  0.00     0.293 HD
ENDBRANCH  55  56
ENDBRANCH  49  50
ENDBRANCH  48  49
BRANCH  48  58
ATOM     58  C   UNL     1      12.866  -3.256  -2.566  1.00  0.00     0.326 C 
ATOM     59  O   UNL     1      12.974  -2.310  -3.329  1.00  0.00    -0.250 OA
BRANCH  58  60
ATOM     60  O   UNL     1      13.762  -3.398  -1.557  1.00  0.00    -0.480 OA
ATOM     61  H   UNL     1      14.574  -3.701  -2.017  1.00  0.00     0.296 HD
ENDBRANCH  58  60
ENDBRANCH  48  58
ENDBRANCH  46  48
ENDBRANCH  34  44
ENDBRANCH  32  34
ENDBRANCH  25  30
ENDBRANCH  23  25
ENDBRANCH   2  23
TORSDOF 28
ENDMDL
MODEL 29
REMARK VINA RESULT:    -5.692      1.823      2.591
REMARK INTER + INTRA:         -19.643
REMARK INTER:                 -15.307
REMARK INTRA:                  -4.336
REMARK UNBOUND:                -5.466
REMARK SMILES CCCCCCC[C@H](N)[C@H](O)C(=O)N[C@H](C)C(=O)N(C)[C@H](CC(C)C)C(=O)N[C@@H](Cc1ccc(O)cc1)C(=O)N[C@@H](Cc1ccc(O)cc1)C(=O)O
REMARK SMILES IDX 18 1 17 2 15 3 16 4 14 5 12 6 13 7 10 9 11 10 8 12 9 13 7 16
REMARK SMILES IDX 6 17 5 18 4 19 3 20 2 21 1 22 19 23 20 24 21 25 22 26 23 27
REMARK SMILES IDX 24 28 25 29 26 30 27 31 28 32 29 34 30 35 31 36 32 37 37 38
REMARK SMILES IDX 33 39 36 40 34 41 35 42 38 44 39 45 40 46 41 48 42 49 43 50
REMARK SMILES IDX 44 51 49 52 45 53 48 54 46 55 47 56 50 58 51 59 52 60
REMARK H PARENT 14 8 11 11 9 14 9 15 28 33 35 43 40 47 47 57 52 61
ROOT
ATOM      1  O   UNL     1       7.514  -1.833   3.514  1.00  0.00    -0.272 OA
ATOM      2  C   UNL     1       7.712  -1.962   4.732  1.00  0.00     0.245 C 
ENDROOT
BRANCH   2   3
ATOM      3  C   UNL     1       7.413  -0.760   5.662  1.00  0.00     0.168 C 
ATOM      4  C   UNL     1       8.707  -0.121   6.154  1.00  0.00     0.041 C 
BRANCH   3   5
ATOM      5  N   UNL     1       6.497   0.226   5.112  1.00  0.00    -0.342 N 
ATOM      6  C   UNL     1       5.130   0.103   5.245  1.00  0.00     0.251 C 
ATOM      7  O   UNL     1       4.586  -0.851   5.791  1.00  0.00    -0.272 OA
ATOM      8  H   UNL     1       6.829   1.044   4.607  1.00  0.00     0.164 HD
BRANCH   6   9
ATOM      9  C   UNL     1       4.369   1.328   4.713  1.00  0.00     0.219 C 
BRANCH   9  10
ATOM     10  O   UNL     1       3.484   1.004   3.634  1.00  0.00    -0.382 OA
ATOM     11  H   UNL     1       3.675   1.695   2.963  1.00  0.00     0.211 HD
ENDBRANCH   9  10
BRANCH   9  12
ATOM     12  C   UNL     1       3.618   2.108   5.824  1.00  0.00     0.089 C 
BRANCH  12  13
ATOM     13  N   UNL     1       4.541   2.297   6.967  1.00  0.00    -0.325 NA
ATOM     14  H   UNL     1       4.661   3.296   7.141  1.00  0.00     0.119 HD
ATOM     15  H   UNL     1       5.469   1.958   6.703  1.00  0.00     0.119 HD
ENDBRANCH  12  13
BRANCH  12  16
ATOM     16  C   UNL     1       3.007   3.467   5.405  1.00  0.00     0.022 C 
BRANCH  16  17
ATOM     17  C   UNL     1       3.811   4.752   5.642  1.00  0.00     0.002 C 
BRANCH  17  18
ATOM     18  C   UNL     1       4.844   5.075   4.564  1.00  0.00     0.000 C 
BRANCH  18  19
ATOM     19  C   UNL     1       4.430   4.639   3.152  1.00  0.00    -0.000 C 
BRANCH  19  20
ATOM     20  C   UNL     1       3.509   5.615   2.414  1.00  0.00    -0.000 C 
BRANCH  20  21
ATOM     21  C   UNL     1       2.534   4.917   1.463  1.00  0.00    -0.003 C 
ATOM     22  C   UNL     1       2.208   5.791   0.262  1.00  0.00     0.004 C 
ENDBRANCH  20  21
ENDBRANCH  19  20
ENDBRANCH  18  19
ENDBRANCH  17  18
ENDBRANCH  16  17
ENDBRANCH  12  16
ENDBRANCH   9  12
ENDBRANCH   6   9
ENDBRANCH   3   5
ENDBRANCH   2   3
BRANCH   2  23
ATOM     23  N   UNL     1       8.077  -3.200   5.250  1.00  0.00    -0.332 N 
ATOM     24  C   UNL     1       7.293  -3.954   6.217  1.00  0.00     0.147 C 
BRANCH  23  25
ATOM     25  C   UNL     1       9.277  -3.909   4.727  1.00  0.00     0.174 C 
BRANCH  25  26
ATOM     26  C   UNL     1      10.520  -2.994   4.623  1.00  0.00     0.038 C 
BRANCH  26  27
ATOM     27  C   UNL     1      11.892  -3.640   4.918  1.00  0.00    -0.015 C 
ATOM     28  C   UNL     1      12.798  -3.673   3.688  1.00  0.00     0.007 C 
ATOM     29  C   UNL     1      12.618  -3.010   6.104  1.00  0.00     0.007 C 
ENDBRANCH  26  27
ENDBRANCH  25  26
BRANCH  25  30
ATOM     30  C   UNL     1       8.931  -4.640   3.409  1.00  0.00     0.243 C 
ATOM     31  O   UNL     1       8.258  -5.669   3.394  1.00  0.00    -0.273 OA
ATOM     32  N   UNL     1       9.429  -4.069   2.266  1.00  0.00    -0.342 N 
ATOM     33  H   UNL     1       9.856  -3.143   2.347  1.00  0.00     0.164 HD
BRANCH  32  34
ATOM     34  C   UNL     1       9.225  -4.638   0.931  1.00  0.00     0.175 C 
BRANCH  34  35
ATOM     35  C   UNL     1       8.954  -3.540  -0.109  1.00  0.00     0.070 C 
BRANCH  35  36
ATOM     36  C   UNL     1       7.750  -3.837  -0.973  1.00  0.00    -0.045 A 
ATOM     37  C   UNL     1       7.233  -5.140  -1.033  1.00  0.00     0.007 A 
ATOM     38  C   UNL     1       7.149  -2.830  -1.740  1.00  0.00     0.007 A 
ATOM     39  C   UNL     1       6.131  -5.427  -1.838  1.00  0.00     0.046 A 
ATOM     40  C   UNL     1       6.046  -3.117  -2.548  1.00  0.00     0.046 A 
ATOM     41  C   UNL     1       5.546  -4.414  -2.588  1.00  0.00     0.115 A 
BRANCH  41  42
ATOM     42  O   UNL     1       4.472  -4.737  -3.365  1.00  0.00    -0.508 OA
ATOM     43  H   UNL     1       4.744  -5.432  -3.986  1.00  0.00     0.293 HD
ENDBRANCH  41  42
ENDBRANCH  35  36
ENDBRANCH  34  35
BRANCH  34  44
ATOM     44  C   UNL     1      10.472  -5.478   0.573  1.00  0.00     0.243 C 
ATOM     45  O   UNL     1      11.097  -6.167   1.374  1.00  0.00    -0.273 OA
ATOM     46  N   UNL     1      10.910  -5.285  -0.720  1.00  0.00    -0.341 N 
ATOM     47  H   UNL     1      10.426  -4.613  -1.311  1.00  0.00     0.164 HD
BRANCH  46  48
ATOM     48  C   UNL     1      12.111  -5.920  -1.266  1.00  0.00     0.196 C 
BRANCH  48  49
ATOM     49  C   UNL     1      11.845  -6.518  -2.658  1.00  0.00     0.072 C 
BRANCH  49  50
ATOM     50  C   UNL     1      10.773  -5.768  -3.417  1.00  0.00    -0.045 A 
ATOM     51  C   UNL     1      10.976  -4.426  -3.771  1.00  0.00     0.007 A 
ATOM     52  C   UNL     1       9.565  -6.388  -3.759  1.00  0.00     0.007 A 
ATOM     53  C   UNL     1       9.989  -3.721  -4.460  1.00  0.00     0.046 A 
ATOM     54  C   UNL     1       8.576  -5.682  -4.448  1.00  0.00     0.046 A 
ATOM     55  C   UNL     1       8.798  -4.353  -4.793  1.00  0.00     0.115 A 
BRANCH  55  56
ATOM     56  O   UNL     1       7.858  -3.628  -5.465  1.00  0.00    -0.508 OA
ATOM     57  H   UNL     1       8.211  -2.737  -5.618  1.00  0.00     0.293 HD
ENDBRANCH  55  56
ENDBRANCH  49  50
ENDBRANCH  48  49
BRANCH  48  58
ATOM     58  C   UNL     1      13.231  -4.874  -1.361  1.00  0.00     0.326 C 
ATOM     59  O   UNL     1      13.356  -3.863  -0.689  1.00  0.00    -0.250 OA
BRANCH  58  60
ATOM     60  O   UNL     1      14.163  -5.163  -2.304  1.00  0.00    -0.480 OA
ATOM     61  H   UNL     1      15.007  -5.138  -1.802  1.00  0.00     0.296 HD
ENDBRANCH  58  60
ENDBRANCH  48  58
ENDBRANCH  46  48
ENDBRANCH  34  44
ENDBRANCH  32  34
ENDBRANCH  25  30
ENDBRANCH  23  25
ENDBRANCH   2  23
TORSDOF 28
ENDMDL
MODEL 30
REMARK VINA RESULT:    -5.670      2.321      9.102
REMARK INTER + INTRA:         -19.589
REMARK INTER:                 -14.591
REMARK INTRA:                  -4.998
REMARK UNBOUND:                -5.466
REMARK SMILES CCCCCCC[C@H](N)[C@H](O)C(=O)N[C@H](C)C(=O)N(C)[C@H](CC(C)C)C(=O)N[C@@H](Cc1ccc(O)cc1)C(=O)N[C@@H](Cc1ccc(O)cc1)C(=O)O
REMARK SMILES IDX 18 1 17 2 15 3 16 4 14 5 12 6 13 7 10 9 11 10 8 12 9 13 7 16
REMARK SMILES IDX 6 17 5 18 4 19 3 20 2 21 1 22 19 23 20 24 21 25 22 26 23 27
REMARK SMILES IDX 24 28 25 29 26 30 27 31 28 32 29 34 30 35 31 36 32 37 37 38
REMARK SMILES IDX 33 39 36 40 34 41 35 42 38 44 39 45 40 46 41 48 42 49 43 50
REMARK SMILES IDX 44 51 49 52 45 53 48 54 46 55 47 56 50 58 51 59 52 60
REMARK H PARENT 14 8 11 11 9 14 9 15 28 33 35 43 40 47 47 57 52 61
ROOT
ATOM      1  O   UNL     1       8.313  -4.170   3.004  1.00  0.00    -0.272 OA
ATOM      2  C   UNL     1       8.344  -3.914   1.791  1.00  0.00     0.245 C 
ENDROOT
BRANCH   2   3
ATOM      3  C   UNL     1       8.734  -5.043   0.806  1.00  0.00     0.168 C 
ATOM      4  C   UNL     1       7.554  -5.418  -0.083  1.00  0.00     0.041 C 
BRANCH   3   5
ATOM      5  N   UNL     1       9.938  -4.787   0.029  1.00  0.00    -0.342 N 
ATOM      6  C   UNL     1      11.195  -5.060   0.525  1.00  0.00     0.251 C 
ATOM      7  O   UNL     1      11.398  -5.491   1.655  1.00  0.00    -0.272 OA
ATOM      8  H   UNL     1       9.897  -4.397  -0.909  1.00  0.00     0.164 HD
BRANCH   6   9
ATOM      9  C   UNL     1      12.304  -4.846  -0.518  1.00  0.00     0.219 C 
BRANCH   9  10
ATOM     10  O   UNL     1      13.478  -4.242   0.039  1.00  0.00    -0.382 OA
ATOM     11  H   UNL     1      13.951  -4.997   0.453  1.00  0.00     0.211 HD
ENDBRANCH   9  10
BRANCH   9  12
ATOM     12  C   UNL     1      12.666  -6.138  -1.296  1.00  0.00     0.089 C 
BRANCH  12  13
ATOM     13  N   UNL     1      12.151  -7.300  -0.537  1.00  0.00    -0.325 NA
ATOM     14  H   UNL     1      12.639  -8.144  -0.843  1.00  0.00     0.119 HD
ATOM     15  H   UNL     1      11.171  -7.453  -0.790  1.00  0.00     0.119 HD
ENDBRANCH  12  13
BRANCH  12  16
ATOM     16  C   UNL     1      12.179  -6.204  -2.764  1.00  0.00     0.022 C 
BRANCH  16  17
ATOM     17  C   UNL     1      10.683  -6.039  -3.063  1.00  0.00     0.002 C 
BRANCH  17  18
ATOM     18  C   UNL     1      10.297  -4.712  -3.713  1.00  0.00     0.000 C 
BRANCH  18  19
ATOM     19  C   UNL     1       8.895  -4.216  -3.336  1.00  0.00    -0.000 C 
BRANCH  19  20
ATOM     20  C   UNL     1       7.789  -4.577  -4.332  1.00  0.00    -0.000 C 
BRANCH  20  21
ATOM     21  C   UNL     1       6.725  -5.504  -3.738  1.00  0.00    -0.003 C 
ATOM     22  C   UNL     1       6.992  -6.957  -4.096  1.00  0.00     0.004 C 
ENDBRANCH  20  21
ENDBRANCH  19  20
ENDBRANCH  18  19
ENDBRANCH  17  18
ENDBRANCH  16  17
ENDBRANCH  12  16
ENDBRANCH   9  12
ENDBRANCH   6   9
ENDBRANCH   3   5
ENDBRANCH   2   3
BRANCH   2  23
ATOM     23  N   UNL     1       7.915  -2.673   1.331  1.00  0.00    -0.332 N 
ATOM     24  C   UNL     1       8.791  -1.649   0.782  1.00  0.00     0.147 C 
BRANCH  23  25
ATOM     25  C   UNL     1       6.461  -2.361   1.256  1.00  0.00     0.174 C 
BRANCH  25  26
ATOM     26  C   UNL     1       6.030  -1.830  -0.131  1.00  0.00     0.038 C 
BRANCH  26  27
ATOM     27  C   UNL     1       4.826  -2.526  -0.804  1.00  0.00    -0.015 C 
ATOM     28  C   UNL     1       3.486  -1.990  -0.302  1.00  0.00     0.007 C 
ATOM     29  C   UNL     1       4.881  -2.494  -2.329  1.00  0.00     0.007 C 
ENDBRANCH  26  27
ENDBRANCH  25  26
BRANCH  25  30
ATOM     30  C   UNL     1       6.054  -1.440   2.428  1.00  0.00     0.243 C 
ATOM     31  O   UNL     1       5.718  -0.270   2.249  1.00  0.00    -0.273 OA
ATOM     32  N   UNL     1       6.097  -2.010   3.674  1.00  0.00    -0.342 N 
ATOM     33  H   UNL     1       6.247  -3.021   3.728  1.00  0.00     0.164 HD
BRANCH  32  34
ATOM     34  C   UNL     1       5.771  -1.280   4.902  1.00  0.00     0.175 C 
BRANCH  34  35
ATOM     35  C   UNL     1       4.330  -1.562   5.354  1.00  0.00     0.070 C 
BRANCH  35  36
ATOM     36  C   UNL     1       3.311  -0.728   4.610  1.00  0.00    -0.045 A 
ATOM     37  C   UNL     1       2.463  -1.331   3.669  1.00  0.00     0.007 A 
ATOM     38  C   UNL     1       3.213   0.652   4.830  1.00  0.00     0.007 A 
ATOM     39  C   UNL     1       1.529  -0.568   2.968  1.00  0.00     0.046 A 
ATOM     40  C   UNL     1       2.279   1.417   4.128  1.00  0.00     0.046 A 
ATOM     41  C   UNL     1       1.444   0.799   3.203  1.00  0.00     0.115 A 
BRANCH  41  42
ATOM     42  O   UNL     1       0.520   1.509   2.495  1.00  0.00    -0.508 OA
ATOM     43  H   UNL     1       0.771   1.486   1.557  1.00  0.00     0.293 HD
ENDBRANCH  41  42
ENDBRANCH  35  36
ENDBRANCH  34  35
BRANCH  34  44
ATOM     44  C   UNL     1       6.802  -1.676   5.983  1.00  0.00     0.243 C 
ATOM     45  O   UNL     1       6.613  -1.578   7.192  1.00  0.00    -0.273 OA
ATOM     46  N   UNL     1       8.029  -2.036   5.466  1.00  0.00    -0.341 N 
ATOM     47  H   UNL     1       8.174  -1.989   4.460  1.00  0.00     0.164 HD
BRANCH  46  48
ATOM     48  C   UNL     1       9.183  -2.386   6.297  1.00  0.00     0.196 C 
BRANCH  48  49
ATOM     49  C   UNL     1      10.091  -3.408   5.593  1.00  0.00     0.072 C 
BRANCH  49  50
ATOM     50  C   UNL     1       9.993  -4.789   6.201  1.00  0.00    -0.045 A 
ATOM     51  C   UNL     1       8.741  -5.306   6.564  1.00  0.00     0.007 A 
ATOM     52  C   UNL     1      11.141  -5.558   6.430  1.00  0.00     0.007 A 
ATOM     53  C   UNL     1       8.640  -6.573   7.138  1.00  0.00     0.046 A 
ATOM     54  C   UNL     1      11.040  -6.827   7.006  1.00  0.00     0.046 A 
ATOM     55  C   UNL     1       9.789  -7.324   7.354  1.00  0.00     0.115 A 
BRANCH  55  56
ATOM     56  O   UNL     1       9.647  -8.557   7.919  1.00  0.00    -0.508 OA
ATOM     57  H   UNL     1       9.383  -9.183   7.226  1.00  0.00     0.293 HD
ENDBRANCH  55  56
ENDBRANCH  49  50
ENDBRANCH  48  49
BRANCH  48  58
ATOM     58  C   UNL     1       9.982  -1.112   6.603  1.00  0.00     0.326 C 
ATOM     59  O   UNL     1      10.249  -0.203   5.832  1.00  0.00    -0.250 OA
BRANCH  58  60
ATOM     60  O   UNL     1      10.404  -1.033   7.890  1.00  0.00    -0.480 OA
ATOM     61  H   UNL     1       9.895  -1.743   8.338  1.00  0.00     0.296 HD
ENDBRANCH  58  60
ENDBRANCH  48  58
ENDBRANCH  46  48
ENDBRANCH  34  44
ENDBRANCH  32  34
ENDBRANCH  25  30
ENDBRANCH  23  25
ENDBRANCH   2  23
TORSDOF 28
ENDMDL
MODEL 31
REMARK VINA RESULT:    -5.658      3.087      8.052
REMARK INTER + INTRA:         -19.558
REMARK INTER:                 -13.559
REMARK INTRA:                  -5.999
REMARK UNBOUND:                -5.466
REMARK SMILES CCCCCCC[C@H](N)[C@H](O)C(=O)N[C@H](C)C(=O)N(C)[C@H](CC(C)C)C(=O)N[C@@H](Cc1ccc(O)cc1)C(=O)N[C@@H](Cc1ccc(O)cc1)C(=O)O
REMARK SMILES IDX 18 1 17 2 15 3 16 4 14 5 12 6 13 7 10 9 11 10 8 12 9 13 7 16
REMARK SMILES IDX 6 17 5 18 4 19 3 20 2 21 1 22 19 23 20 24 21 25 22 26 23 27
REMARK SMILES IDX 24 28 25 29 26 30 27 31 28 32 29 34 30 35 31 36 32 37 37 38
REMARK SMILES IDX 33 39 36 40 34 41 35 42 38 44 39 45 40 46 41 48 42 49 43 50
REMARK SMILES IDX 44 51 49 52 45 53 48 54 46 55 47 56 50 58 51 59 52 60
REMARK H PARENT 14 8 11 11 9 14 9 15 28 33 35 43 40 47 47 57 52 61
ROOT
ATOM      1  O   UNL     1      13.316  -7.473   1.686  1.00  0.00    -0.272 OA
ATOM      2  C   UNL     1      12.660  -6.421   1.719  1.00  0.00     0.245 C 
ENDROOT
BRANCH   2   3
ATOM      3  C   UNL     1      11.873  -6.079   3.009  1.00  0.00     0.168 C 
ATOM      4  C   UNL     1      11.450  -7.350   3.738  1.00  0.00     0.041 C 
BRANCH   3   5
ATOM      5  N   UNL     1      12.535  -5.138   3.898  1.00  0.00    -0.342 N 
ATOM      6  C   UNL     1      12.170  -3.810   3.955  1.00  0.00     0.251 C 
ATOM      7  O   UNL     1      11.303  -3.315   3.243  1.00  0.00    -0.272 OA
ATOM      8  H   UNL     1      13.294  -5.424   4.512  1.00  0.00     0.164 HD
BRANCH   6   9
ATOM      9  C   UNL     1      12.905  -3.038   5.063  1.00  0.00     0.219 C 
BRANCH   9  10
ATOM     10  O   UNL     1      13.345  -3.888   6.129  1.00  0.00    -0.382 OA
ATOM     11  H   UNL     1      14.102  -4.377   5.738  1.00  0.00     0.211 HD
ENDBRANCH   9  10
BRANCH   9  12
ATOM     12  C   UNL     1      14.077  -2.174   4.529  1.00  0.00     0.089 C 
BRANCH  12  13
ATOM     13  N   UNL     1      14.553  -2.766   3.258  1.00  0.00    -0.325 NA
ATOM     14  H   UNL     1      15.467  -3.197   3.409  1.00  0.00     0.119 HD
ATOM     15  H   UNL     1      14.721  -2.014   2.585  1.00  0.00     0.119 HD
ENDBRANCH  12  13
BRANCH  12  16
ATOM     16  C   UNL     1      13.775  -0.668   4.333  1.00  0.00     0.022 C 
BRANCH  16  17
ATOM     17  C   UNL     1      12.592  -0.041   5.083  1.00  0.00     0.002 C 
BRANCH  17  18
ATOM     18  C   UNL     1      11.998   1.203   4.424  1.00  0.00     0.000 C 
BRANCH  18  19
ATOM     19  C   UNL     1      11.396   0.947   3.036  1.00  0.00    -0.000 C 
BRANCH  19  20
ATOM     20  C   UNL     1      10.006   0.305   3.039  1.00  0.00    -0.000 C 
BRANCH  20  21
ATOM     21  C   UNL     1       9.631  -0.320   1.692  1.00  0.00    -0.003 C 
ATOM     22  C   UNL     1       8.292  -1.036   1.766  1.00  0.00     0.004 C 
ENDBRANCH  20  21
ENDBRANCH  19  20
ENDBRANCH  18  19
ENDBRANCH  17  18
ENDBRANCH  16  17
ENDBRANCH  12  16
ENDBRANCH   9  12
ENDBRANCH   6   9
ENDBRANCH   3   5
ENDBRANCH   2   3
BRANCH   2  23
ATOM     23  N   UNL     1      12.739  -5.518   0.664  1.00  0.00    -0.332 N 
ATOM     24  C   UNL     1      13.900  -4.691   0.370  1.00  0.00     0.147 C 
BRANCH  23  25
ATOM     25  C   UNL     1      11.642  -5.438  -0.339  1.00  0.00     0.174 C 
BRANCH  25  26
ATOM     26  C   UNL     1      12.132  -4.974  -1.731  1.00  0.00     0.038 C 
BRANCH  26  27
ATOM     27  C   UNL     1      11.902  -5.943  -2.913  1.00  0.00    -0.015 C 
ATOM     28  C   UNL     1      12.533  -7.314  -2.675  1.00  0.00     0.007 C 
ATOM     29  C   UNL     1      10.434  -6.087  -3.303  1.00  0.00     0.007 C 
ENDBRANCH  26  27
ENDBRANCH  25  26
BRANCH  25  30
ATOM     30  C   UNL     1      10.471  -4.598   0.220  1.00  0.00     0.243 C 
ATOM     31  O   UNL     1      10.441  -3.373   0.115  1.00  0.00    -0.273 OA
ATOM     32  N   UNL     1       9.476  -5.308   0.842  1.00  0.00    -0.342 N 
ATOM     33  H   UNL     1       9.502  -6.328   0.764  1.00  0.00     0.164 HD
BRANCH  32  34
ATOM     34  C   UNL     1       8.304  -4.677   1.454  1.00  0.00     0.175 C 
BRANCH  34  35
ATOM     35  C   UNL     1       7.018  -5.027   0.690  1.00  0.00     0.070 C 
BRANCH  35  36
ATOM     36  C   UNL     1       7.054  -4.576  -0.753  1.00  0.00    -0.045 A 
ATOM     37  C   UNL     1       7.181  -3.212  -1.059  1.00  0.00     0.007 A 
ATOM     38  C   UNL     1       6.939  -5.501  -1.799  1.00  0.00     0.007 A 
ATOM     39  C   UNL     1       7.201  -2.785  -2.387  1.00  0.00     0.046 A 
ATOM     40  C   UNL     1       6.958  -5.074  -3.129  1.00  0.00     0.046 A 
ATOM     41  C   UNL     1       7.091  -3.718  -3.411  1.00  0.00     0.115 A 
BRANCH  41  42
ATOM     42  O   UNL     1       7.112  -3.259  -4.694  1.00  0.00    -0.508 OA
ATOM     43  H   UNL     1       6.525  -2.487  -4.751  1.00  0.00     0.293 HD
ENDBRANCH  41  42
ENDBRANCH  35  36
ENDBRANCH  34  35
BRANCH  34  44
ATOM     44  C   UNL     1       8.236  -5.123   2.932  1.00  0.00     0.243 C 
ATOM     45  O   UNL     1       8.110  -6.288   3.300  1.00  0.00    -0.273 OA
ATOM     46  N   UNL     1       8.201  -4.071   3.822  1.00  0.00    -0.341 N 
ATOM     47  H   UNL     1       8.190  -3.120   3.463  1.00  0.00     0.164 HD
BRANCH  46  48
ATOM     48  C   UNL     1       8.069  -4.245   5.271  1.00  0.00     0.196 C 
BRANCH  48  49
ATOM     49  C   UNL     1       9.445  -4.297   5.956  1.00  0.00     0.072 C 
BRANCH  49  50
ATOM     50  C   UNL     1       9.718  -5.632   6.611  1.00  0.00    -0.045 A 
ATOM     51  C   UNL     1      11.023  -5.963   7.005  1.00  0.00     0.007 A 
ATOM     52  C   UNL     1       8.688  -6.559   6.814  1.00  0.00     0.007 A 
ATOM     53  C   UNL     1      11.289  -7.197   7.598  1.00  0.00     0.046 A 
ATOM     54  C   UNL     1       8.955  -7.796   7.408  1.00  0.00     0.046 A 
ATOM     55  C   UNL     1      10.255  -8.103   7.796  1.00  0.00     0.115 A 
BRANCH  55  56
ATOM     56  O   UNL     1      10.557  -9.299   8.377  1.00  0.00    -0.508 OA
ATOM     57  H   UNL     1      11.472  -9.260   8.698  1.00  0.00     0.293 HD
ENDBRANCH  55  56
ENDBRANCH  49  50
ENDBRANCH  48  49
BRANCH  48  58
ATOM     58  C   UNL     1       7.254  -3.077   5.842  1.00  0.00     0.326 C 
ATOM     59  O   UNL     1       6.206  -2.624   5.408  1.00  0.00    -0.250 OA
BRANCH  58  60
ATOM     60  O   UNL     1       7.797  -2.533   6.960  1.00  0.00    -0.480 OA
ATOM     61  H   UNL     1       8.326  -3.270   7.335  1.00  0.00     0.296 HD
ENDBRANCH  58  60
ENDBRANCH  48  58
ENDBRANCH  46  48
ENDBRANCH  34  44
ENDBRANCH  32  34
ENDBRANCH  25  30
ENDBRANCH  23  25
ENDBRANCH   2  23
TORSDOF 28
ENDMDL
MODEL 32
REMARK VINA RESULT:    -5.618      2.770      6.165
REMARK INTER + INTRA:         -19.460
REMARK INTER:                 -14.055
REMARK INTRA:                  -5.405
REMARK UNBOUND:                -5.466
REMARK SMILES CCCCCCC[C@H](N)[C@H](O)C(=O)N[C@H](C)C(=O)N(C)[C@H](CC(C)C)C(=O)N[C@@H](Cc1ccc(O)cc1)C(=O)N[C@@H](Cc1ccc(O)cc1)C(=O)O
REMARK SMILES IDX 18 1 17 2 15 3 16 4 14 5 12 6 13 7 10 9 11 10 8 12 9 13 7 16
REMARK SMILES IDX 6 17 5 18 4 19 3 20 2 21 1 22 19 23 20 24 21 25 22 26 23 27
REMARK SMILES IDX 24 28 25 29 26 30 27 31 28 32 29 34 30 35 31 36 32 37 37 38
REMARK SMILES IDX 33 39 36 40 34 41 35 42 38 44 39 45 40 46 41 48 42 49 43 50
REMARK SMILES IDX 44 51 49 52 45 53 48 54 46 55 47 56 50 58 51 59 52 60
REMARK H PARENT 14 8 11 11 9 14 9 15 28 33 35 43 40 47 47 57 52 61
ROOT
ATOM      1  O   UNL     1      12.778  -5.893   4.860  1.00  0.00    -0.272 OA
ATOM      2  C   UNL     1      12.035  -5.095   4.269  1.00  0.00     0.245 C 
ENDROOT
BRANCH   2   3
ATOM      3  C   UNL     1      11.078  -4.213   5.109  1.00  0.00     0.168 C 
ATOM      4  C   UNL     1      10.285  -5.062   6.097  1.00  0.00     0.041 C 
BRANCH   3   5
ATOM      5  N   UNL     1      11.709  -3.074   5.758  1.00  0.00    -0.342 N 
ATOM      6  C   UNL     1      11.020  -1.906   6.009  1.00  0.00     0.251 C 
ATOM      7  O   UNL     1       9.854  -1.723   5.675  1.00  0.00    -0.272 OA
ATOM      8  H   UNL     1      12.683  -3.095   6.050  1.00  0.00     0.164 HD
BRANCH   6   9
ATOM      9  C   UNL     1      11.841  -0.896   6.828  1.00  0.00     0.219 C 
BRANCH   9  10
ATOM     10  O   UNL     1      13.150  -1.381   7.151  1.00  0.00    -0.382 OA
ATOM     11  H   UNL     1      13.660  -0.563   7.338  1.00  0.00     0.211 HD
ENDBRANCH   9  10
BRANCH   9  12
ATOM     12  C   UNL     1      11.921   0.503   6.164  1.00  0.00     0.089 C 
BRANCH  12  13
ATOM     13  N   UNL     1      12.555   1.438   7.121  1.00  0.00    -0.325 NA
ATOM     14  H   UNL     1      13.099   0.905   7.802  1.00  0.00     0.119 HD
ATOM     15  H   UNL     1      11.824   1.901   7.666  1.00  0.00     0.119 HD
ENDBRANCH  12  13
BRANCH  12  16
ATOM     16  C   UNL     1      12.647   0.566   4.799  1.00  0.00     0.022 C 
BRANCH  16  17
ATOM     17  C   UNL     1      11.932   1.206   3.601  1.00  0.00     0.002 C 
BRANCH  17  18
ATOM     18  C   UNL     1      10.712   0.440   3.094  1.00  0.00     0.000 C 
BRANCH  18  19
ATOM     19  C   UNL     1      10.106   1.013   1.806  1.00  0.00    -0.000 C 
BRANCH  19  20
ATOM     20  C   UNL     1      10.947   0.803   0.543  1.00  0.00    -0.000 C 
BRANCH  20  21
ATOM     21  C   UNL     1      11.437  -0.638   0.381  1.00  0.00    -0.003 C 
ATOM     22  C   UNL     1      12.956  -0.707   0.349  1.00  0.00     0.004 C 
ENDBRANCH  20  21
ENDBRANCH  19  20
ENDBRANCH  18  19
ENDBRANCH  17  18
ENDBRANCH  16  17
ENDBRANCH  12  16
ENDBRANCH   9  12
ENDBRANCH   6   9
ENDBRANCH   3   5
ENDBRANCH   2   3
BRANCH   2  23
ATOM     23  N   UNL     1      12.156  -4.919   2.895  1.00  0.00    -0.332 N 
ATOM     24  C   UNL     1      13.057  -3.968   2.260  1.00  0.00     0.147 C 
BRANCH  23  25
ATOM     25  C   UNL     1      11.432  -5.819   1.956  1.00  0.00     0.174 C 
BRANCH  25  26
ATOM     26  C   UNL     1      12.180  -6.020   0.617  1.00  0.00     0.038 C 
BRANCH  26  27
ATOM     27  C   UNL     1      13.150  -7.220   0.530  1.00  0.00    -0.015 C 
ATOM     28  C   UNL     1      14.564  -6.802   0.129  1.00  0.00     0.007 C 
ATOM     29  C   UNL     1      13.180  -8.069   1.798  1.00  0.00     0.007 C 
ENDBRANCH  26  27
ENDBRANCH  25  26
BRANCH  25  30
ATOM     30  C   UNL     1       9.970  -5.346   1.786  1.00  0.00     0.243 C 
ATOM     31  O   UNL     1       9.022  -5.994   2.226  1.00  0.00    -0.273 OA
ATOM     32  N   UNL     1       9.804  -4.165   1.109  1.00  0.00    -0.342 N 
ATOM     33  H   UNL     1      10.642  -3.617   0.899  1.00  0.00     0.164 HD
BRANCH  32  34
ATOM     34  C   UNL     1       8.490  -3.579   0.830  1.00  0.00     0.175 C 
BRANCH  34  35
ATOM     35  C   UNL     1       8.354  -2.186   1.465  1.00  0.00     0.070 C 
BRANCH  35  36
ATOM     36  C   UNL     1       7.567  -2.207   2.756  1.00  0.00    -0.045 A 
ATOM     37  C   UNL     1       6.842  -1.073   3.154  1.00  0.00     0.007 A 
ATOM     38  C   UNL     1       7.567  -3.340   3.581  1.00  0.00     0.007 A 
ATOM     39  C   UNL     1       6.124  -1.078   4.351  1.00  0.00     0.046 A 
ATOM     40  C   UNL     1       6.849  -3.345   4.779  1.00  0.00     0.046 A 
ATOM     41  C   UNL     1       6.132  -2.213   5.153  1.00  0.00     0.115 A 
BRANCH  41  42
ATOM     42  O   UNL     1       5.420  -2.175   6.315  1.00  0.00    -0.508 OA
ATOM     43  H   UNL     1       5.636  -2.970   6.830  1.00  0.00     0.293 HD
ENDBRANCH  41  42
ENDBRANCH  35  36
ENDBRANCH  34  35
BRANCH  34  44
ATOM     44  C   UNL     1       8.300  -3.535  -0.703  1.00  0.00     0.243 C 
ATOM     45  O   UNL     1       8.157  -2.505  -1.355  1.00  0.00    -0.273 OA
ATOM     46  N   UNL     1       8.173  -4.783  -1.275  1.00  0.00    -0.341 N 
ATOM     47  H   UNL     1       8.182  -5.605  -0.676  1.00  0.00     0.164 HD
BRANCH  46  48
ATOM     48  C   UNL     1       7.918  -4.993  -2.702  1.00  0.00     0.196 C 
BRANCH  48  49
ATOM     49  C   UNL     1       8.880  -6.035  -3.296  1.00  0.00     0.072 C 
BRANCH  49  50
ATOM     50  C   UNL     1      10.317  -5.564  -3.303  1.00  0.00    -0.045 A 
ATOM     51  C   UNL     1      10.613  -4.229  -3.613  1.00  0.00     0.007 A 
ATOM     52  C   UNL     1      11.367  -6.448  -3.024  1.00  0.00     0.007 A 
ATOM     53  C   UNL     1      11.936  -3.786  -3.636  1.00  0.00     0.046 A 
ATOM     54  C   UNL     1      12.691  -6.005  -3.047  1.00  0.00     0.046 A 
ATOM     55  C   UNL     1      12.964  -4.676  -3.353  1.00  0.00     0.115 A 
BRANCH  55  56
ATOM     56  O   UNL     1      14.243  -4.204  -3.387  1.00  0.00    -0.508 OA
ATOM     57  H   UNL     1      14.291  -3.499  -4.052  1.00  0.00     0.293 HD
ENDBRANCH  55  56
ENDBRANCH  49  50
ENDBRANCH  48  49
BRANCH  48  58
ATOM     58  C   UNL     1       6.470  -5.465  -2.887  1.00  0.00     0.326 C 
ATOM     59  O   UNL     1       5.825  -5.487  -3.923  1.00  0.00    -0.250 OA
BRANCH  58  60
ATOM     60  O   UNL     1       5.895  -5.909  -1.740  1.00  0.00    -0.480 OA
ATOM     61  H   UNL     1       6.641  -5.917  -1.102  1.00  0.00     0.296 HD
ENDBRANCH  58  60
ENDBRANCH  48  58
ENDBRANCH  46  48
ENDBRANCH  34  44
ENDBRANCH  32  34
ENDBRANCH  25  30
ENDBRANCH  23  25
ENDBRANCH   2  23
TORSDOF 28
ENDMDL
MODEL 33
REMARK VINA RESULT:    -5.597      2.413      8.906
REMARK INTER + INTRA:         -19.406
REMARK INTER:                 -15.217
REMARK INTRA:                  -4.190
REMARK UNBOUND:                -5.466
REMARK SMILES CCCCCCC[C@H](N)[C@H](O)C(=O)N[C@H](C)C(=O)N(C)[C@H](CC(C)C)C(=O)N[C@@H](Cc1ccc(O)cc1)C(=O)N[C@@H](Cc1ccc(O)cc1)C(=O)O
REMARK SMILES IDX 18 1 17 2 15 3 16 4 14 5 12 6 13 7 10 9 11 10 8 12 9 13 7 16
REMARK SMILES IDX 6 17 5 18 4 19 3 20 2 21 1 22 19 23 20 24 21 25 22 26 23 27
REMARK SMILES IDX 24 28 25 29 26 30 27 31 28 32 29 34 30 35 31 36 32 37 37 38
REMARK SMILES IDX 33 39 36 40 34 41 35 42 38 44 39 45 40 46 41 48 42 49 43 50
REMARK SMILES IDX 44 51 49 52 45 53 48 54 46 55 47 56 50 58 51 59 52 60
REMARK H PARENT 14 8 11 11 9 14 9 15 28 33 35 43 40 47 47 57 52 61
ROOT
ATOM      1  O   UNL     1       6.244  -4.705   0.449  1.00  0.00    -0.272 OA
ATOM      2  C   UNL     1       6.204  -3.584  -0.078  1.00  0.00     0.245 C 
ENDROOT
BRANCH   2   3
ATOM      3  C   UNL     1       6.130  -3.493  -1.623  1.00  0.00     0.168 C 
ATOM      4  C   UNL     1       6.777  -2.206  -2.121  1.00  0.00     0.041 C 
BRANCH   3   5
ATOM      5  N   UNL     1       6.634  -4.662  -2.328  1.00  0.00    -0.342 N 
ATOM      6  C   UNL     1       5.943  -5.234  -3.375  1.00  0.00     0.251 C 
ATOM      7  O   UNL     1       4.849  -4.837  -3.760  1.00  0.00    -0.272 OA
ATOM      8  H   UNL     1       7.516  -5.102  -2.075  1.00  0.00     0.164 HD
BRANCH   6   9
ATOM      9  C   UNL     1       6.730  -6.364  -4.058  1.00  0.00     0.219 C 
BRANCH   9  10
ATOM     10  O   UNL     1       5.938  -7.096  -5.002  1.00  0.00    -0.382 OA
ATOM     11  H   UNL     1       5.491  -6.393  -5.523  1.00  0.00     0.211 HD
ENDBRANCH   9  10
BRANCH   9  12
ATOM     12  C   UNL     1       8.052  -5.880  -4.708  1.00  0.00     0.089 C 
BRANCH  12  13
ATOM     13  N   UNL     1       7.885  -4.464  -5.108  1.00  0.00    -0.325 NA
ATOM     14  H   UNL     1       7.046  -4.086  -4.664  1.00  0.00     0.119 HD
ATOM     15  H   UNL     1       7.695  -4.424  -6.113  1.00  0.00     0.119 HD
ENDBRANCH  12  13
BRANCH  12  16
ATOM     16  C   UNL     1       9.329  -6.041  -3.848  1.00  0.00     0.022 C 
BRANCH  16  17
ATOM     17  C   UNL     1      10.107  -4.788  -3.424  1.00  0.00     0.002 C 
BRANCH  17  18
ATOM     18  C   UNL     1      11.607  -4.997  -3.227  1.00  0.00     0.000 C 
BRANCH  18  19
ATOM     19  C   UNL     1      12.025  -6.470  -3.131  1.00  0.00    -0.000 C 
BRANCH  19  20
ATOM     20  C   UNL     1      12.397  -6.950  -1.725  1.00  0.00    -0.000 C 
BRANCH  20  21
ATOM     21  C   UNL     1      13.635  -6.249  -1.160  1.00  0.00    -0.003 C 
ATOM     22  C   UNL     1      13.258  -5.235  -0.092  1.00  0.00     0.004 C 
ENDBRANCH  20  21
ENDBRANCH  19  20
ENDBRANCH  18  19
ENDBRANCH  17  18
ENDBRANCH  16  17
ENDBRANCH  12  16
ENDBRANCH   9  12
ENDBRANCH   6   9
ENDBRANCH   3   5
ENDBRANCH   2   3
BRANCH   2  23
ATOM     23  N   UNL     1       6.104  -2.445   0.715  1.00  0.00    -0.332 N 
ATOM     24  C   UNL     1       4.889  -1.663   0.888  1.00  0.00     0.147 C 
BRANCH  23  25
ATOM     25  C   UNL     1       7.250  -2.019   1.565  1.00  0.00     0.174 C 
BRANCH  25  26
ATOM     26  C   UNL     1       8.589  -2.664   1.138  1.00  0.00     0.038 C 
BRANCH  26  27
ATOM     27  C   UNL     1       9.694  -1.712   0.629  1.00  0.00    -0.015 C 
ATOM     28  C   UNL     1      10.301  -0.869   1.750  1.00  0.00     0.007 C 
ATOM     29  C   UNL     1      10.790  -2.421  -0.163  1.00  0.00     0.007 C 
ENDBRANCH  26  27
ENDBRANCH  25  26
BRANCH  25  30
ATOM     30  C   UNL     1       6.909  -2.225   3.059  1.00  0.00     0.243 C 
ATOM     31  O   UNL     1       6.908  -3.340   3.578  1.00  0.00    -0.273 OA
ATOM     32  N   UNL     1       6.604  -1.086   3.760  1.00  0.00    -0.342 N 
ATOM     33  H   UNL     1       6.764  -0.188   3.297  1.00  0.00     0.164 HD
BRANCH  32  34
ATOM     34  C   UNL     1       6.231  -1.093   5.177  1.00  0.00     0.175 C 
BRANCH  34  35
ATOM     35  C   UNL     1       4.887  -1.804   5.397  1.00  0.00     0.070 C 
BRANCH  35  36
ATOM     36  C   UNL     1       3.712  -1.009   4.873  1.00  0.00    -0.045 A 
ATOM     37  C   UNL     1       3.507   0.309   5.307  1.00  0.00     0.007 A 
ATOM     38  C   UNL     1       2.804  -1.578   3.971  1.00  0.00     0.007 A 
ATOM     39  C   UNL     1       2.418   1.046   4.840  1.00  0.00     0.046 A 
ATOM     40  C   UNL     1       1.713  -0.842   3.503  1.00  0.00     0.046 A 
ATOM     41  C   UNL     1       1.531   0.465   3.941  1.00  0.00     0.115 A 
BRANCH  41  42
ATOM     42  O   UNL     1       0.479   1.218   3.511  1.00  0.00    -0.508 OA
ATOM     43  H   UNL     1       0.430   1.148   2.543  1.00  0.00     0.293 HD
ENDBRANCH  41  42
ENDBRANCH  35  36
ENDBRANCH  34  35
BRANCH  34  44
ATOM     44  C   UNL     1       7.376  -1.763   5.970  1.00  0.00     0.243 C 
ATOM     45  O   UNL     1       7.214  -2.453   6.973  1.00  0.00    -0.273 OA
ATOM     46  N   UNL     1       8.632  -1.410   5.525  1.00  0.00    -0.341 N 
ATOM     47  H   UNL     1       8.716  -0.743   4.762  1.00  0.00     0.164 HD
BRANCH  46  48
ATOM     48  C   UNL     1       9.870  -1.866   6.161  1.00  0.00     0.196 C 
BRANCH  48  49
ATOM     49  C   UNL     1      10.865  -2.411   5.123  1.00  0.00     0.072 C 
BRANCH  49  50
ATOM     50  C   UNL     1      10.578  -3.844   4.738  1.00  0.00    -0.045 A 
ATOM     51  C   UNL     1      10.220  -4.775   5.725  1.00  0.00     0.007 A 
ATOM     52  C   UNL     1      10.684  -4.268   3.408  1.00  0.00     0.007 A 
ATOM     53  C   UNL     1       9.965  -6.103   5.383  1.00  0.00     0.046 A 
ATOM     54  C   UNL     1      10.430  -5.599   3.066  1.00  0.00     0.046 A 
ATOM     55  C   UNL     1      10.071  -6.505   4.057  1.00  0.00     0.115 A 
BRANCH  55  56
ATOM     56  O   UNL     1       9.816  -7.812   3.766  1.00  0.00    -0.508 OA
ATOM     57  H   UNL     1      10.112  -7.986   2.858  1.00  0.00     0.293 HD
ENDBRANCH  55  56
ENDBRANCH  49  50
ENDBRANCH  48  49
BRANCH  48  58
ATOM     58  C   UNL     1      10.505  -0.690   6.916  1.00  0.00     0.326 C 
ATOM     59  O   UNL     1      10.883   0.372   6.447  1.00  0.00    -0.250 OA
BRANCH  58  60
ATOM     60  O   UNL     1      10.623  -0.903   8.250  1.00  0.00    -0.480 OA
ATOM     61  H   UNL     1      10.617  -1.883   8.324  1.00  0.00     0.296 HD
ENDBRANCH  58  60
ENDBRANCH  48  58
ENDBRANCH  46  48
ENDBRANCH  34  44
ENDBRANCH  32  34
ENDBRANCH  25  30
ENDBRANCH  23  25
ENDBRANCH   2  23
TORSDOF 28
ENDMDL
MODEL 34
REMARK VINA RESULT:    -5.591      3.129      7.506
REMARK INTER + INTRA:         -19.392
REMARK INTER:                 -13.183
REMARK INTRA:                  -6.209
REMARK UNBOUND:                -5.466
REMARK SMILES CCCCCCC[C@H](N)[C@H](O)C(=O)N[C@H](C)C(=O)N(C)[C@H](CC(C)C)C(=O)N[C@@H](Cc1ccc(O)cc1)C(=O)N[C@@H](Cc1ccc(O)cc1)C(=O)O
REMARK SMILES IDX 18 1 17 2 15 3 16 4 14 5 12 6 13 7 10 9 11 10 8 12 9 13 7 16
REMARK SMILES IDX 6 17 5 18 4 19 3 20 2 21 1 22 19 23 20 24 21 25 22 26 23 27
REMARK SMILES IDX 24 28 25 29 26 30 27 31 28 32 29 34 30 35 31 36 32 37 37 38
REMARK SMILES IDX 33 39 36 40 34 41 35 42 38 44 39 45 40 46 41 48 42 49 43 50
REMARK SMILES IDX 44 51 49 52 45 53 48 54 46 55 47 56 50 58 51 59 52 60
REMARK H PARENT 14 8 11 11 9 14 9 15 28 33 35 43 40 47 47 57 52 61
ROOT
ATOM      1  O   UNL     1      10.027  -6.681   8.276  1.00  0.00    -0.272 OA
ATOM      2  C   UNL     1       9.731  -6.582   7.076  1.00  0.00     0.245 C 
ENDROOT
BRANCH   2   3
ATOM      3  C   UNL     1       9.087  -5.264   6.579  1.00  0.00     0.168 C 
ATOM      4  C   UNL     1       7.663  -5.125   7.106  1.00  0.00     0.041 C 
BRANCH   3   5
ATOM      5  N   UNL     1       9.875  -4.066   6.827  1.00  0.00    -0.342 N 
ATOM      6  C   UNL     1      10.044  -3.094   5.864  1.00  0.00     0.251 C 
ATOM      7  O   UNL     1       9.586  -3.179   4.729  1.00  0.00    -0.272 OA
ATOM      8  H   UNL     1      10.333  -3.901   7.720  1.00  0.00     0.164 HD
BRANCH   6   9
ATOM      9  C   UNL     1      10.791  -1.859   6.391  1.00  0.00     0.219 C 
BRANCH   9  10
ATOM     10  O   UNL     1      10.357  -1.467   7.700  1.00  0.00    -0.382 OA
ATOM     11  H   UNL     1       9.422  -1.766   7.732  1.00  0.00     0.211 HD
ENDBRANCH   9  10
BRANCH   9  12
ATOM     12  C   UNL     1      12.334  -2.015   6.347  1.00  0.00     0.089 C 
BRANCH  12  13
ATOM     13  N   UNL     1      12.661  -3.454   6.463  1.00  0.00    -0.325 NA
ATOM     14  H   UNL     1      12.447  -3.772   7.410  1.00  0.00     0.119 HD
ATOM     15  H   UNL     1      13.672  -3.572   6.364  1.00  0.00     0.119 HD
ENDBRANCH  12  13
BRANCH  12  16
ATOM     16  C   UNL     1      13.041  -1.407   5.112  1.00  0.00     0.022 C 
BRANCH  16  17
ATOM     17  C   UNL     1      12.458  -1.663   3.715  1.00  0.00     0.002 C 
BRANCH  17  18
ATOM     18  C   UNL     1      11.990  -0.414   2.973  1.00  0.00     0.000 C 
BRANCH  18  19
ATOM     19  C   UNL     1      11.593   0.748   3.893  1.00  0.00    -0.000 C 
BRANCH  19  20
ATOM     20  C   UNL     1      12.429   2.020   3.732  1.00  0.00    -0.000 C 
BRANCH  20  21
ATOM     21  C   UNL     1      13.287   2.334   4.960  1.00  0.00    -0.003 C 
ATOM     22  C   UNL     1      12.571   1.954   6.247  1.00  0.00     0.004 C 
ENDBRANCH  20  21
ENDBRANCH  19  20
ENDBRANCH  18  19
ENDBRANCH  17  18
ENDBRANCH  16  17
ENDBRANCH  12  16
ENDBRANCH   9  12
ENDBRANCH   6   9
ENDBRANCH   3   5
ENDBRANCH   2   3
BRANCH   2  23
ATOM     23  N   UNL     1      10.088  -7.588   6.186  1.00  0.00    -0.332 N 
ATOM     24  C   UNL     1       9.233  -8.708   5.819  1.00  0.00     0.147 C 
BRANCH  23  25
ATOM     25  C   UNL     1      11.369  -7.505   5.432  1.00  0.00     0.174 C 
BRANCH  25  26
ATOM     26  C   UNL     1      12.609  -7.462   6.356  1.00  0.00     0.038 C 
BRANCH  26  27
ATOM     27  C   UNL     1      12.864  -8.701   7.243  1.00  0.00    -0.015 C 
ATOM     28  C   UNL     1      13.827  -9.696   6.596  1.00  0.00     0.007 C 
ATOM     29  C   UNL     1      13.324  -8.351   8.656  1.00  0.00     0.007 C 
ENDBRANCH  26  27
ENDBRANCH  25  26
BRANCH  25  30
ATOM     30  C   UNL     1      11.313  -6.344   4.413  1.00  0.00     0.243 C 
ATOM     31  O   UNL     1      12.069  -5.376   4.488  1.00  0.00    -0.273 OA
ATOM     32  N   UNL     1      10.363  -6.462   3.431  1.00  0.00    -0.342 N 
ATOM     33  H   UNL     1       9.872  -7.356   3.353  1.00  0.00     0.164 HD
BRANCH  32  34
ATOM     34  C   UNL     1      10.148  -5.445   2.398  1.00  0.00     0.175 C 
BRANCH  34  35
ATOM     35  C   UNL     1      10.834  -5.835   1.079  1.00  0.00     0.070 C 
BRANCH  35  36
ATOM     36  C   UNL     1      11.795  -4.777   0.585  1.00  0.00    -0.045 A 
ATOM     37  C   UNL     1      11.480  -4.019  -0.552  1.00  0.00     0.007 A 
ATOM     38  C   UNL     1      13.015  -4.554   1.236  1.00  0.00     0.007 A 
ATOM     39  C   UNL     1      12.366  -3.050  -1.024  1.00  0.00     0.046 A 
ATOM     40  C   UNL     1      13.904  -3.585   0.764  1.00  0.00     0.046 A 
ATOM     41  C   UNL     1      13.570  -2.840  -0.362  1.00  0.00     0.115 A 
BRANCH  41  42
ATOM     42  O   UNL     1      14.410  -1.886  -0.856  1.00  0.00    -0.508 OA
ATOM     43  H   UNL     1      14.073  -1.015  -0.588  1.00  0.00     0.293 HD
ENDBRANCH  41  42
ENDBRANCH  35  36
ENDBRANCH  34  35
BRANCH  34  44
ATOM     44  C   UNL     1       8.624  -5.257   2.222  1.00  0.00     0.243 C 
ATOM     45  O   UNL     1       7.795  -6.153   2.349  1.00  0.00    -0.273 OA
ATOM     46  N   UNL     1       8.275  -4.000   1.774  1.00  0.00    -0.341 N 
ATOM     47  H   UNL     1       9.009  -3.327   1.570  1.00  0.00     0.164 HD
BRANCH  46  48
ATOM     48  C   UNL     1       6.897  -3.608   1.470  1.00  0.00     0.196 C 
BRANCH  48  49
ATOM     49  C   UNL     1       6.675  -2.106   1.718  1.00  0.00     0.072 C 
BRANCH  49  50
ATOM     50  C   UNL     1       6.709  -1.748   3.187  1.00  0.00    -0.045 A 
ATOM     51  C   UNL     1       7.546  -0.716   3.635  1.00  0.00     0.007 A 
ATOM     52  C   UNL     1       5.931  -2.449   4.118  1.00  0.00     0.007 A 
ATOM     53  C   UNL     1       7.596  -0.385   4.990  1.00  0.00     0.046 A 
ATOM     54  C   UNL     1       5.982  -2.119   5.474  1.00  0.00     0.046 A 
ATOM     55  C   UNL     1       6.814  -1.088   5.898  1.00  0.00     0.115 A 
BRANCH  55  56
ATOM     56  O   UNL     1       6.894  -0.736   7.213  1.00  0.00    -0.508 OA
ATOM     57  H   UNL     1       6.402   0.091   7.339  1.00  0.00     0.293 HD
ENDBRANCH  55  56
ENDBRANCH  49  50
ENDBRANCH  48  49
BRANCH  48  58
ATOM     58  C   UNL     1       6.597  -3.936   0.000  1.00  0.00     0.326 C 
ATOM     59  O   UNL     1       6.830  -3.240  -0.975  1.00  0.00    -0.250 OA
BRANCH  58  60
ATOM     60  O   UNL     1       6.021  -5.152  -0.176  1.00  0.00    -0.480 OA
ATOM     61  H   UNL     1       6.613  -5.590  -0.824  1.00  0.00     0.296 HD
ENDBRANCH  58  60
ENDBRANCH  48  58
ENDBRANCH  46  48
ENDBRANCH  34  44
ENDBRANCH  32  34
ENDBRANCH  25  30
ENDBRANCH  23  25
ENDBRANCH   2  23
TORSDOF 28
ENDMDL
MODEL 35
REMARK VINA RESULT:    -5.541      2.701      8.648
REMARK INTER + INTRA:         -19.268
REMARK INTER:                 -14.999
REMARK INTRA:                  -4.269
REMARK UNBOUND:                -5.466
REMARK SMILES CCCCCCC[C@H](N)[C@H](O)C(=O)N[C@H](C)C(=O)N(C)[C@H](CC(C)C)C(=O)N[C@@H](Cc1ccc(O)cc1)C(=O)N[C@@H](Cc1ccc(O)cc1)C(=O)O
REMARK SMILES IDX 18 1 17 2 15 3 16 4 14 5 12 6 13 7 10 9 11 10 8 12 9 13 7 16
REMARK SMILES IDX 6 17 5 18 4 19 3 20 2 21 1 22 19 23 20 24 21 25 22 26 23 27
REMARK SMILES IDX 24 28 25 29 26 30 27 31 28 32 29 34 30 35 31 36 32 37 37 38
REMARK SMILES IDX 33 39 36 40 34 41 35 42 38 44 39 45 40 46 41 48 42 49 43 50
REMARK SMILES IDX 44 51 49 52 45 53 48 54 46 55 47 56 50 58 51 59 52 60
REMARK H PARENT 14 8 11 11 9 14 9 15 28 33 35 43 40 47 47 57 52 61
ROOT
ATOM      1  O   UNL     1       8.747  -6.940   3.731  1.00  0.00    -0.272 OA
ATOM      2  C   UNL     1       9.556  -7.098   4.657  1.00  0.00     0.245 C 
ENDROOT
BRANCH   2   3
ATOM      3  C   UNL     1      10.473  -8.346   4.635  1.00  0.00     0.168 C 
ATOM      4  C   UNL     1       9.669  -9.614   4.902  1.00  0.00     0.041 C 
BRANCH   3   5
ATOM      5  N   UNL     1      11.306  -8.471   3.449  1.00  0.00    -0.342 N 
ATOM      6  C   UNL     1      12.647  -8.153   3.464  1.00  0.00     0.251 C 
ATOM      7  O   UNL     1      13.225  -7.707   4.449  1.00  0.00    -0.272 OA
ATOM      8  H   UNL     1      10.929  -8.798   2.562  1.00  0.00     0.164 HD
BRANCH   6   9
ATOM      9  C   UNL     1      13.355  -8.498   2.144  1.00  0.00     0.219 C 
BRANCH   9  10
ATOM     10  O   UNL     1      12.889  -9.726   1.572  1.00  0.00    -0.382 OA
ATOM     11  H   UNL     1      11.982  -9.509   1.264  1.00  0.00     0.211 HD
ENDBRANCH   9  10
BRANCH   9  12
ATOM     12  C   UNL     1      13.296  -7.349   1.103  1.00  0.00     0.089 C 
BRANCH  12  13
ATOM     13  N   UNL     1      12.888  -6.108   1.800  1.00  0.00    -0.325 NA
ATOM     14  H   UNL     1      13.715  -5.660   2.201  1.00  0.00     0.119 HD
ATOM     15  H   UNL     1      12.303  -6.355   2.602  1.00  0.00     0.119 HD
ENDBRANCH  12  13
BRANCH  12  16
ATOM     16  C   UNL     1      14.591  -7.102   0.292  1.00  0.00     0.022 C 
BRANCH  16  17
ATOM     17  C   UNL     1      14.708  -7.684  -1.124  1.00  0.00     0.002 C 
BRANCH  17  18
ATOM     18  C   UNL     1      13.399  -8.198  -1.719  1.00  0.00     0.000 C 
BRANCH  18  19
ATOM     19  C   UNL     1      12.777  -7.261  -2.763  1.00  0.00    -0.000 C 
BRANCH  19  20
ATOM     20  C   UNL     1      11.709  -6.305  -2.225  1.00  0.00    -0.000 C 
BRANCH  20  21
ATOM     21  C   UNL     1      12.198  -4.857  -2.121  1.00  0.00    -0.003 C 
ATOM     22  C   UNL     1      13.103  -4.493  -3.287  1.00  0.00     0.004 C 
ENDBRANCH  20  21
ENDBRANCH  19  20
ENDBRANCH  18  19
ENDBRANCH  17  18
ENDBRANCH  16  17
ENDBRANCH  12  16
ENDBRANCH   9  12
ENDBRANCH   6   9
ENDBRANCH   3   5
ENDBRANCH   2   3
BRANCH   2  23
ATOM     23  N   UNL     1       9.712  -6.107   5.621  1.00  0.00    -0.332 N 
ATOM     24  C   UNL     1       9.587  -6.323   7.055  1.00  0.00     0.147 C 
BRANCH  23  25
ATOM     25  C   UNL     1      10.157  -4.742   5.229  1.00  0.00     0.174 C 
BRANCH  25  26
ATOM     26  C   UNL     1      10.876  -3.991   6.374  1.00  0.00     0.038 C 
BRANCH  26  27
ATOM     27  C   UNL     1      12.116  -3.153   5.992  1.00  0.00    -0.015 C 
ATOM     28  C   UNL     1      12.878  -3.744   4.806  1.00  0.00     0.007 C 
ATOM     29  C   UNL     1      11.801  -1.679   5.747  1.00  0.00     0.007 C 
ENDBRANCH  26  27
ENDBRANCH  25  26
BRANCH  25  30
ATOM     30  C   UNL     1       8.977  -3.953   4.614  1.00  0.00     0.243 C 
ATOM     31  O   UNL     1       7.904  -3.826   5.201  1.00  0.00    -0.273 OA
ATOM     32  N   UNL     1       9.206  -3.415   3.374  1.00  0.00    -0.342 N 
ATOM     33  H   UNL     1      10.164  -3.443   3.015  1.00  0.00     0.164 HD
BRANCH  32  34
ATOM     34  C   UNL     1       8.195  -2.661   2.628  1.00  0.00     0.175 C 
BRANCH  34  35
ATOM     35  C   UNL     1       6.939  -3.509   2.375  1.00  0.00     0.070 C 
BRANCH  35  36
ATOM     36  C   UNL     1       6.476  -3.453   0.936  1.00  0.00    -0.045 A 
ATOM     37  C   UNL     1       6.851  -4.464   0.038  1.00  0.00     0.007 A 
ATOM     38  C   UNL     1       5.693  -2.387   0.475  1.00  0.00     0.007 A 
ATOM     39  C   UNL     1       6.440  -4.413  -1.294  1.00  0.00     0.046 A 
ATOM     40  C   UNL     1       5.282  -2.335  -0.860  1.00  0.00     0.046 A 
ATOM     41  C   UNL     1       5.659  -3.351  -1.732  1.00  0.00     0.115 A 
BRANCH  41  42
ATOM     42  O   UNL     1       5.281  -3.337  -3.042  1.00  0.00    -0.508 OA
ATOM     43  H   UNL     1       5.977  -3.770  -3.564  1.00  0.00     0.293 HD
ENDBRANCH  41  42
ENDBRANCH  35  36
ENDBRANCH  34  35
BRANCH  34  44
ATOM     44  C   UNL     1       7.872  -1.376   3.425  1.00  0.00     0.243 C 
ATOM     45  O   UNL     1       8.652  -0.439   3.576  1.00  0.00    -0.273 OA
ATOM     46  N   UNL     1       6.657  -1.424   4.074  1.00  0.00    -0.341 N 
ATOM     47  H   UNL     1       6.097  -2.271   4.013  1.00  0.00     0.164 HD
BRANCH  46  48
ATOM     48  C   UNL     1       6.166  -0.353   4.944  1.00  0.00     0.196 C 
BRANCH  48  49
ATOM     49  C   UNL     1       4.658  -0.495   5.210  1.00  0.00     0.072 C 
BRANCH  49  50
ATOM     50  C   UNL     1       3.844  -0.540   3.937  1.00  0.00    -0.045 A 
ATOM     51  C   UNL     1       4.177   0.299   2.864  1.00  0.00     0.007 A 
ATOM     52  C   UNL     1       2.743  -1.397   3.815  1.00  0.00     0.007 A 
ATOM     53  C   UNL     1       3.426   0.276   1.689  1.00  0.00     0.046 A 
ATOM     54  C   UNL     1       1.990  -1.420   2.639  1.00  0.00     0.046 A 
ATOM     55  C   UNL     1       2.339  -0.583   1.585  1.00  0.00     0.115 A 
BRANCH  55  56
ATOM     56  O   UNL     1       1.629  -0.575   0.421  1.00  0.00    -0.508 OA
ATOM     57  H   UNL     1       0.850  -1.142   0.533  1.00  0.00     0.293 HD
ENDBRANCH  55  56
ENDBRANCH  49  50
ENDBRANCH  48  49
BRANCH  48  58
ATOM     58  C   UNL     1       6.930  -0.400   6.274  1.00  0.00     0.326 C 
ATOM     59  O   UNL     1       7.607   0.487   6.770  1.00  0.00    -0.250 OA
BRANCH  58  60
ATOM     60  O   UNL     1       6.792  -1.576   6.937  1.00  0.00    -0.480 OA
ATOM     61  H   UNL     1       6.368  -1.311   7.782  1.00  0.00     0.296 HD
ENDBRANCH  58  60
ENDBRANCH  48  58
ENDBRANCH  46  48
ENDBRANCH  34  44
ENDBRANCH  32  34
ENDBRANCH  25  30
ENDBRANCH  23  25
ENDBRANCH   2  23
TORSDOF 28
ENDMDL
MODEL 36
REMARK VINA RESULT:    -5.529      4.347      8.857
REMARK INTER + INTRA:         -19.236
REMARK INTER:                 -14.824
REMARK INTRA:                  -4.411
REMARK UNBOUND:                -5.466
REMARK SMILES CCCCCCC[C@H](N)[C@H](O)C(=O)N[C@H](C)C(=O)N(C)[C@H](CC(C)C)C(=O)N[C@@H](Cc1ccc(O)cc1)C(=O)N[C@@H](Cc1ccc(O)cc1)C(=O)O
REMARK SMILES IDX 18 1 17 2 15 3 16 4 14 5 12 6 13 7 10 9 11 10 8 12 9 13 7 16
REMARK SMILES IDX 6 17 5 18 4 19 3 20 2 21 1 22 19 23 20 24 21 25 22 26 23 27
REMARK SMILES IDX 24 28 25 29 26 30 27 31 28 32 29 34 30 35 31 36 32 37 37 38
REMARK SMILES IDX 33 39 36 40 34 41 35 42 38 44 39 45 40 46 41 48 42 49 43 50
REMARK SMILES IDX 44 51 49 52 45 53 48 54 46 55 47 56 50 58 51 59 52 60
REMARK H PARENT 14 8 11 11 9 14 9 15 28 33 35 43 40 47 47 57 52 61
ROOT
ATOM      1  O   UNL     1      -0.121   5.146   6.946  1.00  0.00    -0.272 OA
ATOM      2  C   UNL     1       0.797   4.329   7.115  1.00  0.00     0.245 C 
ENDROOT
BRANCH   2   3
ATOM      3  C   UNL     1       2.241   4.863   7.292  1.00  0.00     0.168 C 
ATOM      4  C   UNL     1       2.676   4.775   8.751  1.00  0.00     0.041 C 
BRANCH   3   5
ATOM      5  N   UNL     1       3.224   4.273   6.397  1.00  0.00    -0.342 N 
ATOM      6  C   UNL     1       3.925   5.032   5.484  1.00  0.00     0.251 C 
ATOM      7  O   UNL     1       3.750   6.236   5.328  1.00  0.00    -0.272 OA
ATOM      8  H   UNL     1       3.431   3.277   6.409  1.00  0.00     0.164 HD
BRANCH   6   9
ATOM      9  C   UNL     1       5.007   4.226   4.748  1.00  0.00     0.219 C 
BRANCH   9  10
ATOM     10  O   UNL     1       5.406   3.052   5.465  1.00  0.00    -0.382 OA
ATOM     11  H   UNL     1       4.563   2.708   5.832  1.00  0.00     0.211 HD
ENDBRANCH   9  10
BRANCH   9  12
ATOM     12  C   UNL     1       4.617   3.874   3.288  1.00  0.00     0.089 C 
BRANCH  12  13
ATOM     13  N   UNL     1       5.351   2.651   2.891  1.00  0.00    -0.325 NA
ATOM     14  H   UNL     1       6.355   2.834   2.931  1.00  0.00     0.119 HD
ATOM     15  H   UNL     1       5.154   2.452   1.907  1.00  0.00     0.119 HD
ENDBRANCH  12  13
BRANCH  12  16
ATOM     16  C   UNL     1       3.104   3.699   3.015  1.00  0.00     0.022 C 
BRANCH  16  17
ATOM     17  C   UNL     1       2.386   4.712   2.113  1.00  0.00     0.002 C 
BRANCH  17  18
ATOM     18  C   UNL     1       3.244   5.889   1.655  1.00  0.00     0.000 C 
BRANCH  18  19
ATOM     19  C   UNL     1       3.237   6.114   0.137  1.00  0.00    -0.000 C 
BRANCH  19  20
ATOM     20  C   UNL     1       4.374   5.430  -0.627  1.00  0.00    -0.000 C 
BRANCH  20  21
ATOM     21  C   UNL     1       5.729   5.558   0.073  1.00  0.00    -0.003 C 
ATOM     22  C   UNL     1       6.572   4.305  -0.115  1.00  0.00     0.004 C 
ENDBRANCH  20  21
ENDBRANCH  19  20
ENDBRANCH  18  19
ENDBRANCH  17  18
ENDBRANCH  16  17
ENDBRANCH  12  16
ENDBRANCH   9  12
ENDBRANCH   6   9
ENDBRANCH   3   5
ENDBRANCH   2   3
BRANCH   2  23
ATOM     23  N   UNL     1       0.506   2.978   7.265  1.00  0.00    -0.332 N 
ATOM     24  C   UNL     1       0.229   2.328   8.538  1.00  0.00     0.147 C 
BRANCH  23  25
ATOM     25  C   UNL     1       0.332   2.110   6.068  1.00  0.00     0.174 C 
BRANCH  25  26
ATOM     26  C   UNL     1      -0.825   1.095   6.223  1.00  0.00     0.038 C 
BRANCH  26  27
ATOM     27  C   UNL     1      -2.229   1.560   5.774  1.00  0.00    -0.015 C 
ATOM     28  C   UNL     1      -3.168   1.806   6.954  1.00  0.00     0.007 C 
ATOM     29  C   UNL     1      -2.199   2.774   4.848  1.00  0.00     0.007 C 
ENDBRANCH  26  27
ENDBRANCH  25  26
BRANCH  25  30
ATOM     30  C   UNL     1       1.680   1.461   5.681  1.00  0.00     0.243 C 
ATOM     31  O   UNL     1       2.677   1.558   6.394  1.00  0.00    -0.273 OA
ATOM     32  N   UNL     1       1.690   0.778   4.491  1.00  0.00    -0.342 N 
ATOM     33  H   UNL     1       0.792   0.623   4.027  1.00  0.00     0.164 HD
BRANCH  32  34
ATOM     34  C   UNL     1       2.885   0.124   3.952  1.00  0.00     0.175 C 
BRANCH  34  35
ATOM     35  C   UNL     1       3.073  -1.278   4.552  1.00  0.00     0.070 C 
BRANCH  35  36
ATOM     36  C   UNL     1       4.426  -1.460   5.201  1.00  0.00    -0.045 A 
ATOM     37  C   UNL     1       4.760  -2.686   5.797  1.00  0.00     0.007 A 
ATOM     38  C   UNL     1       5.353  -0.410   5.239  1.00  0.00     0.007 A 
ATOM     39  C   UNL     1       6.001  -2.859   6.411  1.00  0.00     0.046 A 
ATOM     40  C   UNL     1       6.595  -0.582   5.854  1.00  0.00     0.046 A 
ATOM     41  C   UNL     1       6.908  -1.807   6.434  1.00  0.00     0.115 A 
BRANCH  41  42
ATOM     42  O   UNL     1       8.108  -2.017   7.046  1.00  0.00    -0.508 OA
ATOM     43  H   UNL     1       8.720  -1.316   6.766  1.00  0.00     0.293 HD
ENDBRANCH  41  42
ENDBRANCH  35  36
ENDBRANCH  34  35
BRANCH  34  44
ATOM     44  C   UNL     1       2.755   0.080   2.413  1.00  0.00     0.243 C 
ATOM     45  O   UNL     1       1.694   0.184   1.804  1.00  0.00    -0.273 OA
ATOM     46  N   UNL     1       3.937  -0.220   1.770  1.00  0.00    -0.341 N 
ATOM     47  H   UNL     1       4.766  -0.414   2.326  1.00  0.00     0.164 HD
BRANCH  46  48
ATOM     48  C   UNL     1       4.046  -0.383   0.319  1.00  0.00     0.196 C 
BRANCH  48  49
ATOM     49  C   UNL     1       3.345  -1.667  -0.155  1.00  0.00     0.072 C 
BRANCH  49  50
ATOM     50  C   UNL     1       4.154  -2.427  -1.181  1.00  0.00    -0.045 A 
ATOM     51  C   UNL     1       4.289  -3.819  -1.073  1.00  0.00     0.007 A 
ATOM     52  C   UNL     1       4.794  -1.759  -2.234  1.00  0.00     0.007 A 
ATOM     53  C   UNL     1       5.044  -4.529  -2.006  1.00  0.00     0.046 A 
ATOM     54  C   UNL     1       5.551  -2.471  -3.167  1.00  0.00     0.046 A 
ATOM     55  C   UNL     1       5.669  -3.851  -3.046  1.00  0.00     0.115 A 
BRANCH  55  56
ATOM     56  O   UNL     1       6.399  -4.582  -3.936  1.00  0.00    -0.508 OA
ATOM     57  H   UNL     1       7.328  -4.563  -3.657  1.00  0.00     0.293 HD
ENDBRANCH  55  56
ENDBRANCH  49  50
ENDBRANCH  48  49
BRANCH  48  58
ATOM     58  C   UNL     1       3.413   0.834  -0.369  1.00  0.00     0.326 C 
ATOM     59  O   UNL     1       2.571   0.829  -1.253  1.00  0.00    -0.250 OA
BRANCH  58  60
ATOM     60  O   UNL     1       3.865   2.022   0.108  1.00  0.00    -0.480 OA
ATOM     61  H   UNL     1       3.233   2.231   0.829  1.00  0.00     0.296 HD
ENDBRANCH  58  60
ENDBRANCH  48  58
ENDBRANCH  46  48
ENDBRANCH  34  44
ENDBRANCH  32  34
ENDBRANCH  25  30
ENDBRANCH  23  25
ENDBRANCH   2  23
TORSDOF 28
ENDMDL
MODEL 37
REMARK VINA RESULT:    -5.524      2.270      6.658
REMARK INTER + INTRA:         -19.225
REMARK INTER:                 -14.557
REMARK INTRA:                  -4.667
REMARK UNBOUND:                -5.466
REMARK SMILES CCCCCCC[C@H](N)[C@H](O)C(=O)N[C@H](C)C(=O)N(C)[C@H](CC(C)C)C(=O)N[C@@H](Cc1ccc(O)cc1)C(=O)N[C@@H](Cc1ccc(O)cc1)C(=O)O
REMARK SMILES IDX 18 1 17 2 15 3 16 4 14 5 12 6 13 7 10 9 11 10 8 12 9 13 7 16
REMARK SMILES IDX 6 17 5 18 4 19 3 20 2 21 1 22 19 23 20 24 21 25 22 26 23 27
REMARK SMILES IDX 24 28 25 29 26 30 27 31 28 32 29 34 30 35 31 36 32 37 37 38
REMARK SMILES IDX 33 39 36 40 34 41 35 42 38 44 39 45 40 46 41 48 42 49 43 50
REMARK SMILES IDX 44 51 49 52 45 53 48 54 46 55 47 56 50 58 51 59 52 60
REMARK H PARENT 14 8 11 11 9 14 9 15 28 33 35 43 40 47 47 57 52 61
ROOT
ATOM      1  O   UNL     1       5.443  -1.671   5.318  1.00  0.00    -0.272 OA
ATOM      2  C   UNL     1       6.682  -1.716   5.295  1.00  0.00     0.245 C 
ENDROOT
BRANCH   2   3
ATOM      3  C   UNL     1       7.477  -0.450   5.699  1.00  0.00     0.168 C 
ATOM      4  C   UNL     1       6.584   0.534   6.448  1.00  0.00     0.041 C 
BRANCH   3   5
ATOM      5  N   UNL     1       8.717  -0.709   6.414  1.00  0.00    -0.342 N 
ATOM      6  C   UNL     1       9.949  -0.461   5.848  1.00  0.00     0.251 C 
ATOM      7  O   UNL     1      10.097  -0.048   4.703  1.00  0.00    -0.272 OA
ATOM      8  H   UNL     1       8.722  -1.085   7.360  1.00  0.00     0.164 HD
BRANCH   6   9
ATOM      9  C   UNL     1      11.110  -0.673   6.834  1.00  0.00     0.219 C 
BRANCH   9  10
ATOM     10  O   UNL     1      10.664  -1.090   8.130  1.00  0.00    -0.382 OA
ATOM     11  H   UNL     1      10.504  -2.053   8.021  1.00  0.00     0.211 HD
ENDBRANCH   9  10
BRANCH   9  12
ATOM     12  C   UNL     1      12.201  -1.633   6.291  1.00  0.00     0.089 C 
BRANCH  12  13
ATOM     13  N   UNL     1      13.359  -1.592   7.213  1.00  0.00    -0.325 NA
ATOM     14  H   UNL     1      14.087  -2.219   6.866  1.00  0.00     0.119 HD
ATOM     15  H   UNL     1      13.078  -1.984   8.115  1.00  0.00     0.119 HD
ENDBRANCH  12  13
BRANCH  12  16
ATOM     16  C   UNL     1      11.760  -3.098   6.056  1.00  0.00     0.022 C 
BRANCH  16  17
ATOM     17  C   UNL     1      12.832  -4.176   5.844  1.00  0.00     0.002 C 
BRANCH  17  18
ATOM     18  C   UNL     1      12.315  -5.612   5.868  1.00  0.00     0.000 C 
BRANCH  18  19
ATOM     19  C   UNL     1      10.793  -5.726   6.029  1.00  0.00    -0.000 C 
BRANCH  19  20
ATOM     20  C   UNL     1      10.286  -7.106   6.458  1.00  0.00    -0.000 C 
BRANCH  20  21
ATOM     21  C   UNL     1       9.347  -7.745   5.431  1.00  0.00    -0.003 C 
ATOM     22  C   UNL     1      10.097  -8.698   4.512  1.00  0.00     0.004 C 
ENDBRANCH  20  21
ENDBRANCH  19  20
ENDBRANCH  18  19
ENDBRANCH  17  18
ENDBRANCH  16  17
ENDBRANCH  12  16
ENDBRANCH   9  12
ENDBRANCH   6   9
ENDBRANCH   3   5
ENDBRANCH   2   3
BRANCH   2  23
ATOM     23  N   UNL     1       7.329  -2.918   5.030  1.00  0.00    -0.332 N 
ATOM     24  C   UNL     1       7.491  -3.999   5.991  1.00  0.00     0.147 C 
BRANCH  23  25
ATOM     25  C   UNL     1       7.802  -3.229   3.653  1.00  0.00     0.174 C 
BRANCH  25  26
ATOM     26  C   UNL     1       9.343  -3.314   3.550  1.00  0.00     0.038 C 
BRANCH  26  27
ATOM     27  C   UNL     1       9.921  -4.198   2.423  1.00  0.00    -0.015 C 
ATOM     28  C   UNL     1      11.449  -4.242   2.440  1.00  0.00     0.007 C 
ATOM     29  C   UNL     1       9.344  -5.611   2.402  1.00  0.00     0.007 C 
ENDBRANCH  26  27
ENDBRANCH  25  26
BRANCH  25  30
ATOM     30  C   UNL     1       7.165  -2.251   2.638  1.00  0.00     0.243 C 
ATOM     31  O   UNL     1       7.770  -1.267   2.216  1.00  0.00    -0.273 OA
ATOM     32  N   UNL     1       5.885  -2.552   2.249  1.00  0.00    -0.342 N 
ATOM     33  H   UNL     1       5.504  -3.458   2.532  1.00  0.00     0.164 HD
BRANCH  32  34
ATOM     34  C   UNL     1       5.116  -1.724   1.316  1.00  0.00     0.175 C 
BRANCH  34  35
ATOM     35  C   UNL     1       5.211  -0.234   1.682  1.00  0.00     0.070 C 
BRANCH  35  36
ATOM     36  C   UNL     1       4.283   0.151   2.812  1.00  0.00    -0.045 A 
ATOM     37  C   UNL     1       3.161  -0.642   3.100  1.00  0.00     0.007 A 
ATOM     38  C   UNL     1       4.513   1.307   3.569  1.00  0.00     0.007 A 
ATOM     39  C   UNL     1       2.292  -0.287   4.132  1.00  0.00     0.046 A 
ATOM     40  C   UNL     1       3.642   1.664   4.601  1.00  0.00     0.046 A 
ATOM     41  C   UNL     1       2.539   0.861   4.874  1.00  0.00     0.115 A 
BRANCH  41  42
ATOM     42  O   UNL     1       1.663   1.174   5.871  1.00  0.00    -0.508 OA
ATOM     43  H   UNL     1       0.890   1.607   5.473  1.00  0.00     0.293 HD
ENDBRANCH  41  42
ENDBRANCH  35  36
ENDBRANCH  34  35
BRANCH  34  44
ATOM     44  C   UNL     1       5.636  -2.002  -0.112  1.00  0.00     0.243 C 
ATOM     45  O   UNL     1       5.875  -1.132  -0.945  1.00  0.00    -0.273 OA
ATOM     46  N   UNL     1       5.688  -3.343  -0.426  1.00  0.00    -0.341 N 
ATOM     47  H   UNL     1       5.368  -4.024   0.259  1.00  0.00     0.164 HD
BRANCH  46  48
ATOM     48  C   UNL     1       6.085  -3.848  -1.742  1.00  0.00     0.196 C 
BRANCH  48  49
ATOM     49  C   UNL     1       6.718  -5.246  -1.638  1.00  0.00     0.072 C 
BRANCH  49  50
ATOM     50  C   UNL     1       8.164  -5.264  -2.079  1.00  0.00    -0.045 A 
ATOM     51  C   UNL     1       8.498  -5.725  -3.361  1.00  0.00     0.007 A 
ATOM     52  C   UNL     1       9.186  -4.846  -1.217  1.00  0.00     0.007 A 
ATOM     53  C   UNL     1       9.830  -5.759  -3.774  1.00  0.00     0.046 A 
ATOM     54  C   UNL     1      10.519  -4.880  -1.630  1.00  0.00     0.046 A 
ATOM     55  C   UNL     1      10.830  -5.336  -2.907  1.00  0.00     0.115 A 
BRANCH  55  56
ATOM     56  O   UNL     1      12.119  -5.386  -3.348  1.00  0.00    -0.508 OA
ATOM     57  H   UNL     1      12.131  -5.138  -4.286  1.00  0.00     0.293 HD
ENDBRANCH  55  56
ENDBRANCH  49  50
ENDBRANCH  48  49
BRANCH  48  58
ATOM     58  C   UNL     1       4.846  -3.910  -2.647  1.00  0.00     0.326 C 
ATOM     59  O   UNL     1       4.088  -4.854  -2.798  1.00  0.00    -0.250 OA
BRANCH  58  60
ATOM     60  O   UNL     1       4.609  -2.755  -3.319  1.00  0.00    -0.480 OA
ATOM     61  H   UNL     1       4.004  -2.266  -2.720  1.00  0.00     0.296 HD
ENDBRANCH  58  60
ENDBRANCH  48  58
ENDBRANCH  46  48
ENDBRANCH  34  44
ENDBRANCH  32  34
ENDBRANCH  25  30
ENDBRANCH  23  25
ENDBRANCH   2  23
TORSDOF 28
ENDMDL
MODEL 38
REMARK VINA RESULT:    -5.514      2.606      8.199
REMARK INTER + INTRA:         -19.199
REMARK INTER:                 -12.526
REMARK INTRA:                  -6.672
REMARK UNBOUND:                -5.466
REMARK SMILES CCCCCCC[C@H](N)[C@H](O)C(=O)N[C@H](C)C(=O)N(C)[C@H](CC(C)C)C(=O)N[C@@H](Cc1ccc(O)cc1)C(=O)N[C@@H](Cc1ccc(O)cc1)C(=O)O
REMARK SMILES IDX 18 1 17 2 15 3 16 4 14 5 12 6 13 7 10 9 11 10 8 12 9 13 7 16
REMARK SMILES IDX 6 17 5 18 4 19 3 20 2 21 1 22 19 23 20 24 21 25 22 26 23 27
REMARK SMILES IDX 24 28 25 29 26 30 27 31 28 32 29 34 30 35 31 36 32 37 37 38
REMARK SMILES IDX 33 39 36 40 34 41 35 42 38 44 39 45 40 46 41 48 42 49 43 50
REMARK SMILES IDX 44 51 49 52 45 53 48 54 46 55 47 56 50 58 51 59 52 60
REMARK H PARENT 14 8 11 11 9 14 9 15 28 33 35 43 40 47 47 57 52 61
ROOT
ATOM      1  O   UNL     1       9.220  -3.012  -5.054  1.00  0.00    -0.272 OA
ATOM      2  C   UNL     1       9.292  -3.754  -4.064  1.00  0.00     0.245 C 
ENDROOT
BRANCH   2   3
ATOM      3  C   UNL     1       8.182  -4.813  -3.848  1.00  0.00     0.168 C 
ATOM      4  C   UNL     1       8.777  -6.214  -3.769  1.00  0.00     0.041 C 
BRANCH   3   5
ATOM      5  N   UNL     1       7.286  -4.540  -2.735  1.00  0.00    -0.342 N 
ATOM      6  C   UNL     1       5.936  -4.813  -2.803  1.00  0.00     0.251 C 
ATOM      7  O   UNL     1       5.386  -5.259  -3.805  1.00  0.00    -0.272 OA
ATOM      8  H   UNL     1       7.621  -4.138  -1.863  1.00  0.00     0.164 HD
BRANCH   6   9
ATOM      9  C   UNL     1       5.214  -4.579  -1.467  1.00  0.00     0.219 C 
BRANCH   9  10
ATOM     10  O   UNL     1       5.740  -5.386  -0.406  1.00  0.00    -0.382 OA
ATOM     11  H   UNL     1       6.141  -6.151  -0.874  1.00  0.00     0.211 HD
ENDBRANCH   9  10
BRANCH   9  12
ATOM     12  C   UNL     1       5.168  -3.086  -1.052  1.00  0.00     0.089 C 
BRANCH  12  13
ATOM     13  N   UNL     1       3.763  -2.622  -1.131  1.00  0.00    -0.325 NA
ATOM     14  H   UNL     1       3.715  -1.797  -1.733  1.00  0.00     0.119 HD
ATOM     15  H   UNL     1       3.470  -2.295  -0.207  1.00  0.00     0.119 HD
ENDBRANCH  12  13
BRANCH  12  16
ATOM     16  C   UNL     1       5.761  -2.749   0.337  1.00  0.00     0.022 C 
BRANCH  16  17
ATOM     17  C   UNL     1       5.079  -1.680   1.202  1.00  0.00     0.002 C 
BRANCH  17  18
ATOM     18  C   UNL     1       6.022  -0.867   2.085  1.00  0.00     0.000 C 
BRANCH  18  19
ATOM     19  C   UNL     1       5.355  -0.280   3.336  1.00  0.00    -0.000 C 
BRANCH  19  20
ATOM     20  C   UNL     1       4.493  -1.262   4.135  1.00  0.00    -0.000 C 
BRANCH  20  21
ATOM     21  C   UNL     1       4.985  -1.460   5.572  1.00  0.00    -0.003 C 
ATOM     22  C   UNL     1       5.491  -2.877   5.794  1.00  0.00     0.004 C 
ENDBRANCH  20  21
ENDBRANCH  19  20
ENDBRANCH  18  19
ENDBRANCH  17  18
ENDBRANCH  16  17
ENDBRANCH  12  16
ENDBRANCH   9  12
ENDBRANCH   6   9
ENDBRANCH   3   5
ENDBRANCH   2   3
BRANCH   2  23
ATOM     23  N   UNL     1      10.413  -3.710  -3.241  1.00  0.00    -0.332 N 
ATOM     24  C   UNL     1      11.768  -4.012  -3.675  1.00  0.00     0.147 C 
BRANCH  23  25
ATOM     25  C   UNL     1      10.300  -3.207  -1.844  1.00  0.00     0.174 C 
BRANCH  25  26
ATOM     26  C   UNL     1      10.776  -1.743  -1.691  1.00  0.00     0.038 C 
BRANCH  26  27
ATOM     27  C   UNL     1       9.759  -0.732  -1.117  1.00  0.00    -0.015 C 
ATOM     28  C   UNL     1       9.272  -1.121   0.279  1.00  0.00     0.007 C 
ATOM     29  C   UNL     1      10.262   0.709  -1.128  1.00  0.00     0.007 C 
ENDBRANCH  26  27
ENDBRANCH  25  26
BRANCH  25  30
ATOM     30  C   UNL     1      10.986  -4.190  -0.868  1.00  0.00     0.243 C 
ATOM     31  O   UNL     1      10.754  -5.398  -0.892  1.00  0.00    -0.273 OA
ATOM     32  N   UNL     1      11.860  -3.625   0.025  1.00  0.00    -0.342 N 
ATOM     33  H   UNL     1      12.105  -2.641  -0.110  1.00  0.00     0.164 HD
BRANCH  32  34
ATOM     34  C   UNL     1      12.579  -4.399   1.041  1.00  0.00     0.175 C 
BRANCH  34  35
ATOM     35  C   UNL     1      13.775  -3.613   1.599  1.00  0.00     0.070 C 
BRANCH  35  36
ATOM     36  C   UNL     1      13.358  -2.488   2.520  1.00  0.00    -0.045 A 
ATOM     37  C   UNL     1      12.644  -1.392   2.011  1.00  0.00     0.007 A 
ATOM     38  C   UNL     1      13.693  -2.511   3.880  1.00  0.00     0.007 A 
ATOM     39  C   UNL     1      12.267  -0.344   2.850  1.00  0.00     0.046 A 
ATOM     40  C   UNL     1      13.316  -1.460   4.720  1.00  0.00     0.046 A 
ATOM     41  C   UNL     1      12.605  -0.386   4.197  1.00  0.00     0.115 A 
BRANCH  41  42
ATOM     42  O   UNL     1      12.219   0.660   4.982  1.00  0.00    -0.508 OA
ATOM     43  H   UNL     1      11.303   0.506   5.266  1.00  0.00     0.293 HD
ENDBRANCH  41  42
ENDBRANCH  35  36
ENDBRANCH  34  35
BRANCH  34  44
ATOM     44  C   UNL     1      11.574  -4.785   2.149  1.00  0.00     0.243 C 
ATOM     45  O   UNL     1      11.795  -5.613   3.028  1.00  0.00    -0.273 OA
ATOM     46  N   UNL     1      10.333  -4.205   1.991  1.00  0.00    -0.341 N 
ATOM     47  H   UNL     1      10.163  -3.616   1.180  1.00  0.00     0.164 HD
BRANCH  46  48
ATOM     48  C   UNL     1       9.199  -4.473   2.879  1.00  0.00     0.196 C 
BRANCH  48  49
ATOM     49  C   UNL     1       8.475  -3.175   3.270  1.00  0.00     0.072 C 
BRANCH  49  50
ATOM     50  C   UNL     1       9.040  -2.549   4.526  1.00  0.00    -0.045 A 
ATOM     51  C   UNL     1       8.676  -1.242   4.880  1.00  0.00     0.007 A 
ATOM     52  C   UNL     1       9.943  -3.249   5.336  1.00  0.00     0.007 A 
ATOM     53  C   UNL     1       9.201  -0.650   6.029  1.00  0.00     0.046 A 
ATOM     54  C   UNL     1      10.469  -2.656   6.486  1.00  0.00     0.046 A 
ATOM     55  C   UNL     1      10.092  -1.360   6.823  1.00  0.00     0.115 A 
BRANCH  55  56
ATOM     56  O   UNL     1      10.584  -0.745   7.936  1.00  0.00    -0.508 OA
ATOM     57  H   UNL     1      11.082   0.040   7.657  1.00  0.00     0.293 HD
ENDBRANCH  55  56
ENDBRANCH  49  50
ENDBRANCH  48  49
BRANCH  48  58
ATOM     58  C   UNL     1       8.219  -5.414   2.165  1.00  0.00     0.326 C 
ATOM     59  O   UNL     1       7.440  -6.200   2.680  1.00  0.00    -0.250 OA
BRANCH  58  60
ATOM     60  O   UNL     1       8.256  -5.310   0.812  1.00  0.00    -0.480 OA
ATOM     61  H   UNL     1       8.843  -4.538   0.661  1.00  0.00     0.296 HD
ENDBRANCH  58  60
ENDBRANCH  48  58
ENDBRANCH  46  48
ENDBRANCH  34  44
ENDBRANCH  32  34
ENDBRANCH  25  30
ENDBRANCH  23  25
ENDBRANCH   2  23
TORSDOF 28
ENDMDL
MODEL 39
REMARK VINA RESULT:    -5.511      3.738      7.805
REMARK INTER + INTRA:         -19.193
REMARK INTER:                 -15.559
REMARK INTRA:                  -3.634
REMARK UNBOUND:                -5.466
REMARK SMILES CCCCCCC[C@H](N)[C@H](O)C(=O)N[C@H](C)C(=O)N(C)[C@H](CC(C)C)C(=O)N[C@@H](Cc1ccc(O)cc1)C(=O)N[C@@H](Cc1ccc(O)cc1)C(=O)O
REMARK SMILES IDX 18 1 17 2 15 3 16 4 14 5 12 6 13 7 10 9 11 10 8 12 9 13 7 16
REMARK SMILES IDX 6 17 5 18 4 19 3 20 2 21 1 22 19 23 20 24 21 25 22 26 23 27
REMARK SMILES IDX 24 28 25 29 26 30 27 31 28 32 29 34 30 35 31 36 32 37 37 38
REMARK SMILES IDX 33 39 36 40 34 41 35 42 38 44 39 45 40 46 41 48 42 49 43 50
REMARK SMILES IDX 44 51 49 52 45 53 48 54 46 55 47 56 50 58 51 59 52 60
REMARK H PARENT 14 8 11 11 9 14 9 15 28 33 35 43 40 47 47 57 52 61
ROOT
ATOM      1  O   UNL     1       4.959   3.130   2.913  1.00  0.00    -0.272 OA
ATOM      2  C   UNL     1       4.436   2.998   4.030  1.00  0.00     0.245 C 
ENDROOT
BRANCH   2   3
ATOM      3  C   UNL     1       3.642   4.190   4.622  1.00  0.00     0.168 C 
ATOM      4  C   UNL     1       2.584   4.677   3.639  1.00  0.00     0.041 C 
BRANCH   3   5
ATOM      5  N   UNL     1       3.086   3.956   5.945  1.00  0.00    -0.342 N 
ATOM      6  C   UNL     1       3.008   4.958   6.889  1.00  0.00     0.251 C 
ATOM      7  O   UNL     1       3.432   6.094   6.706  1.00  0.00    -0.272 OA
ATOM      8  H   UNL     1       2.734   3.044   6.226  1.00  0.00     0.164 HD
BRANCH   6   9
ATOM      9  C   UNL     1       2.258   4.522   8.158  1.00  0.00     0.219 C 
BRANCH   9  10
ATOM     10  O   UNL     1       2.918   4.937   9.360  1.00  0.00    -0.382 OA
ATOM     11  H   UNL     1       2.209   5.388   9.869  1.00  0.00     0.211 HD
ENDBRANCH   9  10
BRANCH   9  12
ATOM     12  C   UNL     1       0.770   4.961   8.167  1.00  0.00     0.089 C 
BRANCH  12  13
ATOM     13  N   UNL     1       0.472   5.627   6.878  1.00  0.00    -0.325 NA
ATOM     14  H   UNL     1      -0.517   5.881   6.853  1.00  0.00     0.119 HD
ATOM     15  H   UNL     1       0.593   4.950   6.121  1.00  0.00     0.119 HD
ENDBRANCH  12  13
BRANCH  12  16
ATOM     16  C   UNL     1      -0.265   3.844   8.441  1.00  0.00     0.022 C 
BRANCH  16  17
ATOM     17  C   UNL     1       0.026   2.419   7.949  1.00  0.00     0.002 C 
BRANCH  17  18
ATOM     18  C   UNL     1      -0.619   1.308   8.775  1.00  0.00     0.000 C 
BRANCH  18  19
ATOM     19  C   UNL     1      -1.968   0.826   8.226  1.00  0.00    -0.000 C 
BRANCH  19  20
ATOM     20  C   UNL     1      -2.040   0.691   6.702  1.00  0.00    -0.000 C 
BRANCH  20  21
ATOM     21  C   UNL     1      -2.920   1.758   6.046  1.00  0.00    -0.003 C 
ATOM     22  C   UNL     1      -4.293   1.206   5.696  1.00  0.00     0.004 C 
ENDBRANCH  20  21
ENDBRANCH  19  20
ENDBRANCH  18  19
ENDBRANCH  17  18
ENDBRANCH  16  17
ENDBRANCH  12  16
ENDBRANCH   9  12
ENDBRANCH   6   9
ENDBRANCH   3   5
ENDBRANCH   2   3
BRANCH   2  23
ATOM     23  N   UNL     1       4.463   1.763   4.669  1.00  0.00    -0.332 N 
ATOM     24  C   UNL     1       5.305   1.444   5.813  1.00  0.00     0.147 C 
BRANCH  23  25
ATOM     25  C   UNL     1       3.502   0.695   4.282  1.00  0.00     0.174 C 
BRANCH  25  26
ATOM     26  C   UNL     1       2.272   0.624   5.216  1.00  0.00     0.038 C 
BRANCH  26  27
ATOM     27  C   UNL     1       0.884   0.533   4.542  1.00  0.00    -0.015 C 
ATOM     28  C   UNL     1       0.370   1.894   4.076  1.00  0.00     0.007 C 
ATOM     29  C   UNL     1       0.829  -0.481   3.402  1.00  0.00     0.007 C 
ENDBRANCH  26  27
ENDBRANCH  25  26
BRANCH  25  30
ATOM     30  C   UNL     1       4.241  -0.654   4.123  1.00  0.00     0.243 C 
ATOM     31  O   UNL     1       4.064  -1.587   4.905  1.00  0.00    -0.273 OA
ATOM     32  N   UNL     1       5.105  -0.736   3.062  1.00  0.00    -0.342 N 
ATOM     33  H   UNL     1       5.091   0.027   2.380  1.00  0.00     0.164 HD
BRANCH  32  34
ATOM     34  C   UNL     1       5.910  -1.926   2.774  1.00  0.00     0.175 C 
BRANCH  34  35
ATOM     35  C   UNL     1       6.531  -1.854   1.370  1.00  0.00     0.070 C 
BRANCH  35  36
ATOM     36  C   UNL     1       5.780  -2.685   0.355  1.00  0.00    -0.045 A 
ATOM     37  C   UNL     1       6.246  -3.964   0.012  1.00  0.00     0.007 A 
ATOM     38  C   UNL     1       4.629  -2.189  -0.272  1.00  0.00     0.007 A 
ATOM     39  C   UNL     1       5.567  -4.733  -0.934  1.00  0.00     0.046 A 
ATOM     40  C   UNL     1       3.950  -2.958  -1.220  1.00  0.00     0.046 A 
ATOM     41  C   UNL     1       4.425  -4.225  -1.541  1.00  0.00     0.115 A 
BRANCH  41  42
ATOM     42  O   UNL     1       3.793  -5.007  -2.462  1.00  0.00    -0.508 OA
ATOM     43  H   UNL     1       4.083  -4.730  -3.347  1.00  0.00     0.293 HD
ENDBRANCH  41  42
ENDBRANCH  35  36
ENDBRANCH  34  35
BRANCH  34  44
ATOM     44  C   UNL     1       6.986  -2.055   3.875  1.00  0.00     0.243 C 
ATOM     45  O   UNL     1       8.012  -1.382   3.925  1.00  0.00    -0.273 OA
ATOM     46  N   UNL     1       6.758  -3.100   4.745  1.00  0.00    -0.341 N 
ATOM     47  H   UNL     1       5.954  -3.703   4.593  1.00  0.00     0.164 HD
BRANCH  46  48
ATOM     48  C   UNL     1       7.675  -3.460   5.829  1.00  0.00     0.196 C 
BRANCH  48  49
ATOM     49  C   UNL     1       9.030  -3.937   5.281  1.00  0.00     0.072 C 
BRANCH  49  50
ATOM     50  C   UNL     1       9.346  -5.364   5.671  1.00  0.00    -0.045 A 
ATOM     51  C   UNL     1      10.312  -6.086   4.955  1.00  0.00     0.007 A 
ATOM     52  C   UNL     1       8.673  -5.988   6.728  1.00  0.00     0.007 A 
ATOM     53  C   UNL     1      10.603  -7.407   5.297  1.00  0.00     0.046 A 
ATOM     54  C   UNL     1       8.963  -7.311   7.070  1.00  0.00     0.046 A 
ATOM     55  C   UNL     1       9.927  -8.009   6.351  1.00  0.00     0.115 A 
BRANCH  55  56
ATOM     56  O   UNL     1      10.239  -9.302   6.652  1.00  0.00    -0.508 OA
ATOM     57  H   UNL     1      11.124  -9.492   6.303  1.00  0.00     0.293 HD
ENDBRANCH  55  56
ENDBRANCH  49  50
ENDBRANCH  48  49
BRANCH  48  58
ATOM     58  C   UNL     1       7.886  -2.237   6.732  1.00  0.00     0.326 C 
ATOM     59  O   UNL     1       7.028  -1.511   7.206  1.00  0.00    -0.250 OA
BRANCH  58  60
ATOM     60  O   UNL     1       9.191  -1.991   7.012  1.00  0.00    -0.480 OA
ATOM     61  H   UNL     1       9.226  -2.044   7.992  1.00  0.00     0.296 HD
ENDBRANCH  58  60
ENDBRANCH  48  58
ENDBRANCH  46  48
ENDBRANCH  34  44
ENDBRANCH  32  34
ENDBRANCH  25  30
ENDBRANCH  23  25
ENDBRANCH   2  23
TORSDOF 28
ENDMDL
MODEL 40
REMARK VINA RESULT:    -5.508      4.702      9.064
REMARK INTER + INTRA:         -19.185
REMARK INTER:                 -13.817
REMARK INTRA:                  -5.368
REMARK UNBOUND:                -5.466
REMARK SMILES CCCCCCC[C@H](N)[C@H](O)C(=O)N[C@H](C)C(=O)N(C)[C@H](CC(C)C)C(=O)N[C@@H](Cc1ccc(O)cc1)C(=O)N[C@@H](Cc1ccc(O)cc1)C(=O)O
REMARK SMILES IDX 18 1 17 2 15 3 16 4 14 5 12 6 13 7 10 9 11 10 8 12 9 13 7 16
REMARK SMILES IDX 6 17 5 18 4 19 3 20 2 21 1 22 19 23 20 24 21 25 22 26 23 27
REMARK SMILES IDX 24 28 25 29 26 30 27 31 28 32 29 34 30 35 31 36 32 37 37 38
REMARK SMILES IDX 33 39 36 40 34 41 35 42 38 44 39 45 40 46 41 48 42 49 43 50
REMARK SMILES IDX 44 51 49 52 45 53 48 54 46 55 47 56 50 58 51 59 52 60
REMARK H PARENT 14 8 11 11 9 14 9 15 28 33 35 43 40 47 47 57 52 61
ROOT
ATOM      1  O   UNL     1      -0.017   5.315   7.136  1.00  0.00    -0.272 OA
ATOM      2  C   UNL     1       0.863   4.462   7.327  1.00  0.00     0.245 C 
ENDROOT
BRANCH   2   3
ATOM      3  C   UNL     1       2.310   4.941   7.606  1.00  0.00     0.168 C 
ATOM      4  C   UNL     1       2.717   4.626   9.041  1.00  0.00     0.041 C 
BRANCH   3   5
ATOM      5  N   UNL     1       3.302   4.479   6.648  1.00  0.00    -0.342 N 
ATOM      6  C   UNL     1       3.884   5.332   5.735  1.00  0.00     0.251 C 
ATOM      7  O   UNL     1       3.587   6.517   5.632  1.00  0.00    -0.272 OA
ATOM      8  H   UNL     1       3.603   3.508   6.614  1.00  0.00     0.164 HD
BRANCH   6   9
ATOM      9  C   UNL     1       5.003   4.659   4.922  1.00  0.00     0.219 C 
BRANCH   9  10
ATOM     10  O   UNL     1       5.210   3.292   5.295  1.00  0.00    -0.382 OA
ATOM     11  H   UNL     1       6.181   3.172   5.203  1.00  0.00     0.211 HD
ENDBRANCH   9  10
BRANCH   9  12
ATOM     12  C   UNL     1       4.804   4.789   3.389  1.00  0.00     0.089 C 
BRANCH  12  13
ATOM     13  N   UNL     1       5.728   3.846   2.717  1.00  0.00    -0.325 NA
ATOM     14  H   UNL     1       5.639   2.924   3.148  1.00  0.00     0.119 HD
ATOM     15  H   UNL     1       6.691   4.136   2.904  1.00  0.00     0.119 HD
ENDBRANCH  12  13
BRANCH  12  16
ATOM     16  C   UNL     1       3.361   4.578   2.872  1.00  0.00     0.022 C 
BRANCH  16  17
ATOM     17  C   UNL     1       2.848   5.447   1.716  1.00  0.00     0.002 C 
BRANCH  17  18
ATOM     18  C   UNL     1       2.420   4.674   0.470  1.00  0.00     0.000 C 
BRANCH  18  19
ATOM     19  C   UNL     1       0.933   4.296   0.449  1.00  0.00    -0.000 C 
BRANCH  19  20
ATOM     20  C   UNL     1       0.444   3.654  -0.852  1.00  0.00    -0.000 C 
BRANCH  20  21
ATOM     21  C   UNL     1       1.586   3.162  -1.745  1.00  0.00    -0.003 C 
ATOM     22  C   UNL     1       1.069   2.283  -2.873  1.00  0.00     0.004 C 
ENDBRANCH  20  21
ENDBRANCH  19  20
ENDBRANCH  18  19
ENDBRANCH  17  18
ENDBRANCH  16  17
ENDBRANCH  12  16
ENDBRANCH   9  12
ENDBRANCH   6   9
ENDBRANCH   3   5
ENDBRANCH   2   3
BRANCH   2  23
ATOM     23  N   UNL     1       0.522   3.116   7.410  1.00  0.00    -0.332 N 
ATOM     24  C   UNL     1       0.161   2.430   8.641  1.00  0.00     0.147 C 
BRANCH  23  25
ATOM     25  C   UNL     1       0.379   2.301   6.173  1.00  0.00     0.174 C 
BRANCH  25  26
ATOM     26  C   UNL     1      -0.761   1.259   6.266  1.00  0.00     0.038 C 
BRANCH  26  27
ATOM     27  C   UNL     1      -2.140   1.680   5.713  1.00  0.00    -0.015 C 
ATOM     28  C   UNL     1      -3.244   1.591   6.766  1.00  0.00     0.007 C 
ATOM     29  C   UNL     1      -2.136   3.058   5.055  1.00  0.00     0.007 C 
ENDBRANCH  26  27
ENDBRANCH  25  26
BRANCH  25  30
ATOM     30  C   UNL     1       1.745   1.694   5.776  1.00  0.00     0.243 C 
ATOM     31  O   UNL     1       2.718   1.735   6.527  1.00  0.00    -0.273 OA
ATOM     32  N   UNL     1       1.798   1.115   4.534  1.00  0.00    -0.342 N 
ATOM     33  H   UNL     1       0.916   0.994   4.029  1.00  0.00     0.164 HD
BRANCH  32  34
ATOM     34  C   UNL     1       3.015   0.514   3.981  1.00  0.00     0.175 C 
BRANCH  34  35
ATOM     35  C   UNL     1       3.173  -0.946   4.433  1.00  0.00     0.070 C 
BRANCH  35  36
ATOM     36  C   UNL     1       4.487  -1.200   5.138  1.00  0.00    -0.045 A 
ATOM     37  C   UNL     1       4.802  -2.490   5.590  1.00  0.00     0.007 A 
ATOM     38  C   UNL     1       5.393  -0.157   5.368  1.00  0.00     0.007 A 
ATOM     39  C   UNL     1       6.005  -2.732   6.254  1.00  0.00     0.046 A 
ATOM     40  C   UNL     1       6.597  -0.398   6.034  1.00  0.00     0.046 A 
ATOM     41  C   UNL     1       6.893  -1.685   6.469  1.00  0.00     0.115 A 
BRANCH  41  42
ATOM     42  O   UNL     1       8.056  -1.963   7.124  1.00  0.00    -0.508 OA
ATOM     43  H   UNL     1       7.845  -2.154   8.053  1.00  0.00     0.293 HD
ENDBRANCH  41  42
ENDBRANCH  35  36
ENDBRANCH  34  35
BRANCH  34  44
ATOM     44  C   UNL     1       2.952   0.638   2.441  1.00  0.00     0.243 C 
ATOM     45  O   UNL     1       2.158   1.350   1.834  1.00  0.00    -0.273 OA
ATOM     46  N   UNL     1       3.796  -0.234   1.786  1.00  0.00    -0.341 N 
ATOM     47  H   UNL     1       4.352  -0.888   2.332  1.00  0.00     0.164 HD
BRANCH  46  48
ATOM     48  C   UNL     1       3.863  -0.347   0.327  1.00  0.00     0.196 C 
BRANCH  48  49
ATOM     49  C   UNL     1       5.304  -0.595  -0.150  1.00  0.00     0.072 C 
BRANCH  49  50
ATOM     50  C   UNL     1       6.215  -1.056   0.966  1.00  0.00    -0.045 A 
ATOM     51  C   UNL     1       7.089  -0.145   1.576  1.00  0.00     0.007 A 
ATOM     52  C   UNL     1       6.217  -2.391   1.389  1.00  0.00     0.007 A 
ATOM     53  C   UNL     1       7.943  -0.561   2.597  1.00  0.00     0.046 A 
ATOM     54  C   UNL     1       7.073  -2.808   2.411  1.00  0.00     0.046 A 
ATOM     55  C   UNL     1       7.929  -1.889   3.007  1.00  0.00     0.115 A 
BRANCH  55  56
ATOM     56  O   UNL     1       8.781  -2.256   4.006  1.00  0.00    -0.508 OA
ATOM     57  H   UNL     1       8.264  -2.383   4.818  1.00  0.00     0.293 HD
ENDBRANCH  55  56
ENDBRANCH  49  50
ENDBRANCH  48  49
BRANCH  48  58
ATOM     58  C   UNL     1       2.964  -1.507  -0.125  1.00  0.00     0.326 C 
ATOM     59  O   UNL     1       1.914  -1.869   0.381  1.00  0.00    -0.250 OA
BRANCH  58  60
ATOM     60  O   UNL     1       3.431  -2.158  -1.220  1.00  0.00    -0.480 OA
ATOM     61  H   UNL     1       2.735  -1.995  -1.893  1.00  0.00     0.296 HD
ENDBRANCH  58  60
ENDBRANCH  48  58
ENDBRANCH  46  48
ENDBRANCH  34  44
ENDBRANCH  32  34
ENDBRANCH  25  30
ENDBRANCH  23  25
ENDBRANCH   2  23
TORSDOF 28
ENDMDL
MODEL 41
REMARK VINA RESULT:    -5.497      3.396      6.504
REMARK INTER + INTRA:         -19.156
REMARK INTER:                 -13.166
REMARK INTRA:                  -5.991
REMARK UNBOUND:                -5.466
REMARK SMILES CCCCCCC[C@H](N)[C@H](O)C(=O)N[C@H](C)C(=O)N(C)[C@H](CC(C)C)C(=O)N[C@@H](Cc1ccc(O)cc1)C(=O)N[C@@H](Cc1ccc(O)cc1)C(=O)O
REMARK SMILES IDX 18 1 17 2 15 3 16 4 14 5 12 6 13 7 10 9 11 10 8 12 9 13 7 16
REMARK SMILES IDX 6 17 5 18 4 19 3 20 2 21 1 22 19 23 20 24 21 25 22 26 23 27
REMARK SMILES IDX 24 28 25 29 26 30 27 31 28 32 29 34 30 35 31 36 32 37 37 38
REMARK SMILES IDX 33 39 36 40 34 41 35 42 38 44 39 45 40 46 41 48 42 49 43 50
REMARK SMILES IDX 44 51 49 52 45 53 48 54 46 55 47 56 50 58 51 59 52 60
REMARK H PARENT 14 8 11 11 9 14 9 15 28 33 35 43 40 47 47 57 52 61
ROOT
ATOM      1  O   UNL     1      12.166  -5.182   3.205  1.00  0.00    -0.272 OA
ATOM      2  C   UNL     1      12.834  -4.253   2.728  1.00  0.00     0.245 C 
ENDROOT
BRANCH   2   3
ATOM      3  C   UNL     1      13.412  -3.185   3.691  1.00  0.00     0.168 C 
ATOM      4  C   UNL     1      14.374  -2.258   2.956  1.00  0.00     0.041 C 
BRANCH   3   5
ATOM      5  N   UNL     1      12.416  -2.443   4.448  1.00  0.00    -0.342 N 
ATOM      6  C   UNL     1      12.374  -2.479   5.826  1.00  0.00     0.251 C 
ATOM      7  O   UNL     1      13.132  -3.160   6.508  1.00  0.00    -0.272 OA
ATOM      8  H   UNL     1      11.712  -1.870   3.990  1.00  0.00     0.164 HD
BRANCH   6   9
ATOM      9  C   UNL     1      11.335  -1.511   6.414  1.00  0.00     0.219 C 
BRANCH   9  10
ATOM     10  O   UNL     1      10.662  -2.050   7.558  1.00  0.00    -0.382 OA
ATOM     11  H   UNL     1      10.817  -1.377   8.256  1.00  0.00     0.211 HD
ENDBRANCH   9  10
BRANCH   9  12
ATOM     12  C   UNL     1      11.919  -0.109   6.729  1.00  0.00     0.089 C 
BRANCH  12  13
ATOM     13  N   UNL     1      12.708  -0.202   7.979  1.00  0.00    -0.325 NA
ATOM     14  H   UNL     1      12.269   0.378   8.697  1.00  0.00     0.119 HD
ATOM     15  H   UNL     1      13.627   0.218   7.823  1.00  0.00     0.119 HD
ENDBRANCH  12  13
BRANCH  12  16
ATOM     16  C   UNL     1      12.771   0.538   5.611  1.00  0.00     0.022 C 
BRANCH  16  17
ATOM     17  C   UNL     1      12.093   1.480   4.606  1.00  0.00     0.002 C 
BRANCH  17  18
ATOM     18  C   UNL     1      10.959   0.853   3.798  1.00  0.00     0.000 C 
BRANCH  18  19
ATOM     19  C   UNL     1      11.277   0.680   2.307  1.00  0.00    -0.000 C 
BRANCH  19  20
ATOM     20  C   UNL     1      10.476   1.583   1.363  1.00  0.00    -0.000 C 
BRANCH  20  21
ATOM     21  C   UNL     1       9.008   1.169   1.240  1.00  0.00    -0.003 C 
ATOM     22  C   UNL     1       8.862  -0.344   1.174  1.00  0.00     0.004 C 
ENDBRANCH  20  21
ENDBRANCH  19  20
ENDBRANCH  18  19
ENDBRANCH  17  18
ENDBRANCH  16  17
ENDBRANCH  12  16
ENDBRANCH   9  12
ENDBRANCH   6   9
ENDBRANCH   3   5
ENDBRANCH   2   3
BRANCH   2  23
ATOM     23  N   UNL     1      13.154  -4.250   1.374  1.00  0.00    -0.332 N 
ATOM     24  C   UNL     1      14.322  -4.900   0.800  1.00  0.00     0.147 C 
BRANCH  23  25
ATOM     25  C   UNL     1      12.213  -3.662   0.382  1.00  0.00     0.174 C 
BRANCH  25  26
ATOM     26  C   UNL     1      11.975  -2.150   0.600  1.00  0.00     0.038 C 
BRANCH  26  27
ATOM     27  C   UNL     1      12.412  -1.201  -0.539  1.00  0.00    -0.015 C 
ATOM     28  C   UNL     1      13.716  -1.645  -1.201  1.00  0.00     0.007 C 
ATOM     29  C   UNL     1      11.328  -0.972  -1.589  1.00  0.00     0.007 C 
ENDBRANCH  26  27
ENDBRANCH  25  26
BRANCH  25  30
ATOM     30  C   UNL     1      10.911  -4.495   0.326  1.00  0.00     0.243 C 
ATOM     31  O   UNL     1      10.923  -5.706   0.112  1.00  0.00    -0.273 OA
ATOM     32  N   UNL     1       9.750  -3.794   0.524  1.00  0.00    -0.342 N 
ATOM     33  H   UNL     1       9.830  -2.822   0.836  1.00  0.00     0.164 HD
BRANCH  32  34
ATOM     34  C   UNL     1       8.422  -4.412   0.479  1.00  0.00     0.175 C 
BRANCH  34  35
ATOM     35  C   UNL     1       7.488  -3.810   1.540  1.00  0.00     0.070 C 
BRANCH  35  36
ATOM     36  C   UNL     1       8.004  -4.000   2.949  1.00  0.00    -0.045 A 
ATOM     37  C   UNL     1       8.574  -5.226   3.328  1.00  0.00     0.007 A 
ATOM     38  C   UNL     1       7.902  -2.974   3.897  1.00  0.00     0.007 A 
ATOM     39  C   UNL     1       9.041  -5.415   4.629  1.00  0.00     0.046 A 
ATOM     40  C   UNL     1       8.368  -3.164   5.200  1.00  0.00     0.046 A 
ATOM     41  C   UNL     1       8.934  -4.384   5.554  1.00  0.00     0.115 A 
BRANCH  41  42
ATOM     42  O   UNL     1       9.399  -4.611   6.815  1.00  0.00    -0.508 OA
ATOM     43  H   UNL     1       9.495  -3.755   7.264  1.00  0.00     0.293 HD
ENDBRANCH  41  42
ENDBRANCH  35  36
ENDBRANCH  34  35
BRANCH  34  44
ATOM     44  C   UNL     1       7.860  -4.237  -0.950  1.00  0.00     0.243 C 
ATOM     45  O   UNL     1       7.006  -3.413  -1.264  1.00  0.00    -0.273 OA
ATOM     46  N   UNL     1       8.314  -5.189  -1.838  1.00  0.00    -0.341 N 
ATOM     47  H   UNL     1       8.932  -5.923  -1.502  1.00  0.00     0.164 HD
BRANCH  46  48
ATOM     48  C   UNL     1       7.869  -5.268  -3.232  1.00  0.00     0.196 C 
BRANCH  48  49
ATOM     49  C   UNL     1       8.893  -6.012  -4.105  1.00  0.00     0.072 C 
BRANCH  49  50
ATOM     50  C   UNL     1      10.321  -5.669  -3.748  1.00  0.00    -0.045 A 
ATOM     51  C   UNL     1      11.178  -6.665  -3.255  1.00  0.00     0.007 A 
ATOM     52  C   UNL     1      10.803  -4.360  -3.881  1.00  0.00     0.007 A 
ATOM     53  C   UNL     1      12.494  -6.357  -2.910  1.00  0.00     0.046 A 
ATOM     54  C   UNL     1      12.120  -4.052  -3.534  1.00  0.00     0.046 A 
ATOM     55  C   UNL     1      12.955  -5.054  -3.052  1.00  0.00     0.115 A 
BRANCH  55  56
ATOM     56  O   UNL     1      14.247  -4.794  -2.701  1.00  0.00    -0.508 OA
ATOM     57  H   UNL     1      14.249  -4.069  -2.056  1.00  0.00     0.293 HD
ENDBRANCH  55  56
ENDBRANCH  49  50
ENDBRANCH  48  49
BRANCH  48  58
ATOM     58  C   UNL     1       6.520  -5.998  -3.285  1.00  0.00     0.326 C 
ATOM     59  O   UNL     1       5.489  -5.609  -3.810  1.00  0.00    -0.250 OA
BRANCH  58  60
ATOM     60  O   UNL     1       6.536  -7.210  -2.675  1.00  0.00    -0.480 OA
ATOM     61  H   UNL     1       6.700  -6.988  -1.733  1.00  0.00     0.296 HD
ENDBRANCH  58  60
ENDBRANCH  48  58
ENDBRANCH  46  48
ENDBRANCH  34  44
ENDBRANCH  32  34
ENDBRANCH  25  30
ENDBRANCH  23  25
ENDBRANCH   2  23
TORSDOF 28
ENDMDL
MODEL 42
REMARK VINA RESULT:    -5.494      2.436      6.766
REMARK INTER + INTRA:         -19.150
REMARK INTER:                 -14.729
REMARK INTRA:                  -4.421
REMARK UNBOUND:                -5.466
REMARK SMILES CCCCCCC[C@H](N)[C@H](O)C(=O)N[C@H](C)C(=O)N(C)[C@H](CC(C)C)C(=O)N[C@@H](Cc1ccc(O)cc1)C(=O)N[C@@H](Cc1ccc(O)cc1)C(=O)O
REMARK SMILES IDX 18 1 17 2 15 3 16 4 14 5 12 6 13 7 10 9 11 10 8 12 9 13 7 16
REMARK SMILES IDX 6 17 5 18 4 19 3 20 2 21 1 22 19 23 20 24 21 25 22 26 23 27
REMARK SMILES IDX 24 28 25 29 26 30 27 31 28 32 29 34 30 35 31 36 32 37 37 38
REMARK SMILES IDX 33 39 36 40 34 41 35 42 38 44 39 45 40 46 41 48 42 49 43 50
REMARK SMILES IDX 44 51 49 52 45 53 48 54 46 55 47 56 50 58 51 59 52 60
REMARK H PARENT 14 8 11 11 9 14 9 15 28 33 35 43 40 47 47 57 52 61
ROOT
ATOM      1  O   UNL     1       8.533  -1.213   2.318  1.00  0.00    -0.272 OA
ATOM      2  C   UNL     1       9.454  -2.003   2.572  1.00  0.00     0.245 C 
ENDROOT
BRANCH   2   3
ATOM      3  C   UNL     1      10.845  -1.426   2.936  1.00  0.00     0.168 C 
ATOM      4  C   UNL     1      10.815   0.099   2.938  1.00  0.00     0.041 C 
BRANCH   3   5
ATOM      5  N   UNL     1      11.427  -1.958   4.158  1.00  0.00    -0.342 N 
ATOM      6  C   UNL     1      10.902  -1.671   5.400  1.00  0.00     0.251 C 
ATOM      7  O   UNL     1       9.945  -0.923   5.573  1.00  0.00    -0.272 OA
ATOM      8  H   UNL     1      12.245  -2.563   4.143  1.00  0.00     0.164 HD
BRANCH   6   9
ATOM      9  C   UNL     1      11.588  -2.453   6.531  1.00  0.00     0.219 C 
BRANCH   9  10
ATOM     10  O   UNL     1      10.702  -3.371   7.184  1.00  0.00    -0.382 OA
ATOM     11  H   UNL     1      10.900  -3.244   8.138  1.00  0.00     0.211 HD
ENDBRANCH   9  10
BRANCH   9  12
ATOM     12  C   UNL     1      12.886  -3.170   6.076  1.00  0.00     0.089 C 
BRANCH  12  13
ATOM     13  N   UNL     1      14.001  -2.706   6.932  1.00  0.00    -0.325 NA
ATOM     14  H   UNL     1      14.607  -2.089   6.389  1.00  0.00     0.119 HD
ATOM     15  H   UNL     1      14.587  -3.508   7.176  1.00  0.00     0.119 HD
ENDBRANCH  12  13
BRANCH  12  16
ATOM     16  C   UNL     1      12.836  -4.717   6.059  1.00  0.00     0.022 C 
BRANCH  16  17
ATOM     17  C   UNL     1      12.262  -5.433   4.829  1.00  0.00     0.002 C 
BRANCH  17  18
ATOM     18  C   UNL     1      11.601  -6.779   5.116  1.00  0.00     0.000 C 
BRANCH  18  19
ATOM     19  C   UNL     1      12.411  -7.989   4.631  1.00  0.00    -0.000 C 
BRANCH  19  20
ATOM     20  C   UNL     1      13.531  -8.441   5.572  1.00  0.00    -0.000 C 
BRANCH  20  21
ATOM     21  C   UNL     1      13.089  -8.521   7.036  1.00  0.00    -0.003 C 
ATOM     22  C   UNL     1      14.051  -7.775   7.947  1.00  0.00     0.004 C 
ENDBRANCH  20  21
ENDBRANCH  19  20
ENDBRANCH  18  19
ENDBRANCH  17  18
ENDBRANCH  16  17
ENDBRANCH  12  16
ENDBRANCH   9  12
ENDBRANCH   6   9
ENDBRANCH   3   5
ENDBRANCH   2   3
BRANCH   2  23
ATOM     23  N   UNL     1       9.200  -3.368   2.647  1.00  0.00    -0.332 N 
ATOM     24  C   UNL     1       8.640  -4.041   3.810  1.00  0.00     0.147 C 
BRANCH  23  25
ATOM     25  C   UNL     1       9.377  -4.232   1.448  1.00  0.00     0.174 C 
BRANCH  25  26
ATOM     26  C   UNL     1      10.641  -3.876   0.631  1.00  0.00     0.038 C 
BRANCH  26  27
ATOM     27  C   UNL     1      11.833  -4.855   0.722  1.00  0.00    -0.015 C 
ATOM     28  C   UNL     1      13.022  -4.261   1.477  1.00  0.00     0.007 C 
ATOM     29  C   UNL     1      11.457  -6.217   1.299  1.00  0.00     0.007 C 
ENDBRANCH  26  27
ENDBRANCH  25  26
BRANCH  25  30
ATOM     30  C   UNL     1       8.079  -4.250   0.609  1.00  0.00     0.243 C 
ATOM     31  O   UNL     1       7.282  -5.185   0.664  1.00  0.00    -0.273 OA
ATOM     32  N   UNL     1       7.882  -3.162  -0.202  1.00  0.00    -0.342 N 
ATOM     33  H   UNL     1       8.514  -2.365  -0.088  1.00  0.00     0.164 HD
BRANCH  32  34
ATOM     34  C   UNL     1       6.722  -3.021  -1.087  1.00  0.00     0.175 C 
BRANCH  34  35
ATOM     35  C   UNL     1       6.156  -1.594  -1.044  1.00  0.00     0.070 C 
BRANCH  35  36
ATOM     36  C   UNL     1       4.969  -1.463  -0.116  1.00  0.00    -0.045 A 
ATOM     37  C   UNL     1       5.156  -1.037   1.207  1.00  0.00     0.007 A 
ATOM     38  C   UNL     1       3.677  -1.784  -0.553  1.00  0.00     0.007 A 
ATOM     39  C   UNL     1       4.069  -0.926   2.075  1.00  0.00     0.046 A 
ATOM     40  C   UNL     1       2.588  -1.675   0.315  1.00  0.00     0.046 A 
ATOM     41  C   UNL     1       2.794  -1.246   1.622  1.00  0.00     0.115 A 
BRANCH  41  42
ATOM     42  O   UNL     1       1.759  -1.127   2.502  1.00  0.00    -0.508 OA
ATOM     43  H   UNL     1       1.127  -1.844   2.327  1.00  0.00     0.293 HD
ENDBRANCH  41  42
ENDBRANCH  35  36
ENDBRANCH  34  35
BRANCH  34  44
ATOM     44  C   UNL     1       7.156  -3.427  -2.513  1.00  0.00     0.243 C 
ATOM     45  O   UNL     1       7.021  -2.720  -3.508  1.00  0.00    -0.273 OA
ATOM     46  N   UNL     1       7.601  -4.730  -2.602  1.00  0.00    -0.341 N 
ATOM     47  H   UNL     1       7.585  -5.315  -1.770  1.00  0.00     0.164 HD
BRANCH  46  48
ATOM     48  C   UNL     1       8.001  -5.360  -3.862  1.00  0.00     0.196 C 
BRANCH  48  49
ATOM     49  C   UNL     1       9.149  -6.361  -3.646  1.00  0.00     0.072 C 
BRANCH  49  50
ATOM     50  C   UNL     1      10.473  -5.681  -3.381  1.00  0.00    -0.045 A 
ATOM     51  C   UNL     1      10.627  -4.317  -3.667  1.00  0.00     0.007 A 
ATOM     52  C   UNL     1      11.562  -6.398  -2.869  1.00  0.00     0.007 A 
ATOM     53  C   UNL     1      11.848  -3.681  -3.438  1.00  0.00     0.046 A 
ATOM     54  C   UNL     1      12.784  -5.762  -2.642  1.00  0.00     0.046 A 
ATOM     55  C   UNL     1      12.916  -4.407  -2.927  1.00  0.00     0.115 A 
BRANCH  55  56
ATOM     56  O   UNL     1      14.092  -3.749  -2.720  1.00  0.00    -0.508 OA
ATOM     57  H   UNL     1      13.893  -2.879  -2.339  1.00  0.00     0.293 HD
ENDBRANCH  55  56
ENDBRANCH  49  50
ENDBRANCH  48  49
BRANCH  48  58
ATOM     58  C   UNL     1       6.791  -6.087  -4.464  1.00  0.00     0.326 C 
ATOM     59  O   UNL     1       5.611  -5.869  -4.239  1.00  0.00    -0.250 OA
BRANCH  58  60
ATOM     60  O   UNL     1       7.128  -7.060  -5.347  1.00  0.00    -0.480 OA
ATOM     61  H   UNL     1       6.386  -7.048  -5.990  1.00  0.00     0.296 HD
ENDBRANCH  58  60
ENDBRANCH  48  58
ENDBRANCH  46  48
ENDBRANCH  34  44
ENDBRANCH  32  34
ENDBRANCH  25  30
ENDBRANCH  23  25
ENDBRANCH   2  23
TORSDOF 28
ENDMDL
MODEL 43
REMARK VINA RESULT:    -5.423      2.391      7.438
REMARK INTER + INTRA:         -18.973
REMARK INTER:                 -13.376
REMARK INTRA:                  -5.597
REMARK UNBOUND:                -5.466
REMARK SMILES CCCCCCC[C@H](N)[C@H](O)C(=O)N[C@H](C)C(=O)N(C)[C@H](CC(C)C)C(=O)N[C@@H](Cc1ccc(O)cc1)C(=O)N[C@@H](Cc1ccc(O)cc1)C(=O)O
REMARK SMILES IDX 18 1 17 2 15 3 16 4 14 5 12 6 13 7 10 9 11 10 8 12 9 13 7 16
REMARK SMILES IDX 6 17 5 18 4 19 3 20 2 21 1 22 19 23 20 24 21 25 22 26 23 27
REMARK SMILES IDX 24 28 25 29 26 30 27 31 28 32 29 34 30 35 31 36 32 37 37 38
REMARK SMILES IDX 33 39 36 40 34 41 35 42 38 44 39 45 40 46 41 48 42 49 43 50
REMARK SMILES IDX 44 51 49 52 45 53 48 54 46 55 47 56 50 58 51 59 52 60
REMARK H PARENT 14 8 11 11 9 14 9 15 28 33 35 43 40 47 47 57 52 61
ROOT
ATOM      1  O   UNL     1       8.530  -7.074   3.945  1.00  0.00    -0.272 OA
ATOM      2  C   UNL     1       9.574  -6.784   4.547  1.00  0.00     0.245 C 
ENDROOT
BRANCH   2   3
ATOM      3  C   UNL     1      10.898  -7.450   4.095  1.00  0.00     0.168 C 
ATOM      4  C   UNL     1      10.963  -8.900   4.562  1.00  0.00     0.041 C 
BRANCH   3   5
ATOM      5  N   UNL     1      11.192  -7.324   2.676  1.00  0.00    -0.342 N 
ATOM      6  C   UNL     1      12.017  -6.331   2.189  1.00  0.00     0.251 C 
ATOM      7  O   UNL     1      12.524  -5.466   2.895  1.00  0.00    -0.272 OA
ATOM      8  H   UNL     1      10.801  -7.963   1.989  1.00  0.00     0.164 HD
BRANCH   6   9
ATOM      9  C   UNL     1      12.298  -6.478   0.685  1.00  0.00     0.219 C 
BRANCH   9  10
ATOM     10  O   UNL     1      12.460  -7.844   0.284  1.00  0.00    -0.382 OA
ATOM     11  H   UNL     1      11.570  -8.234   0.430  1.00  0.00     0.211 HD
ENDBRANCH   9  10
BRANCH   9  12
ATOM     12  C   UNL     1      11.247  -5.764  -0.204  1.00  0.00     0.089 C 
BRANCH  12  13
ATOM     13  N   UNL     1      10.168  -5.249   0.670  1.00  0.00    -0.325 NA
ATOM     14  H   UNL     1       9.374  -4.965   0.092  1.00  0.00     0.119 HD
ATOM     15  H   UNL     1      10.489  -4.390   1.123  1.00  0.00     0.119 HD
ENDBRANCH  12  13
BRANCH  12  16
ATOM     16  C   UNL     1      11.783  -4.629  -1.110  1.00  0.00     0.022 C 
BRANCH  16  17
ATOM     17  C   UNL     1      13.256  -4.213  -0.992  1.00  0.00     0.002 C 
BRANCH  17  18
ATOM     18  C   UNL     1      13.512  -2.992  -0.110  1.00  0.00     0.000 C 
BRANCH  18  19
ATOM     19  C   UNL     1      12.238  -2.253   0.319  1.00  0.00    -0.000 C 
BRANCH  19  20
ATOM     20  C   UNL     1      12.009  -2.178   1.831  1.00  0.00    -0.000 C 
BRANCH  20  21
ATOM     21  C   UNL     1      13.302  -1.969   2.624  1.00  0.00    -0.003 C 
ATOM     22  C   UNL     1      13.419  -0.539   3.128  1.00  0.00     0.004 C 
ENDBRANCH  20  21
ENDBRANCH  19  20
ENDBRANCH  18  19
ENDBRANCH  17  18
ENDBRANCH  16  17
ENDBRANCH  12  16
ENDBRANCH   9  12
ENDBRANCH   6   9
ENDBRANCH   3   5
ENDBRANCH   2   3
BRANCH   2  23
ATOM     23  N   UNL     1       9.564  -5.792   5.521  1.00  0.00    -0.332 N 
ATOM     24  C   UNL     1       9.538  -6.042   6.955  1.00  0.00     0.147 C 
BRANCH  23  25
ATOM     25  C   UNL     1       9.711  -4.361   5.137  1.00  0.00     0.174 C 
BRANCH  25  26
ATOM     26  C   UNL     1      10.422  -3.517   6.221  1.00  0.00     0.038 C 
BRANCH  26  27
ATOM     27  C   UNL     1      11.690  -2.747   5.788  1.00  0.00    -0.015 C 
ATOM     28  C   UNL     1      11.771  -1.356   6.414  1.00  0.00     0.007 C 
ATOM     29  C   UNL     1      12.983  -3.522   6.031  1.00  0.00     0.007 C 
ENDBRANCH  26  27
ENDBRANCH  25  26
BRANCH  25  30
ATOM     30  C   UNL     1       8.345  -3.785   4.698  1.00  0.00     0.243 C 
ATOM     31  O   UNL     1       7.303  -4.056   5.293  1.00  0.00    -0.273 OA
ATOM     32  N   UNL     1       8.374  -2.960   3.603  1.00  0.00    -0.342 N 
ATOM     33  H   UNL     1       9.290  -2.671   3.252  1.00  0.00     0.164 HD
BRANCH  32  34
ATOM     34  C   UNL     1       7.173  -2.346   3.030  1.00  0.00     0.175 C 
BRANCH  34  35
ATOM     35  C   UNL     1       7.108  -0.844   3.347  1.00  0.00     0.070 C 
BRANCH  35  36
ATOM     36  C   UNL     1       5.721  -0.390   3.741  1.00  0.00    -0.045 A 
ATOM     37  C   UNL     1       5.051   0.572   2.969  1.00  0.00     0.007 A 
ATOM     38  C   UNL     1       5.095  -0.899   4.887  1.00  0.00     0.007 A 
ATOM     39  C   UNL     1       3.777   1.008   3.333  1.00  0.00     0.046 A 
ATOM     40  C   UNL     1       3.820  -0.462   5.252  1.00  0.00     0.046 A 
ATOM     41  C   UNL     1       3.171   0.487   4.470  1.00  0.00     0.115 A 
BRANCH  41  42
ATOM     42  O   UNL     1       1.927   0.942   4.792  1.00  0.00    -0.508 OA
ATOM     43  H   UNL     1       1.922   1.909   4.698  1.00  0.00     0.293 HD
ENDBRANCH  41  42
ENDBRANCH  35  36
ENDBRANCH  34  35
BRANCH  34  44
ATOM     44  C   UNL     1       7.177  -2.616   1.508  1.00  0.00     0.243 C 
ATOM     45  O   UNL     1       8.190  -2.807   0.840  1.00  0.00    -0.273 OA
ATOM     46  N   UNL     1       5.933  -2.494   0.926  1.00  0.00    -0.341 N 
ATOM     47  H   UNL     1       5.143  -2.219   1.503  1.00  0.00     0.164 HD
BRANCH  46  48
ATOM     48  C   UNL     1       5.700  -2.637  -0.513  1.00  0.00     0.196 C 
BRANCH  48  49
ATOM     49  C   UNL     1       5.226  -4.057  -0.865  1.00  0.00     0.072 C 
BRANCH  49  50
ATOM     50  C   UNL     1       6.098  -4.719  -1.907  1.00  0.00    -0.045 A 
ATOM     51  C   UNL     1       5.546  -5.105  -3.138  1.00  0.00     0.007 A 
ATOM     52  C   UNL     1       7.452  -4.976  -1.657  1.00  0.00     0.007 A 
ATOM     53  C   UNL     1       6.338  -5.729  -4.102  1.00  0.00     0.046 A 
ATOM     54  C   UNL     1       8.245  -5.601  -2.623  1.00  0.00     0.046 A 
ATOM     55  C   UNL     1       7.680  -5.972  -3.838  1.00  0.00     0.115 A 
BRANCH  55  56
ATOM     56  O   UNL     1       8.419  -6.585  -4.806  1.00  0.00    -0.508 OA
ATOM     57  H   UNL     1       9.034  -7.202  -4.377  1.00  0.00     0.293 HD
ENDBRANCH  55  56
ENDBRANCH  49  50
ENDBRANCH  48  49
BRANCH  48  58
ATOM     58  C   UNL     1       4.639  -1.617  -0.950  1.00  0.00     0.326 C 
ATOM     59  O   UNL     1       4.726  -0.400  -0.920  1.00  0.00    -0.250 OA
BRANCH  58  60
ATOM     60  O   UNL     1       3.504  -2.188  -1.427  1.00  0.00    -0.480 OA
ATOM     61  H   UNL     1       3.664  -3.149  -1.303  1.00  0.00     0.296 HD
ENDBRANCH  58  60
ENDBRANCH  48  58
ENDBRANCH  46  48
ENDBRANCH  34  44
ENDBRANCH  32  34
ENDBRANCH  25  30
ENDBRANCH  23  25
ENDBRANCH   2  23
TORSDOF 28
ENDMDL
MODEL 44
REMARK VINA RESULT:    -5.405      2.137      8.405
REMARK INTER + INTRA:         -18.929
REMARK INTER:                 -14.387
REMARK INTRA:                  -4.542
REMARK UNBOUND:                -5.466
REMARK SMILES CCCCCCC[C@H](N)[C@H](O)C(=O)N[C@H](C)C(=O)N(C)[C@H](CC(C)C)C(=O)N[C@@H](Cc1ccc(O)cc1)C(=O)N[C@@H](Cc1ccc(O)cc1)C(=O)O
REMARK SMILES IDX 18 1 17 2 15 3 16 4 14 5 12 6 13 7 10 9 11 10 8 12 9 13 7 16
REMARK SMILES IDX 6 17 5 18 4 19 3 20 2 21 1 22 19 23 20 24 21 25 22 26 23 27
REMARK SMILES IDX 24 28 25 29 26 30 27 31 28 32 29 34 30 35 31 36 32 37 37 38
REMARK SMILES IDX 33 39 36 40 34 41 35 42 38 44 39 45 40 46 41 48 42 49 43 50
REMARK SMILES IDX 44 51 49 52 45 53 48 54 46 55 47 56 50 58 51 59 52 60
REMARK H PARENT 14 8 11 11 9 14 9 15 28 33 35 43 40 47 47 57 52 61
ROOT
ATOM      1  O   UNL     1       9.660  -3.576   4.707  1.00  0.00    -0.272 OA
ATOM      2  C   UNL     1      10.556  -3.968   3.946  1.00  0.00     0.245 C 
ENDROOT
BRANCH   2   3
ATOM      3  C   UNL     1      10.460  -5.401   3.364  1.00  0.00     0.168 C 
ATOM      4  C   UNL     1       9.007  -5.853   3.276  1.00  0.00     0.041 C 
BRANCH   3   5
ATOM      5  N   UNL     1      11.167  -5.599   2.109  1.00  0.00    -0.342 N 
ATOM      6  C   UNL     1      12.290  -6.395   2.024  1.00  0.00     0.251 C 
ATOM      7  O   UNL     1      12.798  -6.954   2.990  1.00  0.00    -0.272 OA
ATOM      8  H   UNL     1      10.860  -5.158   1.245  1.00  0.00     0.164 HD
BRANCH   6   9
ATOM      9  C   UNL     1      12.784  -6.573   0.579  1.00  0.00     0.219 C 
BRANCH   9  10
ATOM     10  O   UNL     1      12.331  -7.797  -0.013  1.00  0.00    -0.382 OA
ATOM     11  H   UNL     1      12.269  -8.413   0.750  1.00  0.00     0.211 HD
ENDBRANCH   9  10
BRANCH   9  12
ATOM     12  C   UNL     1      12.450  -5.364  -0.333  1.00  0.00     0.089 C 
BRANCH  12  13
ATOM     13  N   UNL     1      12.928  -4.131   0.332  1.00  0.00    -0.325 NA
ATOM     14  H   UNL     1      13.911  -4.246   0.586  1.00  0.00     0.119 HD
ATOM     15  H   UNL     1      12.434  -4.021   1.221  1.00  0.00     0.119 HD
ENDBRANCH  12  13
BRANCH  12  16
ATOM     16  C   UNL     1      12.996  -5.434  -1.779  1.00  0.00     0.022 C 
BRANCH  16  17
ATOM     17  C   UNL     1      12.034  -5.201  -2.953  1.00  0.00     0.002 C 
BRANCH  17  18
ATOM     18  C   UNL     1      10.965  -6.277  -3.133  1.00  0.00     0.000 C 
BRANCH  18  19
ATOM     19  C   UNL     1       9.527  -5.742  -3.089  1.00  0.00    -0.000 C 
BRANCH  19  20
ATOM     20  C   UNL     1       8.789  -5.751  -4.431  1.00  0.00    -0.000 C 
BRANCH  20  21
ATOM     21  C   UNL     1       8.840  -4.402  -5.152  1.00  0.00    -0.003 C 
ATOM     22  C   UNL     1       7.868  -3.407  -4.537  1.00  0.00     0.004 C 
ENDBRANCH  20  21
ENDBRANCH  19  20
ENDBRANCH  18  19
ENDBRANCH  17  18
ENDBRANCH  16  17
ENDBRANCH  12  16
ENDBRANCH   9  12
ENDBRANCH   6   9
ENDBRANCH   3   5
ENDBRANCH   2   3
BRANCH   2  23
ATOM     23  N   UNL     1      11.553  -3.090   3.534  1.00  0.00    -0.332 N 
ATOM     24  C   UNL     1      12.966  -3.237   3.852  1.00  0.00     0.147 C 
BRANCH  23  25
ATOM     25  C   UNL     1      11.233  -1.974   2.603  1.00  0.00     0.174 C 
BRANCH  25  26
ATOM     26  C   UNL     1      11.218  -0.593   3.300  1.00  0.00     0.038 C 
BRANCH  26  27
ATOM     27  C   UNL     1      11.422  -0.580   4.831  1.00  0.00    -0.015 C 
ATOM     28  C   UNL     1      12.618   0.273   5.254  1.00  0.00     0.007 C 
ATOM     29  C   UNL     1      10.172  -0.174   5.607  1.00  0.00     0.007 C 
ENDBRANCH  26  27
ENDBRANCH  25  26
BRANCH  25  30
ATOM     30  C   UNL     1       9.938  -2.289   1.820  1.00  0.00     0.243 C 
ATOM     31  O   UNL     1       9.948  -2.964   0.791  1.00  0.00    -0.273 OA
ATOM     32  N   UNL     1       8.785  -1.763   2.343  1.00  0.00    -0.342 N 
ATOM     33  H   UNL     1       8.839  -1.336   3.272  1.00  0.00     0.164 HD
BRANCH  32  34
ATOM     34  C   UNL     1       7.470  -1.936   1.721  1.00  0.00     0.175 C 
BRANCH  34  35
ATOM     35  C   UNL     1       7.088  -3.421   1.625  1.00  0.00     0.070 C 
BRANCH  35  36
ATOM     36  C   UNL     1       6.392  -3.763   0.327  1.00  0.00    -0.045 A 
ATOM     37  C   UNL     1       6.848  -4.838  -0.452  1.00  0.00     0.007 A 
ATOM     38  C   UNL     1       5.304  -3.005  -0.127  1.00  0.00     0.007 A 
ATOM     39  C   UNL     1       6.220  -5.152  -1.657  1.00  0.00     0.046 A 
ATOM     40  C   UNL     1       4.676  -3.319  -1.334  1.00  0.00     0.046 A 
ATOM     41  C   UNL     1       5.140  -4.392  -2.089  1.00  0.00     0.115 A 
BRANCH  41  42
ATOM     42  O   UNL     1       4.557  -4.731  -3.274  1.00  0.00    -0.508 OA
ATOM     43  H   UNL     1       5.123  -5.386  -3.715  1.00  0.00     0.293 HD
ENDBRANCH  41  42
ENDBRANCH  35  36
ENDBRANCH  34  35
BRANCH  34  44
ATOM     44  C   UNL     1       6.441  -1.127   2.543  1.00  0.00     0.243 C 
ATOM     45  O   UNL     1       5.651  -0.319   2.064  1.00  0.00    -0.273 OA
ATOM     46  N   UNL     1       6.573  -1.295   3.905  1.00  0.00    -0.341 N 
ATOM     47  H   UNL     1       7.321  -1.887   4.260  1.00  0.00     0.164 HD
BRANCH  46  48
ATOM     48  C   UNL     1       5.756  -0.581   4.889  1.00  0.00     0.196 C 
BRANCH  48  49
ATOM     49  C   UNL     1       4.483  -1.371   5.239  1.00  0.00     0.072 C 
BRANCH  49  50
ATOM     50  C   UNL     1       3.236  -0.755   4.647  1.00  0.00    -0.045 A 
ATOM     51  C   UNL     1       2.813   0.513   5.071  1.00  0.00     0.007 A 
ATOM     52  C   UNL     1       2.477  -1.442   3.691  1.00  0.00     0.007 A 
ATOM     53  C   UNL     1       1.656   1.085   4.541  1.00  0.00     0.046 A 
ATOM     54  C   UNL     1       1.318  -0.870   3.161  1.00  0.00     0.046 A 
ATOM     55  C   UNL     1       0.918   0.390   3.591  1.00  0.00     0.115 A 
BRANCH  55  56
ATOM     56  O   UNL     1      -0.208   0.984   3.100  1.00  0.00    -0.508 OA
ATOM     57  H   UNL     1      -0.041   1.241   2.180  1.00  0.00     0.293 HD
ENDBRANCH  55  56
ENDBRANCH  49  50
ENDBRANCH  48  49
BRANCH  48  58
ATOM     58  C   UNL     1       6.587  -0.355   6.159  1.00  0.00     0.326 C 
ATOM     59  O   UNL     1       6.776   0.702   6.740  1.00  0.00    -0.250 OA
BRANCH  58  60
ATOM     60  O   UNL     1       7.139  -1.491   6.654  1.00  0.00    -0.480 OA
ATOM     61  H   UNL     1       6.358  -2.045   6.873  1.00  0.00     0.296 HD
ENDBRANCH  58  60
ENDBRANCH  48  58
ENDBRANCH  46  48
ENDBRANCH  34  44
ENDBRANCH  32  34
ENDBRANCH  25  30
ENDBRANCH  23  25
ENDBRANCH   2  23
TORSDOF 28
ENDMDL
MODEL 45
REMARK VINA RESULT:    -5.394      2.001      2.886
REMARK INTER + INTRA:         -18.901
REMARK INTER:                 -14.741
REMARK INTRA:                  -4.160
REMARK UNBOUND:                -5.466
REMARK SMILES CCCCCCC[C@H](N)[C@H](O)C(=O)N[C@H](C)C(=O)N(C)[C@H](CC(C)C)C(=O)N[C@@H](Cc1ccc(O)cc1)C(=O)N[C@@H](Cc1ccc(O)cc1)C(=O)O
REMARK SMILES IDX 18 1 17 2 15 3 16 4 14 5 12 6 13 7 10 9 11 10 8 12 9 13 7 16
REMARK SMILES IDX 6 17 5 18 4 19 3 20 2 21 1 22 19 23 20 24 21 25 22 26 23 27
REMARK SMILES IDX 24 28 25 29 26 30 27 31 28 32 29 34 30 35 31 36 32 37 37 38
REMARK SMILES IDX 33 39 36 40 34 41 35 42 38 44 39 45 40 46 41 48 42 49 43 50
REMARK SMILES IDX 44 51 49 52 45 53 48 54 46 55 47 56 50 58 51 59 52 60
REMARK H PARENT 14 8 11 11 9 14 9 15 28 33 35 43 40 47 47 57 52 61
ROOT
ATOM      1  O   UNL     1       7.502  -1.933   3.625  1.00  0.00    -0.272 OA
ATOM      2  C   UNL     1       7.848  -2.022   4.813  1.00  0.00     0.245 C 
ENDROOT
BRANCH   2   3
ATOM      3  C   UNL     1       7.640  -0.797   5.738  1.00  0.00     0.168 C 
ATOM      4  C   UNL     1       8.979  -0.228   6.193  1.00  0.00     0.041 C 
BRANCH   3   5
ATOM      5  N   UNL     1       6.768   0.235   5.199  1.00  0.00    -0.342 N 
ATOM      6  C   UNL     1       5.406   0.221   5.412  1.00  0.00     0.251 C 
ATOM      7  O   UNL     1       4.826  -0.668   6.026  1.00  0.00    -0.272 OA
ATOM      8  H   UNL     1       7.130   1.007   4.643  1.00  0.00     0.164 HD
BRANCH   6   9
ATOM      9  C   UNL     1       4.707   1.481   4.873  1.00  0.00     0.219 C 
BRANCH   9  10
ATOM     10  O   UNL     1       4.157   1.290   3.564  1.00  0.00    -0.382 OA
ATOM     11  H   UNL     1       4.455   2.085   3.070  1.00  0.00     0.211 HD
ENDBRANCH   9  10
BRANCH   9  12
ATOM     12  C   UNL     1       3.638   2.046   5.844  1.00  0.00     0.089 C 
BRANCH  12  13
ATOM     13  N   UNL     1       4.312   2.449   7.099  1.00  0.00    -0.325 NA
ATOM     14  H   UNL     1       5.322   2.468   6.947  1.00  0.00     0.119 HD
ATOM     15  H   UNL     1       4.162   1.722   7.803  1.00  0.00     0.119 HD
ENDBRANCH  12  13
BRANCH  12  16
ATOM     16  C   UNL     1       2.781   3.215   5.302  1.00  0.00     0.022 C 
BRANCH  16  17
ATOM     17  C   UNL     1       1.345   2.935   4.836  1.00  0.00     0.002 C 
BRANCH  17  18
ATOM     18  C   UNL     1       0.789   1.573   5.244  1.00  0.00     0.000 C 
BRANCH  18  19
ATOM     19  C   UNL     1      -0.141   1.617   6.464  1.00  0.00    -0.000 C 
BRANCH  19  20
ATOM     20  C   UNL     1      -1.632   1.746   6.139  1.00  0.00    -0.000 C 
BRANCH  20  21
ATOM     21  C   UNL     1      -2.438   2.394   7.269  1.00  0.00    -0.003 C 
ATOM     22  C   UNL     1      -3.913   2.038   7.172  1.00  0.00     0.004 C 
ENDBRANCH  20  21
ENDBRANCH  19  20
ENDBRANCH  18  19
ENDBRANCH  17  18
ENDBRANCH  16  17
ENDBRANCH  12  16
ENDBRANCH   9  12
ENDBRANCH   6   9
ENDBRANCH   3   5
ENDBRANCH   2   3
BRANCH   2  23
ATOM     23  N   UNL     1       8.295  -3.238   5.319  1.00  0.00    -0.332 N 
ATOM     24  C   UNL     1       7.610  -4.006   6.348  1.00  0.00     0.147 C 
BRANCH  23  25
ATOM     25  C   UNL     1       9.482  -3.909   4.721  1.00  0.00     0.174 C 
BRANCH  25  26
ATOM     26  C   UNL     1      10.687  -2.956   4.545  1.00  0.00     0.038 C 
BRANCH  26  27
ATOM     27  C   UNL     1      12.083  -3.522   4.890  1.00  0.00    -0.015 C 
ATOM     28  C   UNL     1      13.027  -3.520   3.688  1.00  0.00     0.007 C 
ATOM     29  C   UNL     1      12.737  -2.838   6.088  1.00  0.00     0.007 C 
ENDBRANCH  26  27
ENDBRANCH  25  26
BRANCH  25  30
ATOM     30  C   UNL     1       9.079  -4.647   3.424  1.00  0.00     0.243 C 
ATOM     31  O   UNL     1       8.387  -5.664   3.443  1.00  0.00    -0.273 OA
ATOM     32  N   UNL     1       9.547  -4.097   2.258  1.00  0.00    -0.342 N 
ATOM     33  H   UNL     1       9.993  -3.178   2.314  1.00  0.00     0.164 HD
BRANCH  32  34
ATOM     34  C   UNL     1       9.287  -4.677   0.938  1.00  0.00     0.175 C 
BRANCH  34  35
ATOM     35  C   UNL     1       8.971  -3.587  -0.098  1.00  0.00     0.070 C 
BRANCH  35  36
ATOM     36  C   UNL     1       7.704  -3.868  -0.874  1.00  0.00    -0.045 A 
ATOM     37  C   UNL     1       7.169  -5.165  -0.899  1.00  0.00     0.007 A 
ATOM     38  C   UNL     1       7.061  -2.852  -1.594  1.00  0.00     0.007 A 
ATOM     39  C   UNL     1       6.008  -5.437  -1.624  1.00  0.00     0.046 A 
ATOM     40  C   UNL     1       5.899  -3.124  -2.320  1.00  0.00     0.046 A 
ATOM     41  C   UNL     1       5.383  -4.415  -2.327  1.00  0.00     0.115 A 
BRANCH  41  42
ATOM     42  O   UNL     1       4.252  -4.724  -3.025  1.00  0.00    -0.508 OA
ATOM     43  H   UNL     1       3.887  -5.549  -2.664  1.00  0.00     0.293 HD
ENDBRANCH  41  42
ENDBRANCH  35  36
ENDBRANCH  34  35
BRANCH  34  44
ATOM     44  C   UNL     1      10.519  -5.517   0.533  1.00  0.00     0.243 C 
ATOM     45  O   UNL     1      11.196  -6.178   1.316  1.00  0.00    -0.273 OA
ATOM     46  N   UNL     1      10.882  -5.359  -0.788  1.00  0.00    -0.341 N 
ATOM     47  H   UNL     1      10.359  -4.708  -1.369  1.00  0.00     0.164 HD
BRANCH  46  48
ATOM     48  C   UNL     1      12.056  -6.001  -1.383  1.00  0.00     0.196 C 
BRANCH  48  49
ATOM     49  C   UNL     1      11.769  -6.470  -2.820  1.00  0.00     0.072 C 
BRANCH  49  50
ATOM     50  C   UNL     1      10.639  -5.702  -3.468  1.00  0.00    -0.045 A 
ATOM     51  C   UNL     1       9.438  -6.356  -3.778  1.00  0.00     0.007 A 
ATOM     52  C   UNL     1      10.780  -4.346  -3.786  1.00  0.00     0.007 A 
ATOM     53  C   UNL     1       8.393  -5.661  -4.388  1.00  0.00     0.046 A 
ATOM     54  C   UNL     1       9.734  -3.650  -4.398  1.00  0.00     0.046 A 
ATOM     55  C   UNL     1       8.549  -4.314  -4.693  1.00  0.00     0.115 A 
BRANCH  55  56
ATOM     56  O   UNL     1       7.505  -3.672  -5.291  1.00  0.00    -0.508 OA
ATOM     57  H   UNL     1       7.816  -2.807  -5.601  1.00  0.00     0.293 HD
ENDBRANCH  55  56
ENDBRANCH  49  50
ENDBRANCH  48  49
BRANCH  48  58
ATOM     58  C   UNL     1      13.221  -5.002  -1.392  1.00  0.00     0.326 C 
ATOM     59  O   UNL     1      13.288  -3.939  -0.796  1.00  0.00    -0.250 OA
BRANCH  58  60
ATOM     60  O   UNL     1      14.272  -5.402  -2.151  1.00  0.00    -0.480 OA
ATOM     61  H   UNL     1      14.941  -4.699  -2.000  1.00  0.00     0.296 HD
ENDBRANCH  58  60
ENDBRANCH  48  58
ENDBRANCH  46  48
ENDBRANCH  34  44
ENDBRANCH  32  34
ENDBRANCH  25  30
ENDBRANCH  23  25
ENDBRANCH   2  23
TORSDOF 28
ENDMDL
MODEL 46
REMARK VINA RESULT:    -5.384      2.019      3.318
REMARK INTER + INTRA:         -18.877
REMARK INTER:                 -14.777
REMARK INTRA:                  -4.100
REMARK UNBOUND:                -5.466
REMARK SMILES CCCCCCC[C@H](N)[C@H](O)C(=O)N[C@H](C)C(=O)N(C)[C@H](CC(C)C)C(=O)N[C@@H](Cc1ccc(O)cc1)C(=O)N[C@@H](Cc1ccc(O)cc1)C(=O)O
REMARK SMILES IDX 18 1 17 2 15 3 16 4 14 5 12 6 13 7 10 9 11 10 8 12 9 13 7 16
REMARK SMILES IDX 6 17 5 18 4 19 3 20 2 21 1 22 19 23 20 24 21 25 22 26 23 27
REMARK SMILES IDX 24 28 25 29 26 30 27 31 28 32 29 34 30 35 31 36 32 37 37 38
REMARK SMILES IDX 33 39 36 40 34 41 35 42 38 44 39 45 40 46 41 48 42 49 43 50
REMARK SMILES IDX 44 51 49 52 45 53 48 54 46 55 47 56 50 58 51 59 52 60
REMARK H PARENT 14 8 11 11 9 14 9 15 28 33 35 43 40 47 47 57 52 61
ROOT
ATOM      1  O   UNL     1       7.644  -4.708   4.549  1.00  0.00    -0.272 OA
ATOM      2  C   UNL     1       7.825  -3.539   4.921  1.00  0.00     0.245 C 
ENDROOT
BRANCH   2   3
ATOM      3  C   UNL     1       6.614  -2.738   5.462  1.00  0.00     0.168 C 
ATOM      4  C   UNL     1       6.973  -2.025   6.761  1.00  0.00     0.041 C 
BRANCH   3   5
ATOM      5  N   UNL     1       5.999  -1.836   4.501  1.00  0.00    -0.342 N 
ATOM      6  C   UNL     1       4.631  -1.767   4.339  1.00  0.00     0.251 C 
ATOM      7  O   UNL     1       3.841  -2.478   4.951  1.00  0.00    -0.272 OA
ATOM      8  H   UNL     1       6.554  -1.222   3.910  1.00  0.00     0.164 HD
BRANCH   6   9
ATOM      9  C   UNL     1       4.202  -0.649   3.376  1.00  0.00     0.219 C 
BRANCH   9  10
ATOM     10  O   UNL     1       3.960  -1.126   2.047  1.00  0.00    -0.382 OA
ATOM     11  H   UNL     1       3.988  -0.310   1.500  1.00  0.00     0.211 HD
ENDBRANCH   9  10
BRANCH   9  12
ATOM     12  C   UNL     1       2.992   0.171   3.896  1.00  0.00     0.089 C 
BRANCH  12  13
ATOM     13  N   UNL     1       1.786  -0.687   3.834  1.00  0.00    -0.325 NA
ATOM     14  H   UNL     1       2.029  -1.631   4.139  1.00  0.00     0.119 HD
ATOM     15  H   UNL     1       1.501  -0.788   2.857  1.00  0.00     0.119 HD
ENDBRANCH  12  13
BRANCH  12  16
ATOM     16  C   UNL     1       3.141   0.777   5.312  1.00  0.00     0.022 C 
BRANCH  16  17
ATOM     17  C   UNL     1       2.112   1.809   5.794  1.00  0.00     0.002 C 
BRANCH  17  18
ATOM     18  C   UNL     1       2.026   3.078   4.948  1.00  0.00     0.000 C 
BRANCH  18  19
ATOM     19  C   UNL     1       1.239   4.217   5.609  1.00  0.00    -0.000 C 
BRANCH  19  20
ATOM     20  C   UNL     1       1.254   4.215   7.141  1.00  0.00    -0.000 C 
BRANCH  20  21
ATOM     21  C   UNL     1       2.515   4.855   7.728  1.00  0.00    -0.003 C 
ATOM     22  C   UNL     1       2.756   6.239   7.146  1.00  0.00     0.004 C 
ENDBRANCH  20  21
ENDBRANCH  19  20
ENDBRANCH  18  19
ENDBRANCH  17  18
ENDBRANCH  16  17
ENDBRANCH  12  16
ENDBRANCH   9  12
ENDBRANCH   6   9
ENDBRANCH   3   5
ENDBRANCH   2   3
BRANCH   2  23
ATOM     23  N   UNL     1       9.111  -3.012   4.961  1.00  0.00    -0.332 N 
ATOM     24  C   UNL     1      10.129  -3.392   5.929  1.00  0.00     0.147 C 
BRANCH  23  25
ATOM     25  C   UNL     1       9.577  -2.086   3.893  1.00  0.00     0.174 C 
BRANCH  25  26
ATOM     26  C   UNL     1       9.338  -0.598   4.240  1.00  0.00     0.038 C 
BRANCH  26  27
ATOM     27  C   UNL     1      10.476   0.141   4.979  1.00  0.00    -0.015 C 
ATOM     28  C   UNL     1      10.235   0.228   6.486  1.00  0.00     0.007 C 
ATOM     29  C   UNL     1      11.861  -0.432   4.689  1.00  0.00     0.007 C 
ENDBRANCH  26  27
ENDBRANCH  25  26
BRANCH  25  30
ATOM     30  C   UNL     1       8.988  -2.508   2.527  1.00  0.00     0.243 C 
ATOM     31  O   UNL     1       7.946  -2.021   2.091  1.00  0.00    -0.273 OA
ATOM     32  N   UNL     1       9.698  -3.461   1.844  1.00  0.00    -0.342 N 
ATOM     33  H   UNL     1      10.622  -3.712   2.204  1.00  0.00     0.164 HD
BRANCH  32  34
ATOM     34  C   UNL     1       9.275  -4.000   0.548  1.00  0.00     0.175 C 
BRANCH  34  35
ATOM     35  C   UNL     1       8.731  -2.893  -0.367  1.00  0.00     0.070 C 
BRANCH  35  36
ATOM     36  C   UNL     1       7.553  -3.348  -1.199  1.00  0.00    -0.045 A 
ATOM     37  C   UNL     1       6.990  -4.615  -0.983  1.00  0.00     0.007 A 
ATOM     38  C   UNL     1       7.024  -2.529  -2.205  1.00  0.00     0.007 A 
ATOM     39  C   UNL     1       5.912  -5.049  -1.755  1.00  0.00     0.046 A 
ATOM     40  C   UNL     1       5.945  -2.963  -2.979  1.00  0.00     0.046 A 
ATOM     41  C   UNL     1       5.398  -4.220  -2.745  1.00  0.00     0.115 A 
BRANCH  41  42
ATOM     42  O   UNL     1       4.346  -4.684  -3.479  1.00  0.00    -0.508 OA
ATOM     43  H   UNL     1       3.816  -3.921  -3.766  1.00  0.00     0.293 HD
ENDBRANCH  41  42
ENDBRANCH  35  36
ENDBRANCH  34  35
BRANCH  34  44
ATOM     44  C   UNL     1      10.482  -4.731  -0.083  1.00  0.00     0.243 C 
ATOM     45  O   UNL     1      11.067  -5.679   0.433  1.00  0.00    -0.273 OA
ATOM     46  N   UNL     1      10.940  -4.135  -1.239  1.00  0.00    -0.341 N 
ATOM     47  H   UNL     1      10.495  -3.281  -1.565  1.00  0.00     0.164 HD
BRANCH  46  48
ATOM     48  C   UNL     1      12.113  -4.607  -1.978  1.00  0.00     0.196 C 
BRANCH  48  49
ATOM     49  C   UNL     1      11.909  -4.473  -3.497  1.00  0.00     0.072 C 
BRANCH  49  50
ATOM     50  C   UNL     1      10.527  -4.899  -3.938  1.00  0.00    -0.045 A 
ATOM     51  C   UNL     1       9.745  -4.034  -4.716  1.00  0.00     0.007 A 
ATOM     52  C   UNL     1      10.002  -6.142  -3.563  1.00  0.00     0.007 A 
ATOM     53  C   UNL     1       8.463  -4.410  -5.118  1.00  0.00     0.046 A 
ATOM     54  C   UNL     1       8.718  -6.518  -3.964  1.00  0.00     0.046 A 
ATOM     55  C   UNL     1       7.960  -5.649  -4.740  1.00  0.00     0.115 A 
BRANCH  55  56
ATOM     56  O   UNL     1       6.702  -5.978  -5.152  1.00  0.00    -0.508 OA
ATOM     57  H   UNL     1       6.080  -5.759  -4.440  1.00  0.00     0.293 HD
ENDBRANCH  55  56
ENDBRANCH  49  50
ENDBRANCH  48  49
BRANCH  48  58
ATOM     58  C   UNL     1      13.338  -3.787  -1.549  1.00  0.00     0.326 C 
ATOM     59  O   UNL     1      13.694  -3.531  -0.410  1.00  0.00    -0.250 OA
BRANCH  58  60
ATOM     60  O   UNL     1      14.077  -3.331  -2.592  1.00  0.00    -0.480 OA
ATOM     61  H   UNL     1      13.545  -3.589  -3.375  1.00  0.00     0.296 HD
ENDBRANCH  58  60
ENDBRANCH  48  58
ENDBRANCH  46  48
ENDBRANCH  34  44
ENDBRANCH  32  34
ENDBRANCH  25  30
ENDBRANCH  23  25
ENDBRANCH   2  23
TORSDOF 28
ENDMDL
MODEL 47
REMARK VINA RESULT:    -5.327      2.260      6.149
REMARK INTER + INTRA:         -18.733
REMARK INTER:                 -12.772
REMARK INTRA:                  -5.961
REMARK UNBOUND:                -5.466
REMARK SMILES CCCCCCC[C@H](N)[C@H](O)C(=O)N[C@H](C)C(=O)N(C)[C@H](CC(C)C)C(=O)N[C@@H](Cc1ccc(O)cc1)C(=O)N[C@@H](Cc1ccc(O)cc1)C(=O)O
REMARK SMILES IDX 18 1 17 2 15 3 16 4 14 5 12 6 13 7 10 9 11 10 8 12 9 13 7 16
REMARK SMILES IDX 6 17 5 18 4 19 3 20 2 21 1 22 19 23 20 24 21 25 22 26 23 27
REMARK SMILES IDX 24 28 25 29 26 30 27 31 28 32 29 34 30 35 31 36 32 37 37 38
REMARK SMILES IDX 33 39 36 40 34 41 35 42 38 44 39 45 40 46 41 48 42 49 43 50
REMARK SMILES IDX 44 51 49 52 45 53 48 54 46 55 47 56 50 58 51 59 52 60
REMARK H PARENT 14 8 11 11 9 14 9 15 28 33 35 43 40 47 47 57 52 61
ROOT
ATOM      1  O   UNL     1       6.039   0.165   3.210  1.00  0.00    -0.272 OA
ATOM      2  C   UNL     1       6.849  -0.767   3.321  1.00  0.00     0.245 C 
ENDROOT
BRANCH   2   3
ATOM      3  C   UNL     1       6.719  -1.720   4.535  1.00  0.00     0.168 C 
ATOM      4  C   UNL     1       5.257  -2.064   4.800  1.00  0.00     0.041 C 
BRANCH   3   5
ATOM      5  N   UNL     1       7.552  -2.911   4.470  1.00  0.00    -0.342 N 
ATOM      6  C   UNL     1       8.329  -3.315   5.535  1.00  0.00     0.251 C 
ATOM      7  O   UNL     1       8.410  -2.692   6.588  1.00  0.00    -0.272 OA
ATOM      8  H   UNL     1       7.595  -3.490   3.635  1.00  0.00     0.164 HD
BRANCH   6   9
ATOM      9  C   UNL     1       9.011  -4.671   5.292  1.00  0.00     0.219 C 
BRANCH   9  10
ATOM     10  O   UNL     1       8.287  -5.497   4.372  1.00  0.00    -0.382 OA
ATOM     11  H   UNL     1       8.536  -5.136   3.492  1.00  0.00     0.211 HD
ENDBRANCH   9  10
BRANCH   9  12
ATOM     12  C   UNL     1      10.496  -4.537   4.861  1.00  0.00     0.089 C 
BRANCH  12  13
ATOM     13  N   UNL     1      10.573  -3.567   3.745  1.00  0.00    -0.325 NA
ATOM     14  H   UNL     1      11.141  -2.768   4.032  1.00  0.00     0.119 HD
ATOM     15  H   UNL     1       9.640  -3.184   3.574  1.00  0.00     0.119 HD
ENDBRANCH  12  13
BRANCH  12  16
ATOM     16  C   UNL     1      11.492  -4.143   5.977  1.00  0.00     0.022 C 
BRANCH  16  17
ATOM     17  C   UNL     1      12.978  -3.977   5.628  1.00  0.00     0.002 C 
BRANCH  17  18
ATOM     18  C   UNL     1      13.678  -2.813   6.325  1.00  0.00     0.000 C 
BRANCH  18  19
ATOM     19  C   UNL     1      12.741  -1.660   6.709  1.00  0.00    -0.000 C 
BRANCH  19  20
ATOM     20  C   UNL     1      12.448  -0.660   5.587  1.00  0.00    -0.000 C 
BRANCH  20  21
ATOM     21  C   UNL     1      10.961  -0.316   5.463  1.00  0.00    -0.003 C 
ATOM     22  C   UNL     1      10.413   0.248   6.765  1.00  0.00     0.004 C 
ENDBRANCH  20  21
ENDBRANCH  19  20
ENDBRANCH  18  19
ENDBRANCH  17  18
ENDBRANCH  16  17
ENDBRANCH  12  16
ENDBRANCH   9  12
ENDBRANCH   6   9
ENDBRANCH   3   5
ENDBRANCH   2   3
BRANCH   2  23
ATOM     23  N   UNL     1       7.769  -1.013   2.308  1.00  0.00    -0.332 N 
ATOM     24  C   UNL     1       9.177  -0.647   2.365  1.00  0.00     0.147 C 
BRANCH  23  25
ATOM     25  C   UNL     1       7.377  -1.811   1.114  1.00  0.00     0.174 C 
BRANCH  25  26
ATOM     26  C   UNL     1       5.847  -2.012   1.001  1.00  0.00     0.038 C 
BRANCH  26  27
ATOM     27  C   UNL     1       5.273  -2.227  -0.417  1.00  0.00    -0.015 C 
ATOM     28  C   UNL     1       3.750  -2.108  -0.455  1.00  0.00     0.007 C 
ATOM     29  C   UNL     1       5.909  -1.326  -1.473  1.00  0.00     0.007 C 
ENDBRANCH  26  27
ENDBRANCH  25  26
BRANCH  25  30
ATOM     30  C   UNL     1       8.182  -3.130   1.067  1.00  0.00     0.243 C 
ATOM     31  O   UNL     1       8.049  -4.004   1.923  1.00  0.00    -0.273 OA
ATOM     32  N   UNL     1       9.054  -3.255   0.016  1.00  0.00    -0.342 N 
ATOM     33  H   UNL     1       9.005  -2.553  -0.726  1.00  0.00     0.164 HD
BRANCH  32  34
ATOM     34  C   UNL     1       9.918  -4.424  -0.174  1.00  0.00     0.175 C 
BRANCH  34  35
ATOM     35  C   UNL     1       9.758  -5.013  -1.583  1.00  0.00     0.070 C 
BRANCH  35  36
ATOM     36  C   UNL     1       8.346  -4.895  -2.110  1.00  0.00    -0.045 A 
ATOM     37  C   UNL     1       7.298  -5.571  -1.467  1.00  0.00     0.007 A 
ATOM     38  C   UNL     1       8.066  -4.135  -3.253  1.00  0.00     0.007 A 
ATOM     39  C   UNL     1       5.994  -5.480  -1.953  1.00  0.00     0.046 A 
ATOM     40  C   UNL     1       6.760  -4.044  -3.742  1.00  0.00     0.046 A 
ATOM     41  C   UNL     1       5.735  -4.717  -3.086  1.00  0.00     0.115 A 
BRANCH  41  42
ATOM     42  O   UNL     1       4.448  -4.656  -3.531  1.00  0.00    -0.508 OA
ATOM     43  H   UNL     1       4.061  -3.817  -3.229  1.00  0.00     0.293 HD
ENDBRANCH  41  42
ENDBRANCH  35  36
ENDBRANCH  34  35
BRANCH  34  44
ATOM     44  C   UNL     1      11.375  -3.994   0.111  1.00  0.00     0.243 C 
ATOM     45  O   UNL     1      11.989  -3.152  -0.538  1.00  0.00    -0.273 OA
ATOM     46  N   UNL     1      11.985  -4.741   1.096  1.00  0.00    -0.341 N 
ATOM     47  H   UNL     1      11.471  -5.507   1.525  1.00  0.00     0.164 HD
BRANCH  46  48
ATOM     48  C   UNL     1      13.384  -4.564   1.492  1.00  0.00     0.196 C 
BRANCH  48  49
ATOM     49  C   UNL     1      14.343  -5.064   0.399  1.00  0.00     0.072 C 
BRANCH  49  50
ATOM     50  C   UNL     1      14.003  -6.457  -0.080  1.00  0.00    -0.045 A 
ATOM     51  C   UNL     1      13.615  -6.663  -1.412  1.00  0.00     0.007 A 
ATOM     52  C   UNL     1      14.048  -7.551   0.793  1.00  0.00     0.007 A 
ATOM     53  C   UNL     1      13.285  -7.941  -1.863  1.00  0.00     0.046 A 
ATOM     54  C   UNL     1      13.718  -8.831   0.342  1.00  0.00     0.046 A 
ATOM     55  C   UNL     1      13.340  -9.015  -0.983  1.00  0.00     0.115 A 
BRANCH  55  56
ATOM     56  O   UNL     1      13.008 -10.248  -1.462  1.00  0.00    -0.508 OA
ATOM     57  H   UNL     1      12.428 -10.132  -2.231  1.00  0.00     0.293 HD
ENDBRANCH  55  56
ENDBRANCH  49  50
ENDBRANCH  48  49
BRANCH  48  58
ATOM     58  C   UNL     1      13.641  -3.074   1.760  1.00  0.00     0.326 C 
ATOM     59  O   UNL     1      13.131  -2.380   2.624  1.00  0.00    -0.250 OA
BRANCH  58  60
ATOM     60  O   UNL     1      14.556  -2.524   0.923  1.00  0.00    -0.480 OA
ATOM     61  H   UNL     1      14.839  -3.282   0.367  1.00  0.00     0.296 HD
ENDBRANCH  58  60
ENDBRANCH  48  58
ENDBRANCH  46  48
ENDBRANCH  34  44
ENDBRANCH  32  34
ENDBRANCH  25  30
ENDBRANCH  23  25
ENDBRANCH   2  23
TORSDOF 28
ENDMDL
MODEL 48
REMARK VINA RESULT:    -5.323      2.305      6.926
REMARK INTER + INTRA:         -18.724
REMARK INTER:                 -12.831
REMARK INTRA:                  -5.893
REMARK UNBOUND:                -5.466
REMARK SMILES CCCCCCC[C@H](N)[C@H](O)C(=O)N[C@H](C)C(=O)N(C)[C@H](CC(C)C)C(=O)N[C@@H](Cc1ccc(O)cc1)C(=O)N[C@@H](Cc1ccc(O)cc1)C(=O)O
REMARK SMILES IDX 18 1 17 2 15 3 16 4 14 5 12 6 13 7 10 9 11 10 8 12 9 13 7 16
REMARK SMILES IDX 6 17 5 18 4 19 3 20 2 21 1 22 19 23 20 24 21 25 22 26 23 27
REMARK SMILES IDX 24 28 25 29 26 30 27 31 28 32 29 34 30 35 31 36 32 37 37 38
REMARK SMILES IDX 33 39 36 40 34 41 35 42 38 44 39 45 40 46 41 48 42 49 43 50
REMARK SMILES IDX 44 51 49 52 45 53 48 54 46 55 47 56 50 58 51 59 52 60
REMARK H PARENT 14 8 11 11 9 14 9 15 28 33 35 43 40 47 47 57 52 61
ROOT
ATOM      1  O   UNL     1       7.318  -4.326   4.780  1.00  0.00    -0.272 OA
ATOM      2  C   UNL     1       8.215  -3.886   5.514  1.00  0.00     0.245 C 
ENDROOT
BRANCH   2   3
ATOM      3  C   UNL     1       8.603  -4.696   6.776  1.00  0.00     0.168 C 
ATOM      4  C   UNL     1       7.379  -5.372   7.383  1.00  0.00     0.041 C 
BRANCH   3   5
ATOM      5  N   UNL     1       9.702  -5.630   6.589  1.00  0.00    -0.342 N 
ATOM      6  C   UNL     1       9.515  -6.867   6.009  1.00  0.00     0.251 C 
ATOM      7  O   UNL     1       8.420  -7.288   5.651  1.00  0.00    -0.272 OA
ATOM      8  H   UNL     1      10.651  -5.407   6.879  1.00  0.00     0.164 HD
BRANCH   6   9
ATOM      9  C   UNL     1      10.834  -7.624   5.783  1.00  0.00     0.219 C 
BRANCH   9  10
ATOM     10  O   UNL     1      10.908  -8.842   6.534  1.00  0.00    -0.382 OA
ATOM     11  H   UNL     1      10.075  -9.308   6.300  1.00  0.00     0.211 HD
ENDBRANCH   9  10
BRANCH   9  12
ATOM     12  C   UNL     1      11.139  -7.881   4.285  1.00  0.00     0.089 C 
BRANCH  12  13
ATOM     13  N   UNL     1      10.315  -9.024   3.829  1.00  0.00    -0.325 NA
ATOM     14  H   UNL     1      10.754  -9.449   3.011  1.00  0.00     0.119 HD
ATOM     15  H   UNL     1       9.415  -8.670   3.495  1.00  0.00     0.119 HD
ENDBRANCH  12  13
BRANCH  12  16
ATOM     16  C   UNL     1      10.945  -6.674   3.336  1.00  0.00     0.022 C 
BRANCH  16  17
ATOM     17  C   UNL     1      11.759  -6.607   2.036  1.00  0.00     0.002 C 
BRANCH  17  18
ATOM     18  C   UNL     1      11.535  -5.349   1.200  1.00  0.00     0.000 C 
BRANCH  18  19
ATOM     19  C   UNL     1      10.780  -5.598  -0.113  1.00  0.00    -0.000 C 
BRANCH  19  20
ATOM     20  C   UNL     1      11.523  -5.168  -1.381  1.00  0.00    -0.000 C 
BRANCH  20  21
ATOM     21  C   UNL     1      11.411  -6.189  -2.516  1.00  0.00    -0.003 C 
ATOM     22  C   UNL     1      12.556  -7.189  -2.477  1.00  0.00     0.004 C 
ENDBRANCH  20  21
ENDBRANCH  19  20
ENDBRANCH  18  19
ENDBRANCH  17  18
ENDBRANCH  16  17
ENDBRANCH  12  16
ENDBRANCH   9  12
ENDBRANCH   6   9
ENDBRANCH   3   5
ENDBRANCH   2   3
BRANCH   2  23
ATOM     23  N   UNL     1       8.932  -2.756   5.135  1.00  0.00    -0.332 N 
ATOM     24  C   UNL     1       8.679  -1.412   5.633  1.00  0.00     0.147 C 
BRANCH  23  25
ATOM     25  C   UNL     1      10.129  -2.885   4.259  1.00  0.00     0.174 C 
BRANCH  25  26
ATOM     26  C   UNL     1      11.366  -2.143   4.817  1.00  0.00     0.038 C 
BRANCH  26  27
ATOM     27  C   UNL     1      12.698  -2.927   4.847  1.00  0.00    -0.015 C 
ATOM     28  C   UNL     1      12.578  -4.254   5.595  1.00  0.00     0.007 C 
ATOM     29  C   UNL     1      13.306  -3.142   3.464  1.00  0.00     0.007 C 
ENDBRANCH  26  27
ENDBRANCH  25  26
BRANCH  25  30
ATOM     30  C   UNL     1       9.771  -2.491   2.808  1.00  0.00     0.243 C 
ATOM     31  O   UNL     1      10.510  -1.783   2.125  1.00  0.00    -0.273 OA
ATOM     32  N   UNL     1       8.577  -2.976   2.339  1.00  0.00    -0.342 N 
ATOM     33  H   UNL     1       8.089  -3.669   2.912  1.00  0.00     0.164 HD
BRANCH  32  34
ATOM     34  C   UNL     1       8.063  -2.682   0.998  1.00  0.00     0.175 C 
BRANCH  34  35
ATOM     35  C   UNL     1       7.256  -3.863   0.438  1.00  0.00     0.070 C 
BRANCH  35  36
ATOM     36  C   UNL     1       7.624  -4.199  -0.990  1.00  0.00    -0.045 A 
ATOM     37  C   UNL     1       8.196  -3.219  -1.815  1.00  0.00     0.007 A 
ATOM     38  C   UNL     1       7.380  -5.475  -1.514  1.00  0.00     0.007 A 
ATOM     39  C   UNL     1       8.526  -3.515  -3.138  1.00  0.00     0.046 A 
ATOM     40  C   UNL     1       7.709  -5.771  -2.839  1.00  0.00     0.046 A 
ATOM     41  C   UNL     1       8.281  -4.788  -3.639  1.00  0.00     0.115 A 
BRANCH  41  42
ATOM     42  O   UNL     1       8.616  -5.035  -4.938  1.00  0.00    -0.508 OA
ATOM     43  H   UNL     1       8.598  -5.996  -5.079  1.00  0.00     0.293 HD
ENDBRANCH  41  42
ENDBRANCH  35  36
ENDBRANCH  34  35
BRANCH  34  44
ATOM     44  C   UNL     1       7.217  -1.392   1.081  1.00  0.00     0.243 C 
ATOM     45  O   UNL     1       7.672  -0.278   1.326  1.00  0.00    -0.273 OA
ATOM     46  N   UNL     1       5.860  -1.619   0.984  1.00  0.00    -0.341 N 
ATOM     47  H   UNL     1       5.524  -2.575   0.899  1.00  0.00     0.164 HD
BRANCH  46  48
ATOM     48  C   UNL     1       4.856  -0.559   1.102  1.00  0.00     0.196 C 
BRANCH  48  49
ATOM     49  C   UNL     1       3.993  -0.462  -0.167  1.00  0.00     0.072 C 
BRANCH  49  50
ATOM     50  C   UNL     1       4.172  -1.649  -1.085  1.00  0.00    -0.045 A 
ATOM     51  C   UNL     1       4.778  -1.478  -2.338  1.00  0.00     0.007 A 
ATOM     52  C   UNL     1       3.722  -2.922  -0.714  1.00  0.00     0.007 A 
ATOM     53  C   UNL     1       4.937  -2.564  -3.200  1.00  0.00     0.046 A 
ATOM     54  C   UNL     1       3.880  -4.009  -1.577  1.00  0.00     0.046 A 
ATOM     55  C   UNL     1       4.488  -3.820  -2.813  1.00  0.00     0.115 A 
BRANCH  55  56
ATOM     56  O   UNL     1       4.661  -4.855  -3.685  1.00  0.00    -0.508 OA
ATOM     57  H   UNL     1       3.907  -5.459  -3.595  1.00  0.00     0.293 HD
ENDBRANCH  55  56
ENDBRANCH  49  50
ENDBRANCH  48  49
BRANCH  48  58
ATOM     58  C   UNL     1       3.960  -0.854   2.313  1.00  0.00     0.326 C 
ATOM     59  O   UNL     1       2.761  -1.086   2.307  1.00  0.00    -0.250 OA
BRANCH  58  60
ATOM     60  O   UNL     1       4.629  -0.859   3.493  1.00  0.00    -0.480 OA
ATOM     61  H   UNL     1       5.158  -1.684   3.450  1.00  0.00     0.296 HD
ENDBRANCH  58  60
ENDBRANCH  48  58
ENDBRANCH  46  48
ENDBRANCH  34  44
ENDBRANCH  32  34
ENDBRANCH  25  30
ENDBRANCH  23  25
ENDBRANCH   2  23
TORSDOF 28
ENDMDL
MODEL 49
REMARK VINA RESULT:    -5.322      2.549      6.757
REMARK INTER + INTRA:         -18.723
REMARK INTER:                 -13.232
REMARK INTRA:                  -5.491
REMARK UNBOUND:                -5.466
REMARK SMILES CCCCCCC[C@H](N)[C@H](O)C(=O)N[C@H](C)C(=O)N(C)[C@H](CC(C)C)C(=O)N[C@@H](Cc1ccc(O)cc1)C(=O)N[C@@H](Cc1ccc(O)cc1)C(=O)O
REMARK SMILES IDX 18 1 17 2 15 3 16 4 14 5 12 6 13 7 10 9 11 10 8 12 9 13 7 16
REMARK SMILES IDX 6 17 5 18 4 19 3 20 2 21 1 22 19 23 20 24 21 25 22 26 23 27
REMARK SMILES IDX 24 28 25 29 26 30 27 31 28 32 29 34 30 35 31 36 32 37 37 38
REMARK SMILES IDX 33 39 36 40 34 41 35 42 38 44 39 45 40 46 41 48 42 49 43 50
REMARK SMILES IDX 44 51 49 52 45 53 48 54 46 55 47 56 50 58 51 59 52 60
REMARK H PARENT 14 8 11 11 9 14 9 15 28 33 35 43 40 47 47 57 52 61
ROOT
ATOM      1  O   UNL     1       8.197  -1.394   6.732  1.00  0.00    -0.272 OA
ATOM      2  C   UNL     1       8.757  -2.396   6.264  1.00  0.00     0.245 C 
ENDROOT
BRANCH   2   3
ATOM      3  C   UNL     1       8.065  -3.773   6.420  1.00  0.00     0.168 C 
ATOM      4  C   UNL     1       6.557  -3.607   6.571  1.00  0.00     0.041 C 
BRANCH   3   5
ATOM      5  N   UNL     1       8.404  -4.747   5.394  1.00  0.00    -0.342 N 
ATOM      6  C   UNL     1       9.228  -5.821   5.654  1.00  0.00     0.251 C 
ATOM      7  O   UNL     1       9.765  -6.015   6.739  1.00  0.00    -0.272 OA
ATOM      8  H   UNL     1       8.046  -4.672   4.445  1.00  0.00     0.164 HD
BRANCH   6   9
ATOM      9  C   UNL     1       9.330  -6.792   4.467  1.00  0.00     0.219 C 
BRANCH   9  10
ATOM     10  O   UNL     1       8.438  -6.455   3.398  1.00  0.00    -0.382 OA
ATOM     11  H   UNL     1       8.927  -5.766   2.897  1.00  0.00     0.211 HD
ENDBRANCH   9  10
BRANCH   9  12
ATOM     12  C   UNL     1      10.780  -6.961   3.941  1.00  0.00     0.089 C 
BRANCH  12  13
ATOM     13  N   UNL     1      11.063  -8.408   3.807  1.00  0.00    -0.325 NA
ATOM     14  H   UNL     1      10.827  -8.879   4.682  1.00  0.00     0.119 HD
ATOM     15  H   UNL     1      12.071  -8.540   3.696  1.00  0.00     0.119 HD
ENDBRANCH  12  13
BRANCH  12  16
ATOM     16  C   UNL     1      11.111  -6.230   2.618  1.00  0.00     0.022 C 
BRANCH  16  17
ATOM     17  C   UNL     1      12.137  -6.848   1.659  1.00  0.00     0.002 C 
BRANCH  17  18
ATOM     18  C   UNL     1      12.302  -6.114   0.330  1.00  0.00     0.000 C 
BRANCH  18  19
ATOM     19  C   UNL     1      10.995  -5.540  -0.233  1.00  0.00    -0.000 C 
BRANCH  19  20
ATOM     20  C   UNL     1      11.054  -4.064  -0.636  1.00  0.00    -0.000 C 
BRANCH  20  21
ATOM     21  C   UNL     1      10.336  -3.143   0.354  1.00  0.00    -0.003 C 
ATOM     22  C   UNL     1       9.955  -1.821  -0.295  1.00  0.00     0.004 C 
ENDBRANCH  20  21
ENDBRANCH  19  20
ENDBRANCH  18  19
ENDBRANCH  17  18
ENDBRANCH  16  17
ENDBRANCH  12  16
ENDBRANCH   9  12
ENDBRANCH   6   9
ENDBRANCH   3   5
ENDBRANCH   2   3
BRANCH   2  23
ATOM     23  N   UNL     1       9.919  -2.255   5.512  1.00  0.00    -0.332 N 
ATOM     24  C   UNL     1      11.217  -2.794   5.889  1.00  0.00     0.147 C 
BRANCH  23  25
ATOM     25  C   UNL     1       9.868  -1.629   4.162  1.00  0.00     0.174 C 
BRANCH  25  26
ATOM     26  C   UNL     1      10.264  -0.134   4.177  1.00  0.00     0.038 C 
BRANCH  26  27
ATOM     27  C   UNL     1      11.336   0.317   3.160  1.00  0.00    -0.015 C 
ATOM     28  C   UNL     1      12.227  -0.837   2.700  1.00  0.00     0.007 C 
ATOM     29  C   UNL     1      10.759   1.062   1.959  1.00  0.00     0.007 C 
ENDBRANCH  26  27
ENDBRANCH  25  26
BRANCH  25  30
ATOM     30  C   UNL     1       8.499  -1.903   3.499  1.00  0.00     0.243 C 
ATOM     31  O   UNL     1       8.180  -3.024   3.105  1.00  0.00    -0.273 OA
ATOM     32  N   UNL     1       7.671  -0.817   3.376  1.00  0.00    -0.342 N 
ATOM     33  H   UNL     1       7.947   0.045   3.854  1.00  0.00     0.164 HD
BRANCH  32  34
ATOM     34  C   UNL     1       6.348  -0.884   2.750  1.00  0.00     0.175 C 
BRANCH  34  35
ATOM     35  C   UNL     1       5.565   0.421   2.958  1.00  0.00     0.070 C 
BRANCH  35  36
ATOM     36  C   UNL     1       4.107   0.183   3.283  1.00  0.00    -0.045 A 
ATOM     37  C   UNL     1       3.640  -1.123   3.495  1.00  0.00     0.007 A 
ATOM     38  C   UNL     1       3.202   1.250   3.353  1.00  0.00     0.007 A 
ATOM     39  C   UNL     1       2.294  -1.354   3.781  1.00  0.00     0.046 A 
ATOM     40  C   UNL     1       1.854   1.020   3.638  1.00  0.00     0.046 A 
ATOM     41  C   UNL     1       1.413  -0.282   3.851  1.00  0.00     0.115 A 
BRANCH  41  42
ATOM     42  O   UNL     1       0.105  -0.551   4.130  1.00  0.00    -0.508 OA
ATOM     43  H   UNL     1      -0.433  -0.267   3.372  1.00  0.00     0.293 HD
ENDBRANCH  41  42
ENDBRANCH  35  36
ENDBRANCH  34  35
BRANCH  34  44
ATOM     44  C   UNL     1       6.544  -1.206   1.251  1.00  0.00     0.243 C 
ATOM     45  O   UNL     1       6.883  -0.386   0.403  1.00  0.00    -0.273 OA
ATOM     46  N   UNL     1       6.174  -2.491   0.914  1.00  0.00    -0.341 N 
ATOM     47  H   UNL     1       5.788  -3.099   1.632  1.00  0.00     0.164 HD
BRANCH  46  48
ATOM     48  C   UNL     1       6.207  -3.006  -0.457  1.00  0.00     0.196 C 
BRANCH  48  49
ATOM     49  C   UNL     1       6.940  -4.355  -0.531  1.00  0.00     0.072 C 
BRANCH  49  50
ATOM     50  C   UNL     1       7.285  -4.753  -1.949  1.00  0.00    -0.045 A 
ATOM     51  C   UNL     1       7.990  -3.864  -2.772  1.00  0.00     0.007 A 
ATOM     52  C   UNL     1       6.891  -5.994  -2.465  1.00  0.00     0.007 A 
ATOM     53  C   UNL     1       8.302  -4.214  -4.086  1.00  0.00     0.046 A 
ATOM     54  C   UNL     1       7.202  -6.344  -3.781  1.00  0.00     0.046 A 
ATOM     55  C   UNL     1       7.907  -5.451  -4.580  1.00  0.00     0.115 A 
BRANCH  55  56
ATOM     56  O   UNL     1       8.230  -5.754  -5.870  1.00  0.00    -0.508 OA
ATOM     57  H   UNL     1       8.734  -6.583  -5.872  1.00  0.00     0.293 HD
ENDBRANCH  55  56
ENDBRANCH  49  50
ENDBRANCH  48  49
BRANCH  48  58
ATOM     58  C   UNL     1       4.767  -3.173  -0.962  1.00  0.00     0.326 C 
ATOM     59  O   UNL     1       4.133  -4.212  -1.055  1.00  0.00    -0.250 OA
BRANCH  58  60
ATOM     60  O   UNL     1       4.178  -2.004  -1.317  1.00  0.00    -0.480 OA
ATOM     61  H   UNL     1       3.623  -1.784  -0.538  1.00  0.00     0.296 HD
ENDBRANCH  58  60
ENDBRANCH  48  58
ENDBRANCH  46  48
ENDBRANCH  34  44
ENDBRANCH  32  34
ENDBRANCH  25  30
ENDBRANCH  23  25
ENDBRANCH   2  23
TORSDOF 28
ENDMDL
MODEL 50
REMARK VINA RESULT:    -5.310      1.998      5.262
REMARK INTER + INTRA:         -18.693
REMARK INTER:                 -14.313
REMARK INTRA:                  -4.380
REMARK UNBOUND:                -5.466
REMARK SMILES CCCCCCC[C@H](N)[C@H](O)C(=O)N[C@H](C)C(=O)N(C)[C@H](CC(C)C)C(=O)N[C@@H](Cc1ccc(O)cc1)C(=O)N[C@@H](Cc1ccc(O)cc1)C(=O)O
REMARK SMILES IDX 18 1 17 2 15 3 16 4 14 5 12 6 13 7 10 9 11 10 8 12 9 13 7 16
REMARK SMILES IDX 6 17 5 18 4 19 3 20 2 21 1 22 19 23 20 24 21 25 22 26 23 27
REMARK SMILES IDX 24 28 25 29 26 30 27 31 28 32 29 34 30 35 31 36 32 37 37 38
REMARK SMILES IDX 33 39 36 40 34 41 35 42 38 44 39 45 40 46 41 48 42 49 43 50
REMARK SMILES IDX 44 51 49 52 45 53 48 54 46 55 47 56 50 58 51 59 52 60
REMARK H PARENT 14 8 11 11 9 14 9 15 28 33 35 43 40 47 47 57 52 61
ROOT
ATOM      1  O   UNL     1       8.335  -1.929   3.130  1.00  0.00    -0.272 OA
ATOM      2  C   UNL     1       8.757  -2.048   4.290  1.00  0.00     0.245 C 
ENDROOT
BRANCH   2   3
ATOM      3  C   UNL     1       8.257  -1.051   5.366  1.00  0.00     0.168 C 
ATOM      4  C   UNL     1       9.386  -0.131   5.817  1.00  0.00     0.041 C 
BRANCH   3   5
ATOM      5  N   UNL     1       7.063  -0.305   5.000  1.00  0.00    -0.342 N 
ATOM      6  C   UNL     1       5.850  -0.525   5.617  1.00  0.00     0.251 C 
ATOM      7  O   UNL     1       5.674  -1.381   6.478  1.00  0.00    -0.272 OA
ATOM      8  H   UNL     1       7.078   0.408   4.275  1.00  0.00     0.164 HD
BRANCH   6   9
ATOM      9  C   UNL     1       4.768   0.472   5.173  1.00  0.00     0.219 C 
BRANCH   9  10
ATOM     10  O   UNL     1       3.484  -0.142   5.010  1.00  0.00    -0.382 OA
ATOM     11  H   UNL     1       3.694  -1.015   4.612  1.00  0.00     0.211 HD
ENDBRANCH   9  10
BRANCH   9  12
ATOM     12  C   UNL     1       4.670   1.716   6.095  1.00  0.00     0.089 C 
BRANCH  12  13
ATOM     13  N   UNL     1       5.770   1.651   7.085  1.00  0.00    -0.325 NA
ATOM     14  H   UNL     1       6.219   2.567   7.147  1.00  0.00     0.119 HD
ATOM     15  H   UNL     1       6.495   1.022   6.733  1.00  0.00     0.119 HD
ENDBRANCH  12  13
BRANCH  12  16
ATOM     16  C   UNL     1       4.675   3.090   5.383  1.00  0.00     0.022 C 
BRANCH  16  17
ATOM     17  C   UNL     1       3.795   3.291   4.142  1.00  0.00     0.002 C 
BRANCH  17  18
ATOM     18  C   UNL     1       2.751   4.398   4.265  1.00  0.00     0.000 C 
BRANCH  18  19
ATOM     19  C   UNL     1       1.340   3.891   4.595  1.00  0.00    -0.000 C 
BRANCH  19  20
ATOM     20  C   UNL     1       1.117   3.494   6.057  1.00  0.00    -0.000 C 
BRANCH  20  21
ATOM     21  C   UNL     1       0.915   1.988   6.245  1.00  0.00    -0.003 C 
ATOM     22  C   UNL     1       0.308   1.351   5.005  1.00  0.00     0.004 C 
ENDBRANCH  20  21
ENDBRANCH  19  20
ENDBRANCH  18  19
ENDBRANCH  17  18
ENDBRANCH  16  17
ENDBRANCH  12  16
ENDBRANCH   9  12
ENDBRANCH   6   9
ENDBRANCH   3   5
ENDBRANCH   2   3
BRANCH   2  23
ATOM     23  N   UNL     1       9.562  -3.129   4.629  1.00  0.00    -0.332 N 
ATOM     24  C   UNL     1       9.154  -4.221   5.502  1.00  0.00     0.147 C 
BRANCH  23  25
ATOM     25  C   UNL     1      10.897  -3.301   3.993  1.00  0.00     0.174 C 
BRANCH  25  26
ATOM     26  C   UNL     1      11.943  -2.282   4.503  1.00  0.00     0.038 C 
BRANCH  26  27
ATOM     27  C   UNL     1      13.385  -2.800   4.701  1.00  0.00    -0.015 C 
ATOM     28  C   UNL     1      14.401  -2.039   3.849  1.00  0.00     0.007 C 
ATOM     29  C   UNL     1      13.824  -2.829   6.163  1.00  0.00     0.007 C 
ENDBRANCH  26  27
ENDBRANCH  25  26
BRANCH  25  30
ATOM     30  C   UNL     1      10.753  -3.326   2.454  1.00  0.00     0.243 C 
ATOM     31  O   UNL     1      11.293  -2.485   1.737  1.00  0.00    -0.273 OA
ATOM     32  N   UNL     1       9.981  -4.340   1.946  1.00  0.00    -0.342 N 
ATOM     33  H   UNL     1       9.685  -5.078   2.591  1.00  0.00     0.164 HD
BRANCH  32  34
ATOM     34  C   UNL     1       9.713  -4.504   0.515  1.00  0.00     0.175 C 
BRANCH  34  35
ATOM     35  C   UNL     1      10.364  -5.783  -0.032  1.00  0.00     0.070 C 
BRANCH  35  36
ATOM     36  C   UNL     1      11.514  -5.498  -0.972  1.00  0.00    -0.045 A 
ATOM     37  C   UNL     1      12.183  -6.557  -1.604  1.00  0.00     0.007 A 
ATOM     38  C   UNL     1      11.943  -4.185  -1.206  1.00  0.00     0.007 A 
ATOM     39  C   UNL     1      13.254  -6.305  -2.462  1.00  0.00     0.046 A 
ATOM     40  C   UNL     1      13.016  -3.932  -2.063  1.00  0.00     0.046 A 
ATOM     41  C   UNL     1      13.662  -4.995  -2.685  1.00  0.00     0.115 A 
BRANCH  41  42
ATOM     42  O   UNL     1      14.714  -4.792  -3.527  1.00  0.00    -0.508 OA
ATOM     43  H   UNL     1      15.516  -5.142  -3.103  1.00  0.00     0.293 HD
ENDBRANCH  41  42
ENDBRANCH  35  36
ENDBRANCH  34  35
BRANCH  34  44
ATOM     44  C   UNL     1       8.181  -4.504   0.313  1.00  0.00     0.243 C 
ATOM     45  O   UNL     1       7.362  -4.666   1.213  1.00  0.00    -0.273 OA
ATOM     46  N   UNL     1       7.803  -4.433  -1.012  1.00  0.00    -0.341 N 
ATOM     47  H   UNL     1       8.522  -4.417  -1.731  1.00  0.00     0.164 HD
BRANCH  46  48
ATOM     48  C   UNL     1       6.408  -4.484  -1.455  1.00  0.00     0.196 C 
BRANCH  48  49
ATOM     49  C   UNL     1       5.915  -3.102  -1.915  1.00  0.00     0.072 C 
BRANCH  49  50
ATOM     50  C   UNL     1       5.109  -2.389  -0.853  1.00  0.00    -0.045 A 
ATOM     51  C   UNL     1       5.766  -1.710   0.185  1.00  0.00     0.007 A 
ATOM     52  C   UNL     1       3.709  -2.410  -0.873  1.00  0.00     0.007 A 
ATOM     53  C   UNL     1       5.034  -1.060   1.178  1.00  0.00     0.046 A 
ATOM     54  C   UNL     1       2.976  -1.760   0.122  1.00  0.00     0.046 A 
ATOM     55  C   UNL     1       3.645  -1.089   1.139  1.00  0.00     0.115 A 
BRANCH  55  56
ATOM     56  O   UNL     1       2.967  -0.442   2.129  1.00  0.00    -0.508 OA
ATOM     57  H   UNL     1       2.089  -0.848   2.214  1.00  0.00     0.293 HD
ENDBRANCH  55  56
ENDBRANCH  49  50
ENDBRANCH  48  49
BRANCH  48  58
ATOM     58  C   UNL     1       6.289  -5.485  -2.613  1.00  0.00     0.326 C 
ATOM     59  O   UNL     1       6.891  -6.538  -2.745  1.00  0.00    -0.250 OA
BRANCH  58  60
ATOM     60  O   UNL     1       5.390  -5.113  -3.559  1.00  0.00    -0.480 OA
ATOM     61  H   UNL     1       5.695  -5.592  -4.361  1.00  0.00     0.296 HD
ENDBRANCH  58  60
ENDBRANCH  48  58
ENDBRANCH  46  48
ENDBRANCH  34  44
ENDBRANCH  32  34
ENDBRANCH  25  30
ENDBRANCH  23  25
ENDBRANCH   2  23
TORSDOF 28
ENDMDL
