MODEL 1
REMARK VINA RESULT:    -5.566      0.000      0.000
REMARK INTER + INTRA:         -11.772
REMARK INTER:                  -9.958
REMARK INTRA:                  -1.813
REMARK UNBOUND:                -1.813
REMARK SMILES CC[C@H](C)[C@H]1NC(=O)c2coc(n2)[C@H](C(C)C)NC(=O)[C@H]([C@@H](C)O)NC(=O)[C@H](C)NC(=O)c2csc1n2
REMARK SMILES IDX 11 1 13 2 12 3 9 4 10 5 7 6 6 7 8 8 5 10 36 11 35 12 34 13
REMARK SMILES IDX 37 14 33 15 31 16 32 17 30 18 28 20 29 21 3 23 4 24 2 25
REMARK SMILES IDX 1 26 14 27 18 28 19 29 20 30 21 32 25 33 26 34 27 35 22 38
REMARK SMILES IDX 23 39 24 40 15 42 16 43 17 44
REMARK H PARENT 6 9 30 19 18 31 25 36 24 41
REMARK Flexibility Score:   94.900
ROOT
ATOM      1  O   UNL     1      -6.566  -4.764  -3.256  1.00  0.00    -0.446 OA
ATOM      2  N   UNL     1      -6.367  -2.546  -2.908  1.00  0.00    -0.207 NA
ATOM      3  C   UNL     1      -6.851  -3.689  -2.456  1.00  0.00     0.217 A 
ATOM      4  C   UNL     1      -5.698  -2.896  -4.068  1.00  0.00     0.167 A 
ATOM      5  C   UNL     1      -5.823  -4.248  -4.274  1.00  0.00     0.231 A 
ENDROOT
BRANCH   4   6
ATOM      6  C   UNL     1      -5.016  -1.930  -4.912  1.00  0.00     0.273 C 
ATOM      7  N   UNL     1      -3.870  -2.451  -5.460  1.00  0.00    -0.341 N 
ATOM      8  O   UNL     1      -5.411  -0.784  -5.087  1.00  0.00    -0.267 OA
ATOM      9  H   UNL     1      -3.620  -3.386  -5.151  1.00  0.00     0.164 HD
BRANCH   7  10
ATOM     10  C   UNL     1      -2.876  -1.641  -6.135  1.00  0.00     0.145 C 
BRANCH  10  11
ATOM     11  C   UNL     1      -2.127  -0.850  -5.072  1.00  0.00     0.116 A 
ATOM     12  S   UNL     1      -1.378   0.645  -5.488  1.00  0.00    -0.124 S 
ATOM     13  C   UNL     1      -0.872   0.834  -3.866  1.00  0.00     0.101 A 
ATOM     14  N   UNL     1      -2.005  -1.211  -3.805  1.00  0.00    -0.234 NA
ATOM     15  C   UNL     1      -1.296  -0.235  -3.100  1.00  0.00     0.139 A 
BRANCH  15  16
ATOM     16  C   UNL     1      -1.043  -0.355  -1.662  1.00  0.00     0.271 C 
ATOM     17  O   UNL     1       0.024  -0.040  -1.147  1.00  0.00    -0.267 OA
ATOM     18  N   UNL     1      -2.117  -0.851  -0.954  1.00  0.00    -0.339 N 
ATOM     19  H   UNL     1      -2.903  -1.178  -1.509  1.00  0.00     0.164 HD
BRANCH  18  20
ATOM     20  C   UNL     1      -2.025  -1.102   0.478  1.00  0.00     0.168 CG0
ATOM     21  C   UNL     1      -2.556   0.085   1.286  1.00  0.00     0.041 C 
ATOM     22  G   UNL     1      -2.804  -2.353   0.913  1.00  0.00     0.000 G0
ENDBRANCH  18  20
ENDBRANCH  15  16
ENDBRANCH  10  11
BRANCH  10  23
ATOM     23  C   UNL     1      -1.926  -2.493  -7.016  1.00  0.00     0.015 C 
ATOM     24  C   UNL     1      -1.535  -1.803  -8.334  1.00  0.00     0.010 C 
BRANCH  23  25
ATOM     25  C   UNL     1      -0.635  -2.911  -6.275  1.00  0.00     0.002 C 
ATOM     26  C   UNL     1       0.632  -2.759  -7.105  1.00  0.00     0.004 C 
ENDBRANCH  23  25
ENDBRANCH  10  23
ENDBRANCH   7  10
ENDBRANCH   4   6
BRANCH   3  27
ATOM     27  C   UNL     1      -7.693  -3.895  -1.227  1.00  0.00     0.171 C 
BRANCH  27  28
ATOM     28  N   UNL     1      -6.918  -3.446  -0.075  1.00  0.00    -0.342 N 
ATOM     29  C   UNL     1      -5.738  -4.041   0.310  1.00  0.00     0.245 C 
ATOM     30  O   UNL     1      -5.240  -4.987  -0.299  1.00  0.00    -0.273 OA
ATOM     31  H   UNL     1      -7.208  -2.597   0.409  1.00  0.00     0.164 HD
BRANCH  29  32
ATOM     32  C   UNL     1      -4.998  -3.346   1.472  1.00  0.00     0.200 C 
BRANCH  32  33
ATOM     33  N   UNL     1      -4.166  -2.274   0.913  1.00  0.00    -0.340 N 
ATOM     34  C   UNL     1      -2.788  -2.352   0.932  1.00  0.00     0.243 CG0
ATOM     35  O   UNL     1      -2.198  -3.286   1.472  1.00  0.00    -0.273 OA
ATOM     36  H   UNL     1      -4.624  -1.476   0.489  1.00  0.00     0.164 HD
ATOM     37  G   UNL     1      -2.043  -1.101   0.440  1.00  0.00     0.000 G0
ENDBRANCH  32  33
BRANCH  32  38
ATOM     38  C   UNL     1      -5.985  -2.843   2.551  1.00  0.00     0.143 C 
ATOM     39  C   UNL     1      -5.368  -2.690   3.937  1.00  0.00     0.041 C 
BRANCH  38  40
ATOM     40  O   UNL     1      -6.552  -1.581   2.150  1.00  0.00    -0.391 OA
ATOM     41  H   UNL     1      -6.208  -0.911   2.771  1.00  0.00     0.211 HD
ENDBRANCH  38  40
ENDBRANCH  32  38
ENDBRANCH  29  32
ENDBRANCH  27  28
BRANCH  27  42
ATOM     42  C   UNL     1      -9.117  -3.287  -1.228  1.00  0.00     0.015 C 
ATOM     43  C   UNL     1      -9.834  -3.286  -2.583  1.00  0.00     0.010 C 
ATOM     44  C   UNL     1     -10.010  -3.919  -0.155  1.00  0.00     0.010 C 
ENDBRANCH  27  42
ENDBRANCH   3  27
TORSDOF 5
ENDMDL
MODEL 2
REMARK VINA RESULT:    -5.358      2.447      6.855
REMARK INTER + INTRA:         -11.400
REMARK INTER:                  -9.098
REMARK INTRA:                  -2.302
REMARK UNBOUND:                -1.813
REMARK SMILES CC[C@H](C)[C@H]1NC(=O)c2coc(n2)[C@H](C(C)C)NC(=O)[C@H]([C@@H](C)O)NC(=O)[C@H](C)NC(=O)c2csc1n2
REMARK SMILES IDX 11 1 13 2 12 3 9 4 10 5 7 6 6 7 8 8 5 10 36 11 35 12 34 13
REMARK SMILES IDX 37 14 33 15 31 16 32 17 30 18 28 20 29 21 3 23 4 24 2 25
REMARK SMILES IDX 1 26 14 27 18 28 19 29 20 30 21 32 25 33 26 34 27 35 22 38
REMARK SMILES IDX 23 39 24 40 15 42 16 43 17 44
REMARK H PARENT 6 9 30 19 18 31 25 36 24 41
REMARK Flexibility Score:   94.900
ROOT
ATOM      1  O   UNL     1      -5.701  -3.427  -5.069  1.00  0.00    -0.446 OA
ATOM      2  N   UNL     1      -4.731  -3.204  -3.047  1.00  0.00    -0.207 NA
ATOM      3  C   UNL     1      -4.637  -2.963  -4.342  1.00  0.00     0.217 A 
ATOM      4  C   UNL     1      -5.949  -3.845  -2.908  1.00  0.00     0.167 A 
ATOM      5  C   UNL     1      -6.535  -3.977  -4.143  1.00  0.00     0.231 A 
ENDROOT
BRANCH   4   6
ATOM      6  C   UNL     1      -6.459  -4.312  -1.631  1.00  0.00     0.273 C 
ATOM      7  N   UNL     1      -7.301  -3.396  -1.052  1.00  0.00    -0.341 N 
ATOM      8  O   UNL     1      -6.149  -5.385  -1.128  1.00  0.00    -0.267 OA
ATOM      9  H   UNL     1      -7.392  -2.511  -1.542  1.00  0.00     0.164 HD
BRANCH   7  10
ATOM     10  C   UNL     1      -7.752  -3.492   0.322  1.00  0.00     0.145 C 
BRANCH  10  11
ATOM     11  C   UNL     1      -6.757  -2.733   1.188  1.00  0.00     0.116 A 
ATOM     12  S   UNL     1      -6.403  -3.296   2.778  1.00  0.00    -0.124 S 
ATOM     13  C   UNL     1      -5.289  -2.015   2.975  1.00  0.00     0.101 A 
ATOM     14  N   UNL     1      -6.102  -1.646   0.814  1.00  0.00    -0.234 NA
ATOM     15  C   UNL     1      -5.240  -1.236   1.835  1.00  0.00     0.139 A 
BRANCH  15  16
ATOM     16  C   UNL     1      -4.360  -0.076   1.680  1.00  0.00     0.271 C 
ATOM     17  O   UNL     1      -4.752   1.078   1.814  1.00  0.00    -0.267 OA
ATOM     18  N   UNL     1      -3.058  -0.410   1.372  1.00  0.00    -0.339 N 
ATOM     19  H   UNL     1      -2.885  -1.393   1.178  1.00  0.00     0.164 HD
BRANCH  18  20
ATOM     20  C   UNL     1      -2.057   0.616   1.114  1.00  0.00     0.168 CG0
ATOM     21  C   UNL     1      -0.942   0.581   2.162  1.00  0.00     0.041 C 
ATOM     22  G   UNL     1      -1.405   0.476  -0.271  1.00  0.00     0.000 G0
ENDBRANCH  18  20
ENDBRANCH  15  16
ENDBRANCH  10  11
BRANCH  10  23
ATOM     23  C   UNL     1      -9.205  -2.977   0.500  1.00  0.00     0.015 C 
ATOM     24  C   UNL     1      -9.514  -1.726  -0.340  1.00  0.00     0.010 C 
BRANCH  23  25
ATOM     25  C   UNL     1     -10.265  -4.057   0.187  1.00  0.00     0.002 C 
ATOM     26  C   UNL     1     -11.516  -3.964   1.051  1.00  0.00     0.004 C 
ENDBRANCH  23  25
ENDBRANCH  10  23
ENDBRANCH   7  10
ENDBRANCH   4   6
BRANCH   3  27
ATOM     27  C   UNL     1      -3.493  -2.303  -5.062  1.00  0.00     0.171 C 
BRANCH  27  28
ATOM     28  N   UNL     1      -2.426  -2.078  -4.092  1.00  0.00    -0.342 N 
ATOM     29  C   UNL     1      -2.291  -0.901  -3.390  1.00  0.00     0.245 C 
ATOM     30  O   UNL     1      -3.069   0.043  -3.518  1.00  0.00    -0.273 OA
ATOM     31  H   UNL     1      -1.812  -2.855  -3.849  1.00  0.00     0.164 HD
BRANCH  29  32
ATOM     32  C   UNL     1      -1.182  -0.897  -2.317  1.00  0.00     0.200 C 
BRANCH  32  33
ATOM     33  N   UNL     1      -1.797  -0.593  -1.019  1.00  0.00    -0.340 N 
ATOM     34  C   UNL     1      -1.401   0.501  -0.278  1.00  0.00     0.243 CG0
ATOM     35  O   UNL     1      -0.478   1.229  -0.636  1.00  0.00    -0.273 OA
ATOM     36  H   UNL     1      -2.541  -1.193  -0.683  1.00  0.00     0.164 HD
ATOM     37  G   UNL     1      -2.030   0.622   1.119  1.00  0.00     0.000 G0
ENDBRANCH  32  33
BRANCH  32  38
ATOM     38  C   UNL     1      -0.393  -2.227  -2.313  1.00  0.00     0.143 C 
ATOM     39  C   UNL     1       1.077  -2.079  -1.940  1.00  0.00     0.041 C 
BRANCH  38  40
ATOM     40  O   UNL     1      -1.012  -3.164  -1.410  1.00  0.00    -0.391 OA
ATOM     41  H   UNL     1      -1.203  -3.968  -1.930  1.00  0.00     0.211 HD
ENDBRANCH  38  40
ENDBRANCH  32  38
ENDBRANCH  29  32
ENDBRANCH  27  28
BRANCH  27  42
ATOM     42  C   UNL     1      -2.962  -2.994  -6.342  1.00  0.00     0.015 C 
ATOM     43  C   UNL     1      -3.605  -2.536  -7.655  1.00  0.00     0.010 C 
ATOM     44  C   UNL     1      -1.435  -2.917  -6.443  1.00  0.00     0.010 C 
ENDBRANCH  27  42
ENDBRANCH   3  27
TORSDOF 5
ENDMDL
MODEL 3
REMARK VINA RESULT:    -4.719     14.196     17.858
REMARK INTER + INTRA:         -10.257
REMARK INTER:                  -8.137
REMARK INTRA:                  -2.121
REMARK UNBOUND:                -1.813
REMARK SMILES CC[C@H](C)[C@H]1NC(=O)c2coc(n2)[C@H](C(C)C)NC(=O)[C@H]([C@@H](C)O)NC(=O)[C@H](C)NC(=O)c2csc1n2
REMARK SMILES IDX 11 1 13 2 12 3 9 4 10 5 7 6 6 7 8 8 5 10 36 11 35 12 34 13
REMARK SMILES IDX 37 14 33 15 31 16 32 17 30 18 28 20 29 21 3 23 4 24 2 25
REMARK SMILES IDX 1 26 14 27 18 28 19 29 20 30 21 32 25 33 26 34 27 35 22 38
REMARK SMILES IDX 23 39 24 40 15 42 16 43 17 44
REMARK H PARENT 6 9 30 19 18 31 25 36 24 41
REMARK Flexibility Score:   94.900
ROOT
ATOM      1  O   UNL     1       7.332  11.129   6.646  1.00  0.00    -0.446 OA
ATOM      2  N   UNL     1       7.533  10.732   4.436  1.00  0.00    -0.207 NA
ATOM      3  C   UNL     1       6.706  10.854   5.459  1.00  0.00     0.217 A 
ATOM      4  C   UNL     1       8.783  10.969   4.980  1.00  0.00     0.167 A 
ATOM      5  C   UNL     1       8.654  11.210   6.326  1.00  0.00     0.231 A 
ENDROOT
BRANCH   4   6
ATOM      6  C   UNL     1      10.009  10.922   4.202  1.00  0.00     0.273 C 
ATOM      7  N   UNL     1       9.807  11.332   2.909  1.00  0.00    -0.341 N 
ATOM      8  O   UNL     1      11.082  10.537   4.651  1.00  0.00    -0.267 OA
ATOM      9  H   UNL     1       8.844  11.534   2.655  1.00  0.00     0.164 HD
BRANCH   7  10
ATOM     10  C   UNL     1      10.791  11.152   1.859  1.00  0.00     0.145 C 
BRANCH  10  11
ATOM     11  C   UNL     1      10.249  10.108   0.894  1.00  0.00     0.116 A 
ATOM     12  S   UNL     1      10.858  10.035  -0.717  1.00  0.00    -0.124 S 
ATOM     13  C   UNL     1       9.838   8.700  -1.034  1.00  0.00     0.101 A 
ATOM     14  N   UNL     1       9.327   9.207   1.191  1.00  0.00    -0.234 NA
ATOM     15  C   UNL     1       9.098   8.381   0.088  1.00  0.00     0.139 A 
BRANCH  15  16
ATOM     16  C   UNL     1       8.149   7.266   0.146  1.00  0.00     0.271 C 
ATOM     17  O   UNL     1       8.005   6.468  -0.774  1.00  0.00    -0.267 OA
ATOM     18  N   UNL     1       7.443   7.204   1.328  1.00  0.00    -0.339 N 
ATOM     19  H   UNL     1       7.572   7.986   1.964  1.00  0.00     0.164 HD
BRANCH  18  20
ATOM     20  C   UNL     1       6.407   6.202   1.537  1.00  0.00     0.168 CG0
ATOM     21  C   UNL     1       6.897   5.077   2.452  1.00  0.00     0.041 C 
ATOM     22  G   UNL     1       5.128   6.788   2.156  1.00  0.00     0.000 G0
ENDBRANCH  18  20
ENDBRANCH  15  16
ENDBRANCH  10  11
BRANCH  10  23
ATOM     23  C   UNL     1      11.142  12.487   1.150  1.00  0.00     0.015 C 
ATOM     24  C   UNL     1       9.945  13.446   1.030  1.00  0.00     0.010 C 
BRANCH  23  25
ATOM     25  C   UNL     1      12.310  13.237   1.830  1.00  0.00     0.002 C 
ATOM     26  C   UNL     1      12.523  14.652   1.310  1.00  0.00     0.004 C 
ENDBRANCH  23  25
ENDBRANCH  10  23
ENDBRANCH   7  10
ENDBRANCH   4   6
BRANCH   3  27
ATOM     27  C   UNL     1       5.213  10.671   5.446  1.00  0.00     0.171 C 
BRANCH  27  28
ATOM     28  N   UNL     1       4.939   9.251   5.253  1.00  0.00    -0.342 N 
ATOM     29  C   UNL     1       3.940   8.788   4.426  1.00  0.00     0.245 C 
ATOM     30  O   UNL     1       3.214   9.539   3.775  1.00  0.00    -0.273 OA
ATOM     31  H   UNL     1       5.571   8.569   5.670  1.00  0.00     0.164 HD
BRANCH  29  32
ATOM     32  C   UNL     1       3.886   7.256   4.251  1.00  0.00     0.200 C 
BRANCH  32  33
ATOM     33  N   UNL     1       5.094   6.831   3.534  1.00  0.00    -0.340 N 
ATOM     34  C   UNL     1       5.133   6.793   2.155  1.00  0.00     0.243 CG0
ATOM     35  O   UNL     1       4.144   7.049   1.470  1.00  0.00    -0.273 OA
ATOM     36  H   UNL     1       5.916   6.585   4.072  1.00  0.00     0.164 HD
ATOM     37  G   UNL     1       6.411   6.200   1.540  1.00  0.00     0.000 G0
ENDBRANCH  32  33
BRANCH  32  38
ATOM     38  C   UNL     1       3.706   6.538   5.608  1.00  0.00     0.143 C 
ATOM     39  C   UNL     1       4.972   5.868   6.130  1.00  0.00     0.041 C 
BRANCH  38  40
ATOM     40  O   UNL     1       3.227   7.468   6.599  1.00  0.00    -0.391 OA
ATOM     41  H   UNL     1       2.508   7.977   6.179  1.00  0.00     0.211 HD
ENDBRANCH  38  40
ENDBRANCH  32  38
ENDBRANCH  29  32
ENDBRANCH  27  28
BRANCH  27  42
ATOM     42  C   UNL     1       4.413  11.249   6.638  1.00  0.00     0.015 C 
ATOM     43  C   UNL     1       4.532  10.471   7.954  1.00  0.00     0.010 C 
ATOM     44  C   UNL     1       4.720  12.733   6.869  1.00  0.00     0.010 C 
ENDBRANCH  27  42
ENDBRANCH   3  27
TORSDOF 5
ENDMDL
MODEL 4
REMARK VINA RESULT:    -4.686     17.459     20.329
REMARK INTER + INTRA:         -10.198
REMARK INTER:                  -7.979
REMARK INTRA:                  -2.219
REMARK UNBOUND:                -1.813
REMARK SMILES CC[C@H](C)[C@H]1NC(=O)c2coc(n2)[C@H](C(C)C)NC(=O)[C@H]([C@@H](C)O)NC(=O)[C@H](C)NC(=O)c2csc1n2
REMARK SMILES IDX 11 1 13 2 12 3 9 4 10 5 7 6 6 7 8 8 5 10 36 11 35 12 34 13
REMARK SMILES IDX 37 14 33 15 31 16 32 17 30 18 28 20 29 21 3 23 4 24 2 25
REMARK SMILES IDX 1 26 14 27 18 28 19 29 20 30 21 32 25 33 26 34 27 35 22 38
REMARK SMILES IDX 23 39 24 40 15 42 16 43 17 44
REMARK H PARENT 6 9 30 19 18 31 25 36 24 41
REMARK Flexibility Score:   94.900
ROOT
ATOM      1  O   UNL     1       8.539   8.948  -1.904  1.00  0.00    -0.446 OA
ATOM      2  N   UNL     1       7.963  11.116  -2.128  1.00  0.00    -0.207 NA
ATOM      3  C   UNL     1       8.453  10.187  -1.327  1.00  0.00     0.217 A 
ATOM      4  C   UNL     1       7.735  10.450  -3.320  1.00  0.00     0.167 A 
ATOM      5  C   UNL     1       8.089   9.130  -3.177  1.00  0.00     0.231 A 
ENDROOT
BRANCH   4   6
ATOM      6  C   UNL     1       7.175  11.095  -4.495  1.00  0.00     0.273 C 
ATOM      7  N   UNL     1       7.841  10.735  -5.639  1.00  0.00    -0.341 N 
ATOM      8  O   UNL     1       6.238  11.883  -4.453  1.00  0.00    -0.267 OA
ATOM      9  H   UNL     1       8.657  10.145  -5.507  1.00  0.00     0.164 HD
BRANCH   7  10
ATOM     10  C   UNL     1       7.656  11.411  -6.908  1.00  0.00     0.145 C 
BRANCH  10  11
ATOM     11  C   UNL     1       8.621  12.587  -6.949  1.00  0.00     0.116 A 
ATOM     12  S   UNL     1       8.745  13.543  -8.378  1.00  0.00    -0.124 S 
ATOM     13  C   UNL     1       9.894  14.541  -7.601  1.00  0.00     0.101 A 
ATOM     14  N   UNL     1       9.395  12.967  -5.946  1.00  0.00    -0.234 NA
ATOM     15  C   UNL     1      10.120  14.105  -6.310  1.00  0.00     0.139 A 
BRANCH  15  16
ATOM     16  C   UNL     1      11.033  14.768  -5.376  1.00  0.00     0.271 C 
ATOM     17  O   UNL     1      11.678  15.767  -5.673  1.00  0.00    -0.267 OA
ATOM     18  N   UNL     1      11.091  14.161  -4.139  1.00  0.00    -0.339 N 
ATOM     19  H   UNL     1      10.596  13.277  -4.054  1.00  0.00     0.164 HD
BRANCH  18  20
ATOM     20  C   UNL     1      11.997  14.642  -3.105  1.00  0.00     0.168 CG0
ATOM     21  C   UNL     1      11.305  15.648  -2.183  1.00  0.00     0.041 C 
ATOM     22  G   UNL     1      12.556  13.508  -2.230  1.00  0.00     0.000 G0
ENDBRANCH  18  20
ENDBRANCH  15  16
ENDBRANCH  10  11
BRANCH  10  23
ATOM     23  C   UNL     1       7.839  10.453  -8.115  1.00  0.00     0.015 C 
ATOM     24  C   UNL     1       8.450   9.096  -7.727  1.00  0.00     0.010 C 
BRANCH  23  25
ATOM     25  C   UNL     1       6.523  10.201  -8.885  1.00  0.00     0.002 C 
ATOM     26  C   UNL     1       5.851  11.470  -9.392  1.00  0.00     0.004 C 
ENDBRANCH  23  25
ENDBRANCH  10  23
ENDBRANCH   7  10
ENDBRANCH   4   6
BRANCH   3  27
ATOM     27  C   UNL     1       8.856  10.352   0.113  1.00  0.00     0.171 C 
BRANCH  27  28
ATOM     28  N   UNL     1       9.932  11.336   0.166  1.00  0.00    -0.342 N 
ATOM     29  C   UNL     1      11.245  11.022  -0.101  1.00  0.00     0.245 C 
ATOM     30  O   UNL     1      11.608   9.891  -0.419  1.00  0.00    -0.273 OA
ATOM     31  H   UNL     1       9.692  12.316   0.311  1.00  0.00     0.164 HD
BRANCH  29  32
ATOM     32  C   UNL     1      12.219  12.220  -0.121  1.00  0.00     0.200 C 
BRANCH  32  33
ATOM     33  N   UNL     1      11.751  13.177  -1.132  1.00  0.00    -0.340 N 
ATOM     34  C   UNL     1      12.541  13.525  -2.208  1.00  0.00     0.243 CG0
ATOM     35  O   UNL     1      13.688  13.103  -2.335  1.00  0.00    -0.273 OA
ATOM     36  H   UNL     1      10.820  13.565  -1.037  1.00  0.00     0.164 HD
ATOM     37  G   UNL     1      11.984  14.637  -3.111  1.00  0.00     0.000 G0
ENDBRANCH  32  33
BRANCH  32  38
ATOM     38  C   UNL     1      12.368  12.850   1.283  1.00  0.00     0.143 C 
ATOM     39  C   UNL     1      13.445  13.926   1.370  1.00  0.00     0.041 C 
BRANCH  38  40
ATOM     40  O   UNL     1      11.111  13.412   1.707  1.00  0.00    -0.391 OA
ATOM     41  H   UNL     1      11.319  14.256   2.152  1.00  0.00     0.211 HD
ENDBRANCH  38  40
ENDBRANCH  32  38
ENDBRANCH  29  32
ENDBRANCH  27  28
BRANCH  27  42
ATOM     42  C   UNL     1       7.737  10.675   1.134  1.00  0.00     0.015 C 
ATOM     43  C   UNL     1       6.899   9.478   1.597  1.00  0.00     0.010 C 
ATOM     44  C   UNL     1       8.272  11.448   2.344  1.00  0.00     0.010 C 
ENDBRANCH  27  42
ENDBRANCH   3  27
TORSDOF 5
ENDMDL
MODEL 5
REMARK VINA RESULT:    -4.133     15.812     19.845
REMARK INTER + INTRA:          -9.207
REMARK INTER:                  -6.889
REMARK INTRA:                  -2.319
REMARK UNBOUND:                -1.813
REMARK SMILES CC[C@H](C)[C@H]1NC(=O)c2coc(n2)[C@H](C(C)C)NC(=O)[C@H]([C@@H](C)O)NC(=O)[C@H](C)NC(=O)c2csc1n2
REMARK SMILES IDX 11 1 13 2 12 3 9 4 10 5 7 6 6 7 8 8 5 10 36 11 35 12 34 13
REMARK SMILES IDX 37 14 33 15 31 16 32 17 30 18 28 20 29 21 3 23 4 24 2 25
REMARK SMILES IDX 1 26 14 27 18 28 19 29 20 30 21 32 25 33 26 34 27 35 22 38
REMARK SMILES IDX 23 39 24 40 15 42 16 43 17 44
REMARK H PARENT 6 9 30 19 18 31 25 36 24 41
REMARK Flexibility Score:   94.900
ROOT
ATOM      1  O   UNL     1      -6.383  10.229  16.835  1.00  0.00    -0.446 OA
ATOM      2  N   UNL     1      -5.575   9.259  14.968  1.00  0.00    -0.207 NA
ATOM      3  C   UNL     1      -6.477  10.079  15.477  1.00  0.00     0.217 A 
ATOM      4  C   UNL     1      -4.821   8.864  16.059  1.00  0.00     0.167 A 
ATOM      5  C   UNL     1      -5.318   9.459  17.193  1.00  0.00     0.231 A 
ENDROOT
BRANCH   4   6
ATOM      6  C   UNL     1      -3.709   7.935  15.961  1.00  0.00     0.273 C 
ATOM      7  N   UNL     1      -3.165   7.923  14.702  1.00  0.00    -0.341 N 
ATOM      8  O   UNL     1      -3.328   7.233  16.890  1.00  0.00    -0.267 OA
ATOM      9  H   UNL     1      -3.644   8.490  14.009  1.00  0.00     0.164 HD
BRANCH   7  10
ATOM     10  C   UNL     1      -2.215   6.921  14.259  1.00  0.00     0.145 C 
BRANCH  10  11
ATOM     11  C   UNL     1      -2.877   6.117  13.150  1.00  0.00     0.116 A 
ATOM     12  S   UNL     1      -1.913   5.125  12.121  1.00  0.00    -0.124 S 
ATOM     13  C   UNL     1      -3.324   4.620  11.299  1.00  0.00     0.101 A 
ATOM     14  N   UNL     1      -4.176   6.097  12.900  1.00  0.00    -0.234 NA
ATOM     15  C   UNL     1      -4.442   5.222  11.844  1.00  0.00     0.139 A 
BRANCH  15  16
ATOM     16  C   UNL     1      -5.808   4.973  11.376  1.00  0.00     0.271 C 
ATOM     17  O   UNL     1      -6.055   4.414  10.313  1.00  0.00    -0.267 OA
ATOM     18  N   UNL     1      -6.778   5.425  12.245  1.00  0.00    -0.339 N 
ATOM     19  H   UNL     1      -6.447   5.969  13.038  1.00  0.00     0.164 HD
BRANCH  18  20
ATOM     20  C   UNL     1      -8.193   5.325  11.915  1.00  0.00     0.168 CG0
ATOM     21  C   UNL     1      -8.955   4.516  12.967  1.00  0.00     0.041 C 
ATOM     22  G   UNL     1      -8.874   6.697  11.794  1.00  0.00     0.000 G0
ENDBRANCH  18  20
ENDBRANCH  15  16
ENDBRANCH  10  11
BRANCH  10  23
ATOM     23  C   UNL     1      -0.867   7.547  13.812  1.00  0.00     0.015 C 
ATOM     24  C   UNL     1      -0.837   9.080  13.940  1.00  0.00     0.010 C 
BRANCH  23  25
ATOM     25  C   UNL     1       0.345   6.963  14.572  1.00  0.00     0.002 C 
ATOM     26  C   UNL     1       0.375   7.314  16.053  1.00  0.00     0.004 C 
ENDBRANCH  23  25
ENDBRANCH  10  23
ENDBRANCH   7  10
ENDBRANCH   4   6
BRANCH   3  27
ATOM     27  C   UNL     1      -7.580  10.786  14.738  1.00  0.00     0.171 C 
BRANCH  27  28
ATOM     28  N   UNL     1      -8.599   9.797  14.405  1.00  0.00    -0.342 N 
ATOM     29  C   UNL     1      -9.149   9.685  13.147  1.00  0.00     0.245 C 
ATOM     30  O   UNL     1      -8.810  10.401  12.206  1.00  0.00    -0.273 OA
ATOM     31  H   UNL     1      -8.847   9.095  15.101  1.00  0.00     0.164 HD
BRANCH  29  32
ATOM     32  C   UNL     1     -10.116   8.497  12.954  1.00  0.00     0.200 C 
BRANCH  32  33
ATOM     33  N   UNL     1      -9.331   7.257  12.964  1.00  0.00    -0.340 N 
ATOM     34  C   UNL     1      -8.876   6.688  11.793  1.00  0.00     0.243 CG0
ATOM     35  O   UNL     1      -9.159   7.154  10.691  1.00  0.00    -0.273 OA
ATOM     36  H   UNL     1      -9.107   6.832  13.856  1.00  0.00     0.164 HD
ATOM     37  G   UNL     1      -8.187   5.322  11.939  1.00  0.00     0.000 G0
ENDBRANCH  32  33
BRANCH  32  38
ATOM     38  C   UNL     1     -11.242   8.507  14.013  1.00  0.00     0.143 C 
ATOM     39  C   UNL     1     -12.272   9.614  13.818  1.00  0.00     0.041 C 
BRANCH  38  40
ATOM     40  O   UNL     1     -11.920   7.235  14.024  1.00  0.00    -0.391 OA
ATOM     41  H   UNL     1     -11.389   6.641  14.587  1.00  0.00     0.211 HD
ENDBRANCH  38  40
ENDBRANCH  32  38
ENDBRANCH  29  32
ENDBRANCH  27  28
BRANCH  27  42
ATOM     42  C   UNL     1      -8.198  12.038  15.406  1.00  0.00     0.015 C 
ATOM     43  C   UNL     1      -7.963  13.363  14.672  1.00  0.00     0.010 C 
ATOM     44  C   UNL     1      -9.690  11.852  15.701  1.00  0.00     0.010 C 
ENDBRANCH  27  42
ENDBRANCH   3  27
TORSDOF 5
ENDMDL
MODEL 6
REMARK VINA RESULT:    -4.029      9.278     11.263
REMARK INTER + INTRA:          -9.022
REMARK INTER:                  -6.708
REMARK INTRA:                  -2.313
REMARK UNBOUND:                -1.813
REMARK SMILES CC[C@H](C)[C@H]1NC(=O)c2coc(n2)[C@H](C(C)C)NC(=O)[C@H]([C@@H](C)O)NC(=O)[C@H](C)NC(=O)c2csc1n2
REMARK SMILES IDX 11 1 13 2 12 3 9 4 10 5 7 6 6 7 8 8 5 10 36 11 35 12 34 13
REMARK SMILES IDX 37 14 33 15 31 16 32 17 30 18 28 20 29 21 3 23 4 24 2 25
REMARK SMILES IDX 1 26 14 27 18 28 19 29 20 30 21 32 25 33 26 34 27 35 22 38
REMARK SMILES IDX 23 39 24 40 15 42 16 43 17 44
REMARK H PARENT 6 9 30 19 18 31 25 36 24 41
REMARK Flexibility Score:   94.900
ROOT
ATOM      1  O   UNL     1      -6.463  10.745   1.190  1.00  0.00    -0.446 OA
ATOM      2  N   UNL     1      -5.369   9.704  -0.483  1.00  0.00    -0.207 NA
ATOM      3  C   UNL     1      -6.292   9.602   0.456  1.00  0.00     0.217 A 
ATOM      4  C   UNL     1      -4.921  11.010  -0.377  1.00  0.00     0.167 A 
ATOM      5  C   UNL     1      -5.592  11.638   0.643  1.00  0.00     0.231 A 
ENDROOT
BRANCH   4   6
ATOM      6  C   UNL     1      -3.877  11.561  -1.223  1.00  0.00     0.273 C 
ATOM      7  N   UNL     1      -3.798  10.908  -2.427  1.00  0.00    -0.341 N 
ATOM      8  O   UNL     1      -3.144  12.482  -0.882  1.00  0.00    -0.267 OA
ATOM      9  H   UNL     1      -4.409  10.103  -2.533  1.00  0.00     0.164 HD
BRANCH   7  10
ATOM     10  C   UNL     1      -2.696  11.084  -3.353  1.00  0.00     0.145 C 
BRANCH  10  11
ATOM     11  C   UNL     1      -1.718   9.941  -3.128  1.00  0.00     0.116 A 
ATOM     12  S   UNL     1      -0.334   9.788  -4.143  1.00  0.00    -0.124 S 
ATOM     13  C   UNL     1       0.163   8.419  -3.247  1.00  0.00     0.101 A 
ATOM     14  N   UNL     1      -1.827   9.025  -2.179  1.00  0.00    -0.234 NA
ATOM     15  C   UNL     1      -0.736   8.154  -2.232  1.00  0.00     0.139 A 
BRANCH  15  16
ATOM     16  C   UNL     1      -0.577   7.060  -1.271  1.00  0.00     0.271 C 
ATOM     17  O   UNL     1       0.417   6.344  -1.238  1.00  0.00    -0.267 OA
ATOM     18  N   UNL     1      -1.648   6.920  -0.414  1.00  0.00    -0.339 N 
ATOM     19  H   UNL     1      -2.457   7.502  -0.615  1.00  0.00     0.164 HD
BRANCH  18  20
ATOM     20  C   UNL     1      -1.696   5.842   0.565  1.00  0.00     0.168 CG0
ATOM     21  C   UNL     1      -1.174   6.304   1.927  1.00  0.00     0.041 C 
ATOM     22  G   UNL     1      -3.114   5.287   0.769  1.00  0.00     0.000 G0
ENDBRANCH  18  20
ENDBRANCH  15  16
ENDBRANCH  10  11
BRANCH  10  23
ATOM     23  C   UNL     1      -3.177  11.170  -4.826  1.00  0.00     0.015 C 
ATOM     24  C   UNL     1      -4.700  11.024  -4.979  1.00  0.00     0.010 C 
BRANCH  23  25
ATOM     25  C   UNL     1      -2.732  12.475  -5.525  1.00  0.00     0.002 C 
ATOM     26  C   UNL     1      -3.762  13.594  -5.460  1.00  0.00     0.004 C 
ENDBRANCH  23  25
ENDBRANCH  10  23
ENDBRANCH   7  10
ENDBRANCH   4   6
BRANCH   3  27
ATOM     27  C   UNL     1      -7.096   8.380   0.809  1.00  0.00     0.171 C 
BRANCH  27  28
ATOM     28  N   UNL     1      -6.228   7.476   1.556  1.00  0.00    -0.342 N 
ATOM     29  C   UNL     1      -6.249   6.110   1.386  1.00  0.00     0.245 C 
ATOM     30  O   UNL     1      -6.990   5.551   0.579  1.00  0.00    -0.273 OA
ATOM     31  H   UNL     1      -5.508   7.873   2.159  1.00  0.00     0.164 HD
BRANCH  29  32
ATOM     32  C   UNL     1      -5.170   5.331   2.169  1.00  0.00     0.200 C 
BRANCH  32  33
ATOM     33  N   UNL     1      -3.854   5.862   1.793  1.00  0.00    -0.340 N 
ATOM     34  C   UNL     1      -3.117   5.293   0.774  1.00  0.00     0.243 CG0
ATOM     35  O   UNL     1      -3.497   4.285   0.183  1.00  0.00    -0.273 OA
ATOM     36  H   UNL     1      -3.501   6.675   2.283  1.00  0.00     0.164 HD
ATOM     37  G   UNL     1      -1.702   5.861   0.579  1.00  0.00     0.000 G0
ENDBRANCH  32  33
BRANCH  32  38
ATOM     38  C   UNL     1      -5.429   5.384   3.692  1.00  0.00     0.143 C 
ATOM     39  C   UNL     1      -4.693   4.311   4.487  1.00  0.00     0.041 C 
BRANCH  38  40
ATOM     40  O   UNL     1      -5.066   6.679   4.209  1.00  0.00    -0.391 OA
ATOM     41  H   UNL     1      -5.376   6.708   5.134  1.00  0.00     0.211 HD
ENDBRANCH  38  40
ENDBRANCH  32  38
ENDBRANCH  29  32
ENDBRANCH  27  28
BRANCH  27  42
ATOM     42  C   UNL     1      -8.447   8.599   1.531  1.00  0.00     0.015 C 
ATOM     43  C   UNL     1      -9.676   8.012   0.827  1.00  0.00     0.010 C 
ATOM     44  C   UNL     1      -8.399   8.134   2.991  1.00  0.00     0.010 C 
ENDBRANCH  27  42
ENDBRANCH   3  27
TORSDOF 5
ENDMDL
MODEL 7
REMARK VINA RESULT:    -4.002      3.559      4.970
REMARK INTER + INTRA:          -8.974
REMARK INTER:                  -6.891
REMARK INTRA:                  -2.083
REMARK UNBOUND:                -1.813
REMARK SMILES CC[C@H](C)[C@H]1NC(=O)c2coc(n2)[C@H](C(C)C)NC(=O)[C@H]([C@@H](C)O)NC(=O)[C@H](C)NC(=O)c2csc1n2
REMARK SMILES IDX 11 1 13 2 12 3 9 4 10 5 7 6 6 7 8 8 5 10 36 11 35 12 34 13
REMARK SMILES IDX 37 14 33 15 31 16 32 17 30 18 28 20 29 21 3 23 4 24 2 25
REMARK SMILES IDX 1 26 14 27 18 28 19 29 20 30 21 32 25 33 26 34 27 35 22 38
REMARK SMILES IDX 23 39 24 40 15 42 16 43 17 44
REMARK H PARENT 6 9 30 19 18 31 25 36 24 41
REMARK Flexibility Score:   94.900
ROOT
ATOM      1  O   UNL     1      -8.028   2.522  -3.108  1.00  0.00    -0.446 OA
ATOM      2  N   UNL     1      -6.569   1.355  -1.846  1.00  0.00    -0.207 NA
ATOM      3  C   UNL     1      -7.803   1.816  -1.957  1.00  0.00     0.217 A 
ATOM      4  C   UNL     1      -5.950   1.763  -3.015  1.00  0.00     0.167 A 
ATOM      5  C   UNL     1      -6.844   2.472  -3.779  1.00  0.00     0.231 A 
ENDROOT
BRANCH   4   6
ATOM      6  C   UNL     1      -4.556   1.481  -3.314  1.00  0.00     0.273 C 
ATOM      7  N   UNL     1      -4.425   0.438  -4.196  1.00  0.00    -0.341 N 
ATOM      8  O   UNL     1      -3.619   2.090  -2.813  1.00  0.00    -0.267 OA
ATOM      9  H   UNL     1      -5.288  -0.031  -4.455  1.00  0.00     0.164 HD
BRANCH   7  10
ATOM     10  C   UNL     1      -3.158  -0.209  -4.474  1.00  0.00     0.145 C 
BRANCH  10  11
ATOM     11  C   UNL     1      -2.883  -1.187  -3.341  1.00  0.00     0.116 A 
ATOM     12  S   UNL     1      -1.262  -1.660  -2.995  1.00  0.00    -0.124 S 
ATOM     13  C   UNL     1      -1.828  -2.624  -1.702  1.00  0.00     0.101 A 
ATOM     14  N   UNL     1      -3.807  -1.719  -2.558  1.00  0.00    -0.234 NA
ATOM     15  C   UNL     1      -3.203  -2.536  -1.599  1.00  0.00     0.139 A 
BRANCH  15  16
ATOM     16  C   UNL     1      -3.986  -3.226  -0.572  1.00  0.00     0.271 C 
ATOM     17  O   UNL     1      -3.517  -4.103   0.145  1.00  0.00    -0.267 OA
ATOM     18  N   UNL     1      -5.293  -2.792  -0.492  1.00  0.00    -0.339 N 
ATOM     19  H   UNL     1      -5.589  -2.140  -1.213  1.00  0.00     0.164 HD
BRANCH  18  20
ATOM     20  C   UNL     1      -6.238  -3.412   0.427  1.00  0.00     0.168 CG0
ATOM     21  C   UNL     1      -6.219  -2.723   1.793  1.00  0.00     0.041 C 
ATOM     22  G   UNL     1      -7.683  -3.378  -0.096  1.00  0.00     0.000 G0
ENDBRANCH  18  20
ENDBRANCH  15  16
ENDBRANCH  10  11
BRANCH  10  23
ATOM     23  C   UNL     1      -3.144  -0.896  -5.865  1.00  0.00     0.015 C 
ATOM     24  C   UNL     1      -1.789  -0.785  -6.585  1.00  0.00     0.010 C 
BRANCH  23  25
ATOM     25  C   UNL     1      -3.549  -2.386  -5.801  1.00  0.00     0.002 C 
ATOM     26  C   UNL     1      -5.018  -2.641  -6.106  1.00  0.00     0.004 C 
ENDBRANCH  23  25
ENDBRANCH  10  23
ENDBRANCH   7  10
ENDBRANCH   4   6
BRANCH   3  27
ATOM     27  C   UNL     1      -8.913   1.685  -0.950  1.00  0.00     0.171 C 
BRANCH  27  28
ATOM     28  N   UNL     1      -8.925   0.305  -0.476  1.00  0.00    -0.342 N 
ATOM     29  C   UNL     1      -9.971  -0.558  -0.715  1.00  0.00     0.245 C 
ATOM     30  O   UNL     1     -10.967  -0.234  -1.361  1.00  0.00    -0.273 OA
ATOM     31  H   UNL     1      -8.086  -0.069  -0.033  1.00  0.00     0.164 HD
BRANCH  29  32
ATOM     32  C   UNL     1      -9.747  -2.011  -0.248  1.00  0.00     0.200 C 
BRANCH  32  33
ATOM     33  N   UNL     1      -8.331  -2.169   0.106  1.00  0.00    -0.340 N 
ATOM     34  C   UNL     1      -7.667  -3.358  -0.110  1.00  0.00     0.243 CG0
ATOM     35  O   UNL     1      -8.242  -4.353  -0.547  1.00  0.00    -0.273 OA
ATOM     36  H   UNL     1      -7.838  -1.375   0.497  1.00  0.00     0.164 HD
ATOM     37  G   UNL     1      -6.230  -3.427   0.432  1.00  0.00     0.000 G0
ENDBRANCH  32  33
BRANCH  32  38
ATOM     38  C   UNL     1     -10.703  -2.387   0.908  1.00  0.00     0.143 C 
ATOM     39  C   UNL     1     -11.589  -3.593   0.617  1.00  0.00     0.041 C 
BRANCH  38  40
ATOM     40  O   UNL     1      -9.948  -2.641   2.109  1.00  0.00    -0.391 OA
ATOM     41  H   UNL     1     -10.588  -2.643   2.846  1.00  0.00     0.211 HD
ENDBRANCH  38  40
ENDBRANCH  32  38
ENDBRANCH  29  32
ENDBRANCH  27  28
BRANCH  27  42
ATOM     42  C   UNL     1      -8.931   2.692   0.226  1.00  0.00     0.015 C 
ATOM     43  C   UNL     1      -8.246   4.036  -0.044  1.00  0.00     0.010 C 
ATOM     44  C   UNL     1     -10.348   2.916   0.766  1.00  0.00     0.010 C 
ENDBRANCH  27  42
ENDBRANCH   3  27
TORSDOF 5
ENDMDL
MODEL 8
REMARK VINA RESULT:    -3.978      3.098      6.677
REMARK INTER + INTRA:          -8.930
REMARK INTER:                  -7.157
REMARK INTRA:                  -1.773
REMARK UNBOUND:                -1.813
REMARK SMILES CC[C@H](C)[C@H]1NC(=O)c2coc(n2)[C@H](C(C)C)NC(=O)[C@H]([C@@H](C)O)NC(=O)[C@H](C)NC(=O)c2csc1n2
REMARK SMILES IDX 11 1 13 2 12 3 9 4 10 5 7 6 6 7 8 8 5 10 36 11 35 12 34 13
REMARK SMILES IDX 37 14 33 15 31 16 32 17 30 18 28 20 29 21 3 23 4 24 2 25
REMARK SMILES IDX 1 26 14 27 18 28 19 29 20 30 21 32 25 33 26 34 27 35 22 38
REMARK SMILES IDX 23 39 24 40 15 42 16 43 17 44
REMARK H PARENT 6 9 30 19 18 31 25 36 24 41
REMARK Flexibility Score:   94.900
ROOT
ATOM      1  O   UNL     1      -2.491  -2.580  -3.171  1.00  0.00    -0.446 OA
ATOM      2  N   UNL     1      -4.058  -1.249  -2.248  1.00  0.00    -0.207 NA
ATOM      3  C   UNL     1      -3.821  -2.282  -3.036  1.00  0.00     0.217 A 
ATOM      4  C   UNL     1      -2.803  -0.857  -1.815  1.00  0.00     0.167 A 
ATOM      5  C   UNL     1      -1.853  -1.673  -2.380  1.00  0.00     0.231 A 
ENDROOT
BRANCH   4   6
ATOM      6  C   UNL     1      -2.587   0.271  -0.925  1.00  0.00     0.273 C 
ATOM      7  N   UNL     1      -2.091  -0.126   0.291  1.00  0.00    -0.341 N 
ATOM      8  O   UNL     1      -2.844   1.430  -1.227  1.00  0.00    -0.267 OA
ATOM      9  H   UNL     1      -2.015  -1.130   0.429  1.00  0.00     0.164 HD
BRANCH   7  10
ATOM     10  C   UNL     1      -2.016   0.753   1.441  1.00  0.00     0.145 C 
BRANCH  10  11
ATOM     11  C   UNL     1      -3.292   0.565   2.248  1.00  0.00     0.116 A 
ATOM     12  S   UNL     1      -4.011   1.917   3.038  1.00  0.00    -0.124 S 
ATOM     13  C   UNL     1      -5.273   0.909   3.598  1.00  0.00     0.101 A 
ATOM     14  N   UNL     1      -3.935  -0.583   2.394  1.00  0.00    -0.234 NA
ATOM     15  C   UNL     1      -5.088  -0.387   3.158  1.00  0.00     0.139 A 
BRANCH  15  16
ATOM     16  C   UNL     1      -6.014  -1.484   3.447  1.00  0.00     0.271 C 
ATOM     17  O   UNL     1      -5.940  -2.166   4.464  1.00  0.00    -0.267 OA
ATOM     18  N   UNL     1      -6.970  -1.670   2.471  1.00  0.00    -0.339 N 
ATOM     19  H   UNL     1      -6.857  -1.114   1.627  1.00  0.00     0.164 HD
BRANCH  18  20
ATOM     20  C   UNL     1      -7.935  -2.758   2.557  1.00  0.00     0.168 CG0
ATOM     21  C   UNL     1      -9.212  -2.314   3.274  1.00  0.00     0.041 C 
ATOM     22  G   UNL     1      -8.336  -3.306   1.178  1.00  0.00     0.000 G0
ENDBRANCH  18  20
ENDBRANCH  15  16
ENDBRANCH  10  11
BRANCH  10  23
ATOM     23  C   UNL     1      -0.739   0.504   2.287  1.00  0.00     0.015 C 
ATOM     24  C   UNL     1       0.515   0.248   1.434  1.00  0.00     0.010 C 
BRANCH  23  25
ATOM     25  C   UNL     1      -0.440   1.657   3.272  1.00  0.00     0.002 C 
ATOM     26  C   UNL     1      -0.533   1.257   4.738  1.00  0.00     0.004 C 
ENDBRANCH  23  25
ENDBRANCH  10  23
ENDBRANCH   7  10
ENDBRANCH   4   6
BRANCH   3  27
ATOM     27  C   UNL     1      -4.832  -3.087  -3.804  1.00  0.00     0.171 C 
BRANCH  27  28
ATOM     28  N   UNL     1      -6.090  -3.045  -3.066  1.00  0.00    -0.342 N 
ATOM     29  C   UNL     1      -6.298  -3.751  -1.902  1.00  0.00     0.245 C 
ATOM     30  O   UNL     1      -5.431  -4.457  -1.389  1.00  0.00    -0.273 OA
ATOM     31  H   UNL     1      -6.814  -2.394  -3.368  1.00  0.00     0.164 HD
BRANCH  29  32
ATOM     32  C   UNL     1      -7.643  -3.479  -1.197  1.00  0.00     0.200 C 
BRANCH  32  33
ATOM     33  N   UNL     1      -7.368  -3.127   0.201  1.00  0.00    -0.340 N 
ATOM     34  C   UNL     1      -8.326  -3.288   1.181  1.00  0.00     0.243 CG0
ATOM     35  O   UNL     1      -9.465  -3.671   0.921  1.00  0.00    -0.273 OA
ATOM     36  H   UNL     1      -6.448  -2.780   0.442  1.00  0.00     0.164 HD
ATOM     37  G   UNL     1      -7.951  -2.752   2.573  1.00  0.00     0.000 G0
ENDBRANCH  32  33
BRANCH  32  38
ATOM     38  C   UNL     1      -8.463  -2.400  -1.941  1.00  0.00     0.143 C 
ATOM     39  C   UNL     1      -9.845  -2.865  -2.387  1.00  0.00     0.041 C 
BRANCH  38  40
ATOM     40  O   UNL     1      -8.610  -1.232  -1.109  1.00  0.00    -0.391 OA
ATOM     41  H   UNL     1      -9.551  -1.185  -0.857  1.00  0.00     0.211 HD
ENDBRANCH  38  40
ENDBRANCH  32  38
ENDBRANCH  29  32
ENDBRANCH  27  28
BRANCH  27  42
ATOM     42  C   UNL     1      -5.037  -2.737  -5.299  1.00  0.00     0.015 C 
ATOM     43  C   UNL     1      -4.584  -1.333  -5.716  1.00  0.00     0.010 C 
ATOM     44  C   UNL     1      -4.420  -3.791  -6.224  1.00  0.00     0.010 C 
ENDBRANCH  27  42
ENDBRANCH   3  27
TORSDOF 5
ENDMDL
MODEL 9
REMARK VINA RESULT:    -3.954      4.650      6.916
REMARK INTER + INTRA:          -8.888
REMARK INTER:                  -6.452
REMARK INTRA:                  -2.437
REMARK UNBOUND:                -1.813
REMARK SMILES CC[C@H](C)[C@H]1NC(=O)c2coc(n2)[C@H](C(C)C)NC(=O)[C@H]([C@@H](C)O)NC(=O)[C@H](C)NC(=O)c2csc1n2
REMARK SMILES IDX 11 1 13 2 12 3 9 4 10 5 7 6 6 7 8 8 5 10 36 11 35 12 34 13
REMARK SMILES IDX 37 14 33 15 31 16 32 17 30 18 28 20 29 21 3 23 4 24 2 25
REMARK SMILES IDX 1 26 14 27 18 28 19 29 20 30 21 32 25 33 26 34 27 35 22 38
REMARK SMILES IDX 23 39 24 40 15 42 16 43 17 44
REMARK H PARENT 6 9 30 19 18 31 25 36 24 41
REMARK Flexibility Score:   94.900
ROOT
ATOM      1  O   UNL     1      -7.230   3.697  -1.798  1.00  0.00    -0.446 OA
ATOM      2  N   UNL     1      -6.626   1.729  -0.880  1.00  0.00    -0.207 NA
ATOM      3  C   UNL     1      -7.319   2.844  -0.731  1.00  0.00     0.217 A 
ATOM      4  C   UNL     1      -6.064   1.845  -2.140  1.00  0.00     0.167 A 
ATOM      5  C   UNL     1      -6.437   3.045  -2.694  1.00  0.00     0.231 A 
ENDROOT
BRANCH   4   6
ATOM      6  C   UNL     1      -5.197   0.833  -2.718  1.00  0.00     0.273 C 
ATOM      7  N   UNL     1      -5.833   0.117  -3.700  1.00  0.00    -0.341 N 
ATOM      8  O   UNL     1      -4.046   0.635  -2.347  1.00  0.00    -0.267 OA
ATOM      9  H   UNL     1      -6.817   0.332  -3.835  1.00  0.00     0.164 HD
BRANCH   7  10
ATOM     10  C   UNL     1      -5.292  -1.103  -4.267  1.00  0.00     0.145 C 
BRANCH  10  11
ATOM     11  C   UNL     1      -6.059  -2.271  -3.663  1.00  0.00     0.116 A 
ATOM     12  S   UNL     1      -5.866  -3.851  -4.322  1.00  0.00    -0.124 S 
ATOM     13  C   UNL     1      -6.938  -4.466  -3.141  1.00  0.00     0.101 A 
ATOM     14  N   UNL     1      -6.882  -2.185  -2.631  1.00  0.00    -0.234 NA
ATOM     15  C   UNL     1      -7.380  -3.451  -2.314  1.00  0.00     0.139 A 
BRANCH  15  16
ATOM     16  C   UNL     1      -8.289  -3.660  -1.185  1.00  0.00     0.271 C 
ATOM     17  O   UNL     1      -8.678  -4.771  -0.842  1.00  0.00    -0.267 OA
ATOM     18  N   UNL     1      -8.657  -2.492  -0.551  1.00  0.00    -0.339 N 
ATOM     19  H   UNL     1      -8.357  -1.630  -0.998  1.00  0.00     0.164 HD
BRANCH  18  20
ATOM     20  C   UNL     1      -9.609  -2.500   0.552  1.00  0.00     0.168 CG0
ATOM     21  C   UNL     1      -8.896  -2.435   1.904  1.00  0.00     0.041 C 
ATOM     22  G   UNL     1     -10.603  -1.329   0.487  1.00  0.00     0.000 G0
ENDBRANCH  18  20
ENDBRANCH  15  16
ENDBRANCH  10  11
BRANCH  10  23
ATOM     23  C   UNL     1      -5.342  -1.101  -5.817  1.00  0.00     0.015 C 
ATOM     24  C   UNL     1      -5.938   0.189  -6.406  1.00  0.00     0.010 C 
BRANCH  23  25
ATOM     25  C   UNL     1      -3.958  -1.344  -6.460  1.00  0.00     0.002 C 
ATOM     26  C   UNL     1      -3.887  -2.599  -7.320  1.00  0.00     0.004 C 
ENDBRANCH  23  25
ENDBRANCH  10  23
ENDBRANCH   7  10
ENDBRANCH   4   6
BRANCH   3  27
ATOM     27  C   UNL     1      -8.116   3.262   0.474  1.00  0.00     0.171 C 
BRANCH  27  28
ATOM     28  N   UNL     1      -9.005   2.159   0.826  1.00  0.00    -0.342 N 
ATOM     29  C   UNL     1     -10.374   2.295   0.890  1.00  0.00     0.245 C 
ATOM     30  O   UNL     1     -10.951   3.352   0.641  1.00  0.00    -0.273 OA
ATOM     31  H   UNL     1      -8.610   1.226   0.934  1.00  0.00     0.164 HD
BRANCH  29  32
ATOM     32  C   UNL     1     -11.154   0.989   1.151  1.00  0.00     0.200 C 
BRANCH  32  33
ATOM     33  N   UNL     1     -10.224  -0.139   1.018  1.00  0.00    -0.340 N 
ATOM     34  C   UNL     1     -10.633  -1.347   0.493  1.00  0.00     0.243 CG0
ATOM     35  O   UNL     1     -11.802  -1.554   0.174  1.00  0.00    -0.273 OA
ATOM     36  H   UNL     1      -9.260  -0.008   1.301  1.00  0.00     0.164 HD
ATOM     37  G   UNL     1      -9.595  -2.480   0.539  1.00  0.00     0.000 G0
ENDBRANCH  32  33
BRANCH  32  38
ATOM     38  C   UNL     1     -11.869   1.022   2.522  1.00  0.00     0.143 C 
ATOM     39  C   UNL     1     -10.939   0.828   3.714  1.00  0.00     0.041 C 
BRANCH  38  40
ATOM     40  O   UNL     1     -12.577   2.267   2.679  1.00  0.00    -0.391 OA
ATOM     41  H   UNL     1     -13.074   2.412   1.852  1.00  0.00     0.211 HD
ENDBRANCH  38  40
ENDBRANCH  32  38
ENDBRANCH  29  32
ENDBRANCH  27  28
BRANCH  27  42
ATOM     42  C   UNL     1      -7.331   3.775   1.706  1.00  0.00     0.015 C 
ATOM     43  C   UNL     1      -6.992   2.716   2.762  1.00  0.00     0.010 C 
ATOM     44  C   UNL     1      -6.069   4.544   1.301  1.00  0.00     0.010 C 
ENDBRANCH  27  42
ENDBRANCH   3  27
TORSDOF 5
ENDMDL
MODEL 10
REMARK VINA RESULT:    -3.872     16.424     19.649
REMARK INTER + INTRA:          -8.742
REMARK INTER:                  -6.353
REMARK INTRA:                  -2.389
REMARK UNBOUND:                -1.813
REMARK SMILES CC[C@H](C)[C@H]1NC(=O)c2coc(n2)[C@H](C(C)C)NC(=O)[C@H]([C@@H](C)O)NC(=O)[C@H](C)NC(=O)c2csc1n2
REMARK SMILES IDX 11 1 13 2 12 3 9 4 10 5 7 6 6 7 8 8 5 10 36 11 35 12 34 13
REMARK SMILES IDX 37 14 33 15 31 16 32 17 30 18 28 20 29 21 3 23 4 24 2 25
REMARK SMILES IDX 1 26 14 27 18 28 19 29 20 30 21 32 25 33 26 34 27 35 22 38
REMARK SMILES IDX 23 39 24 40 15 42 16 43 17 44
REMARK H PARENT 6 9 30 19 18 31 25 36 24 41
REMARK Flexibility Score:   94.900
ROOT
ATOM      1  O   UNL     1      -6.527  10.181  15.613  1.00  0.00    -0.446 OA
ATOM      2  N   UNL     1      -6.393   8.908  13.758  1.00  0.00    -0.207 NA
ATOM      3  C   UNL     1      -7.046   9.870  14.384  1.00  0.00     0.217 A 
ATOM      4  C   UNL     1      -5.361   8.582  14.619  1.00  0.00     0.167 A 
ATOM      5  C   UNL     1      -5.447   9.361  15.747  1.00  0.00     0.231 A 
ENDROOT
BRANCH   4   6
ATOM      6  C   UNL     1      -4.386   7.543  14.333  1.00  0.00     0.273 C 
ATOM      7  N   UNL     1      -4.702   6.848  13.193  1.00  0.00    -0.341 N 
ATOM      8  O   UNL     1      -3.417   7.308  15.045  1.00  0.00    -0.267 OA
ATOM      9  H   UNL     1      -5.587   7.094  12.758  1.00  0.00     0.164 HD
BRANCH   7  10
ATOM     10  C   UNL     1      -4.048   5.611  12.813  1.00  0.00     0.145 C 
BRANCH  10  11
ATOM     11  C   UNL     1      -5.091   4.504  12.863  1.00  0.00     0.116 A 
ATOM     12  S   UNL     1      -4.670   2.910  12.361  1.00  0.00    -0.124 S 
ATOM     13  C   UNL     1      -6.248   2.379  12.749  1.00  0.00     0.101 A 
ATOM     14  N   UNL     1      -6.336   4.654  13.284  1.00  0.00    -0.234 NA
ATOM     15  C   UNL     1      -7.004   3.428  13.237  1.00  0.00     0.139 A 
BRANCH  15  16
ATOM     16  C   UNL     1      -8.392   3.290  13.683  1.00  0.00     0.271 C 
ATOM     17  O   UNL     1      -8.936   2.201  13.837  1.00  0.00    -0.267 OA
ATOM     18  N   UNL     1      -9.019   4.496  13.912  1.00  0.00    -0.339 N 
ATOM     19  H   UNL     1      -8.499   5.326  13.642  1.00  0.00     0.164 HD
BRANCH  18  20
ATOM     20  C   UNL     1     -10.423   4.555  14.297  1.00  0.00     0.168 CG0
ATOM     21  C   UNL     1     -10.581   4.630  15.817  1.00  0.00     0.041 C 
ATOM     22  G   UNL     1     -11.155   5.762  13.688  1.00  0.00     0.000 G0
ENDBRANCH  18  20
ENDBRANCH  15  16
ENDBRANCH  10  11
BRANCH  10  23
ATOM     23  C   UNL     1      -3.361   5.715  11.426  1.00  0.00     0.015 C 
ATOM     24  C   UNL     1      -4.206   6.465  10.382  1.00  0.00     0.010 C 
BRANCH  23  25
ATOM     25  C   UNL     1      -1.964   6.373  11.498  1.00  0.00     0.002 C 
ATOM     26  C   UNL     1      -1.191   6.045  12.767  1.00  0.00     0.004 C 
ENDBRANCH  23  25
ENDBRANCH  10  23
ENDBRANCH   7  10
ENDBRANCH   4   6
BRANCH   3  27
ATOM     27  C   UNL     1      -8.284  10.583  13.912  1.00  0.00     0.171 C 
BRANCH  27  28
ATOM     28  N   UNL     1      -9.429   9.726  14.199  1.00  0.00    -0.342 N 
ATOM     29  C   UNL     1     -10.261   9.236  13.217  1.00  0.00     0.245 C 
ATOM     30  O   UNL     1     -10.090   9.473  12.022  1.00  0.00    -0.273 OA
ATOM     31  H   UNL     1      -9.566   9.395  15.153  1.00  0.00     0.164 HD
BRANCH  29  32
ATOM     32  C   UNL     1     -11.339   8.244  13.700  1.00  0.00     0.200 C 
BRANCH  32  33
ATOM     33  N   UNL     1     -10.672   7.002  14.110  1.00  0.00    -0.340 N 
ATOM     34  C   UNL     1     -11.133   5.770  13.693  1.00  0.00     0.243 CG0
ATOM     35  O   UNL     1     -12.154   5.653  13.018  1.00  0.00    -0.273 OA
ATOM     36  H   UNL     1      -9.846   7.065  14.692  1.00  0.00     0.164 HD
ATOM     37  G   UNL     1     -10.426   4.551  14.307  1.00  0.00     0.000 G0
ENDBRANCH  32  33
BRANCH  32  38
ATOM     38  C   UNL     1     -12.212   8.858  14.820  1.00  0.00     0.143 C 
ATOM     39  C   UNL     1     -11.778   8.471  16.229  1.00  0.00     0.041 C 
BRANCH  38  40
ATOM     40  O   UNL     1     -12.215  10.294  14.710  1.00  0.00    -0.391 OA
ATOM     41  H   UNL     1     -11.651  10.517  13.945  1.00  0.00     0.211 HD
ENDBRANCH  38  40
ENDBRANCH  32  38
ENDBRANCH  29  32
ENDBRANCH  27  28
BRANCH  27  42
ATOM     42  C   UNL     1      -8.512  12.028  14.419  1.00  0.00     0.015 C 
ATOM     43  C   UNL     1      -7.369  13.013  14.146  1.00  0.00     0.010 C 
ATOM     44  C   UNL     1      -9.841  12.606  13.923  1.00  0.00     0.010 C 
ENDBRANCH  27  42
ENDBRANCH   3  27
TORSDOF 5
ENDMDL
