MODEL 1
REMARK VINA RESULT:    -7.689      0.000      0.000
REMARK INTER + INTRA:         -18.811
REMARK INTER:                 -15.554
REMARK INTRA:                  -3.257
REMARK UNBOUND:                -3.257
REMARK SMILES CC[C@@H](C)[C@@H](NC(=O)[C@@H](O)Cc1ccc(O)c(Cl)c1)C(=O)N1[C@H](C(=O)NCCCCN=C(N)N)C[C@H]2CC[C@H](OS(=O)(=O)O)C[C@@H]21
REMARK SMILES IDX 22 1 36 2 46 3 35 4 23 5 45 6 37 7 39 8 38 9 20 10 21 11
REMARK SMILES IDX 5 12 6 13 7 14 8 15 9 17 11 18 12 19 17 20 19 21 15 22 14 23
REMARK SMILES IDX 13 24 18 25 16 26 10 28 3 30 4 31 2 32 1 33 24 34 25 35
REMARK SMILES IDX 26 36 27 38 28 39 29 40 30 41 31 42 32 43 33 44 34 45 40 50
REMARK SMILES IDX 41 51 42 52 43 53 44 54
REMARK H PARENT 6 16 16 27 10 29 26 37 33 46 33 47 34 48 34 49 44 55
ROOT
ATOM      1  N   UNL     1      -0.592  -6.735  -3.613  1.00  0.00    -0.326 N 
ATOM      2  C   UNL     1      -1.291  -5.857  -1.544  1.00  0.00     0.014 C 
ATOM      3  C   UNL     1      -0.246  -5.686  -2.650  1.00  0.00     0.091 C 
ATOM      4  C   UNL     1      -1.506  -7.363  -1.516  1.00  0.00     0.041 C 
ATOM      5  C   UNL     1      -1.600  -7.653  -3.025  1.00  0.00     0.175 C 
ATOM      6  C   UNL     1      -0.273  -4.233  -3.120  1.00  0.00     0.059 C 
ATOM      7  C   UNL     1      -0.861  -5.144  -0.277  1.00  0.00     0.008 C 
ATOM      8  C   UNL     1      -0.645  -3.228  -2.009  1.00  0.00     0.143 C 
ATOM      9  C   UNL     1      -0.280  -3.753  -0.606  1.00  0.00     0.034 C 
ENDROOT
BRANCH   1  10
ATOM     10  C   UNL     1       0.016  -7.078  -4.809  1.00  0.00     0.246 C 
ATOM     11  O   UNL     1      -0.517  -6.741  -5.872  1.00  0.00    -0.272 OA
BRANCH  10  12
ATOM     12  C   UNL     1       1.373  -7.840  -4.789  1.00  0.00     0.174 C 
BRANCH  12  13
ATOM     13  N   UNL     1       2.464  -6.907  -4.508  1.00  0.00    -0.342 N 
ATOM     14  C   UNL     1       3.427  -7.087  -3.541  1.00  0.00     0.249 C 
ATOM     15  O   UNL     1       3.494  -8.075  -2.820  1.00  0.00    -0.272 OA
ATOM     16  H   UNL     1       2.448  -5.976  -4.916  1.00  0.00     0.164 HD
BRANCH  14  17
ATOM     17  C   UNL     1       4.432  -5.917  -3.477  1.00  0.00     0.207 C 
BRANCH  17  18
ATOM     18  C   UNL     1       4.466  -5.166  -4.811  1.00  0.00     0.077 C 
BRANCH  18  19
ATOM     19  C   UNL     1       4.027  -3.727  -4.657  1.00  0.00    -0.043 A 
ATOM     20  C   UNL     1       4.076  -1.422  -5.410  1.00  0.00     0.083 A 
ATOM     21  C   UNL     1       4.442  -2.757  -5.583  1.00  0.00     0.028 A 
ATOM     22  C   UNL     1       3.297  -1.047  -4.315  1.00  0.00     0.134 A 
ATOM     23  C   UNL     1       2.879  -1.998  -3.391  1.00  0.00     0.048 A 
ATOM     24  C   UNL     1       3.245  -3.335  -3.560  1.00  0.00     0.008 A 
ATOM     25  Cl  UNL     1       4.595  -0.244  -6.558  1.00  0.00    -0.080 Cl
BRANCH  22  26
ATOM     26  O   UNL     1       2.922   0.251  -4.098  1.00  0.00    -0.506 OA
ATOM     27  H   UNL     1       2.158   0.423  -4.680  1.00  0.00     0.293 HD
ENDBRANCH  22  26
ENDBRANCH  18  19
ENDBRANCH  17  18
BRANCH  17  28
ATOM     28  O   UNL     1       5.753  -6.387  -3.161  1.00  0.00    -0.383 OA
ATOM     29  H   UNL     1       5.671  -6.876  -2.311  1.00  0.00     0.211 HD
ENDBRANCH  17  28
ENDBRANCH  14  17
ENDBRANCH  12  13
BRANCH  12  30
ATOM     30  C   UNL     1       1.617  -8.664  -6.082  1.00  0.00     0.018 C 
ATOM     31  C   UNL     1       2.247 -10.026  -5.750  1.00  0.00     0.010 C 
BRANCH  30  32
ATOM     32  C   UNL     1       2.474  -7.925  -7.138  1.00  0.00     0.002 C 
ATOM     33  C   UNL     1       3.826  -8.558  -7.439  1.00  0.00     0.004 C 
ENDBRANCH  30  32
ENDBRANCH  12  30
ENDBRANCH  10  12
ENDBRANCH   1  10
BRANCH   5  34
ATOM     34  C   UNL     1      -3.015  -7.343  -3.581  1.00  0.00     0.242 C 
ATOM     35  O   UNL     1      -3.980  -8.079  -3.371  1.00  0.00    -0.273 OA
ATOM     36  N   UNL     1      -3.103  -6.218  -4.369  1.00  0.00    -0.354 N 
ATOM     37  H   UNL     1      -2.246  -5.716  -4.605  1.00  0.00     0.163 HD
BRANCH  36  38
ATOM     38  C   UNL     1      -4.373  -5.664  -4.788  1.00  0.00     0.116 C 
BRANCH  38  39
ATOM     39  C   UNL     1      -4.948  -4.786  -3.679  1.00  0.00     0.023 C 
BRANCH  39  40
ATOM     40  C   UNL     1      -6.369  -5.184  -3.297  1.00  0.00     0.026 C 
BRANCH  40  41
ATOM     41  C   UNL     1      -7.242  -5.338  -4.542  1.00  0.00     0.146 C 
BRANCH  41  42
ATOM     42  N   UNL     1      -7.391  -4.047  -5.201  1.00  0.00    -0.254 NA
ATOM     43  C   UNL     1      -7.600  -4.001  -6.463  1.00  0.00     0.185 C 
ATOM     44  N   UNL     1      -7.718  -4.999  -7.358  1.00  0.00    -0.370 N 
ATOM     45  N   UNL     1      -7.731  -2.801  -7.052  1.00  0.00    -0.370 N 
ATOM     46  H   UNL     1      -7.636  -4.816  -8.344  1.00  0.00     0.159 HD
ATOM     47  H   UNL     1      -7.659  -5.973  -7.080  1.00  0.00     0.159 HD
ATOM     48  H   UNL     1      -7.664  -1.994  -6.446  1.00  0.00     0.159 HD
ATOM     49  H   UNL     1      -8.125  -2.684  -7.969  1.00  0.00     0.159 HD
ENDBRANCH  41  42
ENDBRANCH  40  41
ENDBRANCH  39  40
ENDBRANCH  38  39
ENDBRANCH  36  38
ENDBRANCH   5  34
BRANCH   8  50
ATOM     50  O   UNL     1      -2.047  -2.957  -2.041  1.00  0.00    -0.245 OA
BRANCH  50  51
ATOM     51  S   UNL     1      -2.594  -1.496  -1.582  1.00  0.00     0.397 S 
ATOM     52  O   UNL     1      -1.787  -0.491  -2.237  1.00  0.00    -0.169 OA
ATOM     53  O   UNL     1      -2.805  -1.485  -0.149  1.00  0.00    -0.169 OA
BRANCH  51  54
ATOM     54  O   UNL     1      -4.033  -1.437  -2.296  1.00  0.00    -0.264 OA
ATOM     55  H   UNL     1      -4.261  -0.494  -2.430  1.00  0.00     0.236 HD
ENDBRANCH  51  54
ENDBRANCH  50  51
ENDBRANCH   8  50
TORSDOF 19
ENDMDL
MODEL 2
REMARK VINA RESULT:    -7.471      5.743      9.628
REMARK INTER + INTRA:         -18.370
REMARK INTER:                 -15.001
REMARK INTRA:                  -3.369
REMARK UNBOUND:                -3.257
REMARK SMILES CC[C@@H](C)[C@@H](NC(=O)[C@@H](O)Cc1ccc(O)c(Cl)c1)C(=O)N1[C@H](C(=O)NCCCCN=C(N)N)C[C@H]2CC[C@H](OS(=O)(=O)O)C[C@@H]21
REMARK SMILES IDX 22 1 36 2 46 3 35 4 23 5 45 6 37 7 39 8 38 9 20 10 21 11
REMARK SMILES IDX 5 12 6 13 7 14 8 15 9 17 11 18 12 19 17 20 19 21 15 22 14 23
REMARK SMILES IDX 13 24 18 25 16 26 10 28 3 30 4 31 2 32 1 33 24 34 25 35
REMARK SMILES IDX 26 36 27 38 28 39 29 40 30 41 31 42 32 43 33 44 34 45 40 50
REMARK SMILES IDX 41 51 42 52 43 53 44 54
REMARK H PARENT 6 16 16 27 10 29 26 37 33 46 33 47 34 48 34 49 44 55
ROOT
ATOM      1  N   UNL     1      -3.831  -8.405  -6.712  1.00  0.00    -0.326 N 
ATOM      2  C   UNL     1      -2.145  -8.316  -5.071  1.00  0.00     0.014 C 
ATOM      3  C   UNL     1      -2.907  -7.456  -6.083  1.00  0.00     0.091 C 
ATOM      4  C   UNL     1      -2.046  -9.659  -5.780  1.00  0.00     0.041 C 
ATOM      5  C   UNL     1      -3.484  -9.792  -6.314  1.00  0.00     0.175 C 
ATOM      6  C   UNL     1      -3.494  -6.252  -5.349  1.00  0.00     0.059 C 
ATOM      7  C   UNL     1      -0.878  -7.621  -4.614  1.00  0.00     0.008 C 
ATOM      8  C   UNL     1      -2.636  -5.772  -4.159  1.00  0.00     0.143 C 
ATOM      9  C   UNL     1      -1.146  -6.127  -4.338  1.00  0.00     0.034 C 
ENDROOT
BRANCH   1  10
ATOM     10  C   UNL     1      -4.761  -8.205  -7.718  1.00  0.00     0.246 C 
ATOM     11  O   UNL     1      -5.849  -8.785  -7.655  1.00  0.00    -0.272 OA
BRANCH  10  12
ATOM     12  C   UNL     1      -4.433  -7.223  -8.881  1.00  0.00     0.174 C 
BRANCH  12  13
ATOM     13  N   UNL     1      -5.616  -7.028  -9.717  1.00  0.00    -0.342 N 
ATOM     14  C   UNL     1      -6.511  -5.989  -9.590  1.00  0.00     0.249 C 
ATOM     15  O   UNL     1      -6.398  -5.088  -8.769  1.00  0.00    -0.272 OA
ATOM     16  H   UNL     1      -5.926  -7.775 -10.334  1.00  0.00     0.164 HD
BRANCH  14  17
ATOM     17  C   UNL     1      -7.667  -6.071 -10.610  1.00  0.00     0.207 C 
BRANCH  17  18
ATOM     18  C   UNL     1      -7.715  -7.459 -11.256  1.00  0.00     0.077 C 
BRANCH  18  19
ATOM     19  C   UNL     1      -9.135  -7.937 -11.456  1.00  0.00    -0.043 A 
ATOM     20  C   UNL     1     -10.739  -9.336 -12.620  1.00  0.00     0.083 A 
ATOM     21  C   UNL     1      -9.421  -8.933 -12.403  1.00  0.00     0.028 A 
ATOM     22  C   UNL     1     -11.777  -8.749 -11.897  1.00  0.00     0.134 A 
ATOM     23  C   UNL     1     -11.509  -7.762 -10.956  1.00  0.00     0.048 A 
ATOM     24  C   UNL     1     -10.191  -7.354 -10.737  1.00  0.00     0.008 A 
ATOM     25  Cl  UNL     1     -11.069 -10.561 -13.788  1.00  0.00    -0.080 Cl
BRANCH  22  26
ATOM     26  O   UNL     1     -13.086  -9.104 -12.082  1.00  0.00    -0.506 OA
ATOM     27  H   UNL     1     -13.367  -9.571 -11.274  1.00  0.00     0.293 HD
ENDBRANCH  22  26
ENDBRANCH  18  19
ENDBRANCH  17  18
BRANCH  17  28
ATOM     28  O   UNL     1      -7.524  -5.073 -11.634  1.00  0.00    -0.383 OA
ATOM     29  H   UNL     1      -7.570  -5.555 -12.491  1.00  0.00     0.211 HD
ENDBRANCH  17  28
ENDBRANCH  14  17
ENDBRANCH  12  13
BRANCH  12  30
ATOM     30  C   UNL     1      -3.192  -7.662  -9.704  1.00  0.00     0.018 C 
ATOM     31  C   UNL     1      -2.681  -6.507 -10.580  1.00  0.00     0.010 C 
BRANCH  30  32
ATOM     32  C   UNL     1      -3.434  -8.920 -10.572  1.00  0.00     0.002 C 
ATOM     33  C   UNL     1      -2.453  -9.119 -11.720  1.00  0.00     0.004 C 
ENDBRANCH  30  32
ENDBRANCH  12  30
ENDBRANCH  10  12
ENDBRANCH   1  10
BRANCH   5  34
ATOM     34  C   UNL     1      -4.455 -10.310  -5.220  1.00  0.00     0.242 C 
ATOM     35  O   UNL     1      -4.317 -11.410  -4.685  1.00  0.00    -0.273 OA
ATOM     36  N   UNL     1      -5.510  -9.475  -4.930  1.00  0.00    -0.354 N 
ATOM     37  H   UNL     1      -5.638  -8.632  -5.492  1.00  0.00     0.163 HD
BRANCH  36  38
ATOM     38  C   UNL     1      -6.383  -9.696  -3.796  1.00  0.00     0.116 C 
BRANCH  38  39
ATOM     39  C   UNL     1      -7.269  -8.472  -3.577  1.00  0.00     0.023 C 
BRANCH  39  40
ATOM     40  C   UNL     1      -6.461  -7.189  -3.417  1.00  0.00     0.026 C 
BRANCH  40  41
ATOM     41  C   UNL     1      -7.361  -5.961  -3.552  1.00  0.00     0.146 C 
BRANCH  41  42
ATOM     42  N   UNL     1      -6.598  -4.849  -4.103  1.00  0.00    -0.254 NA
ATOM     43  C   UNL     1      -6.814  -4.467  -5.305  1.00  0.00     0.185 C 
ATOM     44  N   UNL     1      -7.681  -4.937  -6.221  1.00  0.00    -0.370 N 
ATOM     45  N   UNL     1      -6.096  -3.442  -5.796  1.00  0.00    -0.370 N 
ATOM     46  H   UNL     1      -7.574  -4.707  -7.194  1.00  0.00     0.159 HD
ATOM     47  H   UNL     1      -8.312  -5.704  -6.011  1.00  0.00     0.159 HD
ATOM     48  H   UNL     1      -5.425  -3.024  -5.167  1.00  0.00     0.159 HD
ATOM     49  H   UNL     1      -6.363  -2.939  -6.623  1.00  0.00     0.159 HD
ENDBRANCH  41  42
ENDBRANCH  40  41
ENDBRANCH  39  40
ENDBRANCH  38  39
ENDBRANCH  36  38
ENDBRANCH   5  34
BRANCH   8  50
ATOM     50  O   UNL     1      -3.102  -6.367  -2.947  1.00  0.00    -0.245 OA
BRANCH  50  51
ATOM     51  S   UNL     1      -2.786  -5.644  -1.524  1.00  0.00     0.397 S 
ATOM     52  O   UNL     1      -2.686  -4.221  -1.759  1.00  0.00    -0.169 OA
ATOM     53  O   UNL     1      -1.747  -6.374  -0.829  1.00  0.00    -0.169 OA
BRANCH  51  54
ATOM     54  O   UNL     1      -4.164  -5.860  -0.725  1.00  0.00    -0.264 OA
ATOM     55  H   UNL     1      -4.900  -5.664  -1.340  1.00  0.00     0.236 HD
ENDBRANCH  51  54
ENDBRANCH  50  51
ENDBRANCH   8  50
TORSDOF 19
ENDMDL
MODEL 3
REMARK VINA RESULT:    -7.375      4.405      6.991
REMARK INTER + INTRA:         -18.177
REMARK INTER:                 -14.943
REMARK INTRA:                  -3.234
REMARK UNBOUND:                -3.257
REMARK SMILES CC[C@@H](C)[C@@H](NC(=O)[C@@H](O)Cc1ccc(O)c(Cl)c1)C(=O)N1[C@H](C(=O)NCCCCN=C(N)N)C[C@H]2CC[C@H](OS(=O)(=O)O)C[C@@H]21
REMARK SMILES IDX 22 1 36 2 46 3 35 4 23 5 45 6 37 7 39 8 38 9 20 10 21 11
REMARK SMILES IDX 5 12 6 13 7 14 8 15 9 17 11 18 12 19 17 20 19 21 15 22 14 23
REMARK SMILES IDX 13 24 18 25 16 26 10 28 3 30 4 31 2 32 1 33 24 34 25 35
REMARK SMILES IDX 26 36 27 38 28 39 29 40 30 41 31 42 32 43 33 44 34 45 40 50
REMARK SMILES IDX 41 51 42 52 43 53 44 54
REMARK H PARENT 6 16 16 27 10 29 26 37 33 46 33 47 34 48 34 49 44 55
ROOT
ATOM      1  N   UNL     1       2.316  -7.487  -7.799  1.00  0.00    -0.326 N 
ATOM      2  C   UNL     1       3.128  -5.594  -8.938  1.00  0.00     0.014 C 
ATOM      3  C   UNL     1       3.578  -6.851  -8.188  1.00  0.00     0.091 C 
ATOM      4  C   UNL     1       1.866  -5.191  -8.191  1.00  0.00     0.041 C 
ATOM      5  C   UNL     1       1.182  -6.564  -8.052  1.00  0.00     0.175 C 
ATOM      6  C   UNL     1       4.536  -7.632  -9.085  1.00  0.00     0.059 C 
ATOM      7  C   UNL     1       4.267  -4.601  -9.064  1.00  0.00     0.008 C 
ATOM      8  C   UNL     1       5.380  -6.738 -10.020  1.00  0.00     0.143 C 
ATOM      9  C   UNL     1       5.578  -5.322  -9.444  1.00  0.00     0.034 C 
ENDROOT
BRANCH   1  10
ATOM     10  C   UNL     1       2.092  -8.649  -7.080  1.00  0.00     0.246 C 
ATOM     11  O   UNL     1       1.590  -9.623  -7.652  1.00  0.00    -0.272 OA
BRANCH  10  12
ATOM     12  C   UNL     1       2.515  -8.718  -5.584  1.00  0.00     0.174 C 
BRANCH  12  13
ATOM     13  N   UNL     1       2.366  -7.403  -4.962  1.00  0.00    -0.342 N 
ATOM     14  C   UNL     1       1.237  -6.961  -4.309  1.00  0.00     0.249 C 
ATOM     15  O   UNL     1       0.230  -7.640  -4.152  1.00  0.00    -0.272 OA
ATOM     16  H   UNL     1       3.055  -6.678  -5.146  1.00  0.00     0.164 HD
BRANCH  14  17
ATOM     17  C   UNL     1       1.383  -5.520  -3.776  1.00  0.00     0.207 C 
BRANCH  17  18
ATOM     18  C   UNL     1       2.861  -5.173  -3.569  1.00  0.00     0.077 C 
BRANCH  18  19
ATOM     19  C   UNL     1       3.187  -3.783  -4.066  1.00  0.00    -0.043 A 
ATOM     20  C   UNL     1       4.453  -2.314  -5.523  1.00  0.00     0.083 A 
ATOM     21  C   UNL     1       4.118  -3.601  -5.101  1.00  0.00     0.028 A 
ATOM     22  C   UNL     1       3.865  -1.204  -4.916  1.00  0.00     0.134 A 
ATOM     23  C   UNL     1       2.941  -1.370  -3.890  1.00  0.00     0.048 A 
ATOM     24  C   UNL     1       2.605  -2.657  -3.464  1.00  0.00     0.008 A 
ATOM     25  Cl  UNL     1       5.599  -2.111  -6.796  1.00  0.00    -0.080 Cl
BRANCH  22  26
ATOM     26  O   UNL     1       4.170   0.077  -5.289  1.00  0.00    -0.506 OA
ATOM     27  H   UNL     1       3.818   0.663  -4.594  1.00  0.00     0.293 HD
ENDBRANCH  22  26
ENDBRANCH  18  19
ENDBRANCH  17  18
BRANCH  17  28
ATOM     28  O   UNL     1       0.676  -5.352  -2.537  1.00  0.00    -0.383 OA
ATOM     29  H   UNL     1       0.429  -6.258  -2.240  1.00  0.00     0.211 HD
ENDBRANCH  17  28
ENDBRANCH  14  17
ENDBRANCH  12  13
BRANCH  12  30
ATOM     30  C   UNL     1       3.938  -9.308  -5.390  1.00  0.00     0.018 C 
ATOM     31  C   UNL     1       3.866 -10.785  -4.974  1.00  0.00     0.010 C 
BRANCH  30  32
ATOM     32  C   UNL     1       4.808  -8.514  -4.384  1.00  0.00     0.002 C 
ATOM     33  C   UNL     1       5.822  -7.564  -5.008  1.00  0.00     0.004 C 
ENDBRANCH  30  32
ENDBRANCH  12  30
ENDBRANCH  10  12
ENDBRANCH   1  10
BRANCH   5  34
ATOM     34  C   UNL     1       0.427  -6.961  -9.348  1.00  0.00     0.242 C 
ATOM     35  O   UNL     1       0.898  -7.748 -10.168  1.00  0.00    -0.273 OA
ATOM     36  N   UNL     1      -0.780  -6.327  -9.540  1.00  0.00    -0.354 N 
ATOM     37  H   UNL     1      -1.061  -5.595  -8.886  1.00  0.00     0.163 HD
BRANCH  36  38
ATOM     38  C   UNL     1      -1.710  -6.732 -10.574  1.00  0.00     0.116 C 
BRANCH  38  39
ATOM     39  C   UNL     1      -3.114  -6.241 -10.229  1.00  0.00     0.023 C 
BRANCH  39  40
ATOM     40  C   UNL     1      -3.377  -6.236  -8.727  1.00  0.00     0.026 C 
BRANCH  40  41
ATOM     41  C   UNL     1      -4.870  -6.077  -8.439  1.00  0.00     0.146 C 
BRANCH  41  42
ATOM     42  N   UNL     1      -5.613  -6.049  -9.692  1.00  0.00    -0.254 NA
ATOM     43  C   UNL     1      -6.602  -5.246  -9.824  1.00  0.00     0.185 C 
ATOM     44  N   UNL     1      -7.117  -4.358  -8.954  1.00  0.00    -0.370 N 
ATOM     45  N   UNL     1      -7.277  -5.239 -10.985  1.00  0.00    -0.370 N 
ATOM     46  H   UNL     1      -8.035  -3.973  -9.098  1.00  0.00     0.159 HD
ATOM     47  H   UNL     1      -6.718  -4.224  -8.030  1.00  0.00     0.159 HD
ATOM     48  H   UNL     1      -6.947  -5.874 -11.699  1.00  0.00     0.159 HD
ATOM     49  H   UNL     1      -7.894  -4.492 -11.250  1.00  0.00     0.159 HD
ENDBRANCH  41  42
ENDBRANCH  40  41
ENDBRANCH  39  40
ENDBRANCH  38  39
ENDBRANCH  36  38
ENDBRANCH   5  34
BRANCH   8  50
ATOM     50  O   UNL     1       4.745  -6.625 -11.294  1.00  0.00    -0.245 OA
BRANCH  50  51
ATOM     51  S   UNL     1       5.455  -7.275 -12.605  1.00  0.00     0.397 S 
ATOM     52  O   UNL     1       6.883  -7.086 -12.480  1.00  0.00    -0.169 OA
ATOM     53  O   UNL     1       4.737  -6.872 -13.797  1.00  0.00    -0.169 OA
BRANCH  51  54
ATOM     54  O   UNL     1       5.200  -8.847 -12.380  1.00  0.00    -0.264 OA
ATOM     55  H   UNL     1       5.628  -9.327 -13.118  1.00  0.00     0.236 HD
ENDBRANCH  51  54
ENDBRANCH  50  51
ENDBRANCH   8  50
TORSDOF 19
ENDMDL
MODEL 4
REMARK VINA RESULT:    -7.288      3.142      4.742
REMARK INTER + INTRA:         -18.000
REMARK INTER:                 -15.017
REMARK INTRA:                  -2.983
REMARK UNBOUND:                -3.257
REMARK SMILES CC[C@@H](C)[C@@H](NC(=O)[C@@H](O)Cc1ccc(O)c(Cl)c1)C(=O)N1[C@H](C(=O)NCCCCN=C(N)N)C[C@H]2CC[C@H](OS(=O)(=O)O)C[C@@H]21
REMARK SMILES IDX 22 1 36 2 46 3 35 4 23 5 45 6 37 7 39 8 38 9 20 10 21 11
REMARK SMILES IDX 5 12 6 13 7 14 8 15 9 17 11 18 12 19 17 20 19 21 15 22 14 23
REMARK SMILES IDX 13 24 18 25 16 26 10 28 3 30 4 31 2 32 1 33 24 34 25 35
REMARK SMILES IDX 26 36 27 38 28 39 29 40 30 41 31 42 32 43 33 44 34 45 40 50
REMARK SMILES IDX 41 51 42 52 43 53 44 54
REMARK H PARENT 6 16 16 27 10 29 26 37 33 46 33 47 34 48 34 49 44 55
ROOT
ATOM      1  N   UNL     1      -0.063  -7.041  -6.050  1.00  0.00    -0.326 N 
ATOM      2  C   UNL     1      -1.908  -8.055  -4.997  1.00  0.00     0.014 C 
ATOM      3  C   UNL     1      -0.736  -7.102  -4.749  1.00  0.00     0.091 C 
ATOM      4  C   UNL     1      -1.329  -9.047  -5.994  1.00  0.00     0.041 C 
ATOM      5  C   UNL     1      -0.614  -8.080  -6.956  1.00  0.00     0.175 C 
ATOM      6  C   UNL     1      -1.284  -5.806  -4.156  1.00  0.00     0.059 C 
ATOM      7  C   UNL     1      -2.479  -8.565  -3.688  1.00  0.00     0.008 C 
ATOM      8  C   UNL     1      -2.540  -6.006  -3.280  1.00  0.00     0.143 C 
ATOM      9  C   UNL     1      -2.597  -7.418  -2.663  1.00  0.00     0.034 C 
ENDROOT
BRANCH   1  10
ATOM     10  C   UNL     1       1.075  -6.350  -6.429  1.00  0.00     0.246 C 
ATOM     11  O   UNL     1       1.139  -5.879  -7.570  1.00  0.00    -0.272 OA
BRANCH  10  12
ATOM     12  C   UNL     1       2.225  -6.143  -5.402  1.00  0.00     0.174 C 
BRANCH  12  13
ATOM     13  N   UNL     1       2.178  -4.783  -4.866  1.00  0.00    -0.342 N 
ATOM     14  C   UNL     1       2.466  -4.436  -3.565  1.00  0.00     0.249 C 
ATOM     15  O   UNL     1       2.825  -5.235  -2.710  1.00  0.00    -0.272 OA
ATOM     16  H   UNL     1       1.747  -4.041  -5.413  1.00  0.00     0.164 HD
BRANCH  14  17
ATOM     17  C   UNL     1       2.307  -2.923  -3.304  1.00  0.00     0.207 C 
BRANCH  17  18
ATOM     18  C   UNL     1       0.958  -2.426  -3.834  1.00  0.00     0.077 C 
BRANCH  18  19
ATOM     19  C   UNL     1      -0.049  -2.241  -2.721  1.00  0.00    -0.043 A 
ATOM     20  C   UNL     1      -1.279  -3.129  -0.829  1.00  0.00     0.083 A 
ATOM     21  C   UNL     1      -0.314  -3.287  -1.824  1.00  0.00     0.028 A 
ATOM     22  C   UNL     1      -1.985  -1.930  -0.724  1.00  0.00     0.134 A 
ATOM     23  C   UNL     1      -1.732  -0.886  -1.606  1.00  0.00     0.048 A 
ATOM     24  C   UNL     1      -0.768  -1.041  -2.604  1.00  0.00     0.008 A 
ATOM     25  Cl  UNL     1      -1.592  -4.427   0.264  1.00  0.00    -0.080 Cl
BRANCH  22  26
ATOM     26  O   UNL     1      -2.948  -1.732   0.228  1.00  0.00    -0.506 OA
ATOM     27  H   UNL     1      -2.729  -0.896   0.678  1.00  0.00     0.293 HD
ENDBRANCH  22  26
ENDBRANCH  18  19
ENDBRANCH  17  18
BRANCH  17  28
ATOM     28  O   UNL     1       3.367  -2.177  -3.924  1.00  0.00    -0.383 OA
ATOM     29  H   UNL     1       2.965  -1.329  -4.220  1.00  0.00     0.211 HD
ENDBRANCH  17  28
ENDBRANCH  14  17
ENDBRANCH  12  13
BRANCH  12  30
ATOM     30  C   UNL     1       3.620  -6.502  -5.983  1.00  0.00     0.018 C 
ATOM     31  C   UNL     1       4.219  -5.308  -6.742  1.00  0.00     0.010 C 
BRANCH  30  32
ATOM     32  C   UNL     1       3.611  -7.758  -6.888  1.00  0.00     0.002 C 
ATOM     33  C   UNL     1       4.959  -8.446  -7.060  1.00  0.00     0.004 C 
ENDBRANCH  30  32
ENDBRANCH  12  30
ENDBRANCH  10  12
ENDBRANCH   1  10
BRANCH   5  34
ATOM     34  C   UNL     1      -1.601  -7.453  -7.976  1.00  0.00     0.242 C 
ATOM     35  O   UNL     1      -2.460  -6.637  -7.643  1.00  0.00    -0.273 OA
ATOM     36  N   UNL     1      -1.481  -7.916  -9.267  1.00  0.00    -0.354 N 
ATOM     37  H   UNL     1      -0.831  -8.679  -9.457  1.00  0.00     0.163 HD
BRANCH  36  38
ATOM     38  C   UNL     1      -2.167  -7.291 -10.379  1.00  0.00     0.116 C 
BRANCH  38  39
ATOM     39  C   UNL     1      -3.564  -7.887 -10.528  1.00  0.00     0.023 C 
BRANCH  39  40
ATOM     40  C   UNL     1      -4.660  -6.828 -10.463  1.00  0.00     0.026 C 
BRANCH  40  41
ATOM     41  C   UNL     1      -5.649  -7.139  -9.339  1.00  0.00     0.146 C 
BRANCH  41  42
ATOM     42  N   UNL     1      -5.696  -6.025  -8.402  1.00  0.00    -0.254 NA
ATOM     43  C   UNL     1      -6.805  -5.421  -8.191  1.00  0.00     0.185 C 
ATOM     44  N   UNL     1      -8.025  -5.645  -8.713  1.00  0.00    -0.370 N 
ATOM     45  N   UNL     1      -6.826  -4.393  -7.327  1.00  0.00    -0.370 N 
ATOM     46  H   UNL     1      -8.746  -4.947  -8.647  1.00  0.00     0.159 HD
ATOM     47  H   UNL     1      -8.191  -6.395  -9.376  1.00  0.00     0.159 HD
ATOM     48  H   UNL     1      -5.948  -4.164  -6.881  1.00  0.00     0.159 HD
ATOM     49  H   UNL     1      -7.676  -4.031  -6.933  1.00  0.00     0.159 HD
ENDBRANCH  41  42
ENDBRANCH  40  41
ENDBRANCH  39  40
ENDBRANCH  38  39
ENDBRANCH  36  38
ENDBRANCH   5  34
BRANCH   8  50
ATOM     50  O   UNL     1      -3.719  -5.804  -4.059  1.00  0.00    -0.245 OA
BRANCH  50  51
ATOM     51  S   UNL     1      -4.959  -4.956  -3.435  1.00  0.00     0.397 S 
ATOM     52  O   UNL     1      -5.554  -5.746  -2.381  1.00  0.00    -0.169 OA
ATOM     53  O   UNL     1      -5.755  -4.398  -4.509  1.00  0.00    -0.169 OA
BRANCH  51  54
ATOM     54  O   UNL     1      -4.200  -3.744  -2.700  1.00  0.00    -0.264 OA
ATOM     55  H   UNL     1      -4.162  -2.992  -3.325  1.00  0.00     0.236 HD
ENDBRANCH  51  54
ENDBRANCH  50  51
ENDBRANCH   8  50
TORSDOF 19
ENDMDL
MODEL 5
REMARK VINA RESULT:    -7.103      3.043      4.625
REMARK INTER + INTRA:         -17.626
REMARK INTER:                 -14.369
REMARK INTRA:                  -3.257
REMARK UNBOUND:                -3.257
REMARK SMILES CC[C@@H](C)[C@@H](NC(=O)[C@@H](O)Cc1ccc(O)c(Cl)c1)C(=O)N1[C@H](C(=O)NCCCCN=C(N)N)C[C@H]2CC[C@H](OS(=O)(=O)O)C[C@@H]21
REMARK SMILES IDX 22 1 36 2 46 3 35 4 23 5 45 6 37 7 39 8 38 9 20 10 21 11
REMARK SMILES IDX 5 12 6 13 7 14 8 15 9 17 11 18 12 19 17 20 19 21 15 22 14 23
REMARK SMILES IDX 13 24 18 25 16 26 10 28 3 30 4 31 2 32 1 33 24 34 25 35
REMARK SMILES IDX 26 36 27 38 28 39 29 40 30 41 31 42 32 43 33 44 34 45 40 50
REMARK SMILES IDX 41 51 42 52 43 53 44 54
REMARK H PARENT 6 16 16 27 10 29 26 37 33 46 33 47 34 48 34 49 44 55
ROOT
ATOM      1  N   UNL     1      -1.136  -7.783  -6.419  1.00  0.00    -0.326 N 
ATOM      2  C   UNL     1      -2.906  -8.547  -5.068  1.00  0.00     0.014 C 
ATOM      3  C   UNL     1      -1.657  -7.661  -5.054  1.00  0.00     0.091 C 
ATOM      4  C   UNL     1      -2.507  -9.675  -6.007  1.00  0.00     0.041 C 
ATOM      5  C   UNL     1      -1.849  -8.865  -7.140  1.00  0.00     0.175 C 
ATOM      6  C   UNL     1      -2.053  -6.275  -4.551  1.00  0.00     0.059 C 
ATOM      7  C   UNL     1      -3.352  -8.877  -3.657  1.00  0.00     0.008 C 
ATOM      8  C   UNL     1      -3.209  -6.292  -3.527  1.00  0.00     0.143 C 
ATOM      9  C   UNL     1      -3.281  -7.626  -2.757  1.00  0.00     0.034 C 
ENDROOT
BRANCH   1  10
ATOM     10  C   UNL     1      -0.009  -7.218  -6.992  1.00  0.00     0.246 C 
ATOM     11  O   UNL     1      -0.123  -6.593  -8.051  1.00  0.00    -0.272 OA
BRANCH  10  12
ATOM     12  C   UNL     1       1.364  -7.346  -6.272  1.00  0.00     0.174 C 
BRANCH  12  13
ATOM     13  N   UNL     1       1.543  -6.234  -5.338  1.00  0.00    -0.342 N 
ATOM     14  C   UNL     1       1.882  -6.364  -4.010  1.00  0.00     0.249 C 
ATOM     15  O   UNL     1       2.100  -7.438  -3.464  1.00  0.00    -0.272 OA
ATOM     16  H   UNL     1       1.245  -5.299  -5.606  1.00  0.00     0.164 HD
BRANCH  14  17
ATOM     17  C   UNL     1       1.978  -5.005  -3.284  1.00  0.00     0.207 C 
BRANCH  17  18
ATOM     18  C   UNL     1       0.823  -4.090  -3.705  1.00  0.00     0.077 C 
BRANCH  18  19
ATOM     19  C   UNL     1      -0.130  -3.827  -2.561  1.00  0.00    -0.043 A 
ATOM     20  C   UNL     1      -1.481  -2.286  -1.262  1.00  0.00     0.083 A 
ATOM     21  C   UNL     1      -0.640  -2.537  -2.348  1.00  0.00     0.028 A 
ATOM     22  C   UNL     1      -1.815  -3.319  -0.385  1.00  0.00     0.134 A 
ATOM     23  C   UNL     1      -1.317  -4.601  -0.585  1.00  0.00     0.048 A 
ATOM     24  C   UNL     1      -0.474  -4.854  -1.669  1.00  0.00     0.008 A 
ATOM     25  Cl  UNL     1      -2.097  -0.695  -1.016  1.00  0.00    -0.080 Cl
BRANCH  22  26
ATOM     26  O   UNL     1      -2.626  -3.119   0.699  1.00  0.00    -0.506 OA
ATOM     27  H   UNL     1      -3.511  -2.904   0.350  1.00  0.00     0.293 HD
ENDBRANCH  22  26
ENDBRANCH  18  19
ENDBRANCH  17  18
BRANCH  17  28
ATOM     28  O   UNL     1       3.228  -4.355  -3.567  1.00  0.00    -0.383 OA
ATOM     29  H   UNL     1       3.008  -3.417  -3.764  1.00  0.00     0.211 HD
ENDBRANCH  17  28
ENDBRANCH  14  17
ENDBRANCH  12  13
BRANCH  12  30
ATOM     30  C   UNL     1       2.551  -7.484  -7.263  1.00  0.00     0.018 C 
ATOM     31  C   UNL     1       3.225  -8.858  -7.120  1.00  0.00     0.010 C 
BRANCH  30  32
ATOM     32  C   UNL     1       3.606  -6.359  -7.130  1.00  0.00     0.002 C 
ATOM     33  C   UNL     1       4.862  -6.731  -6.354  1.00  0.00     0.004 C 
ENDBRANCH  30  32
ENDBRANCH  12  30
ENDBRANCH  10  12
ENDBRANCH   1  10
BRANCH   5  34
ATOM     34  C   UNL     1      -2.907  -8.275  -8.110  1.00  0.00     0.242 C 
ATOM     35  O   UNL     1      -3.518  -8.972  -8.920  1.00  0.00    -0.273 OA
ATOM     36  N   UNL     1      -3.073  -6.910  -8.037  1.00  0.00    -0.354 N 
ATOM     37  H   UNL     1      -2.452  -6.372  -7.431  1.00  0.00     0.163 HD
BRANCH  36  38
ATOM     38  C   UNL     1      -4.159  -6.226  -8.707  1.00  0.00     0.116 C 
BRANCH  38  39
ATOM     39  C   UNL     1      -5.391  -6.201  -7.806  1.00  0.00     0.023 C 
BRANCH  39  40
ATOM     40  C   UNL     1      -6.536  -5.394  -8.408  1.00  0.00     0.026 C 
BRANCH  40  41
ATOM     41  C   UNL     1      -7.296  -6.220  -9.445  1.00  0.00     0.146 C 
BRANCH  41  42
ATOM     42  N   UNL     1      -8.608  -5.631  -9.679  1.00  0.00    -0.254 NA
ATOM     43  C   UNL     1      -9.289  -5.989 -10.702  1.00  0.00     0.185 C 
ATOM     44  N   UNL     1      -8.995  -6.875 -11.671  1.00  0.00    -0.370 N 
ATOM     45  N   UNL     1     -10.494  -5.431 -10.903  1.00  0.00    -0.370 N 
ATOM     46  H   UNL     1      -9.507  -6.877 -12.537  1.00  0.00     0.159 HD
ATOM     47  H   UNL     1      -8.126  -7.400 -11.667  1.00  0.00     0.159 HD
ATOM     48  H   UNL     1     -10.797  -4.757 -10.212  1.00  0.00     0.159 HD
ATOM     49  H   UNL     1     -11.176  -5.819 -11.529  1.00  0.00     0.159 HD
ENDBRANCH  41  42
ENDBRANCH  40  41
ENDBRANCH  39  40
ENDBRANCH  38  39
ENDBRANCH  36  38
ENDBRANCH   5  34
BRANCH   8  50
ATOM     50  O   UNL     1      -4.456  -6.085  -4.193  1.00  0.00    -0.245 OA
BRANCH  50  51
ATOM     51  S   UNL     1      -5.454  -4.908  -3.680  1.00  0.00     0.397 S 
ATOM     52  O   UNL     1      -6.348  -5.477  -2.697  1.00  0.00    -0.169 OA
ATOM     53  O   UNL     1      -5.951  -4.162  -4.817  1.00  0.00    -0.169 OA
BRANCH  51  54
ATOM     54  O   UNL     1      -4.453  -3.953  -2.860  1.00  0.00    -0.264 OA
ATOM     55  H   UNL     1      -4.639  -4.074  -1.906  1.00  0.00     0.236 HD
ENDBRANCH  51  54
ENDBRANCH  50  51
ENDBRANCH   8  50
TORSDOF 19
ENDMDL
MODEL 6
REMARK VINA RESULT:    -7.067      3.861      5.187
REMARK INTER + INTRA:         -17.554
REMARK INTER:                 -14.163
REMARK INTRA:                  -3.391
REMARK UNBOUND:                -3.257
REMARK SMILES CC[C@@H](C)[C@@H](NC(=O)[C@@H](O)Cc1ccc(O)c(Cl)c1)C(=O)N1[C@H](C(=O)NCCCCN=C(N)N)C[C@H]2CC[C@H](OS(=O)(=O)O)C[C@@H]21
REMARK SMILES IDX 22 1 36 2 46 3 35 4 23 5 45 6 37 7 39 8 38 9 20 10 21 11
REMARK SMILES IDX 5 12 6 13 7 14 8 15 9 17 11 18 12 19 17 20 19 21 15 22 14 23
REMARK SMILES IDX 13 24 18 25 16 26 10 28 3 30 4 31 2 32 1 33 24 34 25 35
REMARK SMILES IDX 26 36 27 38 28 39 29 40 30 41 31 42 32 43 33 44 34 45 40 50
REMARK SMILES IDX 41 51 42 52 43 53 44 54
REMARK H PARENT 6 16 16 27 10 29 26 37 33 46 33 47 34 48 34 49 44 55
ROOT
ATOM      1  N   UNL     1      -2.822  -7.711  -7.651  1.00  0.00    -0.326 N 
ATOM      2  C   UNL     1      -3.462  -8.718  -5.622  1.00  0.00     0.014 C 
ATOM      3  C   UNL     1      -2.720  -7.511  -6.203  1.00  0.00     0.091 C 
ATOM      4  C   UNL     1      -3.136  -9.822  -6.616  1.00  0.00     0.041 C 
ATOM      5  C   UNL     1      -3.349  -9.068  -7.941  1.00  0.00     0.175 C 
ATOM      6  C   UNL     1      -3.319  -6.241  -5.602  1.00  0.00     0.059 C 
ATOM      7  C   UNL     1      -3.121  -8.912  -4.157  1.00  0.00     0.008 C 
ATOM      8  C   UNL     1      -3.844  -6.422  -4.162  1.00  0.00     0.143 C 
ATOM      9  C   UNL     1      -3.113  -7.558  -3.417  1.00  0.00     0.034 C 
ENDROOT
BRANCH   1  10
ATOM     10  C   UNL     1      -2.321  -6.946  -8.690  1.00  0.00     0.246 C 
ATOM     11  O   UNL     1      -2.889  -5.890  -8.988  1.00  0.00    -0.272 OA
BRANCH  10  12
ATOM     12  C   UNL     1      -1.032  -7.408  -9.431  1.00  0.00     0.174 C 
BRANCH  12  13
ATOM     13  N   UNL     1       0.093  -6.554  -9.053  1.00  0.00    -0.342 N 
ATOM     14  C   UNL     1       1.246  -6.991  -8.441  1.00  0.00     0.249 C 
ATOM     15  O   UNL     1       1.470  -8.163  -8.166  1.00  0.00    -0.272 OA
ATOM     16  H   UNL     1      -0.012  -5.543  -9.076  1.00  0.00     0.164 HD
BRANCH  14  17
ATOM     17  C   UNL     1       2.240  -5.845  -8.155  1.00  0.00     0.207 C 
BRANCH  17  18
ATOM     18  C   UNL     1       2.691  -5.880  -6.691  1.00  0.00     0.077 C 
BRANCH  18  19
ATOM     19  C   UNL     1       3.243  -4.546  -6.242  1.00  0.00    -0.043 A 
ATOM     20  C   UNL     1       3.129  -2.604  -4.792  1.00  0.00     0.083 A 
ATOM     21  C   UNL     1       2.648  -3.858  -5.173  1.00  0.00     0.028 A 
ATOM     22  C   UNL     1       4.202  -2.031  -5.475  1.00  0.00     0.134 A 
ATOM     23  C   UNL     1       4.800  -2.702  -6.535  1.00  0.00     0.048 A 
ATOM     24  C   UNL     1       4.321  -3.956  -6.920  1.00  0.00     0.008 A 
ATOM     25  Cl  UNL     1       2.384  -1.774  -3.477  1.00  0.00    -0.080 Cl
BRANCH  22  26
ATOM     26  O   UNL     1       4.701  -0.800  -5.145  1.00  0.00    -0.506 OA
ATOM     27  H   UNL     1       5.654  -0.819  -5.352  1.00  0.00     0.293 HD
ENDBRANCH  22  26
ENDBRANCH  18  19
ENDBRANCH  17  18
BRANCH  17  28
ATOM     28  O   UNL     1       1.652  -4.566  -8.442  1.00  0.00    -0.383 OA
ATOM     29  H   UNL     1       2.087  -4.245  -9.264  1.00  0.00     0.211 HD
ENDBRANCH  17  28
ENDBRANCH  14  17
ENDBRANCH  12  13
BRANCH  12  30
ATOM     30  C   UNL     1      -1.222  -7.492 -10.969  1.00  0.00     0.018 C 
ATOM     31  C   UNL     1      -2.552  -8.179 -11.319  1.00  0.00     0.010 C 
BRANCH  30  32
ATOM     32  C   UNL     1      -0.053  -8.194 -11.702  1.00  0.00     0.002 C 
ATOM     33  C   UNL     1       0.285  -9.592 -11.201  1.00  0.00     0.004 C 
ENDBRANCH  30  32
ENDBRANCH  12  30
ENDBRANCH  10  12
ENDBRANCH   1  10
BRANCH   5  34
ATOM     34  C   UNL     1      -4.851  -9.004  -8.327  1.00  0.00     0.242 C 
ATOM     35  O   UNL     1      -5.687  -8.435  -7.626  1.00  0.00    -0.273 OA
ATOM     36  N   UNL     1      -5.187  -9.674  -9.482  1.00  0.00    -0.354 N 
ATOM     37  H   UNL     1      -4.472 -10.227  -9.956  1.00  0.00     0.163 HD
BRANCH  36  38
ATOM     38  C   UNL     1      -6.489  -9.540 -10.102  1.00  0.00     0.116 C 
BRANCH  38  39
ATOM     39  C   UNL     1      -6.469  -8.391 -11.107  1.00  0.00     0.023 C 
BRANCH  39  40
ATOM     40  C   UNL     1      -7.795  -7.639 -11.160  1.00  0.00     0.026 C 
BRANCH  40  41
ATOM     41  C   UNL     1      -7.579  -6.143 -10.932  1.00  0.00     0.146 C 
BRANCH  41  42
ATOM     42  N   UNL     1      -6.484  -5.940  -9.993  1.00  0.00    -0.254 NA
ATOM     43  C   UNL     1      -6.732  -5.505  -8.815  1.00  0.00     0.185 C 
ATOM     44  N   UNL     1      -7.905  -5.177  -8.243  1.00  0.00    -0.370 N 
ATOM     45  N   UNL     1      -5.708  -5.321  -7.966  1.00  0.00    -0.370 N 
ATOM     46  H   UNL     1      -7.929  -4.622  -7.405  1.00  0.00     0.159 HD
ATOM     47  H   UNL     1      -8.785  -5.269  -8.741  1.00  0.00     0.159 HD
ATOM     48  H   UNL     1      -4.788  -5.553  -8.316  1.00  0.00     0.159 HD
ATOM     49  H   UNL     1      -5.835  -5.215  -6.975  1.00  0.00     0.159 HD
ENDBRANCH  41  42
ENDBRANCH  40  41
ENDBRANCH  39  40
ENDBRANCH  38  39
ENDBRANCH  36  38
ENDBRANCH   5  34
BRANCH   8  50
ATOM     50  O   UNL     1      -5.241  -6.720  -4.183  1.00  0.00    -0.245 OA
BRANCH  50  51
ATOM     51  S   UNL     1      -6.318  -5.539  -3.881  1.00  0.00     0.397 S 
ATOM     52  O   UNL     1      -5.603  -4.284  -3.833  1.00  0.00    -0.169 OA
ATOM     53  O   UNL     1      -7.203  -5.951  -2.812  1.00  0.00    -0.169 OA
BRANCH  51  54
ATOM     54  O   UNL     1      -7.170  -5.506  -5.245  1.00  0.00    -0.264 OA
ATOM     55  H   UNL     1      -8.009  -5.037  -5.061  1.00  0.00     0.236 HD
ENDBRANCH  51  54
ENDBRANCH  50  51
ENDBRANCH   8  50
TORSDOF 19
ENDMDL
MODEL 7
REMARK VINA RESULT:    -6.942      5.947      9.555
REMARK INTER + INTRA:         -17.300
REMARK INTER:                 -15.046
REMARK INTRA:                  -2.254
REMARK UNBOUND:                -3.257
REMARK SMILES CC[C@@H](C)[C@@H](NC(=O)[C@@H](O)Cc1ccc(O)c(Cl)c1)C(=O)N1[C@H](C(=O)NCCCCN=C(N)N)C[C@H]2CC[C@H](OS(=O)(=O)O)C[C@@H]21
REMARK SMILES IDX 22 1 36 2 46 3 35 4 23 5 45 6 37 7 39 8 38 9 20 10 21 11
REMARK SMILES IDX 5 12 6 13 7 14 8 15 9 17 11 18 12 19 17 20 19 21 15 22 14 23
REMARK SMILES IDX 13 24 18 25 16 26 10 28 3 30 4 31 2 32 1 33 24 34 25 35
REMARK SMILES IDX 26 36 27 38 28 39 29 40 30 41 31 42 32 43 33 44 34 45 40 50
REMARK SMILES IDX 41 51 42 52 43 53 44 54
REMARK H PARENT 6 16 16 27 10 29 26 37 33 46 33 47 34 48 34 49 44 55
ROOT
ATOM      1  N   UNL     1      -4.525  -7.405  -3.301  1.00  0.00    -0.326 N 
ATOM      2  C   UNL     1      -2.572  -7.135  -2.015  1.00  0.00     0.014 C 
ATOM      3  C   UNL     1      -3.226  -6.727  -3.338  1.00  0.00     0.091 C 
ATOM      4  C   UNL     1      -3.077  -8.556  -1.816  1.00  0.00     0.041 C 
ATOM      5  C   UNL     1      -4.563  -8.369  -2.174  1.00  0.00     0.175 C 
ATOM      6  C   UNL     1      -3.206  -5.202  -3.436  1.00  0.00     0.059 C 
ATOM      7  C   UNL     1      -1.079  -6.874  -2.045  1.00  0.00     0.008 C 
ATOM      8  C   UNL     1      -1.990  -4.550  -2.744  1.00  0.00     0.143 C 
ATOM      9  C   UNL     1      -0.778  -5.502  -2.684  1.00  0.00     0.034 C 
ENDROOT
BRANCH   1  10
ATOM     10  C   UNL     1      -5.544  -7.421  -4.238  1.00  0.00     0.246 C 
ATOM     11  O   UNL     1      -6.713  -7.298  -3.857  1.00  0.00    -0.272 OA
BRANCH  10  12
ATOM     12  C   UNL     1      -5.195  -7.549  -5.749  1.00  0.00     0.174 C 
BRANCH  12  13
ATOM     13  N   UNL     1      -6.175  -6.817  -6.551  1.00  0.00    -0.342 N 
ATOM     14  C   UNL     1      -5.867  -5.895  -7.527  1.00  0.00     0.249 C 
ATOM     15  O   UNL     1      -4.724  -5.604  -7.853  1.00  0.00    -0.272 OA
ATOM     16  H   UNL     1      -7.157  -6.837  -6.288  1.00  0.00     0.164 HD
BRANCH  14  17
ATOM     17  C   UNL     1      -7.122  -5.281  -8.182  1.00  0.00     0.207 C 
BRANCH  17  18
ATOM     18  C   UNL     1      -7.004  -5.324  -9.709  1.00  0.00     0.077 C 
BRANCH  18  19
ATOM     19  C   UNL     1      -7.782  -6.478 -10.301  1.00  0.00    -0.043 A 
ATOM     20  C   UNL     1      -9.900  -7.533 -10.834  1.00  0.00     0.083 A 
ATOM     21  C   UNL     1      -9.185  -6.445 -10.333  1.00  0.00     0.028 A 
ATOM     22  C   UNL     1      -9.222  -8.658 -11.304  1.00  0.00     0.134 A 
ATOM     23  C   UNL     1      -7.833  -8.704 -11.278  1.00  0.00     0.048 A 
ATOM     24  C   UNL     1      -7.114  -7.618 -10.775  1.00  0.00     0.008 A 
ATOM     25  Cl  UNL     1     -11.623  -7.473 -10.865  1.00  0.00    -0.080 Cl
BRANCH  22  26
ATOM     26  O   UNL     1      -9.880  -9.753 -11.794  1.00  0.00    -0.506 OA
ATOM     27  H   UNL     1      -9.415 -10.018 -12.610  1.00  0.00     0.293 HD
ENDBRANCH  22  26
ENDBRANCH  18  19
ENDBRANCH  17  18
BRANCH  17  28
ATOM     28  O   UNL     1      -7.316  -3.922  -7.757  1.00  0.00    -0.383 OA
ATOM     29  H   UNL     1      -8.092  -3.587  -8.261  1.00  0.00     0.211 HD
ENDBRANCH  17  28
ENDBRANCH  14  17
ENDBRANCH  12  13
BRANCH  12  30
ATOM     30  C   UNL     1      -5.040  -9.025  -6.206  1.00  0.00     0.018 C 
ATOM     31  C   UNL     1      -3.658  -9.574  -5.819  1.00  0.00     0.010 C 
BRANCH  30  32
ATOM     32  C   UNL     1      -5.292  -9.237  -7.719  1.00  0.00     0.002 C 
ATOM     33  C   UNL     1      -4.086  -9.000  -8.619  1.00  0.00     0.004 C 
ENDBRANCH  30  32
ENDBRANCH  12  30
ENDBRANCH  10  12
ENDBRANCH   1  10
BRANCH   5  34
ATOM     34  C   UNL     1      -5.371  -7.790  -0.982  1.00  0.00     0.242 C 
ATOM     35  O   UNL     1      -5.749  -6.619  -0.950  1.00  0.00    -0.273 OA
ATOM     36  N   UNL     1      -5.586  -8.665   0.059  1.00  0.00    -0.354 N 
ATOM     37  H   UNL     1      -5.146  -9.586   0.027  1.00  0.00     0.163 HD
BRANCH  36  38
ATOM     38  C   UNL     1      -6.496  -8.366   1.145  1.00  0.00     0.116 C 
BRANCH  38  39
ATOM     39  C   UNL     1      -5.708  -8.133   2.432  1.00  0.00     0.023 C 
BRANCH  39  40
ATOM     40  C   UNL     1      -6.243  -6.954   3.238  1.00  0.00     0.026 C 
BRANCH  40  41
ATOM     41  C   UNL     1      -7.493  -7.355   4.020  1.00  0.00     0.146 C 
BRANCH  41  42
ATOM     42  N   UNL     1      -7.203  -7.349   5.448  1.00  0.00    -0.254 NA
ATOM     43  C   UNL     1      -8.132  -7.630   6.284  1.00  0.00     0.185 C 
ATOM     44  N   UNL     1      -9.420  -7.954   6.069  1.00  0.00    -0.370 N 
ATOM     45  N   UNL     1      -7.845  -7.615   7.596  1.00  0.00    -0.370 N 
ATOM     46  H   UNL     1     -10.091  -7.909   6.817  1.00  0.00     0.159 HD
ATOM     47  H   UNL     1      -9.803  -8.024   5.132  1.00  0.00     0.159 HD
ATOM     48  H   UNL     1      -6.892  -7.389   7.844  1.00  0.00     0.159 HD
ATOM     49  H   UNL     1      -8.435  -8.045   8.286  1.00  0.00     0.159 HD
ENDBRANCH  41  42
ENDBRANCH  40  41
ENDBRANCH  39  40
ENDBRANCH  38  39
ENDBRANCH  36  38
ENDBRANCH   5  34
BRANCH   8  50
ATOM     50  O   UNL     1      -2.332  -4.167  -1.411  1.00  0.00    -0.245 OA
BRANCH  50  51
ATOM     51  S   UNL     1      -2.129  -2.623  -0.942  1.00  0.00     0.397 S 
ATOM     52  O   UNL     1      -3.064  -1.806  -1.681  1.00  0.00    -0.169 OA
ATOM     53  O   UNL     1      -0.715  -2.310  -0.899  1.00  0.00    -0.169 OA
BRANCH  51  54
ATOM     54  O   UNL     1      -2.676  -2.657   0.569  1.00  0.00    -0.264 OA
ATOM     55  H   UNL     1      -1.964  -2.321   1.152  1.00  0.00     0.236 HD
ENDBRANCH  51  54
ENDBRANCH  50  51
ENDBRANCH   8  50
TORSDOF 19
ENDMDL
MODEL 8
REMARK VINA RESULT:    -6.877      7.155      9.518
REMARK INTER + INTRA:         -17.169
REMARK INTER:                 -13.064
REMARK INTRA:                  -4.104
REMARK UNBOUND:                -3.257
REMARK SMILES CC[C@@H](C)[C@@H](NC(=O)[C@@H](O)Cc1ccc(O)c(Cl)c1)C(=O)N1[C@H](C(=O)NCCCCN=C(N)N)C[C@H]2CC[C@H](OS(=O)(=O)O)C[C@@H]21
REMARK SMILES IDX 22 1 36 2 46 3 35 4 23 5 45 6 37 7 39 8 38 9 20 10 21 11
REMARK SMILES IDX 5 12 6 13 7 14 8 15 9 17 11 18 12 19 17 20 19 21 15 22 14 23
REMARK SMILES IDX 13 24 18 25 16 26 10 28 3 30 4 31 2 32 1 33 24 34 25 35
REMARK SMILES IDX 26 36 27 38 28 39 29 40 30 41 31 42 32 43 33 44 34 45 40 50
REMARK SMILES IDX 41 51 42 52 43 53 44 54
REMARK H PARENT 6 16 16 27 10 29 26 37 33 46 33 47 34 48 34 49 44 55
ROOT
ATOM      1  N   UNL     1      -5.507  -9.152  -4.527  1.00  0.00    -0.326 N 
ATOM      2  C   UNL     1      -5.541 -11.037  -3.116  1.00  0.00     0.014 C 
ATOM      3  C   UNL     1      -4.627  -9.930  -3.650  1.00  0.00     0.091 C 
ATOM      4  C   UNL     1      -6.456 -11.315  -4.298  1.00  0.00     0.041 C 
ATOM      5  C   UNL     1      -6.787  -9.875  -4.731  1.00  0.00     0.175 C 
ATOM      6  C   UNL     1      -3.981  -9.222  -2.460  1.00  0.00     0.059 C 
ATOM      7  C   UNL     1      -4.728 -12.171  -2.522  1.00  0.00     0.008 C 
ATOM      8  C   UNL     1      -3.736 -10.144  -1.246  1.00  0.00     0.143 C 
ATOM      9  C   UNL     1      -3.571 -11.619  -1.663  1.00  0.00     0.034 C 
ENDROOT
BRANCH   1  10
ATOM     10  C   UNL     1      -5.231  -8.038  -5.300  1.00  0.00     0.246 C 
ATOM     11  O   UNL     1      -5.261  -6.920  -4.776  1.00  0.00    -0.272 OA
BRANCH  10  12
ATOM     12  C   UNL     1      -4.847  -8.220  -6.797  1.00  0.00     0.174 C 
BRANCH  12  13
ATOM     13  N   UNL     1      -5.798  -7.504  -7.647  1.00  0.00    -0.342 N 
ATOM     14  C   UNL     1      -5.523  -6.345  -8.338  1.00  0.00     0.249 C 
ATOM     15  O   UNL     1      -4.429  -5.795  -8.340  1.00  0.00    -0.272 OA
ATOM     16  H   UNL     1      -6.784  -7.751  -7.619  1.00  0.00     0.164 HD
BRANCH  14  17
ATOM     17  C   UNL     1      -6.739  -5.822  -9.131  1.00  0.00     0.207 C 
BRANCH  17  18
ATOM     18  C   UNL     1      -6.682  -6.310 -10.583  1.00  0.00     0.077 C 
BRANCH  18  19
ATOM     19  C   UNL     1      -7.740  -7.351 -10.868  1.00  0.00    -0.043 A 
ATOM     20  C   UNL     1     -10.069  -8.029 -10.899  1.00  0.00     0.083 A 
ATOM     21  C   UNL     1      -9.099  -7.050 -10.682  1.00  0.00     0.028 A 
ATOM     22  C   UNL     1      -9.691  -9.311 -11.300  1.00  0.00     0.134 A 
ATOM     23  C   UNL     1      -8.350  -9.623 -11.487  1.00  0.00     0.048 A 
ATOM     24  C   UNL     1      -7.376  -8.646 -11.270  1.00  0.00     0.008 A 
ATOM     25  Cl  UNL     1     -11.733  -7.640 -10.665  1.00  0.00    -0.080 Cl
BRANCH  22  26
ATOM     26  O   UNL     1     -10.606 -10.306 -11.514  1.00  0.00    -0.506 OA
ATOM     27  H   UNL     1     -11.318 -10.178 -10.860  1.00  0.00     0.293 HD
ENDBRANCH  22  26
ENDBRANCH  18  19
ENDBRANCH  17  18
BRANCH  17  28
ATOM     28  O   UNL     1      -6.791  -4.387  -9.112  1.00  0.00    -0.383 OA
ATOM     29  H   UNL     1      -6.201  -4.084  -9.839  1.00  0.00     0.211 HD
ENDBRANCH  17  28
ENDBRANCH  14  17
ENDBRANCH  12  13
BRANCH  12  30
ATOM     30  C   UNL     1      -4.698  -9.711  -7.202  1.00  0.00     0.018 C 
ATOM     31  C   UNL     1      -3.225 -10.145  -7.157  1.00  0.00     0.010 C 
BRANCH  30  32
ATOM     32  C   UNL     1      -5.309 -10.044  -8.585  1.00  0.00     0.002 C 
ATOM     33  C   UNL     1      -4.324 -10.056  -9.746  1.00  0.00     0.004 C 
ENDBRANCH  30  32
ENDBRANCH  12  30
ENDBRANCH  10  12
ENDBRANCH   1  10
BRANCH   5  34
ATOM     34  C   UNL     1      -7.912  -9.259  -3.856  1.00  0.00     0.242 C 
ATOM     35  O   UNL     1      -8.941  -9.875  -3.578  1.00  0.00    -0.273 OA
ATOM     36  N   UNL     1      -7.699  -7.958  -3.458  1.00  0.00    -0.354 N 
ATOM     37  H   UNL     1      -6.884  -7.461  -3.819  1.00  0.00     0.163 HD
BRANCH  36  38
ATOM     38  C   UNL     1      -8.532  -7.306  -2.469  1.00  0.00     0.116 C 
BRANCH  38  39
ATOM     39  C   UNL     1      -9.655  -6.538  -3.163  1.00  0.00     0.023 C 
BRANCH  39  40
ATOM     40  C   UNL     1      -9.349  -5.049  -3.292  1.00  0.00     0.026 C 
BRANCH  40  41
ATOM     41  C   UNL     1      -9.010  -4.689  -4.739  1.00  0.00     0.146 C 
BRANCH  41  42
ATOM     42  N   UNL     1      -7.570  -4.779  -4.944  1.00  0.00    -0.254 NA
ATOM     43  C   UNL     1      -7.000  -3.995  -5.779  1.00  0.00     0.185 C 
ATOM     44  N   UNL     1      -7.524  -3.031  -6.559  1.00  0.00    -0.370 N 
ATOM     45  N   UNL     1      -5.672  -4.097  -5.957  1.00  0.00    -0.370 N 
ATOM     46  H   UNL     1      -7.005  -2.664  -7.338  1.00  0.00     0.159 HD
ATOM     47  H   UNL     1      -8.515  -2.811  -6.540  1.00  0.00     0.159 HD
ATOM     48  H   UNL     1      -5.197  -4.794  -5.400  1.00  0.00     0.159 HD
ATOM     49  H   UNL     1      -5.126  -3.380  -6.401  1.00  0.00     0.159 HD
ENDBRANCH  41  42
ENDBRANCH  40  41
ENDBRANCH  39  40
ENDBRANCH  38  39
ENDBRANCH  36  38
ENDBRANCH   5  34
BRANCH   8  50
ATOM     50  O   UNL     1      -4.829 -10.051  -0.332  1.00  0.00    -0.245 OA
BRANCH  50  51
ATOM     51  S   UNL     1      -4.787  -8.946   0.861  1.00  0.00     0.397 S 
ATOM     52  O   UNL     1      -5.936  -8.082   0.711  1.00  0.00    -0.169 OA
ATOM     53  O   UNL     1      -3.446  -8.412   0.981  1.00  0.00    -0.169 OA
BRANCH  51  54
ATOM     54  O   UNL     1      -5.081  -9.845   2.161  1.00  0.00    -0.264 OA
ATOM     55  H   UNL     1      -4.222 -10.048   2.584  1.00  0.00     0.236 HD
ENDBRANCH  51  54
ENDBRANCH  50  51
ENDBRANCH   8  50
TORSDOF 19
ENDMDL
MODEL 9
REMARK VINA RESULT:    -6.780      5.084      8.515
REMARK INTER + INTRA:         -16.972
REMARK INTER:                 -13.004
REMARK INTRA:                  -3.968
REMARK UNBOUND:                -3.257
REMARK SMILES CC[C@@H](C)[C@@H](NC(=O)[C@@H](O)Cc1ccc(O)c(Cl)c1)C(=O)N1[C@H](C(=O)NCCCCN=C(N)N)C[C@H]2CC[C@H](OS(=O)(=O)O)C[C@@H]21
REMARK SMILES IDX 22 1 36 2 46 3 35 4 23 5 45 6 37 7 39 8 38 9 20 10 21 11
REMARK SMILES IDX 5 12 6 13 7 14 8 15 9 17 11 18 12 19 17 20 19 21 15 22 14 23
REMARK SMILES IDX 13 24 18 25 16 26 10 28 3 30 4 31 2 32 1 33 24 34 25 35
REMARK SMILES IDX 26 36 27 38 28 39 29 40 30 41 31 42 32 43 33 44 34 45 40 50
REMARK SMILES IDX 41 51 42 52 43 53 44 54
REMARK H PARENT 6 16 16 27 10 29 26 37 33 46 33 47 34 48 34 49 44 55
ROOT
ATOM      1  N   UNL     1      -3.673  -6.994  -3.767  1.00  0.00    -0.326 N 
ATOM      2  C   UNL     1      -5.477  -5.627  -3.121  1.00  0.00     0.014 C 
ATOM      3  C   UNL     1      -5.138  -6.950  -3.812  1.00  0.00     0.091 C 
ATOM      4  C   UNL     1      -4.327  -4.725  -3.540  1.00  0.00     0.041 C 
ATOM      5  C   UNL     1      -3.139  -5.681  -3.327  1.00  0.00     0.175 C 
ATOM      6  C   UNL     1      -5.917  -8.069  -3.123  1.00  0.00     0.059 C 
ATOM      7  C   UNL     1      -6.901  -5.206  -3.426  1.00  0.00     0.008 C 
ATOM      8  C   UNL     1      -7.284  -7.620  -2.563  1.00  0.00     0.143 C 
ATOM      9  C   UNL     1      -7.858  -6.413  -3.334  1.00  0.00     0.034 C 
ENDROOT
BRANCH   1  10
ATOM     10  C   UNL     1      -2.798  -7.949  -4.257  1.00  0.00     0.246 C 
ATOM     11  O   UNL     1      -2.654  -9.007  -3.636  1.00  0.00    -0.272 OA
BRANCH  10  12
ATOM     12  C   UNL     1      -2.050  -7.688  -5.597  1.00  0.00     0.174 C 
BRANCH  12  13
ATOM     13  N   UNL     1      -2.825  -8.227  -6.714  1.00  0.00    -0.342 N 
ATOM     14  C   UNL     1      -3.059  -7.573  -7.902  1.00  0.00     0.249 C 
ATOM     15  O   UNL     1      -2.615  -6.464  -8.169  1.00  0.00    -0.272 OA
ATOM     16  H   UNL     1      -3.384  -9.067  -6.580  1.00  0.00     0.164 HD
BRANCH  14  17
ATOM     17  C   UNL     1      -3.927  -8.399  -8.876  1.00  0.00     0.207 C 
BRANCH  17  18
ATOM     18  C   UNL     1      -5.394  -8.381  -8.432  1.00  0.00     0.077 C 
BRANCH  18  19
ATOM     19  C   UNL     1      -6.219  -7.419  -9.258  1.00  0.00    -0.043 A 
ATOM     20  C   UNL     1      -7.741  -6.999 -11.099  1.00  0.00     0.083 A 
ATOM     21  C   UNL     1      -7.019  -7.894 -10.308  1.00  0.00     0.028 A 
ATOM     22  C   UNL     1      -7.666  -5.628 -10.848  1.00  0.00     0.134 A 
ATOM     23  C   UNL     1      -6.877  -5.145  -9.811  1.00  0.00     0.048 A 
ATOM     24  C   UNL     1      -6.152  -6.038  -9.019  1.00  0.00     0.008 A 
ATOM     25  Cl  UNL     1      -8.719  -7.601 -12.385  1.00  0.00    -0.080 Cl
BRANCH  22  26
ATOM     26  O   UNL     1      -8.347  -4.712 -11.603  1.00  0.00    -0.506 OA
ATOM     27  H   UNL     1      -8.186  -4.943 -12.537  1.00  0.00     0.293 HD
ENDBRANCH  22  26
ENDBRANCH  18  19
ENDBRANCH  17  18
BRANCH  17  28
ATOM     28  O   UNL     1      -3.469  -9.758  -8.952  1.00  0.00    -0.383 OA
ATOM     29  H   UNL     1      -3.743 -10.088  -9.838  1.00  0.00     0.211 HD
ENDBRANCH  17  28
ENDBRANCH  14  17
ENDBRANCH  12  13
BRANCH  12  30
ATOM     30  C   UNL     1      -0.590  -8.213  -5.581  1.00  0.00     0.018 C 
ATOM     31  C   UNL     1       0.391  -7.113  -6.017  1.00  0.00     0.010 C 
BRANCH  30  32
ATOM     32  C   UNL     1      -0.377  -9.485  -6.437  1.00  0.00     0.002 C 
ATOM     33  C   UNL     1       0.995 -10.134  -6.309  1.00  0.00     0.004 C 
ENDBRANCH  30  32
ENDBRANCH  12  30
ENDBRANCH  10  12
ENDBRANCH   1  10
BRANCH   5  34
ATOM     34  C   UNL     1      -2.708  -5.734  -1.837  1.00  0.00     0.242 C 
ATOM     35  O   UNL     1      -2.794  -6.761  -1.163  1.00  0.00    -0.273 OA
ATOM     36  N   UNL     1      -2.274  -4.539  -1.310  1.00  0.00    -0.354 N 
ATOM     37  H   UNL     1      -2.338  -3.697  -1.884  1.00  0.00     0.163 HD
BRANCH  36  38
ATOM     38  C   UNL     1      -1.636  -4.451  -0.013  1.00  0.00     0.116 C 
BRANCH  38  39
ATOM     39  C   UNL     1      -2.674  -4.112   1.054  1.00  0.00     0.023 C 
BRANCH  39  40
ATOM     40  C   UNL     1      -2.370  -4.773   2.394  1.00  0.00     0.026 C 
BRANCH  40  41
ATOM     41  C   UNL     1      -2.401  -6.296   2.267  1.00  0.00     0.146 C 
BRANCH  41  42
ATOM     42  N   UNL     1      -3.568  -6.825   2.960  1.00  0.00    -0.254 NA
ATOM     43  C   UNL     1      -4.646  -7.048   2.306  1.00  0.00     0.185 C 
ATOM     44  N   UNL     1      -4.917  -6.872   1.000  1.00  0.00    -0.370 N 
ATOM     45  N   UNL     1      -5.712  -7.531   2.964  1.00  0.00    -0.370 N 
ATOM     46  H   UNL     1      -5.868  -6.856   0.671  1.00  0.00     0.159 HD
ATOM     47  H   UNL     1      -4.217  -6.526   0.352  1.00  0.00     0.159 HD
ATOM     48  H   UNL     1      -5.590  -7.701   3.953  1.00  0.00     0.159 HD
ATOM     49  H   UNL     1      -6.497  -7.949   2.496  1.00  0.00     0.159 HD
ENDBRANCH  41  42
ENDBRANCH  40  41
ENDBRANCH  39  40
ENDBRANCH  38  39
ENDBRANCH  36  38
ENDBRANCH   5  34
BRANCH   8  50
ATOM     50  O   UNL     1      -7.157  -7.260  -1.187  1.00  0.00    -0.245 OA
BRANCH  50  51
ATOM     51  S   UNL     1      -7.795  -8.224  -0.043  1.00  0.00     0.397 S 
ATOM     52  O   UNL     1      -6.772  -9.155   0.377  1.00  0.00    -0.169 OA
ATOM     53  O   UNL     1      -9.106  -8.674  -0.462  1.00  0.00    -0.169 OA
BRANCH  51  54
ATOM     54  O   UNL     1      -7.990  -7.204   1.184  1.00  0.00    -0.264 OA
ATOM     55  H   UNL     1      -8.949  -7.036   1.283  1.00  0.00     0.236 HD
ENDBRANCH  51  54
ENDBRANCH  50  51
ENDBRANCH   8  50
TORSDOF 19
ENDMDL
MODEL 10
REMARK VINA RESULT:    -6.766      2.405      3.944
REMARK INTER + INTRA:         -16.945
REMARK INTER:                 -14.523
REMARK INTRA:                  -2.422
REMARK UNBOUND:                -3.257
REMARK SMILES CC[C@@H](C)[C@@H](NC(=O)[C@@H](O)Cc1ccc(O)c(Cl)c1)C(=O)N1[C@H](C(=O)NCCCCN=C(N)N)C[C@H]2CC[C@H](OS(=O)(=O)O)C[C@@H]21
REMARK SMILES IDX 22 1 36 2 46 3 35 4 23 5 45 6 37 7 39 8 38 9 20 10 21 11
REMARK SMILES IDX 5 12 6 13 7 14 8 15 9 17 11 18 12 19 17 20 19 21 15 22 14 23
REMARK SMILES IDX 13 24 18 25 16 26 10 28 3 30 4 31 2 32 1 33 24 34 25 35
REMARK SMILES IDX 26 36 27 38 28 39 29 40 30 41 31 42 32 43 33 44 34 45 40 50
REMARK SMILES IDX 41 51 42 52 43 53 44 54
REMARK H PARENT 6 16 16 27 10 29 26 37 33 46 33 47 34 48 34 49 44 55
ROOT
ATOM      1  N   UNL     1      -1.890  -7.309  -3.982  1.00  0.00    -0.326 N 
ATOM      2  C   UNL     1      -3.613  -8.191  -2.642  1.00  0.00     0.014 C 
ATOM      3  C   UNL     1      -2.089  -8.098  -2.763  1.00  0.00     0.091 C 
ATOM      4  C   UNL     1      -4.061  -8.258  -4.094  1.00  0.00     0.041 C 
ATOM      5  C   UNL     1      -3.177  -7.154  -4.703  1.00  0.00     0.175 C 
ATOM      6  C   UNL     1      -1.532  -7.555  -1.449  1.00  0.00     0.059 C 
ATOM      7  C   UNL     1      -4.015  -9.298  -1.688  1.00  0.00     0.008 C 
ATOM      8  C   UNL     1      -2.357  -7.961  -0.209  1.00  0.00     0.143 C 
ATOM      9  C   UNL     1      -3.121  -9.282  -0.429  1.00  0.00     0.034 C 
ENDROOT
BRANCH   1  10
ATOM     10  C   UNL     1      -0.717  -6.918  -4.604  1.00  0.00     0.246 C 
ATOM     11  O   UNL     1      -0.577  -7.133  -5.813  1.00  0.00    -0.272 OA
BRANCH  10  12
ATOM     12  C   UNL     1       0.379  -6.180  -3.782  1.00  0.00     0.174 C 
BRANCH  12  13
ATOM     13  N   UNL     1       0.185  -4.734  -3.876  1.00  0.00    -0.342 N 
ATOM     14  C   UNL     1       0.015  -3.887  -2.804  1.00  0.00     0.249 C 
ATOM     15  O   UNL     1       0.035  -4.255  -1.635  1.00  0.00    -0.272 OA
ATOM     16  H   UNL     1      -0.011  -4.310  -4.780  1.00  0.00     0.164 HD
BRANCH  14  17
ATOM     17  C   UNL     1      -0.185  -2.418  -3.230  1.00  0.00     0.207 C 
BRANCH  17  18
ATOM     18  C   UNL     1       0.973  -1.551  -2.725  1.00  0.00     0.077 C 
BRANCH  18  19
ATOM     19  C   UNL     1       2.225  -1.749  -3.549  1.00  0.00    -0.043 A 
ATOM     20  C   UNL     1       3.555  -1.229  -5.510  1.00  0.00     0.083 A 
ATOM     21  C   UNL     1       2.423  -1.008  -4.725  1.00  0.00     0.028 A 
ATOM     22  C   UNL     1       4.493  -2.189  -5.128  1.00  0.00     0.134 A 
ATOM     23  C   UNL     1       4.310  -2.929  -3.966  1.00  0.00     0.048 A 
ATOM     24  C   UNL     1       3.176  -2.712  -3.179  1.00  0.00     0.008 A 
ATOM     25  Cl  UNL     1       3.781  -0.309  -6.951  1.00  0.00    -0.080 Cl
BRANCH  22  26
ATOM     26  O   UNL     1       5.614  -2.448  -5.870  1.00  0.00    -0.506 OA
ATOM     27  H   UNL     1       6.259  -2.862  -5.268  1.00  0.00     0.293 HD
ENDBRANCH  22  26
ENDBRANCH  18  19
ENDBRANCH  17  18
BRANCH  17  28
ATOM     28  O   UNL     1      -1.426  -1.896  -2.727  1.00  0.00    -0.383 OA
ATOM     29  H   UNL     1      -1.457  -2.143  -1.774  1.00  0.00     0.211 HD
ENDBRANCH  17  28
ENDBRANCH  14  17
ENDBRANCH  12  13
BRANCH  12  30
ATOM     30  C   UNL     1       1.818  -6.611  -4.176  1.00  0.00     0.018 C 
ATOM     31  C   UNL     1       2.316  -5.809  -5.388  1.00  0.00     0.010 C 
BRANCH  30  32
ATOM     32  C   UNL     1       1.959  -8.129  -4.448  1.00  0.00     0.002 C 
ATOM     33  C   UNL     1       2.898  -8.501  -5.588  1.00  0.00     0.004 C 
ENDBRANCH  30  32
ENDBRANCH  12  30
ENDBRANCH  10  12
ENDBRANCH   1  10
BRANCH   5  34
ATOM     34  C   UNL     1      -3.777  -5.743  -4.462  1.00  0.00     0.242 C 
ATOM     35  O   UNL     1      -3.179  -4.873  -3.830  1.00  0.00    -0.273 OA
ATOM     36  N   UNL     1      -5.047  -5.554  -4.959  1.00  0.00    -0.354 N 
ATOM     37  H   UNL     1      -5.539  -6.350  -5.368  1.00  0.00     0.163 HD
BRANCH  36  38
ATOM     38  C   UNL     1      -5.669  -4.248  -5.015  1.00  0.00     0.116 C 
BRANCH  38  39
ATOM     39  C   UNL     1      -7.103  -4.377  -5.524  1.00  0.00     0.023 C 
BRANCH  39  40
ATOM     40  C   UNL     1      -7.179  -5.073  -6.879  1.00  0.00     0.026 C 
BRANCH  40  41
ATOM     41  C   UNL     1      -7.560  -4.081  -7.978  1.00  0.00     0.146 C 
BRANCH  41  42
ATOM     42  N   UNL     1      -7.636  -4.770  -9.259  1.00  0.00    -0.254 NA
ATOM     43  C   UNL     1      -8.398  -4.312 -10.180  1.00  0.00     0.185 C 
ATOM     44  N   UNL     1      -9.200  -3.231 -10.182  1.00  0.00    -0.370 N 
ATOM     45  N   UNL     1      -8.457  -4.965 -11.353  1.00  0.00    -0.370 N 
ATOM     46  H   UNL     1      -9.920  -3.129 -10.876  1.00  0.00     0.159 HD
ATOM     47  H   UNL     1      -9.266  -2.615  -9.378  1.00  0.00     0.159 HD
ATOM     48  H   UNL     1      -7.876  -5.787 -11.438  1.00  0.00     0.159 HD
ATOM     49  H   UNL     1      -8.833  -4.551 -12.187  1.00  0.00     0.159 HD
ENDBRANCH  41  42
ENDBRANCH  40  41
ENDBRANCH  39  40
ENDBRANCH  38  39
ENDBRANCH  36  38
ENDBRANCH   5  34
BRANCH   8  50
ATOM     50  O   UNL     1      -3.302  -6.939   0.108  1.00  0.00    -0.245 OA
BRANCH  50  51
ATOM     51  S   UNL     1      -3.094  -6.041   1.449  1.00  0.00     0.397 S 
ATOM     52  O   UNL     1      -2.325  -4.872   1.088  1.00  0.00    -0.169 OA
ATOM     53  O   UNL     1      -2.706  -6.896   2.551  1.00  0.00    -0.169 OA
BRANCH  51  54
ATOM     54  O   UNL     1      -4.586  -5.513   1.733  1.00  0.00    -0.264 OA
ATOM     55  H   UNL     1      -5.067  -5.502   0.880  1.00  0.00     0.236 HD
ENDBRANCH  51  54
ENDBRANCH  50  51
ENDBRANCH   8  50
TORSDOF 19
ENDMDL
