23724557
  -OEChem-01042617092D

140142  0     1  0  0  0  0  0999 V2000
    6.7607   -3.0104    0.0000 O   0  0  0  0  0  0  0  0  0  0  0  0
    3.6626   -2.6444    0.0000 O   0  0  0  0  0  0  0  0  0  0  0  0
    7.1268   -1.6444    0.0000 O   0  0  0  0  0  0  0  0  0  0  0  0
    6.2617   -0.2616    0.0000 O   0  0  0  0  0  0  0  0  0  0  0  0
    8.9928   -0.6803    0.0000 O   0  0  0  0  0  0  0  0  0  0  0  0
    9.4928   -5.0104    0.0000 O   0  0  0  0  0  0  0  0  0  0  0  0
    7.5268    2.3764    0.0000 O   0  0  0  0  0  0  0  0  0  0  0  0
   10.4928   -1.5463    0.0000 O   0  0  0  0  0  0  0  0  0  0  0  0
    7.9862    2.9994    0.0000 O   0  0  0  0  0  0  0  0  0  0  0  0
    7.6036    3.9233    0.0000 O   0  0  0  0  0  0  0  0  0  0  0  0
   12.1781    4.1945    0.0000 O   0  0  0  0  0  0  0  0  0  0  0  0
   10.8040    5.2489    0.0000 O   0  0  0  0  0  0  0  0  0  0  0  0
    5.3947   -2.6444    0.0000 N   0  0  0  0  0  0  0  0  0  0  0  0
    4.5287   -0.1444    0.0000 N   0  0  0  0  0  0  0  0  0  0  0  0
    7.9928   -3.1444    0.0000 N   0  0  0  0  0  0  0  0  0  0  0  0
    7.0786    0.7033    0.0000 N   0  0  0  0  0  0  0  0  0  0  0  0
    9.4928   -3.2784    0.0000 N   0  0  0  0  0  0  0  0  0  0  0  0
    9.3604    1.9450    0.0000 N   0  0  0  0  0  0  0  0  0  0  0  0
    3.6632    3.4116    0.0000 N   0  0  0  0  0  0  0  0  0  0  0  0
    9.2038    4.5861    0.0000 N   0  0  0  0  0  0  0  0  0  0  0  0
    2.4384    4.6364    0.0000 N   0  0  0  0  0  0  0  0  0  0  0  0
    4.1114    5.0847    0.0000 N   0  0  0  0  0  0  0  0  0  0  0  0
    6.2607   -3.1444    0.0000 C   0  0  3  0  0  0  0  0  0  0  0  0
    6.2607   -2.1444    0.0000 C   0  0  3  0  0  0  0  0  0  0  0  0
    4.5287   -1.1444    0.0000 C   0  0  3  0  0  0  0  0  0  0  0  0
    6.2607   -1.1444    0.0000 C   0  0  0  0  0  0  0  0  0  0  0  0
    5.3947   -0.6444    0.0000 C   0  0  0  0  0  0  0  0  0  0  0  0
    6.2607   -4.1444    0.0000 C   0  0  0  0  0  0  0  0  0  0  0  0
    4.5287   -2.1444    0.0000 C   0  0  0  0  0  0  0  0  0  0  0  0
    5.3947   -4.6444    0.0000 C   0  0  0  0  0  0  0  0  0  0  0  0
    7.1268   -2.6444    0.0000 C   0  0  0  0  0  0  0  0  0  0  0  0
    7.9928   -4.1444    0.0000 C   0  0  3  0  0  0  0  0  0  0  0  0
    5.3947   -5.6444    0.0000 C   0  0  0  0  0  0  0  0  0  0  0  0
    4.5287   -4.1444    0.0000 C   0  0  0  0  0  0  0  0  0  0  0  0
    5.4055    0.2551    0.0000 C   0  0  0  0  0  0  0  0  0  0  0  0
    6.1126    0.9622    0.0000 C   0  0  3  0  0  0  0  0  0  0  0  0
    7.2857   -4.8515    0.0000 C   0  0  0  0  0  0  0  0  0  0  0  0
    8.9325   -3.4864    0.0000 C   0  0  0  0  0  0  0  0  0  0  0  0
    8.9928   -4.1444    0.0000 C   0  0  0  0  0  0  0  0  0  0  0  0
    5.8538    1.9281    0.0000 C   0  0  0  0  0  0  0  0  0  0  0  0
    8.9928   -2.4124    0.0000 C   0  0  3  0  0  0  0  0  0  0  0  0
    7.5445   -5.8175    0.0000 C   0  0  0  0  0  0  0  0  0  0  0  0
    4.8879    2.1869    0.0000 C   0  0  0  0  0  0  0  0  0  0  0  0
    7.9928   -2.4124    0.0000 C   0  0  0  0  0  0  0  0  0  0  0  0
    8.7516    1.1516    0.0000 C   0  0  3  0  0  0  0  0  0  0  0  0
    7.7857    1.4104    0.0000 C   0  0  0  0  0  0  0  0  0  0  0  0
    9.2516    0.2856    0.0000 C   0  0  3  0  0  0  0  0  0  0  0  0
    9.4928   -1.5463    0.0000 C   0  0  0  0  0  0  0  0  0  0  0  0
    4.6291    3.1528    0.0000 C   0  0  0  0  0  0  0  0  0  0  0  0
    7.4928   -3.2784    0.0000 C   0  0  0  0  0  0  0  0  0  0  0  0
    7.9928   -1.4124    0.0000 C   0  0  0  0  0  0  0  0  0  0  0  0
    8.5104   -6.0763    0.0000 C   0  0  0  0  0  0  0  0  0  0  0  0
    6.8374   -6.5246    0.0000 C   0  0  0  0  0  0  0  0  0  0  0  0
   10.2430    0.4161    0.0000 C   0  0  0  0  0  0  0  0  0  0  0  0
    8.9777    2.8689    0.0000 C   0  0  0  0  0  0  0  0  0  0  0  0
    8.7692   -7.0422    0.0000 C   0  0  0  0  0  0  0  0  0  0  0  0
    7.0962   -7.4905    0.0000 C   0  0  0  0  0  0  0  0  0  0  0  0
    9.5864    3.6622    0.0000 C   0  0  3  0  0  0  0  0  0  0  0  0
    8.0621   -7.7493    0.0000 C   0  0  0  0  0  0  0  0  0  0  0  0
   10.5779    3.5317    0.0000 C   0  0  0  0  0  0  0  0  0  0  0  0
    3.4043    4.3776    0.0000 C   0  0  0  0  0  0  0  0  0  0  0  0
    8.2123    4.7166    0.0000 C   0  0  0  0  0  0  0  0  0  0  0  0
    7.8296    5.6405    0.0000 C   0  0  0  0  0  0  0  0  0  0  0  0
   11.1866    4.3250    0.0000 C   0  0  0  0  0  0  0  0  0  0  0  0
    6.8382    5.7710    0.0000 C   0  0  0  0  0  0  0  0  0  0  0  0
    6.4555    6.6949    0.0000 C   0  0  0  0  0  0  0  0  0  0  0  0
    5.4640    6.8254    0.0000 C   0  0  0  0  0  0  0  0  0  0  0  0
    5.0814    7.7493    0.0000 C   0  0  0  0  0  0  0  0  0  0  0  0
    5.7238   -3.4544    0.0000 H   0  0  0  0  0  0  0  0  0  0  0  0
    6.8596   -1.9840    0.0000 H   0  0  0  0  0  0  0  0  0  0  0  0
    3.9087   -1.1444    0.0000 H   0  0  0  0  0  0  0  0  0  0  0  0
    6.8713   -1.2521    0.0000 H   0  0  0  0  0  0  0  0  0  0  0  0
    6.4728   -0.5618    0.0000 H   0  0  0  0  0  0  0  0  0  0  0  0
    5.7932   -0.1695    0.0000 H   0  0  0  0  0  0  0  0  0  0  0  0
    4.9962   -0.1695    0.0000 H   0  0  0  0  0  0  0  0  0  0  0  0
    6.4728   -4.7270    0.0000 H   0  0  0  0  0  0  0  0  0  0  0  0
    6.8713   -4.0368    0.0000 H   0  0  0  0  0  0  0  0  0  0  0  0
    5.3947   -4.0244    0.0000 H   0  0  0  0  0  0  0  0  0  0  0  0
    4.0171    0.2059    0.0000 H   0  0  0  0  0  0  0  0  0  0  0  0
    7.4200   -3.9072    0.0000 H   0  0  0  0  0  0  0  0  0  0  0  0
    4.7747   -5.6444    0.0000 H   0  0  0  0  0  0  0  0  0  0  0  0
    5.3947   -6.2644    0.0000 H   0  0  0  0  0  0  0  0  0  0  0  0
    6.0147   -5.6444    0.0000 H   0  0  0  0  0  0  0  0  0  0  0  0
    4.8387   -3.6075    0.0000 H   0  0  0  0  0  0  0  0  0  0  0  0
    3.9917   -3.8344    0.0000 H   0  0  0  0  0  0  0  0  0  0  0  0
    4.2187   -4.6814    0.0000 H   0  0  0  0  0  0  0  0  0  0  0  0
    6.7608   -3.6304    0.0000 H   0  0  0  0  0  0  0  0  0  0  0  0
    6.5510    1.4006    0.0000 H   0  0  0  0  0  0  0  0  0  0  0  0
    6.9301   -4.3437    0.0000 H   0  0  0  0  0  0  0  0  0  0  0  0
    6.7238   -5.1136    0.0000 H   0  0  0  0  0  0  0  0  0  0  0  0
    8.7204   -4.0691    0.0000 H   0  0  0  0  0  0  0  0  0  0  0  0
    9.5151   -3.6985    0.0000 H   0  0  0  0  0  0  0  0  0  0  0  0
    9.1445   -2.9038    0.0000 H   0  0  0  0  0  0  0  0  0  0  0  0
    6.4715    1.9821    0.0000 H   0  0  0  0  0  0  0  0  0  0  0  0
    5.9079    2.5457    0.0000 H   0  0  0  0  0  0  0  0  0  0  0  0
    8.6828   -2.9493    0.0000 H   0  0  0  0  0  0  0  0  0  0  0  0
    7.2390    0.1045    0.0000 H   0  0  0  0  0  0  0  0  0  0  0  0
   10.1128   -3.2784    0.0000 H   0  0  0  0  0  0  0  0  0  0  0  0
    4.2703    2.1329    0.0000 H   0  0  0  0  0  0  0  0  0  0  0  0
    4.8339    1.5693    0.0000 H   0  0  0  0  0  0  0  0  0  0  0  0
    7.3939   -2.2519    0.0000 H   0  0  0  0  0  0  0  0  0  0  0  0
    8.5523    1.7387    0.0000 H   0  0  0  0  0  0  0  0  0  0  0  0
    9.6604   -0.1805    0.0000 H   0  0  0  0  0  0  0  0  0  0  0  0
    5.2467    3.2069    0.0000 H   0  0  0  0  0  0  0  0  0  0  0  0
    4.6831    3.7705    0.0000 H   0  0  0  0  0  0  0  0  0  0  0  0
    6.9558   -2.9684    0.0000 H   0  0  0  0  0  0  0  0  0  0  0  0
    7.1828   -3.8153    0.0000 H   0  0  0  0  0  0  0  0  0  0  0  0
    8.0297   -3.5884    0.0000 H   0  0  0  0  0  0  0  0  0  0  0  0
    8.6128   -1.4124    0.0000 H   0  0  0  0  0  0  0  0  0  0  0  0
    7.9928   -0.7924    0.0000 H   0  0  0  0  0  0  0  0  0  0  0  0
    7.3728   -1.4124    0.0000 H   0  0  0  0  0  0  0  0  0  0  0  0
    8.9488   -5.6379    0.0000 H   0  0  0  0  0  0  0  0  0  0  0  0
    6.2385   -6.3641    0.0000 H   0  0  0  0  0  0  0  0  0  0  0  0
    9.9751    1.8640    0.0000 H   0  0  0  0  0  0  0  0  0  0  0  0
   10.3240   -0.1986    0.0000 H   0  0  0  0  0  0  0  0  0  0  0  0
   10.8577    0.4971    0.0000 H   0  0  0  0  0  0  0  0  0  0  0  0
   10.1621    1.0308    0.0000 H   0  0  0  0  0  0  0  0  0  0  0  0
    9.3681   -7.2027    0.0000 H   0  0  0  0  0  0  0  0  0  0  0  0
    6.6578   -7.9289    0.0000 H   0  0  0  0  0  0  0  0  0  0  0  0
    9.9639    4.1541    0.0000 H   0  0  0  0  0  0  0  0  0  0  0  0
    8.2226   -8.3482    0.0000 H   0  0  0  0  0  0  0  0  0  0  0  0
   10.3914    2.9404    0.0000 H   0  0  0  0  0  0  0  0  0  0  0  0
   11.1278    3.2454    0.0000 H   0  0  0  0  0  0  0  0  0  0  0  0
    9.5812    5.0780    0.0000 H   0  0  0  0  0  0  0  0  0  0  0  0
    8.4349    5.7747    0.0000 H   0  0  0  0  0  0  0  0  0  0  0  0
    7.8026    6.2599    0.0000 H   0  0  0  0  0  0  0  0  0  0  0  0
    6.2329    5.6368    0.0000 H   0  0  0  0  0  0  0  0  0  0  0  0
    6.8652    5.1516    0.0000 H   0  0  0  0  0  0  0  0  0  0  0  0
    7.0608    6.8291    0.0000 H   0  0  0  0  0  0  0  0  0  0  0  0
    6.4284    7.3143    0.0000 H   0  0  0  0  0  0  0  0  0  0  0  0
    2.2779    5.2353    0.0000 H   0  0  0  0  0  0  0  0  0  0  0  0
    2.0000    4.1980    0.0000 H   0  0  0  0  0  0  0  0  0  0  0  0
    3.9510    5.6836    0.0000 H   0  0  0  0  0  0  0  0  0  0  0  0
    4.7103    4.9242    0.0000 H   0  0  0  0  0  0  0  0  0  0  0  0
    4.8588    6.6912    0.0000 H   0  0  0  0  0  0  0  0  0  0  0  0
    5.4911    6.2060    0.0000 H   0  0  0  0  0  0  0  0  0  0  0  0
   12.5555    4.6864    0.0000 H   0  0  0  0  0  0  0  0  0  0  0  0
    5.6542    7.9866    0.0000 H   0  0  0  0  0  0  0  0  0  0  0  0
    4.8441    8.3221    0.0000 H   0  0  0  0  0  0  0  0  0  0  0  0
    4.5086    7.5120    0.0000 H   0  0  0  0  0  0  0  0  0  0  0  0
  1 24  1  0  0  0  0
  1 87  1  0  0  0  0
  2 29  2  0  0  0  0
  3 31  2  0  0  0  0
  4 35  2  0  0  0  0
  5 47  1  0  0  0  0
  5 48  1  0  0  0  0
  6 39  2  0  0  0  0
  7 46  2  0  0  0  0
  8 48  2  0  0  0  0
  9 55  2  0  0  0  0
 10 62  2  0  0  0  0
 11 64  1  0  0  0  0
 11137  1  0  0  0  0
 12 64  2  0  0  0  0
 13 23  1  0  0  0  0
 13 24  1  0  0  0  0
 13 29  1  0  0  0  0
 14 25  1  0  0  0  0
 14 35  1  0  0  0  0
 14 79  1  0  0  0  0
 15 31  1  0  0  0  0
 15 32  1  0  0  0  0
 15 38  1  0  0  0  0
 16 36  1  0  0  0  0
 16 46  1  0  0  0  0
 16 97  1  0  0  0  0
 17 39  1  0  0  0  0
 17 41  1  0  0  0  0
 17 98  1  0  0  0  0
 18 45  1  0  0  0  0
 18 55  1  0  0  0  0
 18114  1  0  0  0  0
 19 49  1  0  0  0  0
 19 61  2  0  0  0  0
 20 58  1  0  0  0  0
 20 62  1  0  0  0  0
 20124  1  0  0  0  0
 21 61  1  0  0  0  0
 21131  1  0  0  0  0
 21132  1  0  0  0  0
 22 61  1  0  0  0  0
 22133  1  0  0  0  0
 22134  1  0  0  0  0
 23 28  1  0  0  0  0
 23 31  1  0  0  0  0
 23 69  1  0  0  0  0
 24 26  1  0  0  0  0
 24 70  1  0  0  0  0
 25 27  1  0  0  0  0
 25 29  1  0  0  0  0
 25 71  1  0  0  0  0
 26 27  1  0  0  0  0
 26 72  1  0  0  0  0
 26 73  1  0  0  0  0
 27 74  1  0  0  0  0
 27 75  1  0  0  0  0
 28 30  1  0  0  0  0
 28 76  1  0  0  0  0
 28 77  1  0  0  0  0
 30 33  1  0  0  0  0
 30 34  1  0  0  0  0
 30 78  1  0  0  0  0
 32 37  1  0  0  0  0
 32 39  1  0  0  0  0
 32 80  1  0  0  0  0
 33 81  1  0  0  0  0
 33 82  1  0  0  0  0
 33 83  1  0  0  0  0
 34 84  1  0  0  0  0
 34 85  1  0  0  0  0
 34 86  1  0  0  0  0
 35 36  1  0  0  0  0
 36 40  1  0  0  0  0
 36 88  1  0  0  0  0
 37 42  1  0  0  0  0
 37 89  1  0  0  0  0
 37 90  1  0  0  0  0
 38 91  1  0  0  0  0
 38 92  1  0  0  0  0
 38 93  1  0  0  0  0
 40 43  1  0  0  0  0
 40 94  1  0  0  0  0
 40 95  1  0  0  0  0
 41 44  1  0  0  0  0
 41 48  1  0  0  0  0
 41 96  1  0  0  0  0
 42 52  2  0  0  0  0
 42 53  1  0  0  0  0
 43 49  1  0  0  0  0
 43 99  1  0  0  0  0
 43100  1  0  0  0  0
 44 50  1  0  0  0  0
 44 51  1  0  0  0  0
 44101  1  0  0  0  0
 45 46  1  0  0  0  0
 45 47  1  0  0  0  0
 45102  1  0  0  0  0
 47 54  1  0  0  0  0
 47103  1  0  0  0  0
 49104  1  0  0  0  0
 49105  1  0  0  0  0
 50106  1  0  0  0  0
 50107  1  0  0  0  0
 50108  1  0  0  0  0
 51109  1  0  0  0  0
 51110  1  0  0  0  0
 51111  1  0  0  0  0
 52 56  1  0  0  0  0
 52112  1  0  0  0  0
 53 57  2  0  0  0  0
 53113  1  0  0  0  0
 54115  1  0  0  0  0
 54116  1  0  0  0  0
 54117  1  0  0  0  0
 55 58  1  0  0  0  0
 56 59  2  0  0  0  0
 56118  1  0  0  0  0
 57 59  1  0  0  0  0
 57119  1  0  0  0  0
 58 60  1  0  0  0  0
 58120  1  0  0  0  0
 59121  1  0  0  0  0
 60 64  1  0  0  0  0
 60122  1  0  0  0  0
 60123  1  0  0  0  0
 62 63  1  0  0  0  0
 63 65  1  0  0  0  0
 63125  1  0  0  0  0
 63126  1  0  0  0  0
 65 66  1  0  0  0  0
 65127  1  0  0  0  0
 65128  1  0  0  0  0
 66 67  1  0  0  0  0
 66129  1  0  0  0  0
 66130  1  0  0  0  0
 67 68  1  0  0  0  0
 67135  1  0  0  0  0
 67136  1  0  0  0  0
 68138  1  0  0  0  0
 68139  1  0  0  0  0
 68140  1  0  0  0  0
M  END
> <PUBCHEM_COMPOUND_CID>
23724557

> <PUBCHEM_COMPOUND_CANONICALIZED>
1

> <PUBCHEM_CACTVS_COMPLEXITY>
1800

> <PUBCHEM_CACTVS_HBOND_ACCEPTOR>
13

> <PUBCHEM_CACTVS_HBOND_DONOR>
9

> <PUBCHEM_CACTVS_ROTATABLE_BOND>
18

> <PUBCHEM_CACTVS_SUBSKEYS>
AAADcfB//AAAAAAAAAAAAAAAAAAAAAAAAAA8QAAAAAAAAAABAAAAHgAQCAAADTzhmAYzCIPABgCoAiHSPAACAAEgAAAIiIGIAIgKcD6AkTGXYAAmtgCYiAe/nYKOAAAAAAAAAAAAAAAAAAAAAAAAAAAAAA==

> <PUBCHEM_IUPAC_OPENEYE_NAME>
4-[[5-benzyl-15-(3-guanidinopropyl)-21-hydroxy-2-isobutyl-8-isopropyl-4,11-dimethyl-3,6,9,13,16,22-hexaoxo-10-oxa-1,4,7,14,17-pentazabicyclo[16.3.1]docosan-12-yl]amino]-3-(hexanoylamino)-4-oxo-butanoic acid

> <PUBCHEM_IUPAC_CAS_NAME>
4-[[15-[3-(diaminomethylideneamino)propyl]-21-hydroxy-4,11-dimethyl-2-(2-methylpropyl)-3,6,9,13,16,22-hexaoxo-5-(phenylmethyl)-8-propan-2-yl-10-oxa-1,4,7,14,17-pentazabicyclo[16.3.1]docosan-12-yl]amino]-4-oxo-3-(1-oxohexylamino)butanoic acid

> <PUBCHEM_IUPAC_NAME_MARKUP>
4-[[5-benzyl-15-[3-(diaminomethylideneamino)propyl]-21-hydroxy-4,11-dimethyl-2-(2-methylpropyl)-3,6,9,13,16,22-hexaoxo-8-propan-2-yl-10-oxa-1,4,7,14,17-pentazabicyclo[16.3.1]docosan-12-yl]amino]-3-(hexanoylamino)-4-oxobutanoic acid

> <PUBCHEM_IUPAC_NAME>
4-[[5-benzyl-15-[3-(diaminomethylideneamino)propyl]-21-hydroxy-4,11-dimethyl-2-(2-methylpropyl)-3,6,9,13,16,22-hexaoxo-8-propan-2-yl-10-oxa-1,4,7,14,17-pentazabicyclo[16.3.1]docosan-12-yl]amino]-3-(hexanoylamino)-4-oxobutanoic acid

> <PUBCHEM_IUPAC_SYSTEMATIC_NAME>
4-[[15-[3-[bis(azanyl)methylideneamino]propyl]-4,11-dimethyl-2-(2-methylpropyl)-21-oxidanyl-3,6,9,13,16,22-hexakis(oxidanylidene)-5-(phenylmethyl)-8-propan-2-yl-10-oxa-1,4,7,14,17-pentazabicyclo[16.3.1]docosan-12-yl]amino]-3-(hexanoylamino)-4-oxidanylidene-butanoic acid

> <PUBCHEM_IUPAC_TRADITIONAL_NAME>
4-[[5-benzyl-15-(3-guanidinopropyl)-21-hydroxy-2-isobutyl-8-isopropyl-3,6,9,13,16,22-hexaketo-4,11-dimethyl-10-oxa-1,4,7,14,17-pentazabicyclo[16.3.1]docosan-12-yl]amino]-3-(caproylamino)-4-keto-butyric acid

> <PUBCHEM_IUPAC_INCHI>
InChI=1S/C46H72N10O12/c1-8-9-11-18-34(57)50-31(24-36(59)60)40(62)54-38-27(6)68-45(67)37(26(4)5)53-41(63)32(23-28-15-12-10-13-16-28)55(7)44(66)33(22-25(2)3)56-35(58)20-19-30(43(56)65)52-39(61)29(51-42(38)64)17-14-21-49-46(47)48/h10,12-13,15-16,25-27,29-33,35,37-38,58H,8-9,11,14,17-24H2,1-7H3,(H,50,57)(H,51,64)(H,52,61)(H,53,63)(H,54,62)(H,59,60)(H4,47,48,49)

> <PUBCHEM_IUPAC_INCHIKEY>
XKZZUWLVOGBTLH-UHFFFAOYSA-N

> <PUBCHEM_XLOGP3_AA>
1.9

> <PUBCHEM_EXACT_MASS>
956.53311777

> <PUBCHEM_MOLECULAR_FORMULA>
C46H72N10O12

> <PUBCHEM_MOLECULAR_WEIGHT>
957.1

> <PUBCHEM_SMILES>
CCCCCC(=O)NC(CC(=O)O)C(=O)NC1C(OC(=O)C(NC(=O)C(N(C(=O)C(N2C(CCC(C2=O)NC(=O)C(NC1=O)CCCN=C(N)N)O)CC(C)C)C)CC3=CC=CC=C3)C(C)C)C

> <PUBCHEM_CONNECTIVITY_SMILES>
CCCCCC(=O)NC(CC(=O)O)C(=O)NC1C(OC(=O)C(NC(=O)C(N(C(=O)C(N2C(CCC(C2=O)NC(=O)C(NC1=O)CCCN=C(N)N)O)CC(C)C)C)CC3=CC=CC=C3)C(C)C)C

> <PUBCHEM_CACTVS_TPSA>
334

> <PUBCHEM_MONOISOTOPIC_WEIGHT>
956.53311777

> <PUBCHEM_TOTAL_CHARGE>
0

> <PUBCHEM_HEAVY_ATOM_COUNT>
68

> <PUBCHEM_ATOM_DEF_STEREO_COUNT>
0

> <PUBCHEM_ATOM_UDEF_STEREO_COUNT>
9

> <PUBCHEM_BOND_DEF_STEREO_COUNT>
0

> <PUBCHEM_BOND_UDEF_STEREO_COUNT>
0

> <PUBCHEM_ISOTOPIC_ATOM_COUNT>
0

> <PUBCHEM_COMPONENT_COUNT>
1

> <PUBCHEM_CACTVS_TAUTO_COUNT>
-1

> <PUBCHEM_COORDINATE_TYPE>
1
5
255

> <PUBCHEM_BONDANNOTATIONS>
24  1  3
45  18  3
23  28  3
25  27  3
32  37  3
36  40  3
41  44  3
42  52  8
42  53  8
47  54  3
52  56  8
53  57  8
56  59  8
57  59  8
58  60  3

$$$$
