73005967
  -OEChem-01042617102D

109110  0     1  0  0  0  0  0999 V2000
    6.3301    5.5000    0.0000 O   0  0  0  0  0  0  0  0  0  0  0  0
    3.7321   -1.0000    0.0000 O   0  0  0  0  0  0  0  0  0  0  0  0
    4.5981    2.5000    0.0000 O   0  0  0  0  0  0  0  0  0  0  0  0
    8.0622    3.5000    0.0000 O   0  0  0  0  0  0  0  0  0  0  0  0
    6.3301   -3.5000    0.0000 O   0  0  0  0  0  0  0  0  0  0  0  0
    8.9282   -4.0000    0.0000 O   0  0  0  0  0  0  0  0  0  0  0  0
    7.1962   -4.0000    0.0000 O   0  0  0  0  0  0  0  0  0  0  0  0
    4.5981   -6.5000    0.0000 O   0  0  0  0  0  0  0  0  0  0  0  0
   12.3923   -4.0000    0.0000 O   0  0  0  0  0  0  0  0  0  0  0  0
    5.4641    1.0000    0.0000 N   0  0  0  0  0  0  0  0  0  0  0  0
    5.4641   -1.0000    0.0000 N   0  0  0  0  0  0  0  0  0  0  0  0
    6.3301    3.5000    0.0000 N   0  0  0  0  0  0  0  0  0  0  0  0
    8.0622    6.5000    0.0000 N   0  0  0  0  0  0  0  0  0  0  0  0
    7.1962   -2.0000    0.0000 N   0  0  0  0  0  0  0  0  0  0  0  0
    4.5981    0.5000    0.0000 C   0  0  3  0  0  0  0  0  0  0  0  0
    3.7321    1.0000    0.0000 C   0  0  0  0  0  0  0  0  0  0  0  0
    2.8660    0.5000    0.0000 C   0  0  0  0  0  0  0  0  0  0  0  0
    8.0622    5.5000    0.0000 C   0  0  3  0  0  0  0  0  0  0  0  0
    8.9282    5.0000    0.0000 C   0  0  0  0  0  0  0  0  0  0  0  0
    9.7942    5.5000    0.0000 C   0  0  0  0  0  0  0  0  0  0  0  0
    4.5981   -0.5000    0.0000 C   0  0  0  0  0  0  0  0  0  0  0  0
    7.1962    5.0000    0.0000 C   0  0  3  0  0  0  0  0  0  0  0  0
    6.3301    2.5000    0.0000 C   0  0  3  0  0  0  0  0  0  0  0  0
   10.6603    5.0000    0.0000 C   0  0  0  0  0  0  0  0  0  0  0  0
    5.4641    2.0000    0.0000 C   0  0  0  0  0  0  0  0  0  0  0  0
    5.4641   -2.0000    0.0000 C   0  0  3  0  0  0  0  0  0  0  0  0
    2.0000    1.0000    0.0000 C   0  0  0  0  0  0  0  0  0  0  0  0
    2.8660   -0.5000    0.0000 C   0  0  0  0  0  0  0  0  0  0  0  0
   11.5263    5.5000    0.0000 C   0  0  0  0  0  0  0  0  0  0  0  0
    6.3301    0.5000    0.0000 C   0  0  0  0  0  0  0  0  0  0  0  0
    7.1962    4.0000    0.0000 C   0  0  0  0  0  0  0  0  0  0  0  0
    4.5981   -2.5000    0.0000 C   0  0  0  0  0  0  0  0  0  0  0  0
   12.3923    5.0000    0.0000 C   0  0  0  0  0  0  0  0  0  0  0  0
    7.1962    2.0000    0.0000 C   0  0  0  0  0  0  0  0  0  0  0  0
    6.3301   -2.5000    0.0000 C   0  0  0  0  0  0  0  0  0  0  0  0
   13.2583    5.5000    0.0000 C   0  0  0  0  0  0  0  0  0  0  0  0
    4.5981   -3.5000    0.0000 C   0  0  0  0  0  0  0  0  0  0  0  0
    8.0622   -2.5000    0.0000 C   0  0  3  0  0  0  0  0  0  0  0  0
    8.9282   -2.0000    0.0000 C   0  0  0  0  0  0  0  0  0  0  0  0
   14.1244    5.0000    0.0000 C   0  0  0  0  0  0  0  0  0  0  0  0
    5.4641   -4.0000    0.0000 C   0  0  0  0  0  0  0  0  0  0  0  0
    3.7321   -4.0000    0.0000 C   0  0  0  0  0  0  0  0  0  0  0  0
    9.7942   -2.5000    0.0000 C   0  0  0  0  0  0  0  0  0  0  0  0
    8.0622   -3.5000    0.0000 C   0  0  0  0  0  0  0  0  0  0  0  0
    5.4641   -5.0000    0.0000 C   0  0  0  0  0  0  0  0  0  0  0  0
    3.7321   -5.0000    0.0000 C   0  0  0  0  0  0  0  0  0  0  0  0
    4.5981   -5.5000    0.0000 C   0  0  0  0  0  0  0  0  0  0  0  0
   10.6603   -2.0000    0.0000 C   0  0  0  0  0  0  0  0  0  0  0  0
    9.7942   -3.5000    0.0000 C   0  0  0  0  0  0  0  0  0  0  0  0
   11.5263   -2.5000    0.0000 C   0  0  0  0  0  0  0  0  0  0  0  0
   10.6603   -4.0000    0.0000 C   0  0  0  0  0  0  0  0  0  0  0  0
   11.5263   -3.5000    0.0000 C   0  0  0  0  0  0  0  0  0  0  0  0
    4.5981    1.1200    0.0000 H   0  0  0  0  0  0  0  0  0  0  0  0
    4.1306    1.4750    0.0000 H   0  0  0  0  0  0  0  0  0  0  0  0
    3.3335    1.4750    0.0000 H   0  0  0  0  0  0  0  0  0  0  0  0
    2.8660    1.1200    0.0000 H   0  0  0  0  0  0  0  0  0  0  0  0
    7.5252    5.8100    0.0000 H   0  0  0  0  0  0  0  0  0  0  0  0
    8.5297    4.5251    0.0000 H   0  0  0  0  0  0  0  0  0  0  0  0
    9.3267    4.5251    0.0000 H   0  0  0  0  0  0  0  0  0  0  0  0
   10.1928    5.9750    0.0000 H   0  0  0  0  0  0  0  0  0  0  0  0
    9.3957    5.9750    0.0000 H   0  0  0  0  0  0  0  0  0  0  0  0
    6.6592    4.6900    0.0000 H   0  0  0  0  0  0  0  0  0  0  0  0
    6.8671    2.8100    0.0000 H   0  0  0  0  0  0  0  0  0  0  0  0
   10.2617    4.5251    0.0000 H   0  0  0  0  0  0  0  0  0  0  0  0
   11.0588    4.5251    0.0000 H   0  0  0  0  0  0  0  0  0  0  0  0
    6.0010   -1.6900    0.0000 H   0  0  0  0  0  0  0  0  0  0  0  0
    2.3100    1.5369    0.0000 H   0  0  0  0  0  0  0  0  0  0  0  0
    1.4631    1.3100    0.0000 H   0  0  0  0  0  0  0  0  0  0  0  0
    1.6900    0.4631    0.0000 H   0  0  0  0  0  0  0  0  0  0  0  0
    2.2460   -0.5000    0.0000 H   0  0  0  0  0  0  0  0  0  0  0  0
    2.8660   -1.1200    0.0000 H   0  0  0  0  0  0  0  0  0  0  0  0
    3.4860   -0.5000    0.0000 H   0  0  0  0  0  0  0  0  0  0  0  0
   11.9248    5.9750    0.0000 H   0  0  0  0  0  0  0  0  0  0  0  0
   11.1278    5.9750    0.0000 H   0  0  0  0  0  0  0  0  0  0  0  0
    6.0010   -0.6900    0.0000 H   0  0  0  0  0  0  0  0  0  0  0  0
    6.0201   -0.0369    0.0000 H   0  0  0  0  0  0  0  0  0  0  0  0
    6.8671    0.1900    0.0000 H   0  0  0  0  0  0  0  0  0  0  0  0
    6.6401    1.0369    0.0000 H   0  0  0  0  0  0  0  0  0  0  0  0
    5.7932    3.8100    0.0000 H   0  0  0  0  0  0  0  0  0  0  0  0
    4.3860   -1.9174    0.0000 H   0  0  0  0  0  0  0  0  0  0  0  0
    3.9875   -2.6077    0.0000 H   0  0  0  0  0  0  0  0  0  0  0  0
   11.9938    4.5251    0.0000 H   0  0  0  0  0  0  0  0  0  0  0  0
   12.7908    4.5251    0.0000 H   0  0  0  0  0  0  0  0  0  0  0  0
    6.8862    1.4631    0.0000 H   0  0  0  0  0  0  0  0  0  0  0  0
    7.7331    1.6900    0.0000 H   0  0  0  0  0  0  0  0  0  0  0  0
    7.5062    2.5369    0.0000 H   0  0  0  0  0  0  0  0  0  0  0  0
    8.5991    6.8100    0.0000 H   0  0  0  0  0  0  0  0  0  0  0  0
    7.5252    6.8100    0.0000 H   0  0  0  0  0  0  0  0  0  0  0  0
   13.6569    5.9750    0.0000 H   0  0  0  0  0  0  0  0  0  0  0  0
   12.8598    5.9750    0.0000 H   0  0  0  0  0  0  0  0  0  0  0  0
    6.3301    6.1200    0.0000 H   0  0  0  0  0  0  0  0  0  0  0  0
    7.1962   -1.3800    0.0000 H   0  0  0  0  0  0  0  0  0  0  0  0
    8.0622   -1.8800    0.0000 H   0  0  0  0  0  0  0  0  0  0  0  0
    9.3267   -1.5251    0.0000 H   0  0  0  0  0  0  0  0  0  0  0  0
    8.5297   -1.5251    0.0000 H   0  0  0  0  0  0  0  0  0  0  0  0
   13.8144    4.4631    0.0000 H   0  0  0  0  0  0  0  0  0  0  0  0
   14.6613    4.6900    0.0000 H   0  0  0  0  0  0  0  0  0  0  0  0
   14.4344    5.5369    0.0000 H   0  0  0  0  0  0  0  0  0  0  0  0
    6.0010   -3.6900    0.0000 H   0  0  0  0  0  0  0  0  0  0  0  0
    3.1951   -3.6900    0.0000 H   0  0  0  0  0  0  0  0  0  0  0  0
    6.0010   -5.3100    0.0000 H   0  0  0  0  0  0  0  0  0  0  0  0
    3.1951   -5.3100    0.0000 H   0  0  0  0  0  0  0  0  0  0  0  0
   10.6603   -1.3800    0.0000 H   0  0  0  0  0  0  0  0  0  0  0  0
    9.2573   -3.8100    0.0000 H   0  0  0  0  0  0  0  0  0  0  0  0
   12.0632   -2.1900    0.0000 H   0  0  0  0  0  0  0  0  0  0  0  0
   10.6603   -4.6200    0.0000 H   0  0  0  0  0  0  0  0  0  0  0  0
    8.9282   -4.6200    0.0000 H   0  0  0  0  0  0  0  0  0  0  0  0
    4.0611   -6.8100    0.0000 H   0  0  0  0  0  0  0  0  0  0  0  0
   12.9292   -3.6900    0.0000 H   0  0  0  0  0  0  0  0  0  0  0  0
  1 22  1  0  0  0  0
  1 91  1  0  0  0  0
  2 21  2  0  0  0  0
  3 25  2  0  0  0  0
  4 31  2  0  0  0  0
  5 35  2  0  0  0  0
  6 44  1  0  0  0  0
  6107  1  0  0  0  0
  7 44  2  0  0  0  0
  8 47  1  0  0  0  0
  8108  1  0  0  0  0
  9 52  1  0  0  0  0
  9109  1  0  0  0  0
 10 15  1  0  0  0  0
 10 25  1  0  0  0  0
 10 30  1  0  0  0  0
 11 21  1  0  0  0  0
 11 26  1  0  0  0  0
 11 75  1  0  0  0  0
 12 23  1  0  0  0  0
 12 31  1  0  0  0  0
 12 79  1  0  0  0  0
 13 18  1  0  0  0  0
 13 87  1  0  0  0  0
 13 88  1  0  0  0  0
 14 35  1  0  0  0  0
 14 38  1  0  0  0  0
 14 92  1  0  0  0  0
 15 16  1  0  0  0  0
 15 21  1  0  0  0  0
 15 53  1  0  0  0  0
 16 17  1  0  0  0  0
 16 54  1  0  0  0  0
 16 55  1  0  0  0  0
 17 27  1  0  0  0  0
 17 28  1  0  0  0  0
 17 56  1  0  0  0  0
 18 19  1  0  0  0  0
 18 22  1  0  0  0  0
 18 57  1  0  0  0  0
 19 20  1  0  0  0  0
 19 58  1  0  0  0  0
 19 59  1  0  0  0  0
 20 24  1  0  0  0  0
 20 60  1  0  0  0  0
 20 61  1  0  0  0  0
 22 31  1  0  0  0  0
 22 62  1  0  0  0  0
 23 25  1  0  0  0  0
 23 34  1  0  0  0  0
 23 63  1  0  0  0  0
 24 29  1  0  0  0  0
 24 64  1  0  0  0  0
 24 65  1  0  0  0  0
 26 32  1  0  0  0  0
 26 35  1  0  0  0  0
 26 66  1  0  0  0  0
 27 67  1  0  0  0  0
 27 68  1  0  0  0  0
 27 69  1  0  0  0  0
 28 70  1  0  0  0  0
 28 71  1  0  0  0  0
 28 72  1  0  0  0  0
 29 33  1  0  0  0  0
 29 73  1  0  0  0  0
 29 74  1  0  0  0  0
 30 76  1  0  0  0  0
 30 77  1  0  0  0  0
 30 78  1  0  0  0  0
 32 37  1  0  0  0  0
 32 80  1  0  0  0  0
 32 81  1  0  0  0  0
 33 36  1  0  0  0  0
 33 82  1  0  0  0  0
 33 83  1  0  0  0  0
 34 84  1  0  0  0  0
 34 85  1  0  0  0  0
 34 86  1  0  0  0  0
 36 40  1  0  0  0  0
 36 89  1  0  0  0  0
 36 90  1  0  0  0  0
 37 41  2  0  0  0  0
 37 42  1  0  0  0  0
 38 39  1  0  0  0  0
 38 44  1  0  0  0  0
 38 93  1  0  0  0  0
 39 43  1  0  0  0  0
 39 94  1  0  0  0  0
 39 95  1  0  0  0  0
 40 96  1  0  0  0  0
 40 97  1  0  0  0  0
 40 98  1  0  0  0  0
 41 45  1  0  0  0  0
 41 99  1  0  0  0  0
 42 46  2  0  0  0  0
 42100  1  0  0  0  0
 43 48  2  0  0  0  0
 43 49  1  0  0  0  0
 45 47  2  0  0  0  0
 45101  1  0  0  0  0
 46 47  1  0  0  0  0
 46102  1  0  0  0  0
 48 50  1  0  0  0  0
 48103  1  0  0  0  0
 49 51  2  0  0  0  0
 49104  1  0  0  0  0
 50 52  2  0  0  0  0
 50105  1  0  0  0  0
 51 52  1  0  0  0  0
 51106  1  0  0  0  0
M  END
> <PUBCHEM_COMPOUND_CID>
73005967

> <PUBCHEM_COMPOUND_CANONICALIZED>
1

> <PUBCHEM_CACTVS_COMPLEXITY>
1120

> <PUBCHEM_CACTVS_HBOND_ACCEPTOR>
10

> <PUBCHEM_CACTVS_HBOND_DONOR>
8

> <PUBCHEM_CACTVS_ROTATABLE_BOND>
22

> <PUBCHEM_CACTVS_SUBSKEYS>
AAADcfB/vAAAAAAAAAAAAAAAAAAAAAAAAAAwYAAAAAAAAAABQAAAHgAQCAAADTzhmAYyDoPAAgCIAiHSGAICAAAgIAAIiIHOCIgKdjqC0TOUcAAk1hGYmAeYyKCOIAAAAAAAAABAAAAAAAAAAAAAAAAAAA==

> <PUBCHEM_IUPAC_OPENEYE_NAME>
2-[[2-[[2-[2-[(3-amino-2-hydroxy-decanoyl)amino]propanoyl-methyl-amino]-4-methyl-pentanoyl]amino]-3-(4-hydroxyphenyl)propanoyl]amino]-3-(4-hydroxyphenyl)propanoic acid

> <PUBCHEM_IUPAC_CAS_NAME>
2-[[2-[[2-[[2-[(3-amino-2-hydroxy-1-oxodecyl)amino]-1-oxopropyl]-methylamino]-4-methyl-1-oxopentyl]amino]-3-(4-hydroxyphenyl)-1-oxopropyl]amino]-3-(4-hydroxyphenyl)propanoic acid

> <PUBCHEM_IUPAC_NAME_MARKUP>
2-[[2-[[2-[2-[(3-amino-2-hydroxydecanoyl)amino]propanoyl-methylamino]-4-methylpentanoyl]amino]-3-(4-hydroxyphenyl)propanoyl]amino]-3-(4-hydroxyphenyl)propanoic acid

> <PUBCHEM_IUPAC_NAME>
2-[[2-[[2-[2-[(3-amino-2-hydroxydecanoyl)amino]propanoyl-methylamino]-4-methylpentanoyl]amino]-3-(4-hydroxyphenyl)propanoyl]amino]-3-(4-hydroxyphenyl)propanoic acid

> <PUBCHEM_IUPAC_SYSTEMATIC_NAME>
2-[[2-[[2-[2-[(3-azanyl-2-oxidanyl-decanoyl)amino]propanoyl-methyl-amino]-4-methyl-pentanoyl]amino]-3-(4-hydroxyphenyl)propanoyl]amino]-3-(4-hydroxyphenyl)propanoic acid

> <PUBCHEM_IUPAC_TRADITIONAL_NAME>
2-[[2-[[2-[2-[(3-amino-2-hydroxy-decanoyl)amino]propanoyl-methyl-amino]-4-methyl-pentanoyl]amino]-3-(4-hydroxyphenyl)propanoyl]amino]-3-(4-hydroxyphenyl)propionic acid

> <PUBCHEM_IUPAC_INCHI>
InChI=1S/C38H57N5O9/c1-6-7-8-9-10-11-29(39)33(46)36(49)40-24(4)37(50)43(5)32(20-23(2)3)35(48)41-30(21-25-12-16-27(44)17-13-25)34(47)42-31(38(51)52)22-26-14-18-28(45)19-15-26/h12-19,23-24,29-33,44-46H,6-11,20-22,39H2,1-5H3,(H,40,49)(H,41,48)(H,42,47)(H,51,52)

> <PUBCHEM_IUPAC_INCHIKEY>
BQGPJXHWGIKJKY-UHFFFAOYSA-N

> <PUBCHEM_XLOGP3_AA>
2.4

> <PUBCHEM_EXACT_MASS>
727.41562841

> <PUBCHEM_MOLECULAR_FORMULA>
C38H57N5O9

> <PUBCHEM_MOLECULAR_WEIGHT>
727.9

> <PUBCHEM_SMILES>
CCCCCCCC(C(C(=O)NC(C)C(=O)N(C)C(CC(C)C)C(=O)NC(CC1=CC=C(C=C1)O)C(=O)NC(CC2=CC=C(C=C2)O)C(=O)O)O)N

> <PUBCHEM_CONNECTIVITY_SMILES>
CCCCCCCC(C(C(=O)NC(C)C(=O)N(C)C(CC(C)C)C(=O)NC(CC1=CC=C(C=C1)O)C(=O)NC(CC2=CC=C(C=C2)O)C(=O)O)O)N

> <PUBCHEM_CACTVS_TPSA>
232

> <PUBCHEM_MONOISOTOPIC_WEIGHT>
727.41562841

> <PUBCHEM_TOTAL_CHARGE>
0

> <PUBCHEM_HEAVY_ATOM_COUNT>
52

> <PUBCHEM_ATOM_DEF_STEREO_COUNT>
0

> <PUBCHEM_ATOM_UDEF_STEREO_COUNT>
6

> <PUBCHEM_BOND_DEF_STEREO_COUNT>
0

> <PUBCHEM_BOND_UDEF_STEREO_COUNT>
0

> <PUBCHEM_ISOTOPIC_ATOM_COUNT>
0

> <PUBCHEM_COMPONENT_COUNT>
1

> <PUBCHEM_CACTVS_TAUTO_COUNT>
-1

> <PUBCHEM_COORDINATE_TYPE>
1
5
255

> <PUBCHEM_BONDANNOTATIONS>
22  1  3
18  13  3
15  16  3
23  34  3
26  32  3
37  41  8
37  42  8
38  39  3
41  45  8
42  46  8
43  48  8
43  49  8
45  47  8
46  47  8
48  50  8
49  51  8
50  52  8
51  52  8

$$$$
