445434
  -OEChem-01042617112D

145146  0     1  0  0  0  0  0999 V2000
    9.3188   -1.2050    0.0000 O   0  0  0  0  0  0  0  0  0  0  0  0
   12.2906    0.9542    0.0000 O   0  0  0  0  0  0  0  0  0  0  0  0
    9.4464   -4.9722    0.0000 O   0  0  0  0  0  0  0  0  0  0  0  0
   12.5925    5.7520    0.0000 O   0  0  0  0  0  0  0  0  0  0  0  0
    4.6625   -0.0095    0.0000 O   0  0  0  0  0  0  0  0  0  0  0  0
   13.6109    4.1473    0.0000 O   0  0  0  0  0  0  0  0  0  0  0  0
   13.5021    2.4186    0.0000 O   0  0  0  0  0  0  0  0  0  0  0  0
    9.9147    8.2666    0.0000 O   0  0  0  0  0  0  0  0  0  0  0  0
    2.5897    2.7550    0.0000 O   0  0  0  0  0  0  0  0  0  0  0  0
    3.1249    1.1077    0.0000 O   0  0  0  0  0  0  0  0  0  0  0  0
    3.5635    5.7520    0.0000 O   0  0  0  0  0  0  0  0  0  0  0  0
    6.2413    8.2666    0.0000 O   0  0  0  0  0  0  0  0  0  0  0  0
   10.8089    0.7195    0.0000 N   0  0  0  0  0  0  0  0  0  0  0  0
    8.0780   -0.3617    0.0000 N   0  0  0  0  0  0  0  0  0  0  0  0
   11.9967    4.3752    0.0000 N   0  0  0  0  0  0  0  0  0  0  0  0
   10.4229    6.8551    0.0000 N   0  0  0  0  0  0  0  0  0  0  0  0
    4.7096    1.4900    0.0000 N   0  0  0  0  0  0  0  0  0  0  0  0
    7.5780    7.5855    0.0000 N   0  0  0  0  0  0  0  0  0  0  0  0
   12.9629   -1.6628    0.0000 N   0  0  0  0  0  0  0  0  0  0  0  0
    5.0041    6.1705    0.0000 N   0  0  0  0  0  0  0  0  0  0  0  0
   14.4445   -2.5600    0.0000 N   0  0  0  0  0  0  0  0  0  0  0  0
   12.9267   -3.3945    0.0000 N   0  0  0  0  0  0  0  0  0  0  0  0
    9.9999    0.1317    0.0000 C   0  0  1  0  0  0  0  0  0  0  0  0
    7.0859   -0.2364    0.0000 C   0  0  2  0  0  0  0  0  0  0  0  0
   11.8721    2.3948    0.0000 C   0  0  1  0  0  0  0  0  0  0  0  0
   11.1518    6.1705    0.0000 C   0  0  1  0  0  0  0  0  0  0  0  0
    6.1561    0.1317    0.0000 C   0  0  1  0  0  0  0  0  0  0  0  0
   12.0595    3.3771    0.0000 C   0  0  2  0  0  0  0  0  0  0  0  0
   11.9223    6.8080    0.0000 C   0  0  0  0  0  0  0  0  0  0  0  0
   11.7556    7.7940    0.0000 C   0  0  0  0  0  0  0  0  0  0  0  0
   10.4816   -0.7446    0.0000 C   0  0  0  0  0  0  0  0  0  0  0  0
    9.0701   -0.2364    0.0000 C   0  0  0  0  0  0  0  0  0  0  0  0
   11.4463    1.4900    0.0000 C   0  0  0  0  0  0  0  0  0  0  0  0
   11.6877    5.3262    0.0000 C   0  0  0  0  0  0  0  0  0  0  0  0
   11.4814   -0.7655    0.0000 C   0  0  0  0  0  0  0  0  0  0  0  0
   12.8231    2.0858    0.0000 C   0  0  0  0  0  0  0  0  0  0  0  0
    6.8372   -1.2050    0.0000 C   0  0  0  0  0  0  0  0  0  0  0  0
    5.3471    0.7195    0.0000 C   0  0  0  0  0  0  0  0  0  0  0  0
    5.6743   -0.7446    0.0000 C   0  0  0  0  0  0  0  0  0  0  0  0
    7.7687   -4.5415    0.0000 C   0  0  2  0  0  0  0  0  0  0  0  0
    8.4832   -5.2412    0.0000 C   0  0  2  0  0  0  0  0  0  0  0  0
   12.5261    8.4314    0.0000 C   0  0  0  0  0  0  0  0  0  0  0  0
   10.8183    8.1425    0.0000 C   0  0  0  0  0  0  0  0  0  0  0  0
    4.2839    2.3948    0.0000 C   0  0  2  0  0  0  0  0  0  0  0  0
   13.0575    3.3143    0.0000 C   0  0  0  0  0  0  0  0  0  0  0  0
    7.5516   -1.9047    0.0000 C   0  0  0  0  0  0  0  0  0  0  0  0
   11.9631   -1.6418    0.0000 C   0  0  0  0  0  0  0  0  0  0  0  0
    8.0174   -3.5729    0.0000 C   0  0  0  0  0  0  0  0  0  0  0  0
    8.2345   -6.2097    0.0000 C   0  0  0  0  0  0  0  0  0  0  0  0
    7.3030   -2.8732    0.0000 C   0  0  0  0  0  0  0  0  0  0  0  0
    4.0965    3.3771    0.0000 C   0  0  0  0  0  0  0  0  0  0  0  0
    9.5466    7.3368    0.0000 C   0  0  0  0  0  0  0  0  0  0  0  0
    8.5780    7.5855    0.0000 C   0  0  1  0  0  0  0  0  0  0  0  0
    6.8056   -4.8104    0.0000 C   0  0  0  0  0  0  0  0  0  0  0  0
    4.1593    4.3752    0.0000 C   0  0  0  0  0  0  0  0  0  0  0  0
    8.9490   -6.9094    0.0000 C   0  0  0  0  0  0  0  0  0  0  0  0
    6.3398   -3.1422    0.0000 C   0  0  0  0  0  0  0  0  0  0  0  0
    3.3328    2.0858    0.0000 C   0  0  0  0  0  0  0  0  0  0  0  0
    8.7033    8.5776    0.0000 C   0  0  0  0  0  0  0  0  0  0  0  0
    4.4683    5.3262    0.0000 C   0  0  0  0  0  0  0  0  0  0  0  0
    9.9122   -6.6405    0.0000 C   0  0  0  0  0  0  0  0  0  0  0  0
    8.7003   -7.8780    0.0000 C   0  0  0  0  0  0  0  0  0  0  0  0
    6.6094    7.3368    0.0000 C   0  0  0  0  0  0  0  0  0  0  0  0
   10.1608   -5.6719    0.0000 C   0  0  0  0  0  0  0  0  0  0  0  0
    5.7331    6.8551    0.0000 C   0  0  0  0  0  0  0  0  0  0  0  0
   13.4447   -2.5391    0.0000 C   0  0  0  0  0  0  0  0  0  0  0  0
   10.6266   -7.3401    0.0000 C   0  0  0  0  0  0  0  0  0  0  0  0
    9.4148   -8.5776    0.0000 C   0  0  0  0  0  0  0  0  0  0  0  0
    4.2336    6.8080    0.0000 C   0  0  0  0  0  0  0  0  0  0  0  0
   10.3779   -8.3087    0.0000 C   0  0  0  0  0  0  0  0  0  0  0  0
    5.1453    7.6641    0.0000 C   0  0  0  0  0  0  0  0  0  0  0  0
   10.6049   -0.0035    0.0000 H   0  0  0  0  0  0  0  0  0  0  0  0
    7.4343   -0.7492    0.0000 H   0  0  0  0  0  0  0  0  0  0  0  0
   12.1183    1.8258    0.0000 H   0  0  0  0  0  0  0  0  0  0  0  0
   11.1713    6.7902    0.0000 H   0  0  0  0  0  0  0  0  0  0  0  0
    5.5510   -0.0035    0.0000 H   0  0  0  0  0  0  0  0  0  0  0  0
   12.4979    3.8155    0.0000 H   0  0  0  0  0  0  0  0  0  0  0  0
   12.2286    6.2689    0.0000 H   0  0  0  0  0  0  0  0  0  0  0  0
   12.5064    7.0159    0.0000 H   0  0  0  0  0  0  0  0  0  0  0  0
   11.2779    7.3988    0.0000 H   0  0  0  0  0  0  0  0  0  0  0  0
    9.8947   -0.9444    0.0000 H   0  0  0  0  0  0  0  0  0  0  0  0
   10.5765   -1.3573    0.0000 H   0  0  0  0  0  0  0  0  0  0  0  0
   11.2333    0.2675    0.0000 H   0  0  0  0  0  0  0  0  0  0  0  0
    8.0780   -0.9817    0.0000 H   0  0  0  0  0  0  0  0  0  0  0  0
   12.6057    4.4913    0.0000 H   0  0  0  0  0  0  0  0  0  0  0  0
   12.0683   -0.5657    0.0000 H   0  0  0  0  0  0  0  0  0  0  0  0
   11.3865   -0.1528    0.0000 H   0  0  0  0  0  0  0  0  0  0  0  0
   12.6315    1.4962    0.0000 H   0  0  0  0  0  0  0  0  0  0  0  0
   13.4128    1.8942    0.0000 H   0  0  0  0  0  0  0  0  0  0  0  0
   13.0147    2.6755    0.0000 H   0  0  0  0  0  0  0  0  0  0  0  0
    6.2400   -1.3717    0.0000 H   0  0  0  0  0  0  0  0  0  0  0  0
    5.1310   -0.4459    0.0000 H   0  0  0  0  0  0  0  0  0  0  0  0
    5.3756   -1.2879    0.0000 H   0  0  0  0  0  0  0  0  0  0  0  0
    6.2176   -1.0433    0.0000 H   0  0  0  0  0  0  0  0  0  0  0  0
    7.3258   -4.1077    0.0000 H   0  0  0  0  0  0  0  0  0  0  0  0
   10.7873    7.3567    0.0000 H   0  0  0  0  0  0  0  0  0  0  0  0
    8.9262   -5.6749    0.0000 H   0  0  0  0  0  0  0  0  0  0  0  0
   12.9213    7.9537    0.0000 H   0  0  0  0  0  0  0  0  0  0  0  0
   13.0038    8.8266    0.0000 H   0  0  0  0  0  0  0  0  0  0  0  0
   12.1309    8.9091    0.0000 H   0  0  0  0  0  0  0  0  0  0  0  0
   11.0344    8.7236    0.0000 H   0  0  0  0  0  0  0  0  0  0  0  0
   10.2372    8.3586    0.0000 H   0  0  0  0  0  0  0  0  0  0  0  0
   10.6022    7.5614    0.0000 H   0  0  0  0  0  0  0  0  0  0  0  0
    4.0376    1.8258    0.0000 H   0  0  0  0  0  0  0  0  0  0  0  0
    4.1862    1.1578    0.0000 H   0  0  0  0  0  0  0  0  0  0  0  0
    8.1488   -1.7379    0.0000 H   0  0  0  0  0  0  0  0  0  0  0  0
   11.3762   -1.8417    0.0000 H   0  0  0  0  0  0  0  0  0  0  0  0
   12.0580   -2.2545    0.0000 H   0  0  0  0  0  0  0  0  0  0  0  0
    7.6699   -5.9536    0.0000 H   0  0  0  0  0  0  0  0  0  0  0  0
    7.8842   -6.7213    0.0000 H   0  0  0  0  0  0  0  0  0  0  0  0
    8.6146   -3.4062    0.0000 H   0  0  0  0  0  0  0  0  0  0  0  0
    3.5532    3.6758    0.0000 H   0  0  0  0  0  0  0  0  0  0  0  0
    4.7153    3.4161    0.0000 H   0  0  0  0  0  0  0  0  0  0  0  0
    8.1680    8.0506    0.0000 H   0  0  0  0  0  0  0  0  0  0  0  0
    6.6388   -4.2133    0.0000 H   0  0  0  0  0  0  0  0  0  0  0  0
    6.2084   -4.9771    0.0000 H   0  0  0  0  0  0  0  0  0  0  0  0
    6.9723   -5.4076    0.0000 H   0  0  0  0  0  0  0  0  0  0  0  0
    3.7073    4.7996    0.0000 H   0  0  0  0  0  0  0  0  0  0  0  0
    4.7683    4.2590    0.0000 H   0  0  0  0  0  0  0  0  0  0  0  0
    6.1731   -2.5450    0.0000 H   0  0  0  0  0  0  0  0  0  0  0  0
    5.7426   -3.3089    0.0000 H   0  0  0  0  0  0  0  0  0  0  0  0
    6.5065   -3.7393    0.0000 H   0  0  0  0  0  0  0  0  0  0  0  0
    9.3184    8.4999    0.0000 H   0  0  0  0  0  0  0  0  0  0  0  0
    8.7810    9.1928    0.0000 H   0  0  0  0  0  0  0  0  0  0  0  0
    8.0882    8.6554    0.0000 H   0  0  0  0  0  0  0  0  0  0  0  0
    7.5003    8.2006    0.0000 H   0  0  0  0  0  0  0  0  0  0  0  0
   14.2297    4.1083    0.0000 H   0  0  0  0  0  0  0  0  0  0  0  0
   10.0663   -6.0400    0.0000 H   0  0  0  0  0  0  0  0  0  0  0  0
    8.1031   -8.0447    0.0000 H   0  0  0  0  0  0  0  0  0  0  0  0
    9.7271   -6.1149    0.0000 H   0  0  0  0  0  0  0  0  0  0  0  0
   10.6038   -6.1057    0.0000 H   0  0  0  0  0  0  0  0  0  0  0  0
   10.5946   -5.2289    0.0000 H   0  0  0  0  0  0  0  0  0  0  0  0
   11.2238   -7.1734    0.0000 H   0  0  0  0  0  0  0  0  0  0  0  0
    9.2606   -9.1782    0.0000 H   0  0  0  0  0  0  0  0  0  0  0  0
    4.6288    7.2857    0.0000 H   0  0  0  0  0  0  0  0  0  0  0  0
    3.7559    7.2032    0.0000 H   0  0  0  0  0  0  0  0  0  0  0  0
    3.8384    6.3302    0.0000 H   0  0  0  0  0  0  0  0  0  0  0  0
    2.0000    2.5634    0.0000 H   0  0  0  0  0  0  0  0  0  0  0  0
   10.8209   -8.7425    0.0000 H   0  0  0  0  0  0  0  0  0  0  0  0
    5.3975    8.2305    0.0000 H   0  0  0  0  0  0  0  0  0  0  0  0
    4.5287    7.5993    0.0000 H   0  0  0  0  0  0  0  0  0  0  0  0
   14.7431   -3.1033    0.0000 H   0  0  0  0  0  0  0  0  0  0  0  0
   14.7656   -2.0297    0.0000 H   0  0  0  0  0  0  0  0  0  0  0  0
   13.2253   -3.9378    0.0000 H   0  0  0  0  0  0  0  0  0  0  0  0
   12.3068   -3.3815    0.0000 H   0  0  0  0  0  0  0  0  0  0  0  0
  1 32  2  0  0  0  0
  2 33  2  0  0  0  0
 41  3  1  1  0  0  0
  3 64  1  0  0  0  0
  4 34  2  0  0  0  0
  5 38  2  0  0  0  0
  6 45  1  0  0  0  0
  6127  1  0  0  0  0
  7 45  2  0  0  0  0
  8 52  2  0  0  0  0
  9 58  1  0  0  0  0
  9138  1  0  0  0  0
 10 58  2  0  0  0  0
 11 60  2  0  0  0  0
 12 63  2  0  0  0  0
 13 23  1  0  0  0  0
 13 33  1  0  0  0  0
 13 83  1  0  0  0  0
 14 24  1  0  0  0  0
 14 32  1  0  0  0  0
 14 84  1  0  0  0  0
 15 28  1  0  0  0  0
 15 34  1  0  0  0  0
 15 85  1  0  0  0  0
 16 26  1  0  0  0  0
 16 52  1  0  0  0  0
 16 96  1  0  0  0  0
 17 38  1  0  0  0  0
 17 44  1  0  0  0  0
 17105  1  0  0  0  0
 18 53  1  0  0  0  0
 18 63  1  0  0  0  0
 18126  1  0  0  0  0
 19 47  1  0  0  0  0
 19 66  2  0  0  0  0
 20 60  1  0  0  0  0
 20 65  1  0  0  0  0
 20 69  1  0  0  0  0
 21 66  1  0  0  0  0
 21142  1  0  0  0  0
 21143  1  0  0  0  0
 22 66  1  0  0  0  0
 22144  1  0  0  0  0
 22145  1  0  0  0  0
 23 31  1  1  0  0  0
 23 32  1  0  0  0  0
 23 72  1  0  0  0  0
 24 27  1  0  0  0  0
 24 37  1  1  0  0  0
 24 73  1  0  0  0  0
 25 28  1  0  0  0  0
 25 33  1  0  0  0  0
 25 36  1  6  0  0  0
 25 74  1  0  0  0  0
 26 29  1  1  0  0  0
 26 34  1  0  0  0  0
 26 75  1  0  0  0  0
 27 38  1  0  0  0  0
 27 39  1  6  0  0  0
 27 76  1  0  0  0  0
 28 45  1  1  0  0  0
 28 77  1  0  0  0  0
 29 30  1  0  0  0  0
 29 78  1  0  0  0  0
 29 79  1  0  0  0  0
 30 42  1  0  0  0  0
 30 43  1  0  0  0  0
 30 80  1  0  0  0  0
 31 35  1  0  0  0  0
 31 81  1  0  0  0  0
 31 82  1  0  0  0  0
 35 47  1  0  0  0  0
 35 86  1  0  0  0  0
 35 87  1  0  0  0  0
 36 88  1  0  0  0  0
 36 89  1  0  0  0  0
 36 90  1  0  0  0  0
 37 46  2  0  0  0  0
 37 91  1  0  0  0  0
 39 92  1  0  0  0  0
 39 93  1  0  0  0  0
 39 94  1  0  0  0  0
 40 41  1  0  0  0  0
 40 48  1  0  0  0  0
 40 54  1  1  0  0  0
 40 95  1  0  0  0  0
 41 49  1  0  0  0  0
 41 97  1  0  0  0  0
 42 98  1  0  0  0  0
 42 99  1  0  0  0  0
 42100  1  0  0  0  0
 43101  1  0  0  0  0
 43102  1  0  0  0  0
 43103  1  0  0  0  0
 44 51  1  0  0  0  0
 44 58  1  1  0  0  0
 44104  1  0  0  0  0
 46 50  1  0  0  0  0
 46106  1  0  0  0  0
 47107  1  0  0  0  0
 47108  1  0  0  0  0
 48 50  2  0  0  0  0
 48111  1  0  0  0  0
 49 56  1  0  0  0  0
 49109  1  0  0  0  0
 49110  1  0  0  0  0
 50 57  1  0  0  0  0
 51 55  1  0  0  0  0
 51112  1  0  0  0  0
 51113  1  0  0  0  0
 52 53  1  0  0  0  0
 53 59  1  6  0  0  0
 53114  1  0  0  0  0
 54115  1  0  0  0  0
 54116  1  0  0  0  0
 54117  1  0  0  0  0
 55 60  1  0  0  0  0
 55118  1  0  0  0  0
 55119  1  0  0  0  0
 56 61  2  0  0  0  0
 56 62  1  0  0  0  0
 57120  1  0  0  0  0
 57121  1  0  0  0  0
 57122  1  0  0  0  0
 59123  1  0  0  0  0
 59124  1  0  0  0  0
 59125  1  0  0  0  0
 61 67  1  0  0  0  0
 61128  1  0  0  0  0
 62 68  2  0  0  0  0
 62129  1  0  0  0  0
 63 65  1  0  0  0  0
 64130  1  0  0  0  0
 64131  1  0  0  0  0
 64132  1  0  0  0  0
 65 71  2  0  0  0  0
 67 70  2  0  0  0  0
 67133  1  0  0  0  0
 68 70  1  0  0  0  0
 68134  1  0  0  0  0
 69135  1  0  0  0  0
 69136  1  0  0  0  0
 69137  1  0  0  0  0
 70139  1  0  0  0  0
 71140  1  0  0  0  0
 71141  1  0  0  0  0
M  END
> <PUBCHEM_COMPOUND_CID>
445434

> <PUBCHEM_COMPOUND_CANONICALIZED>
1

> <PUBCHEM_CACTVS_COMPLEXITY>
2000

> <PUBCHEM_CACTVS_HBOND_ACCEPTOR>
13

> <PUBCHEM_CACTVS_HBOND_DONOR>
10

> <PUBCHEM_CACTVS_ROTATABLE_BOND>
15

> <PUBCHEM_CACTVS_SUBSKEYS>
AAADcfB//AAAAAAAAAAAAAAAAAAAAAAAAAAwAAAAAAAAAAABAAAAHgAQCAAADTzhmAYzCIPABgCoAiXSfACCAAEgAgAIiIGIAMgKYDqA0TCUYAAk1gGYiIe/1+IOAAAAAAAAAAAAAAAAAAAAAAAAAAAAAA==

> <PUBCHEM_IUPAC_OPENEYE_NAME>
(5R,8S,11R,12S,15S,18S,19S,22R)-15-(3-guanidinopropyl)-8-isobutyl-18-[(1E,3E,5S,6S)-6-methoxy-3,5-dimethyl-7-phenyl-hepta-1,3-dienyl]-1,5,12,19-tetramethyl-2-methylene-3,6,9,13,16,20,25-heptaoxo-1,4,7,10,14,17,21-heptazacyclopentacosane-11,22-dicarboxylic acid

> <PUBCHEM_IUPAC_CAS_NAME>
(5R,8S,11R,12S,15S,18S,19S,22R)-15-[3-(diaminomethylideneamino)propyl]-18-[(1E,3E,5S,6S)-6-methoxy-3,5-dimethyl-7-phenylhepta-1,3-dienyl]-1,5,12,19-tetramethyl-2-methylene-8-(2-methylpropyl)-3,6,9,13,16,20,25-heptaoxo-1,4,7,10,14,17,21-heptazacyclopentacosane-11,22-dicarboxylic acid

> <PUBCHEM_IUPAC_NAME_MARKUP>
(5<I>R</I>,8<I>S</I>,11<I>R</I>,12<I>S</I>,15<I>S</I>,18<I>S</I>,19<I>S</I>,22<I>R</I>)-15-[3-(diaminomethylideneamino)propyl]-18-[(1<I>E</I>,3<I>E</I>,5<I>S</I>,6<I>S</I>)-6-methoxy-3,5-dimethyl-7-phenylhepta-1,3-dienyl]-1,5,12,19-tetramethyl-2-methylidene-8-(2-methylpropyl)-3,6,9,13,16,20,25-heptaoxo-1,4,7,10,14,17,21-heptazacyclopentacosane-11,22-dicarboxylic acid

> <PUBCHEM_IUPAC_NAME>
(5R,8S,11R,12S,15S,18S,19S,22R)-15-[3-(diaminomethylideneamino)propyl]-18-[(1E,3E,5S,6S)-6-methoxy-3,5-dimethyl-7-phenylhepta-1,3-dienyl]-1,5,12,19-tetramethyl-2-methylidene-8-(2-methylpropyl)-3,6,9,13,16,20,25-heptaoxo-1,4,7,10,14,17,21-heptazacyclopentacosane-11,22-dicarboxylic acid

> <PUBCHEM_IUPAC_SYSTEMATIC_NAME>
(5R,8S,11R,12S,15S,18S,19S,22R)-15-[3-[bis(azanyl)methylideneamino]propyl]-18-[(1E,3E,5S,6S)-6-methoxy-3,5-dimethyl-7-phenyl-hepta-1,3-dienyl]-1,5,12,19-tetramethyl-2-methylidene-8-(2-methylpropyl)-3,6,9,13,16,20,25-heptakis(oxidanylidene)-1,4,7,10,14,17,21-heptazacyclopentacosane-11,22-dicarboxylic acid

> <PUBCHEM_IUPAC_TRADITIONAL_NAME>
(5R,8S,11R,12S,15S,18S,19S,22R)-15-(3-guanidinopropyl)-8-isobutyl-3,6,9,13,16,20,25-heptaketo-18-[(1E,3E,5S,6S)-6-methoxy-3,5-dimethyl-7-phenyl-hepta-1,3-dienyl]-1,5,12,19-tetramethyl-2-methylene-1,4,7,10,14,17,21-heptazacyclopentacosane-11,22-dicarboxylic acid

> <PUBCHEM_IUPAC_INCHI>
InChI=1S/C49H74N10O12/c1-26(2)23-37-46(66)58-40(48(69)70)30(6)42(62)55-35(17-14-22-52-49(50)51)45(65)54-34(19-18-27(3)24-28(4)38(71-10)25-33-15-12-11-13-16-33)29(5)41(61)56-36(47(67)68)20-21-39(60)59(9)32(8)44(64)53-31(7)43(63)57-37/h11-13,15-16,18-19,24,26,28-31,34-38,40H,8,14,17,20-23,25H2,1-7,9-10H3,(H,53,64)(H,54,65)(H,55,62)(H,56,61)(H,57,63)(H,58,66)(H,67,68)(H,69,70)(H4,50,51,52)/b19-18+,27-24+/t28-,29-,30-,31+,34-,35-,36+,37-,38-,40+/m0/s1

> <PUBCHEM_IUPAC_INCHIKEY>
ZYZCGGRZINLQBL-GWRQVWKTSA-N

> <PUBCHEM_XLOGP3_AA>
2.3

> <PUBCHEM_EXACT_MASS>
994.54876783

> <PUBCHEM_MOLECULAR_FORMULA>
C49H74N10O12

> <PUBCHEM_MOLECULAR_WEIGHT>
995.2

> <PUBCHEM_SMILES>
C[C@H]1[C@@H](NC(=O)[C@@H](NC(=O)[C@H]([C@@H](NC(=O)[C@@H](NC(=O)[C@H](NC(=O)C(=C)N(C(=O)CC[C@@H](NC1=O)C(=O)O)C)C)CC(C)C)C(=O)O)C)CCCN=C(N)N)/C=C/C(=C/[C@H](C)[C@H](CC2=CC=CC=C2)OC)/C

> <PUBCHEM_CONNECTIVITY_SMILES>
CC1C(NC(=O)C(NC(=O)C(C(NC(=O)C(NC(=O)C(NC(=O)C(=C)N(C(=O)CCC(NC1=O)C(=O)O)C)C)CC(C)C)C(=O)O)C)CCCN=C(N)N)C=CC(=CC(C)C(CC2=CC=CC=C2)OC)C

> <PUBCHEM_CACTVS_TPSA>
343

> <PUBCHEM_MONOISOTOPIC_WEIGHT>
994.54876783

> <PUBCHEM_TOTAL_CHARGE>
0

> <PUBCHEM_HEAVY_ATOM_COUNT>
71

> <PUBCHEM_ATOM_DEF_STEREO_COUNT>
10

> <PUBCHEM_ATOM_UDEF_STEREO_COUNT>
0

> <PUBCHEM_BOND_DEF_STEREO_COUNT>
2

> <PUBCHEM_BOND_UDEF_STEREO_COUNT>
0

> <PUBCHEM_ISOTOPIC_ATOM_COUNT>
0

> <PUBCHEM_COMPONENT_COUNT>
1

> <PUBCHEM_CACTVS_TAUTO_COUNT>
-1

> <PUBCHEM_COORDINATE_TYPE>
1
5
255

> <PUBCHEM_BONDANNOTATIONS>
23  31  5
24  37  5
25  36  6
26  29  5
27  39  6
28  45  5
41  3  5
40  54  5
44  58  5
53  59  6
56  61  8
56  62  8
61  67  8
62  68  8
67  70  8
68  70  8

$$$$
