MODEL 1
REMARK VINA RESULT:    -5.305      0.000      0.000
REMARK INTER + INTRA:         -10.430
REMARK INTER:                  -9.027
REMARK INTRA:                  -1.403
REMARK UNBOUND:                -1.403
REMARK SMILES CC[C@H](C)[C@@H]1NC(=O)[C@H]2CSC(=N2)[C@@H]([C@@H](C)CC)NC(=O)c2csc(n2)CNC(=O)[C@H]2N=C1O[C@@H]2C
REMARK SMILES IDX 27 1 25 2 22 3 26 4 23 5 24 6 20 7 19 8 21 9 14 11 12 12
REMARK SMILES IDX 11 13 10 14 13 15 9 16 15 18 16 19 17 20 18 21 28 22 29 23
REMARK SMILES IDX 30 24 31 26 32 27 35 28 33 29 34 30 36 31 5 32 6 33 7 34
REMARK SMILES IDX 8 35 3 38 4 39 2 40 1 41
REMARK H PARENT 19 10 28 25 6 36
REMARK Flexibility Score:   91.900
ROOT
ATOM      1  C   UNL     1      -5.533   1.097   2.769  1.00  0.00     0.183 C 
ENDROOT
BRANCH   1   2
ATOM      2  C   UNL     1      -5.789   2.112   1.692  1.00  0.00     0.113 A 
ATOM      3  C   UNL     1      -5.377   3.531   0.023  1.00  0.00     0.139 A 
ATOM      4  N   UNL     1      -4.876   2.499   0.820  1.00  0.00    -0.234 NA
ATOM      5  C   UNL     1      -6.694   3.862   0.278  1.00  0.00     0.101 A 
ATOM      6  S   UNL     1      -7.313   2.890   1.549  1.00  0.00    -0.125 S 
BRANCH   3   7
ATOM      7  C   UNL     1      -4.508   4.191  -0.953  1.00  0.00     0.271 C 
ATOM      8  N   UNL     1      -4.053   3.309  -1.903  1.00  0.00    -0.341 N 
ATOM      9  O   UNL     1      -4.203   5.376  -0.902  1.00  0.00    -0.267 OA
ATOM     10  H   UNL     1      -4.413   2.358  -1.830  1.00  0.00     0.164 HD
BRANCH   8  11
ATOM     11  C   UNL     1      -3.032   3.624  -2.888  1.00  0.00     0.140 C 
BRANCH  11  12
ATOM     12  C   UNL     1      -1.698   3.074  -2.375  1.00  0.00     0.091 C 
ATOM     13  S   UNL     1      -0.912   1.746  -3.196  1.00  0.00    -0.106 SA
ATOM     14  C   UNL     1       0.590   2.024  -2.233  1.00  0.00     0.113 C 
ATOM     15  N   UNL     1      -1.146   3.513  -1.288  1.00  0.00    -0.267 NA
ATOM     16  C   UNL     1       0.085   2.720  -0.979  1.00  0.00     0.205 CG0
ATOM     17  G   UNL     1      -0.186   1.699   0.138  1.00  0.00     0.000 G0
ENDBRANCH  11  12
BRANCH  11  18
ATOM     18  C   UNL     1      -3.420   3.247  -4.341  1.00  0.00     0.015 C 
ATOM     19  C   UNL     1      -4.884   2.790  -4.402  1.00  0.00     0.010 C 
BRANCH  18  20
ATOM     20  C   UNL     1      -3.126   4.338  -5.391  1.00  0.00     0.002 C 
ATOM     21  C   UNL     1      -1.778   4.154  -6.079  1.00  0.00     0.004 C 
ENDBRANCH  18  20
ENDBRANCH  11  18
ENDBRANCH   8  11
ENDBRANCH   3   7
ENDBRANCH   1   2
BRANCH   1  22
ATOM     22  N   UNL     1      -4.307   1.474   3.436  1.00  0.00    -0.348 N 
ATOM     23  C   UNL     1      -4.214   2.419   4.421  1.00  0.00     0.249 C 
ATOM     24  O   UNL     1      -5.188   2.988   4.901  1.00  0.00    -0.272 OA
ATOM     25  H   UNL     1      -3.430   1.077   3.100  1.00  0.00     0.163 HD
BRANCH  23  26
ATOM     26  C   UNL     1      -2.771   2.642   4.898  1.00  0.00     0.238 C 
ATOM     27  N   UNL     1      -1.912   1.532   4.400  1.00  0.00    -0.236 NA
ATOM     28  C   UNL     1      -2.171   3.912   4.321  1.00  0.00     0.206 C 
ATOM     29  C   UNL     1      -1.154   2.115   3.520  1.00  0.00     0.208 C 
ATOM     30  O   UNL     1      -1.290   3.446   3.299  1.00  0.00    -0.474 OA
ATOM     31  C   UNL     1      -1.357   4.693   5.345  1.00  0.00     0.056 C 
BRANCH  29  32
ATOM     32  C   UNL     1      -0.116   1.437   2.629  1.00  0.00     0.171 C 
BRANCH  32  33
ATOM     33  N   UNL     1       0.110   2.208   1.416  1.00  0.00    -0.342 N 
ATOM     34  C   UNL     1      -0.174   1.719   0.164  1.00  0.00     0.246 CG0
ATOM     35  O   UNL     1      -0.615   0.589  -0.030  1.00  0.00    -0.273 OA
ATOM     36  H   UNL     1       0.526   3.133   1.453  1.00  0.00     0.164 HD
ATOM     37  G   UNL     1       0.081   2.712  -0.981  1.00  0.00     0.000 G0
ENDBRANCH  32  33
BRANCH  32  38
ATOM     38  C   UNL     1       1.192   1.177   3.421  1.00  0.00     0.017 C 
ATOM     39  C   UNL     1       2.403   1.281   2.486  1.00  0.00     0.010 C 
BRANCH  38  40
ATOM     40  C   UNL     1       1.344   2.099   4.653  1.00  0.00     0.002 C 
ATOM     41  C   UNL     1       2.496   3.088   4.536  1.00  0.00     0.004 C 
ENDBRANCH  38  40
ENDBRANCH  32  38
ENDBRANCH  29  32
ENDBRANCH  23  26
ENDBRANCH   1  22
TORSDOF 4
ENDMDL
MODEL 2
REMARK VINA RESULT:    -4.841     10.498     12.053
REMARK INTER + INTRA:          -9.640
REMARK INTER:                  -8.605
REMARK INTRA:                  -1.034
REMARK UNBOUND:                -1.403
REMARK SMILES CC[C@H](C)[C@@H]1NC(=O)[C@H]2CSC(=N2)[C@@H]([C@@H](C)CC)NC(=O)c2csc(n2)CNC(=O)[C@H]2N=C1O[C@@H]2C
REMARK SMILES IDX 27 1 25 2 22 3 26 4 23 5 24 6 20 7 19 8 21 9 14 11 12 12
REMARK SMILES IDX 11 13 10 14 13 15 9 16 15 18 16 19 17 20 18 21 28 22 29 23
REMARK SMILES IDX 30 24 31 26 32 27 35 28 33 29 34 30 36 31 5 32 6 33 7 34
REMARK SMILES IDX 8 35 3 38 4 39 2 40 1 41
REMARK H PARENT 19 10 28 25 6 36
REMARK Flexibility Score:   91.900
ROOT
ATOM      1  C   UNL     1     -11.348  -4.144   0.517  1.00  0.00     0.183 C 
ENDROOT
BRANCH   1   2
ATOM      2  C   UNL     1     -10.793  -3.759  -0.824  1.00  0.00     0.113 A 
ATOM      3  C   UNL     1      -9.559  -3.861  -2.677  1.00  0.00     0.139 A 
ATOM      4  N   UNL     1     -10.000  -4.537  -1.538  1.00  0.00    -0.234 NA
ATOM      5  C   UNL     1     -10.083  -2.592  -2.828  1.00  0.00     0.101 A 
ATOM      6  S   UNL     1     -11.125  -2.223  -1.515  1.00  0.00    -0.125 S 
BRANCH   3   7
ATOM      7  C   UNL     1      -8.587  -4.491  -3.573  1.00  0.00     0.271 C 
ATOM      8  N   UNL     1      -7.661  -5.228  -2.876  1.00  0.00    -0.341 N 
ATOM      9  O   UNL     1      -8.587  -4.345  -4.789  1.00  0.00    -0.267 OA
ATOM     10  H   UNL     1      -7.803  -5.276  -1.868  1.00  0.00     0.164 HD
BRANCH   8  11
ATOM     11  C   UNL     1      -6.469  -5.814  -3.469  1.00  0.00     0.140 C 
BRANCH  11  12
ATOM     12  C   UNL     1      -6.699  -7.322  -3.594  1.00  0.00     0.091 C 
ATOM     13  S   UNL     1      -8.001  -7.942  -4.582  1.00  0.00    -0.106 SA
ATOM     14  C   UNL     1      -7.322  -9.610  -4.453  1.00  0.00     0.113 C 
ATOM     15  N   UNL     1      -5.998  -8.182  -2.925  1.00  0.00    -0.267 NA
ATOM     16  C   UNL     1      -6.515  -9.566  -3.164  1.00  0.00     0.205 CG0
ATOM     17  G   UNL     1      -7.362 -10.048  -1.975  1.00  0.00     0.000 G0
ENDBRANCH  11  12
BRANCH  11  18
ATOM     18  C   UNL     1      -5.976  -5.083  -4.744  1.00  0.00     0.015 C 
ATOM     19  C   UNL     1      -5.025  -3.939  -4.371  1.00  0.00     0.010 C 
BRANCH  18  20
ATOM     20  C   UNL     1      -5.356  -6.004  -5.815  1.00  0.00     0.002 C 
ATOM     21  C   UNL     1      -5.995  -5.833  -7.189  1.00  0.00     0.004 C 
ENDBRANCH  18  20
ENDBRANCH  11  18
ENDBRANCH   8  11
ENDBRANCH   3   7
ENDBRANCH   1   2
BRANCH   1  22
ATOM     22  N   UNL     1     -10.383  -5.013   1.152  1.00  0.00    -0.348 N 
ATOM     23  C   UNL     1     -10.614  -6.319   1.490  1.00  0.00     0.249 C 
ATOM     24  O   UNL     1     -11.649  -6.913   1.209  1.00  0.00    -0.272 OA
ATOM     25  H   UNL     1      -9.494  -4.614   1.451  1.00  0.00     0.163 HD
BRANCH  23  26
ATOM     26  C   UNL     1      -9.419  -6.970   2.203  1.00  0.00     0.238 C 
ATOM     27  N   UNL     1      -9.390  -8.424   1.884  1.00  0.00    -0.236 NA
ATOM     28  C   UNL     1      -8.093  -6.418   1.707  1.00  0.00     0.206 C 
ATOM     29  C   UNL     1      -8.335  -8.543   1.133  1.00  0.00     0.208 C 
ATOM     30  O   UNL     1      -7.583  -7.449   0.863  1.00  0.00    -0.474 OA
ATOM     31  C   UNL     1      -7.100  -6.180   2.838  1.00  0.00     0.056 C 
BRANCH  29  32
ATOM     32  C   UNL     1      -7.852  -9.819   0.449  1.00  0.00     0.171 C 
BRANCH  32  33
ATOM     33  N   UNL     1      -7.096  -9.508  -0.754  1.00  0.00    -0.342 N 
ATOM     34  C   UNL     1      -7.378 -10.075  -1.974  1.00  0.00     0.246 CG0
ATOM     35  O   UNL     1      -8.270 -10.904  -2.137  1.00  0.00    -0.273 OA
ATOM     36  H   UNL     1      -6.299  -8.880  -0.726  1.00  0.00     0.164 HD
ATOM     37  G   UNL     1      -6.500  -9.569  -3.130  1.00  0.00     0.000 G0
ENDBRANCH  32  33
BRANCH  32  38
ATOM     38  C   UNL     1      -7.050 -10.698   1.444  1.00  0.00     0.017 C 
ATOM     39  C   UNL     1      -7.997 -11.648   2.189  1.00  0.00     0.010 C 
BRANCH  38  40
ATOM     40  C   UNL     1      -5.889 -11.465   0.770  1.00  0.00     0.002 C 
ATOM     41  C   UNL     1      -4.755 -11.816   1.725  1.00  0.00     0.004 C 
ENDBRANCH  38  40
ENDBRANCH  32  38
ENDBRANCH  29  32
ENDBRANCH  23  26
ENDBRANCH   1  22
TORSDOF 4
ENDMDL
MODEL 3
REMARK VINA RESULT:    -4.403     11.472     13.793
REMARK INTER + INTRA:          -8.894
REMARK INTER:                  -7.486
REMARK INTRA:                  -1.408
REMARK UNBOUND:                -1.403
REMARK SMILES CC[C@H](C)[C@@H]1NC(=O)[C@H]2CSC(=N2)[C@@H]([C@@H](C)CC)NC(=O)c2csc(n2)CNC(=O)[C@H]2N=C1O[C@@H]2C
REMARK SMILES IDX 27 1 25 2 22 3 26 4 23 5 24 6 20 7 19 8 21 9 14 11 12 12
REMARK SMILES IDX 11 13 10 14 13 15 9 16 15 18 16 19 17 20 18 21 28 22 29 23
REMARK SMILES IDX 30 24 31 26 32 27 35 28 33 29 34 30 36 31 5 32 6 33 7 34
REMARK SMILES IDX 8 35 3 38 4 39 2 40 1 41
REMARK H PARENT 19 10 28 25 6 36
REMARK Flexibility Score:   91.900
ROOT
ATOM      1  C   UNL     1     -10.580 -10.326   4.259  1.00  0.00     0.183 C 
ENDROOT
BRANCH   1   2
ATOM      2  C   UNL     1     -10.400  -8.860   4.530  1.00  0.00     0.113 A 
ATOM      3  C   UNL     1     -10.270  -6.669   4.144  1.00  0.00     0.139 A 
ATOM      4  N   UNL     1     -10.638  -7.917   3.637  1.00  0.00    -0.234 NA
ATOM      5  C   UNL     1      -9.811  -6.694   5.446  1.00  0.00     0.101 A 
ATOM      6  S   UNL     1      -9.814  -8.303   6.044  1.00  0.00    -0.125 S 
BRANCH   3   7
ATOM      7  C   UNL     1     -10.350  -5.480   3.293  1.00  0.00     0.271 C 
ATOM      8  N   UNL     1     -10.497  -5.814   1.969  1.00  0.00    -0.341 N 
ATOM      9  O   UNL     1     -10.262  -4.334   3.715  1.00  0.00    -0.267 OA
ATOM     10  H   UNL     1     -10.580  -6.811   1.773  1.00  0.00     0.164 HD
BRANCH   8  11
ATOM     11  C   UNL     1     -10.419  -4.862   0.873  1.00  0.00     0.140 C 
BRANCH  11  12
ATOM     12  C   UNL     1      -9.580  -5.496  -0.241  1.00  0.00     0.091 C 
ATOM     13  S   UNL     1     -10.070  -5.352  -1.912  1.00  0.00    -0.106 SA
ATOM     14  C   UNL     1      -8.466  -5.983  -2.450  1.00  0.00     0.113 C 
ATOM     15  N   UNL     1      -8.533  -6.216   0.014  1.00  0.00    -0.267 NA
ATOM     16  C   UNL     1      -7.983  -6.789  -1.255  1.00  0.00     0.205 CG0
ATOM     17  G   UNL     1      -8.375  -8.269  -1.403  1.00  0.00     0.000 G0
ENDBRANCH  11  12
BRANCH  11  18
ATOM     18  C   UNL     1     -11.789  -4.272   0.452  1.00  0.00     0.015 C 
ATOM     19  C   UNL     1     -12.925  -4.949   1.230  1.00  0.00     0.010 C 
BRANCH  18  20
ATOM     20  C   UNL     1     -11.883  -2.735   0.540  1.00  0.00     0.002 C 
ATOM     21  C   UNL     1     -11.739  -2.051  -0.814  1.00  0.00     0.004 C 
ENDBRANCH  18  20
ENDBRANCH  11  18
ENDBRANCH   8  11
ENDBRANCH   3   7
ENDBRANCH   1   2
BRANCH   1  22
ATOM     22  N   UNL     1      -9.430 -10.771   3.503  1.00  0.00    -0.348 N 
ATOM     23  C   UNL     1      -8.930 -12.045   3.522  1.00  0.00     0.249 C 
ATOM     24  O   UNL     1      -9.465 -12.968   4.126  1.00  0.00    -0.272 OA
ATOM     25  H   UNL     1      -8.895 -10.078   2.982  1.00  0.00     0.163 HD
BRANCH  23  26
ATOM     26  C   UNL     1      -7.668 -12.202   2.661  1.00  0.00     0.238 C 
ATOM     27  N   UNL     1      -8.056 -12.235   1.223  1.00  0.00    -0.236 NA
ATOM     28  C   UNL     1      -6.732 -11.014   2.802  1.00  0.00     0.206 C 
ATOM     29  C   UNL     1      -7.593 -11.111   0.764  1.00  0.00     0.208 C 
ATOM     30  O   UNL     1      -6.925 -10.275   1.596  1.00  0.00    -0.474 OA
ATOM     31  C   UNL     1      -5.269 -11.429   2.888  1.00  0.00     0.056 C 
BRANCH  29  32
ATOM     32  C   UNL     1      -7.765 -10.574  -0.655  1.00  0.00     0.171 C 
BRANCH  32  33
ATOM     33  N   UNL     1      -7.550  -9.136  -0.695  1.00  0.00    -0.342 N 
ATOM     34  C   UNL     1      -8.368  -8.284  -1.397  1.00  0.00     0.246 CG0
ATOM     35  O   UNL     1      -9.326  -8.671  -2.063  1.00  0.00    -0.273 OA
ATOM     36  H   UNL     1      -6.755  -8.712  -0.230  1.00  0.00     0.164 HD
ATOM     37  G   UNL     1      -8.004  -6.796  -1.263  1.00  0.00     0.000 G0
ENDBRANCH  32  33
BRANCH  32  38
ATOM     38  C   UNL     1      -6.845 -11.341  -1.641  1.00  0.00     0.017 C 
ATOM     39  C   UNL     1      -7.604 -12.521  -2.260  1.00  0.00     0.010 C 
BRANCH  38  40
ATOM     40  C   UNL     1      -6.231 -10.427  -2.726  1.00  0.00     0.002 C 
ATOM     41  C   UNL     1      -6.832 -10.635  -4.110  1.00  0.00     0.004 C 
ENDBRANCH  38  40
ENDBRANCH  32  38
ENDBRANCH  29  32
ENDBRANCH  23  26
ENDBRANCH   1  22
TORSDOF 4
ENDMDL
MODEL 4
REMARK VINA RESULT:    -4.213      5.372      9.371
REMARK INTER + INTRA:          -8.571
REMARK INTER:                  -6.907
REMARK INTRA:                  -1.664
REMARK UNBOUND:                -1.403
REMARK SMILES CC[C@H](C)[C@@H]1NC(=O)[C@H]2CSC(=N2)[C@@H]([C@@H](C)CC)NC(=O)c2csc(n2)CNC(=O)[C@H]2N=C1O[C@@H]2C
REMARK SMILES IDX 27 1 25 2 22 3 26 4 23 5 24 6 20 7 19 8 21 9 14 11 12 12
REMARK SMILES IDX 11 13 10 14 13 15 9 16 15 18 16 19 17 20 18 21 28 22 29 23
REMARK SMILES IDX 30 24 31 26 32 27 35 28 33 29 34 30 36 31 5 32 6 33 7 34
REMARK SMILES IDX 8 35 3 38 4 39 2 40 1 41
REMARK H PARENT 19 10 28 25 6 36
REMARK Flexibility Score:   91.900
ROOT
ATOM      1  C   UNL     1      -8.658   7.624   2.592  1.00  0.00     0.183 C 
ENDROOT
BRANCH   1   2
ATOM      2  C   UNL     1      -9.756   6.977   3.386  1.00  0.00     0.113 A 
ATOM      3  C   UNL     1     -10.772   5.540   4.753  1.00  0.00     0.139 A 
ATOM      4  N   UNL     1      -9.552   6.013   4.265  1.00  0.00    -0.234 NA
ATOM      5  C   UNL     1     -11.879   6.206   4.267  1.00  0.00     0.101 A 
ATOM      6  S   UNL     1     -11.397   7.428   3.163  1.00  0.00    -0.125 S 
BRANCH   3   7
ATOM      7  C   UNL     1     -10.801   4.399   5.671  1.00  0.00     0.271 C 
ATOM      8  N   UNL     1     -10.069   4.644   6.807  1.00  0.00    -0.341 N 
ATOM      9  O   UNL     1     -11.380   3.347   5.430  1.00  0.00    -0.267 OA
ATOM     10  H   UNL     1      -9.663   5.576   6.876  1.00  0.00     0.164 HD
BRANCH   8  11
ATOM     11  C   UNL     1      -9.759   3.640   7.811  1.00  0.00     0.140 C 
BRANCH  11  12
ATOM     12  C   UNL     1      -8.258   3.346   7.733  1.00  0.00     0.091 C 
ATOM     13  S   UNL     1      -7.192   3.815   9.036  1.00  0.00    -0.106 SA
ATOM     14  C   UNL     1      -5.862   2.825   8.322  1.00  0.00     0.113 C 
ATOM     15  N   UNL     1      -7.717   2.814   6.682  1.00  0.00    -0.267 NA
ATOM     16  C   UNL     1      -6.230   2.745   6.849  1.00  0.00     0.205 CG0
ATOM     17  G   UNL     1      -5.537   3.863   6.053  1.00  0.00     0.000 G0
ENDBRANCH  11  12
BRANCH  11  18
ATOM     18  C   UNL     1     -10.325   3.960   9.218  1.00  0.00     0.015 C 
ATOM     19  C   UNL     1     -10.704   5.444   9.318  1.00  0.00     0.010 C 
BRANCH  18  20
ATOM     20  C   UNL     1     -11.487   3.051   9.668  1.00  0.00     0.002 C 
ATOM     21  C   UNL     1     -11.967   2.111   8.567  1.00  0.00     0.004 C 
ENDBRANCH  18  20
ENDBRANCH  11  18
ENDBRANCH   8  11
ENDBRANCH   3   7
ENDBRANCH   1   2
BRANCH   1  22
ATOM     22  N   UNL     1      -7.732   6.583   2.205  1.00  0.00    -0.348 N 
ATOM     23  C   UNL     1      -7.270   6.384   0.932  1.00  0.00     0.249 C 
ATOM     24  O   UNL     1      -7.533   7.132  -0.003  1.00  0.00    -0.272 OA
ATOM     25  H   UNL     1      -7.464   5.889   2.902  1.00  0.00     0.163 HD
BRANCH  23  26
ATOM     26  C   UNL     1      -6.342   5.165   0.819  1.00  0.00     0.238 C 
ATOM     27  N   UNL     1      -5.148   5.374   1.685  1.00  0.00    -0.236 NA
ATOM     28  C   UNL     1      -7.002   3.898   1.336  1.00  0.00     0.206 C 
ATOM     29  C   UNL     1      -5.313   4.502   2.635  1.00  0.00     0.208 C 
ATOM     30  O   UNL     1      -6.395   3.686   2.609  1.00  0.00    -0.474 OA
ATOM     31  C   UNL     1      -6.718   2.690   0.454  1.00  0.00     0.056 C 
BRANCH  29  32
ATOM     32  C   UNL     1      -4.417   4.315   3.856  1.00  0.00     0.171 C 
BRANCH  32  33
ATOM     33  N   UNL     1      -5.034   3.417   4.820  1.00  0.00    -0.342 N 
ATOM     34  C   UNL     1      -5.534   3.852   6.024  1.00  0.00     0.246 CG0
ATOM     35  O   UNL     1      -5.476   5.024   6.390  1.00  0.00    -0.273 OA
ATOM     36  H   UNL     1      -5.084   2.419   4.649  1.00  0.00     0.164 HD
ATOM     37  G   UNL     1      -6.198   2.755   6.872  1.00  0.00     0.000 G0
ENDBRANCH  32  33
BRANCH  32  38
ATOM     38  C   UNL     1      -3.003   3.845   3.426  1.00  0.00     0.017 C 
ATOM     39  C   UNL     1      -2.031   5.031   3.425  1.00  0.00     0.010 C 
BRANCH  38  40
ATOM     40  C   UNL     1      -2.471   2.674   4.283  1.00  0.00     0.002 C 
ATOM     41  C   UNL     1      -1.850   1.551   3.462  1.00  0.00     0.004 C 
ENDBRANCH  38  40
ENDBRANCH  32  38
ENDBRANCH  29  32
ENDBRANCH  23  26
ENDBRANCH   1  22
TORSDOF 4
ENDMDL
MODEL 5
REMARK VINA RESULT:    -4.206      4.873      8.754
REMARK INTER + INTRA:          -8.558
REMARK INTER:                  -7.108
REMARK INTRA:                  -1.451
REMARK UNBOUND:                -1.403
REMARK SMILES CC[C@H](C)[C@@H]1NC(=O)[C@H]2CSC(=N2)[C@@H]([C@@H](C)CC)NC(=O)c2csc(n2)CNC(=O)[C@H]2N=C1O[C@@H]2C
REMARK SMILES IDX 27 1 25 2 22 3 26 4 23 5 24 6 20 7 19 8 21 9 14 11 12 12
REMARK SMILES IDX 11 13 10 14 13 15 9 16 15 18 16 19 17 20 18 21 28 22 29 23
REMARK SMILES IDX 30 24 31 26 32 27 35 28 33 29 34 30 36 31 5 32 6 33 7 34
REMARK SMILES IDX 8 35 3 38 4 39 2 40 1 41
REMARK H PARENT 19 10 28 25 6 36
REMARK Flexibility Score:   91.900
ROOT
ATOM      1  C   UNL     1      -6.623   3.001   0.831  1.00  0.00     0.183 C 
ENDROOT
BRANCH   1   2
ATOM      2  C   UNL     1      -7.718   3.281   1.820  1.00  0.00     0.113 A 
ATOM      3  C   UNL     1      -9.148   2.950   3.497  1.00  0.00     0.139 A 
ATOM      4  N   UNL     1      -8.017   2.481   2.827  1.00  0.00    -0.234 NA
ATOM      5  C   UNL     1      -9.649   4.141   3.009  1.00  0.00     0.101 A 
ATOM      6  S   UNL     1      -8.709   4.675   1.675  1.00  0.00    -0.125 S 
BRANCH   3   7
ATOM      7  C   UNL     1      -9.728   2.170   4.592  1.00  0.00     0.271 C 
ATOM      8  N   UNL     1      -9.475   2.745   5.813  1.00  0.00    -0.341 N 
ATOM      9  O   UNL     1     -10.333   1.117   4.431  1.00  0.00    -0.267 OA
ATOM     10  H   UNL     1      -8.978   3.635   5.786  1.00  0.00     0.164 HD
BRANCH   8  11
ATOM     11  C   UNL     1      -9.759   2.110   7.089  1.00  0.00     0.140 C 
BRANCH  11  12
ATOM     12  C   UNL     1      -8.442   2.003   7.864  1.00  0.00     0.091 C 
ATOM     13  S   UNL     1      -8.307   2.655   9.480  1.00  0.00    -0.106 SA
ATOM     14  C   UNL     1      -6.727   1.811   9.703  1.00  0.00     0.113 C 
ATOM     15  N   UNL     1      -7.372   1.500   7.333  1.00  0.00    -0.267 NA
ATOM     16  C   UNL     1      -6.220   1.624   8.281  1.00  0.00     0.205 CG0
ATOM     17  G   UNL     1      -5.299   2.787   7.875  1.00  0.00     0.000 G0
ENDBRANCH  11  12
BRANCH  11  18
ATOM     18  C   UNL     1     -10.957   2.734   7.850  1.00  0.00     0.015 C 
ATOM     19  C   UNL     1     -11.906   3.435   6.870  1.00  0.00     0.010 C 
BRANCH  18  20
ATOM     20  C   UNL     1     -11.717   1.756   8.769  1.00  0.00     0.002 C 
ATOM     21  C   UNL     1     -12.013   0.419   8.099  1.00  0.00     0.004 C 
ENDBRANCH  18  20
ENDBRANCH  11  18
ENDBRANCH   8  11
ENDBRANCH   3   7
ENDBRANCH   1   2
BRANCH   1  22
ATOM     22  N   UNL     1      -5.376   2.976   1.563  1.00  0.00    -0.348 N 
ATOM     23  C   UNL     1      -4.619   4.079   1.852  1.00  0.00     0.249 C 
ATOM     24  O   UNL     1      -4.972   5.224   1.590  1.00  0.00    -0.272 OA
ATOM     25  H   UNL     1      -4.978   2.071   1.812  1.00  0.00     0.163 HD
BRANCH  23  26
ATOM     26  C   UNL     1      -3.319   3.732   2.592  1.00  0.00     0.238 C 
ATOM     27  N   UNL     1      -3.305   4.424   3.911  1.00  0.00    -0.236 NA
ATOM     28  C   UNL     1      -3.224   2.250   2.910  1.00  0.00     0.206 C 
ATOM     29  C   UNL     1      -3.430   3.448   4.761  1.00  0.00     0.208 C 
ATOM     30  O   UNL     1      -3.515   2.174   4.304  1.00  0.00    -0.474 OA
ATOM     31  C   UNL     1      -1.827   1.690   2.674  1.00  0.00     0.056 C 
BRANCH  29  32
ATOM     32  C   UNL     1      -3.550   3.578   6.276  1.00  0.00     0.171 C 
BRANCH  32  33
ATOM     33  N   UNL     1      -4.444   2.565   6.816  1.00  0.00    -0.342 N 
ATOM     34  C   UNL     1      -5.283   2.806   7.877  1.00  0.00     0.246 CG0
ATOM     35  O   UNL     1      -5.324   3.883   8.468  1.00  0.00    -0.273 OA
ATOM     36  H   UNL     1      -4.452   1.621   6.444  1.00  0.00     0.164 HD
ATOM     37  G   UNL     1      -6.188   1.623   8.255  1.00  0.00     0.000 G0
ENDBRANCH  32  33
BRANCH  32  38
ATOM     38  C   UNL     1      -2.147   3.545   6.937  1.00  0.00     0.017 C 
ATOM     39  C   UNL     1      -1.803   2.115   7.373  1.00  0.00     0.010 C 
BRANCH  38  40
ATOM     40  C   UNL     1      -1.043   4.146   6.037  1.00  0.00     0.002 C 
ATOM     41  C   UNL     1       0.179   3.249   5.890  1.00  0.00     0.004 C 
ENDBRANCH  38  40
ENDBRANCH  32  38
ENDBRANCH  29  32
ENDBRANCH  23  26
ENDBRANCH   1  22
TORSDOF 4
ENDMDL
MODEL 6
REMARK VINA RESULT:    -4.085      4.597      8.625
REMARK INTER + INTRA:          -8.353
REMARK INTER:                  -6.486
REMARK INTRA:                  -1.867
REMARK UNBOUND:                -1.403
REMARK SMILES CC[C@H](C)[C@@H]1NC(=O)[C@H]2CSC(=N2)[C@@H]([C@@H](C)CC)NC(=O)c2csc(n2)CNC(=O)[C@H]2N=C1O[C@@H]2C
REMARK SMILES IDX 27 1 25 2 22 3 26 4 23 5 24 6 20 7 19 8 21 9 14 11 12 12
REMARK SMILES IDX 11 13 10 14 13 15 9 16 15 18 16 19 17 20 18 21 28 22 29 23
REMARK SMILES IDX 30 24 31 26 32 27 35 28 33 29 34 30 36 31 5 32 6 33 7 34
REMARK SMILES IDX 8 35 3 38 4 39 2 40 1 41
REMARK H PARENT 19 10 28 25 6 36
REMARK Flexibility Score:   91.900
ROOT
ATOM      1  C   UNL     1       1.011   3.313   0.087  1.00  0.00     0.183 C 
ENDROOT
BRANCH   1   2
ATOM      2  C   UNL     1       2.319   3.226  -0.645  1.00  0.00     0.113 A 
ATOM      3  C   UNL     1       3.751   2.960  -2.332  1.00  0.00     0.139 A 
ATOM      4  N   UNL     1       2.417   3.141  -1.959  1.00  0.00    -0.234 NA
ATOM      5  C   UNL     1       4.645   2.971  -1.280  1.00  0.00     0.101 A 
ATOM      6  S   UNL     1       3.810   3.186   0.204  1.00  0.00    -0.125 S 
BRANCH   3   7
ATOM      7  C   UNL     1       4.095   2.739  -3.739  1.00  0.00     0.271 C 
ATOM      8  N   UNL     1       4.097   3.914  -4.449  1.00  0.00    -0.341 N 
ATOM      9  O   UNL     1       4.317   1.635  -4.220  1.00  0.00    -0.267 OA
ATOM     10  H   UNL     1       3.916   4.758  -3.906  1.00  0.00     0.164 HD
BRANCH   8  11
ATOM     11  C   UNL     1       4.217   3.994  -5.896  1.00  0.00     0.140 C 
BRANCH  11  12
ATOM     12  C   UNL     1       3.067   4.861  -6.416  1.00  0.00     0.091 C 
ATOM     13  S   UNL     1       3.322   6.553  -6.773  1.00  0.00    -0.106 SA
ATOM     14  C   UNL     1       1.718   6.633  -7.599  1.00  0.00     0.113 C 
ATOM     15  N   UNL     1       1.862   4.401  -6.538  1.00  0.00    -0.267 NA
ATOM     16  C   UNL     1       0.934   5.496  -6.962  1.00  0.00     0.205 CG0
ATOM     17  G   UNL     1       0.107   6.007  -5.770  1.00  0.00     0.000 G0
ENDBRANCH  11  12
BRANCH  11  18
ATOM     18  C   UNL     1       5.639   4.366  -6.390  1.00  0.00     0.015 C 
ATOM     19  C   UNL     1       6.495   4.875  -5.223  1.00  0.00     0.010 C 
BRANCH  18  20
ATOM     20  C   UNL     1       6.360   3.253  -7.176  1.00  0.00     0.002 C 
ATOM     21  C   UNL     1       6.376   3.499  -8.680  1.00  0.00     0.004 C 
ENDBRANCH  18  20
ENDBRANCH  11  18
ENDBRANCH   8  11
ENDBRANCH   3   7
ENDBRANCH   1   2
BRANCH   1  22
ATOM     22  N   UNL     1      -0.044   3.167  -0.892  1.00  0.00    -0.348 N 
ATOM     23  C   UNL     1      -1.357   2.927  -0.593  1.00  0.00     0.249 C 
ATOM     24  O   UNL     1      -1.791   2.896   0.554  1.00  0.00    -0.272 OA
ATOM     25  H   UNL     1       0.210   3.154  -1.879  1.00  0.00     0.163 HD
BRANCH  23  26
ATOM     26  C   UNL     1      -2.232   2.764  -1.844  1.00  0.00     0.238 C 
ATOM     27  N   UNL     1      -2.613   4.110  -2.356  1.00  0.00    -0.236 NA
ATOM     28  C   UNL     1      -1.480   2.094  -2.981  1.00  0.00     0.206 C 
ATOM     29  C   UNL     1      -1.953   4.201  -3.472  1.00  0.00     0.208 C 
ATOM     30  O   UNL     1      -1.178   3.165  -3.875  1.00  0.00    -0.474 OA
ATOM     31  C   UNL     1      -2.330   1.069  -3.721  1.00  0.00     0.056 C 
BRANCH  29  32
ATOM     32  C   UNL     1      -1.906   5.413  -4.398  1.00  0.00     0.171 C 
BRANCH  32  33
ATOM     33  N   UNL     1      -1.008   5.177  -5.518  1.00  0.00    -0.342 N 
ATOM     34  C   UNL     1       0.079   5.978  -5.778  1.00  0.00     0.246 CG0
ATOM     35  O   UNL     1       0.359   6.966  -5.104  1.00  0.00    -0.273 OA
ATOM     36  H   UNL     1      -1.177   4.424  -6.176  1.00  0.00     0.164 HD
ATOM     37  G   UNL     1       0.934   5.523  -6.972  1.00  0.00     0.000 G0
ENDBRANCH  32  33
BRANCH  32  38
ATOM     38  C   UNL     1      -3.337   5.803  -4.856  1.00  0.00     0.017 C 
ATOM     39  C   UNL     1      -3.496   7.328  -4.845  1.00  0.00     0.010 C 
BRANCH  38  40
ATOM     40  C   UNL     1      -3.715   5.200  -6.228  1.00  0.00     0.002 C 
ATOM     41  C   UNL     1      -4.272   3.785  -6.140  1.00  0.00     0.004 C 
ENDBRANCH  38  40
ENDBRANCH  32  38
ENDBRANCH  29  32
ENDBRANCH  23  26
ENDBRANCH   1  22
TORSDOF 4
ENDMDL
MODEL 7
REMARK VINA RESULT:    -4.084      6.008      9.118
REMARK INTER + INTRA:          -8.352
REMARK INTER:                  -6.740
REMARK INTRA:                  -1.612
REMARK UNBOUND:                -1.403
REMARK SMILES CC[C@H](C)[C@@H]1NC(=O)[C@H]2CSC(=N2)[C@@H]([C@@H](C)CC)NC(=O)c2csc(n2)CNC(=O)[C@H]2N=C1O[C@@H]2C
REMARK SMILES IDX 27 1 25 2 22 3 26 4 23 5 24 6 20 7 19 8 21 9 14 11 12 12
REMARK SMILES IDX 11 13 10 14 13 15 9 16 15 18 16 19 17 20 18 21 28 22 29 23
REMARK SMILES IDX 30 24 31 26 32 27 35 28 33 29 34 30 36 31 5 32 6 33 7 34
REMARK SMILES IDX 8 35 3 38 4 39 2 40 1 41
REMARK H PARENT 19 10 28 25 6 36
REMARK Flexibility Score:   91.900
ROOT
ATOM      1  C   UNL     1      -0.585   7.019  -5.511  1.00  0.00     0.183 C 
ENDROOT
BRANCH   1   2
ATOM      2  C   UNL     1       0.880   6.945  -5.187  1.00  0.00     0.113 A 
ATOM      3  C   UNL     1       2.775   6.240  -4.250  1.00  0.00     0.139 A 
ATOM      4  N   UNL     1       1.424   5.972  -4.479  1.00  0.00    -0.234 NA
ATOM      5  C   UNL     1       3.238   7.396  -4.847  1.00  0.00     0.101 A 
ATOM      6  S   UNL     1       1.963   8.178  -5.689  1.00  0.00    -0.125 S 
BRANCH   3   7
ATOM      7  C   UNL     1       3.566   5.346  -3.401  1.00  0.00     0.271 C 
ATOM      8  N   UNL     1       4.322   4.477  -4.147  1.00  0.00    -0.341 N 
ATOM      9  O   UNL     1       3.524   5.358  -2.177  1.00  0.00    -0.267 OA
ATOM     10  H   UNL     1       4.271   4.603  -5.157  1.00  0.00     0.164 HD
BRANCH   8  11
ATOM     11  C   UNL     1       5.063   3.355  -3.593  1.00  0.00     0.140 C 
BRANCH  11  12
ATOM     12  C   UNL     1       4.354   2.067  -4.021  1.00  0.00     0.091 C 
ATOM     13  S   UNL     1       5.051   1.036  -5.249  1.00  0.00    -0.106 SA
ATOM     14  C   UNL     1       3.868  -0.267  -4.845  1.00  0.00     0.113 C 
ATOM     15  N   UNL     1       3.192   1.734  -3.553  1.00  0.00    -0.267 NA
ATOM     16  C   UNL     1       2.702   0.491  -4.228  1.00  0.00     0.205 CG0
ATOM     17  G   UNL     1       1.646   0.826  -5.294  1.00  0.00     0.000 G0
ENDBRANCH  11  12
BRANCH  11  18
ATOM     18  C   UNL     1       6.590   3.419  -3.851  1.00  0.00     0.015 C 
ATOM     19  C   UNL     1       6.892   4.315  -5.059  1.00  0.00     0.010 C 
BRANCH  18  20
ATOM     20  C   UNL     1       7.434   3.824  -2.625  1.00  0.00     0.002 C 
ATOM     21  C   UNL     1       6.847   3.327  -1.308  1.00  0.00     0.004 C 
ENDBRANCH  18  20
ENDBRANCH  11  18
ENDBRANCH   8  11
ENDBRANCH   3   7
ENDBRANCH   1   2
BRANCH   1  22
ATOM     22  N   UNL     1      -1.191   5.788  -5.056  1.00  0.00    -0.348 N 
ATOM     23  C   UNL     1      -2.508   5.457  -5.228  1.00  0.00     0.249 C 
ATOM     24  O   UNL     1      -3.296   6.145  -5.868  1.00  0.00    -0.272 OA
ATOM     25  H   UNL     1      -0.630   5.150  -4.492  1.00  0.00     0.163 HD
BRANCH  23  26
ATOM     26  C   UNL     1      -2.872   4.109  -4.588  1.00  0.00     0.238 C 
ATOM     27  N   UNL     1      -2.591   3.014  -5.558  1.00  0.00    -0.236 NA
ATOM     28  C   UNL     1      -2.013   3.806  -3.373  1.00  0.00     0.206 C 
ATOM     29  C   UNL     1      -1.579   2.397  -5.025  1.00  0.00     0.208 C 
ATOM     30  O   UNL     1      -1.083   2.830  -3.840  1.00  0.00    -0.474 OA
ATOM     31  C   UNL     1      -2.815   3.205  -2.226  1.00  0.00     0.056 C 
BRANCH  29  32
ATOM     32  C   UNL     1      -0.816   1.221  -5.629  1.00  0.00     0.171 C 
BRANCH  32  33
ATOM     33  N   UNL     1       0.331   0.869  -4.807  1.00  0.00    -0.342 N 
ATOM     34  C   UNL     1       1.614   0.843  -5.298  1.00  0.00     0.246 CG0
ATOM     35  O   UNL     1       1.889   1.089  -6.470  1.00  0.00    -0.273 OA
ATOM     36  H   UNL     1       0.216   0.590  -3.839  1.00  0.00     0.164 HD
ATOM     37  G   UNL     1       2.689   0.503  -4.252  1.00  0.00     0.000 G0
ENDBRANCH  32  33
BRANCH  32  38
ATOM     38  C   UNL     1      -1.769   0.020  -5.867  1.00  0.00     0.017 C 
ATOM     39  C   UNL     1      -2.700  -0.160  -4.661  1.00  0.00     0.010 C 
BRANCH  38  40
ATOM     40  C   UNL     1      -2.564   0.134  -7.188  1.00  0.00     0.002 C 
ATOM     41  C   UNL     1      -3.654  -0.920  -7.336  1.00  0.00     0.004 C 
ENDBRANCH  38  40
ENDBRANCH  32  38
ENDBRANCH  29  32
ENDBRANCH  23  26
ENDBRANCH   1  22
TORSDOF 4
ENDMDL
MODEL 8
REMARK VINA RESULT:    -3.971      6.346     11.249
REMARK INTER + INTRA:          -8.160
REMARK INTER:                  -6.508
REMARK INTRA:                  -1.651
REMARK UNBOUND:                -1.403
REMARK SMILES CC[C@H](C)[C@@H]1NC(=O)[C@H]2CSC(=N2)[C@@H]([C@@H](C)CC)NC(=O)c2csc(n2)CNC(=O)[C@H]2N=C1O[C@@H]2C
REMARK SMILES IDX 27 1 25 2 22 3 26 4 23 5 24 6 20 7 19 8 21 9 14 11 12 12
REMARK SMILES IDX 11 13 10 14 13 15 9 16 15 18 16 19 17 20 18 21 28 22 29 23
REMARK SMILES IDX 30 24 31 26 32 27 35 28 33 29 34 30 36 31 5 32 6 33 7 34
REMARK SMILES IDX 8 35 3 38 4 39 2 40 1 41
REMARK H PARENT 19 10 28 25 6 36
REMARK Flexibility Score:   91.900
ROOT
ATOM      1  C   UNL     1      -5.816   5.451   1.805  1.00  0.00     0.183 C 
ENDROOT
BRANCH   1   2
ATOM      2  C   UNL     1      -5.408   5.036   3.190  1.00  0.00     0.113 A 
ATOM      3  C   UNL     1      -5.579   4.569   5.362  1.00  0.00     0.139 A 
ATOM      4  N   UNL     1      -6.264   4.831   4.174  1.00  0.00    -0.234 NA
ATOM      5  C   UNL     1      -4.205   4.526   5.232  1.00  0.00     0.101 A 
ATOM      6  S   UNL     1      -3.754   4.841   3.606  1.00  0.00    -0.125 S 
BRANCH   3   7
ATOM      7  C   UNL     1      -6.320   4.407   6.615  1.00  0.00     0.271 C 
ATOM      8  N   UNL     1      -6.908   3.169   6.697  1.00  0.00    -0.341 N 
ATOM      9  O   UNL     1      -6.425   5.285   7.462  1.00  0.00    -0.267 OA
ATOM     10  H   UNL     1      -6.712   2.535   5.924  1.00  0.00     0.164 HD
BRANCH   8  11
ATOM     11  C   UNL     1      -7.857   2.782   7.729  1.00  0.00     0.140 C 
BRANCH  11  12
ATOM     12  C   UNL     1      -9.237   2.662   7.077  1.00  0.00     0.091 C 
ATOM     13  S   UNL     1      -9.939   1.090   6.769  1.00  0.00    -0.106 SA
ATOM     14  C   UNL     1     -11.531   1.859   6.402  1.00  0.00     0.113 C 
ATOM     15  N   UNL     1      -9.896   3.699   6.667  1.00  0.00    -0.267 NA
ATOM     16  C   UNL     1     -11.154   3.271   5.979  1.00  0.00     0.205 CG0
ATOM     17  G   UNL     1     -11.001   3.358   4.452  1.00  0.00     0.000 G0
ENDBRANCH  11  12
BRANCH  11  18
ATOM     18  C   UNL     1      -7.394   1.580   8.591  1.00  0.00     0.015 C 
ATOM     19  C   UNL     1      -5.866   1.449   8.552  1.00  0.00     0.010 C 
BRANCH  18  20
ATOM     20  C   UNL     1      -7.922   1.585  10.041  1.00  0.00     0.002 C 
ATOM     21  C   UNL     1      -7.546   2.848  10.807  1.00  0.00     0.004 C 
ENDBRANCH  18  20
ENDBRANCH  11  18
ENDBRANCH   8  11
ENDBRANCH   3   7
ENDBRANCH   1   2
BRANCH   1  22
ATOM     22  N   UNL     1      -7.129   6.049   1.902  1.00  0.00    -0.348 N 
ATOM     23  C   UNL     1      -7.607   7.021   1.066  1.00  0.00     0.249 C 
ATOM     24  O   UNL     1      -6.992   7.426   0.086  1.00  0.00    -0.272 OA
ATOM     25  H   UNL     1      -7.718   5.800   2.696  1.00  0.00     0.163 HD
BRANCH  23  26
ATOM     26  C   UNL     1      -9.015   7.499   1.452  1.00  0.00     0.238 C 
ATOM     27  N   UNL     1     -10.007   6.449   1.089  1.00  0.00    -0.236 NA
ATOM     28  C   UNL     1      -9.158   7.694   2.951  1.00  0.00     0.206 C 
ATOM     29  C   UNL     1     -10.411   6.010   2.244  1.00  0.00     0.208 C 
ATOM     30  O   UNL     1      -9.909   6.559   3.378  1.00  0.00    -0.474 OA
ATOM     31  C   UNL     1      -9.937   8.954   3.305  1.00  0.00     0.056 C 
BRANCH  29  32
ATOM     32  C   UNL     1     -11.389   4.864   2.484  1.00  0.00     0.171 C 
BRANCH  32  33
ATOM     33  N   UNL     1     -11.487   4.552   3.901  1.00  0.00    -0.342 N 
ATOM     34  C   UNL     1     -11.010   3.380   4.437  1.00  0.00     0.246 CG0
ATOM     35  O   UNL     1     -10.490   2.496   3.761  1.00  0.00    -0.273 OA
ATOM     36  H   UNL     1     -11.950   5.184   4.546  1.00  0.00     0.164 HD
ATOM     37  G   UNL     1     -11.158   3.271   5.964  1.00  0.00     0.000 G0
ENDBRANCH  32  33
BRANCH  32  38
ATOM     38  C   UNL     1     -12.767   5.184   1.849  1.00  0.00     0.017 C 
ATOM     39  C   UNL     1     -13.050   4.222   0.688  1.00  0.00     0.010 C 
BRANCH  38  40
ATOM     40  C   UNL     1     -13.920   5.186   2.880  1.00  0.00     0.002 C 
ATOM     41  C   UNL     1     -14.932   4.068   2.665  1.00  0.00     0.004 C 
ENDBRANCH  38  40
ENDBRANCH  32  38
ENDBRANCH  29  32
ENDBRANCH  23  26
ENDBRANCH   1  22
TORSDOF 4
ENDMDL
MODEL 9
REMARK VINA RESULT:    -3.966      4.754      8.886
REMARK INTER + INTRA:          -8.150
REMARK INTER:                  -6.743
REMARK INTRA:                  -1.407
REMARK UNBOUND:                -1.403
REMARK SMILES CC[C@H](C)[C@@H]1NC(=O)[C@H]2CSC(=N2)[C@@H]([C@@H](C)CC)NC(=O)c2csc(n2)CNC(=O)[C@H]2N=C1O[C@@H]2C
REMARK SMILES IDX 27 1 25 2 22 3 26 4 23 5 24 6 20 7 19 8 21 9 14 11 12 12
REMARK SMILES IDX 11 13 10 14 13 15 9 16 15 18 16 19 17 20 18 21 28 22 29 23
REMARK SMILES IDX 30 24 31 26 32 27 35 28 33 29 34 30 36 31 5 32 6 33 7 34
REMARK SMILES IDX 8 35 3 38 4 39 2 40 1 41
REMARK H PARENT 19 10 28 25 6 36
REMARK Flexibility Score:   91.900
ROOT
ATOM      1  C   UNL     1      -1.463   5.480  -5.230  1.00  0.00     0.183 C 
ENDROOT
BRANCH   1   2
ATOM      2  C   UNL     1      -1.702   4.228  -4.435  1.00  0.00     0.113 A 
ATOM      3  C   UNL     1      -1.367   2.615  -2.935  1.00  0.00     0.139 A 
ATOM      4  N   UNL     1      -0.979   3.877  -3.388  1.00  0.00    -0.234 NA
ATOM      5  C   UNL     1      -2.428   2.061  -3.624  1.00  0.00     0.101 A 
ATOM      6  S   UNL     1      -2.936   3.119  -4.877  1.00  0.00    -0.125 S 
BRANCH   3   7
ATOM      7  C   UNL     1      -0.636   1.972  -1.840  1.00  0.00     0.271 C 
ATOM      8  N   UNL     1       0.043   2.890  -1.078  1.00  0.00    -0.341 N 
ATOM      9  O   UNL     1      -0.613   0.762  -1.656  1.00  0.00    -0.267 OA
ATOM     10  H   UNL     1      -0.092   3.866  -1.339  1.00  0.00     0.164 HD
BRANCH   8  11
ATOM     11  C   UNL     1       1.001   2.543  -0.041  1.00  0.00     0.140 C 
BRANCH  11  12
ATOM     12  C   UNL     1       2.407   2.729  -0.619  1.00  0.00     0.091 C 
ATOM     13  S   UNL     1       3.656   3.513   0.320  1.00  0.00    -0.106 SA
ATOM     14  C   UNL     1       4.903   2.981  -0.872  1.00  0.00     0.113 C 
ATOM     15  N   UNL     1       2.701   2.385  -1.833  1.00  0.00    -0.267 NA
ATOM     16  C   UNL     1       4.108   2.782  -2.153  1.00  0.00     0.205 CG0
ATOM     17  G   UNL     1       4.137   4.055  -3.014  1.00  0.00     0.000 G0
ENDBRANCH  11  12
BRANCH  11  18
ATOM     18  C   UNL     1       0.723   3.219   1.326  1.00  0.00     0.015 C 
ATOM     19  C   UNL     1      -0.698   3.799   1.357  1.00  0.00     0.010 C 
BRANCH  18  20
ATOM     20  C   UNL     1       0.994   2.327   2.554  1.00  0.00     0.002 C 
ATOM     21  C   UNL     1       0.243   1.001   2.504  1.00  0.00     0.004 C 
ENDBRANCH  18  20
ENDBRANCH  11  18
ENDBRANCH   8  11
ENDBRANCH   3   7
ENDBRANCH   1   2
BRANCH   1  22
ATOM     22  N   UNL     1      -0.227   5.301  -5.958  1.00  0.00    -0.348 N 
ATOM     23  C   UNL     1       0.747   6.253  -6.086  1.00  0.00     0.249 C 
ATOM     24  O   UNL     1       0.705   7.339  -5.518  1.00  0.00    -0.272 OA
ATOM     25  H   UNL     1      -0.097   4.440  -6.488  1.00  0.00     0.163 HD
BRANCH  23  26
ATOM     26  C   UNL     1       1.920   5.792  -6.964  1.00  0.00     0.238 C 
ATOM     27  N   UNL     1       3.201   6.219  -6.337  1.00  0.00    -0.236 NA
ATOM     28  C   UNL     1       1.998   4.277  -7.058  1.00  0.00     0.206 C 
ATOM     29  C   UNL     1       3.733   5.097  -5.953  1.00  0.00     0.208 C 
ATOM     30  O   UNL     1       3.085   3.933  -6.200  1.00  0.00    -0.474 OA
ATOM     31  C   UNL     1       2.319   3.795  -8.466  1.00  0.00     0.056 C 
BRANCH  29  32
ATOM     32  C   UNL     1       5.036   4.934  -5.175  1.00  0.00     0.171 C 
BRANCH  32  33
ATOM     33  N   UNL     1       4.915   3.888  -4.172  1.00  0.00    -0.342 N 
ATOM     34  C   UNL     1       4.160   4.038  -3.033  1.00  0.00     0.246 CG0
ATOM     35  O   UNL     1       3.552   5.071  -2.763  1.00  0.00    -0.273 OA
ATOM     36  H   UNL     1       5.421   3.013  -4.262  1.00  0.00     0.164 HD
ATOM     37  G   UNL     1       4.115   2.794  -2.130  1.00  0.00     0.000 G0
ENDBRANCH  32  33
BRANCH  32  38
ATOM     38  C   UNL     1       6.221   4.690  -6.147  1.00  0.00     0.017 C 
ATOM     39  C   UNL     1       7.505   5.307  -5.578  1.00  0.00     0.010 C 
BRANCH  38  40
ATOM     40  C   UNL     1       6.415   3.198  -6.499  1.00  0.00     0.002 C 
ATOM     41  C   UNL     1       7.243   2.971  -7.757  1.00  0.00     0.004 C 
ENDBRANCH  38  40
ENDBRANCH  32  38
ENDBRANCH  29  32
ENDBRANCH  23  26
ENDBRANCH   1  22
TORSDOF 4
ENDMDL
MODEL 10
REMARK VINA RESULT:    -3.728      4.531      8.898
REMARK INTER + INTRA:          -7.746
REMARK INTER:                  -6.583
REMARK INTRA:                  -1.163
REMARK UNBOUND:                -1.403
REMARK SMILES CC[C@H](C)[C@@H]1NC(=O)[C@H]2CSC(=N2)[C@@H]([C@@H](C)CC)NC(=O)c2csc(n2)CNC(=O)[C@H]2N=C1O[C@@H]2C
REMARK SMILES IDX 27 1 25 2 22 3 26 4 23 5 24 6 20 7 19 8 21 9 14 11 12 12
REMARK SMILES IDX 11 13 10 14 13 15 9 16 15 18 16 19 17 20 18 21 28 22 29 23
REMARK SMILES IDX 30 24 31 26 32 27 35 28 33 29 34 30 36 31 5 32 6 33 7 34
REMARK SMILES IDX 8 35 3 38 4 39 2 40 1 41
REMARK H PARENT 19 10 28 25 6 36
REMARK Flexibility Score:   91.900
ROOT
ATOM      1  C   UNL     1      -2.110   4.114  -5.822  1.00  0.00     0.183 C 
ENDROOT
BRANCH   1   2
ATOM      2  C   UNL     1      -2.040   3.750  -4.367  1.00  0.00     0.113 A 
ATOM      3  C   UNL     1      -1.282   2.838  -2.480  1.00  0.00     0.139 A 
ATOM      4  N   UNL     1      -1.005   3.144  -3.814  1.00  0.00    -0.234 NA
ATOM      5  C   UNL     1      -2.514   3.278  -2.036  1.00  0.00     0.101 A 
ATOM      6  S   UNL     1      -3.354   4.066  -3.309  1.00  0.00    -0.125 S 
BRANCH   3   7
ATOM      7  C   UNL     1      -0.317   2.073  -1.688  1.00  0.00     0.271 C 
ATOM      8  N   UNL     1       0.329   2.866  -0.773  1.00  0.00    -0.341 N 
ATOM      9  O   UNL     1      -0.096   0.879  -1.852  1.00  0.00    -0.267 OA
ATOM     10  H   UNL     1       0.021   3.837  -0.736  1.00  0.00     0.164 HD
BRANCH   8  11
ATOM     11  C   UNL     1       1.467   2.436   0.024  1.00  0.00     0.140 C 
BRANCH  11  12
ATOM     12  C   UNL     1       2.738   2.957  -0.653  1.00  0.00     0.091 C 
ATOM     13  S   UNL     1       3.533   4.396  -0.059  1.00  0.00    -0.106 SA
ATOM     14  C   UNL     1       4.969   4.045  -1.096  1.00  0.00     0.113 C 
ATOM     15  N   UNL     1       3.223   2.404  -1.720  1.00  0.00    -0.267 NA
ATOM     16  C   UNL     1       4.399   3.188  -2.215  1.00  0.00     0.205 CG0
ATOM     17  G   UNL     1       4.009   4.059  -3.421  1.00  0.00     0.000 G0
ENDBRANCH  11  12
BRANCH  11  18
ATOM     18  C   UNL     1       1.323   2.730   1.539  1.00  0.00     0.015 C 
ATOM     19  C   UNL     1      -0.154   2.684   1.955  1.00  0.00     0.010 C 
BRANCH  18  20
ATOM     20  C   UNL     1       2.194   1.845   2.453  1.00  0.00     0.002 C 
ATOM     21  C   UNL     1       2.945   2.643   3.514  1.00  0.00     0.004 C 
ENDBRANCH  18  20
ENDBRANCH  11  18
ENDBRANCH   8  11
ENDBRANCH   3   7
ENDBRANCH   1   2
BRANCH   1  22
ATOM     22  N   UNL     1      -0.889   3.651  -6.444  1.00  0.00    -0.348 N 
ATOM     23  C   UNL     1      -0.779   2.509  -7.191  1.00  0.00     0.249 C 
ATOM     24  O   UNL     1      -1.737   1.801  -7.482  1.00  0.00    -0.272 OA
ATOM     25  H   UNL     1      -0.025   4.155  -6.249  1.00  0.00     0.163 HD
BRANCH  23  26
ATOM     26  C   UNL     1       0.656   2.249  -7.673  1.00  0.00     0.238 C 
ATOM     27  N   UNL     1       1.482   3.465  -7.432  1.00  0.00    -0.236 NA
ATOM     28  C   UNL     1       1.328   1.138  -6.885  1.00  0.00     0.206 C 
ATOM     29  C   UNL     1       2.292   3.092  -6.487  1.00  0.00     0.208 C 
ATOM     30  O   UNL     1       2.220   1.826  -6.008  1.00  0.00    -0.474 OA
ATOM     31  C   UNL     1       2.141   0.203  -7.770  1.00  0.00     0.056 C 
BRANCH  29  32
ATOM     32  C   UNL     1       3.328   3.967  -5.785  1.00  0.00     0.171 C 
BRANCH  32  33
ATOM     33  N   UNL     1       3.790   3.341  -4.556  1.00  0.00    -0.342 N 
ATOM     34  C   UNL     1       4.000   4.049  -3.398  1.00  0.00     0.246 CG0
ATOM     35  O   UNL     1       3.840   5.264  -3.317  1.00  0.00    -0.273 OA
ATOM     36  H   UNL     1       4.011   2.351  -4.523  1.00  0.00     0.164 HD
ATOM     37  G   UNL     1       4.431   3.192  -2.196  1.00  0.00     0.000 G0
ENDBRANCH  32  33
BRANCH  32  38
ATOM     38  C   UNL     1       4.492   4.310  -6.752  1.00  0.00     0.017 C 
ATOM     39  C   UNL     1       5.440   5.321  -6.095  1.00  0.00     0.010 C 
BRANCH  38  40
ATOM     40  C   UNL     1       5.251   3.059  -7.250  1.00  0.00     0.002 C 
ATOM     41  C   UNL     1       5.721   3.167  -8.695  1.00  0.00     0.004 C 
ENDBRANCH  38  40
ENDBRANCH  32  38
ENDBRANCH  29  32
ENDBRANCH  23  26
ENDBRANCH   1  22
TORSDOF 4
ENDMDL
