MODEL 1
REMARK VINA RESULT:    -6.790      0.000      0.000
REMARK INTER + INTRA:         -23.171
REMARK INTER:                 -16.913
REMARK INTRA:                  -6.258
REMARK UNBOUND:                -6.258
REMARK SMILES CCCCCCC[C@H](N)[C@H](O)C(=O)N[C@H](C)C(=O)N(C)[C@H](CC(C)C)C(=O)N[C@@H](Cc1ccc(O)cc1)C(=O)N[C@@H](Cc1ccc(O)cc1)C(=O)O
REMARK SMILES IDX 18 1 17 2 15 3 16 4 14 5 12 6 13 7 10 9 11 10 8 12 9 13 7 16
REMARK SMILES IDX 6 17 5 18 4 19 3 20 2 21 1 22 19 23 20 24 21 25 22 26 23 27
REMARK SMILES IDX 24 28 25 29 26 30 27 31 28 32 29 34 30 35 31 36 32 37 37 38
REMARK SMILES IDX 33 39 36 40 34 41 35 42 38 44 39 45 40 46 41 48 42 49 43 50
REMARK SMILES IDX 44 51 49 52 45 53 48 54 46 55 47 56 50 58 51 59 52 60
REMARK H PARENT 14 8 11 11 9 14 9 15 28 33 35 43 40 47 47 57 52 61
ROOT
ATOM      1  O   UNL     1       0.910   8.946  -0.820  1.00  0.00    -0.272 OA
ATOM      2  C   UNL     1       0.538   9.217   0.331  1.00  0.00     0.245 C 
ENDROOT
BRANCH   2   3
ATOM      3  C   UNL     1      -0.962   9.517   0.573  1.00  0.00     0.168 C 
ATOM      4  C   UNL     1      -1.646   8.339   1.259  1.00  0.00     0.041 C 
BRANCH   3   5
ATOM      5  N   UNL     1      -1.232  10.773   1.256  1.00  0.00    -0.342 N 
ATOM      6  C   UNL     1      -1.657  11.895   0.575  1.00  0.00     0.251 C 
ATOM      7  O   UNL     1      -1.797  11.934  -0.642  1.00  0.00    -0.272 OA
ATOM      8  H   UNL     1      -1.117  10.872   2.262  1.00  0.00     0.164 HD
BRANCH   6   9
ATOM      9  C   UNL     1      -2.015  13.058   1.513  1.00  0.00     0.219 C 
BRANCH   9  10
ATOM     10  O   UNL     1      -1.774  14.340   0.920  1.00  0.00    -0.382 OA
ATOM     11  H   UNL     1      -0.969  14.196   0.377  1.00  0.00     0.211 HD
ENDBRANCH   9  10
BRANCH   9  12
ATOM     12  C   UNL     1      -3.461  12.971   2.067  1.00  0.00     0.089 C 
BRANCH  12  13
ATOM     13  N   UNL     1      -3.995  11.621   1.770  1.00  0.00    -0.325 NA
ATOM     14  H   UNL     1      -4.793  11.434   2.380  1.00  0.00     0.119 HD
ATOM     15  H   UNL     1      -3.292  10.924   2.027  1.00  0.00     0.119 HD
ENDBRANCH  12  13
BRANCH  12  16
ATOM     16  C   UNL     1      -3.632  13.290   3.572  1.00  0.00     0.022 C 
BRANCH  16  17
ATOM     17  C   UNL     1      -2.398  13.679   4.397  1.00  0.00     0.002 C 
BRANCH  17  18
ATOM     18  C   UNL     1      -2.438  13.246   5.861  1.00  0.00     0.000 C 
BRANCH  18  19
ATOM     19  C   UNL     1      -1.671  11.948   6.150  1.00  0.00    -0.000 C 
BRANCH  19  20
ATOM     20  C   UNL     1      -0.337  11.804   5.412  1.00  0.00    -0.000 C 
BRANCH  20  21
ATOM     21  C   UNL     1      -0.199  10.467   4.679  1.00  0.00    -0.003 C 
ATOM     22  C   UNL     1      -1.453   9.620   4.829  1.00  0.00     0.004 C 
ENDBRANCH  20  21
ENDBRANCH  19  20
ENDBRANCH  18  19
ENDBRANCH  17  18
ENDBRANCH  16  17
ENDBRANCH  12  16
ENDBRANCH   9  12
ENDBRANCH   6   9
ENDBRANCH   3   5
ENDBRANCH   2   3
BRANCH   2  23
ATOM     23  N   UNL     1       1.434   9.129   1.391  1.00  0.00    -0.332 N 
ATOM     24  C   UNL     1       1.527   7.998   2.302  1.00  0.00     0.147 C 
BRANCH  23  25
ATOM     25  C   UNL     1       2.476  10.174   1.582  1.00  0.00     0.174 C 
BRANCH  25  26
ATOM     26  C   UNL     1       3.022  10.223   3.029  1.00  0.00     0.038 C 
BRANCH  26  27
ATOM     27  C   UNL     1       4.538  10.469   3.198  1.00  0.00    -0.015 C 
ATOM     28  C   UNL     1       5.331  10.112   1.941  1.00  0.00     0.007 C 
ATOM     29  C   UNL     1       4.876  11.883   3.663  1.00  0.00     0.007 C 
ENDBRANCH  26  27
ENDBRANCH  25  26
BRANCH  25  30
ATOM     30  C   UNL     1       1.963  11.538   1.065  1.00  0.00     0.243 C 
ATOM     31  O   UNL     1       1.415  12.351   1.809  1.00  0.00    -0.273 OA
ATOM     32  N   UNL     1       2.153  11.775  -0.272  1.00  0.00    -0.342 N 
ATOM     33  H   UNL     1       2.739  11.117  -0.791  1.00  0.00     0.164 HD
BRANCH  32  34
ATOM     34  C   UNL     1       1.707  13.001  -0.940  1.00  0.00     0.175 C 
BRANCH  34  35
ATOM     35  C   UNL     1       2.740  14.127  -0.789  1.00  0.00     0.070 C 
BRANCH  35  36
ATOM     36  C   UNL     1       4.165  13.621  -0.812  1.00  0.00    -0.045 A 
ATOM     37  C   UNL     1       4.935  13.637   0.361  1.00  0.00     0.007 A 
ATOM     38  C   UNL     1       4.742  13.153  -2.000  1.00  0.00     0.007 A 
ATOM     39  C   UNL     1       6.254  13.185   0.346  1.00  0.00     0.046 A 
ATOM     40  C   UNL     1       6.064  12.701  -2.016  1.00  0.00     0.046 A 
ATOM     41  C   UNL     1       6.808  12.720  -0.841  1.00  0.00     0.115 A 
BRANCH  41  42
ATOM     42  O   UNL     1       8.102  12.290  -0.813  1.00  0.00    -0.508 OA
ATOM     43  H   UNL     1       8.118  11.399  -0.426  1.00  0.00     0.293 HD
ENDBRANCH  41  42
ENDBRANCH  35  36
ENDBRANCH  34  35
BRANCH  34  44
ATOM     44  C   UNL     1       1.431  12.664  -2.423  1.00  0.00     0.243 C 
ATOM     45  O   UNL     1       1.632  13.434  -3.358  1.00  0.00    -0.273 OA
ATOM     46  N   UNL     1       0.806  11.449  -2.602  1.00  0.00    -0.341 N 
ATOM     47  H   UNL     1       0.553  10.897  -1.786  1.00  0.00     0.164 HD
BRANCH  46  48
ATOM     48  C   UNL     1       0.384  10.945  -3.912  1.00  0.00     0.196 C 
BRANCH  48  49
ATOM     49  C   UNL     1       1.160   9.676  -4.300  1.00  0.00     0.072 C 
BRANCH  49  50
ATOM     50  C   UNL     1       2.283   9.956  -5.273  1.00  0.00    -0.045 A 
ATOM     51  C   UNL     1       3.405   9.115  -5.308  1.00  0.00     0.007 A 
ATOM     52  C   UNL     1       2.233  11.061  -6.133  1.00  0.00     0.007 A 
ATOM     53  C   UNL     1       4.453   9.371  -6.192  1.00  0.00     0.046 A 
ATOM     54  C   UNL     1       3.283  11.318  -7.018  1.00  0.00     0.046 A 
ATOM     55  C   UNL     1       4.384  10.469  -7.040  1.00  0.00     0.115 A 
BRANCH  55  56
ATOM     56  O   UNL     1       5.430  10.685  -7.888  1.00  0.00    -0.508 OA
ATOM     57  H   UNL     1       5.121  11.242  -8.620  1.00  0.00     0.293 HD
ENDBRANCH  55  56
ENDBRANCH  49  50
ENDBRANCH  48  49
BRANCH  48  58
ATOM     58  C   UNL     1      -1.119  10.636  -3.867  1.00  0.00     0.326 C 
ATOM     59  O   UNL     1      -1.940  10.831  -4.748  1.00  0.00    -0.250 OA
BRANCH  58  60
ATOM     60  O   UNL     1      -1.521  10.072  -2.700  1.00  0.00    -0.480 OA
ATOM     61  H   UNL     1      -0.792   9.450  -2.487  1.00  0.00     0.296 HD
ENDBRANCH  58  60
ENDBRANCH  48  58
ENDBRANCH  46  48
ENDBRANCH  34  44
ENDBRANCH  32  34
ENDBRANCH  25  30
ENDBRANCH  23  25
ENDBRANCH   2  23
TORSDOF 28
ENDMDL
MODEL 2
REMARK VINA RESULT:    -6.756      2.496      9.002
REMARK INTER + INTRA:         -23.086
REMARK INTER:                 -17.864
REMARK INTRA:                  -5.222
REMARK UNBOUND:                -6.258
REMARK SMILES CCCCCCC[C@H](N)[C@H](O)C(=O)N[C@H](C)C(=O)N(C)[C@H](CC(C)C)C(=O)N[C@@H](Cc1ccc(O)cc1)C(=O)N[C@@H](Cc1ccc(O)cc1)C(=O)O
REMARK SMILES IDX 18 1 17 2 15 3 16 4 14 5 12 6 13 7 10 9 11 10 8 12 9 13 7 16
REMARK SMILES IDX 6 17 5 18 4 19 3 20 2 21 1 22 19 23 20 24 21 25 22 26 23 27
REMARK SMILES IDX 24 28 25 29 26 30 27 31 28 32 29 34 30 35 31 36 32 37 37 38
REMARK SMILES IDX 33 39 36 40 34 41 35 42 38 44 39 45 40 46 41 48 42 49 43 50
REMARK SMILES IDX 44 51 49 52 45 53 48 54 46 55 47 56 50 58 51 59 52 60
REMARK H PARENT 14 8 11 11 9 14 9 15 28 33 35 43 40 47 47 57 52 61
ROOT
ATOM      1  O   UNL     1      -1.651  10.891  -4.722  1.00  0.00    -0.272 OA
ATOM      2  C   UNL     1      -0.615  11.196  -4.113  1.00  0.00     0.245 C 
ENDROOT
BRANCH   2   3
ATOM      3  C   UNL     1       0.581  11.761  -4.920  1.00  0.00     0.168 C 
ATOM      4  C   UNL     1       1.301  12.849  -4.131  1.00  0.00     0.041 C 
BRANCH   3   5
ATOM      5  N   UNL     1       1.504  10.758  -5.427  1.00  0.00    -0.342 N 
ATOM      6  C   UNL     1       2.604  11.098  -6.186  1.00  0.00     0.251 C 
ATOM      7  O   UNL     1       2.863  12.249  -6.523  1.00  0.00    -0.272 OA
ATOM      8  H   UNL     1       1.373   9.766  -5.242  1.00  0.00     0.164 HD
BRANCH   6   9
ATOM      9  C   UNL     1       3.512   9.896  -6.489  1.00  0.00     0.219 C 
BRANCH   9  10
ATOM     10  O   UNL     1       3.039   8.682  -5.893  1.00  0.00    -0.382 OA
ATOM     11  H   UNL     1       2.785   8.129  -6.665  1.00  0.00     0.211 HD
ENDBRANCH   9  10
BRANCH   9  12
ATOM     12  C   UNL     1       3.775   9.699  -8.005  1.00  0.00     0.089 C 
BRANCH  12  13
ATOM     13  N   UNL     1       2.749  10.454  -8.760  1.00  0.00    -0.325 NA
ATOM     14  H   UNL     1       2.221  11.042  -8.112  1.00  0.00     0.119 HD
ATOM     15  H   UNL     1       2.066   9.795  -9.140  1.00  0.00     0.119 HD
ENDBRANCH  12  13
BRANCH  12  16
ATOM     16  C   UNL     1       5.190  10.080  -8.503  1.00  0.00     0.022 C 
BRANCH  16  17
ATOM     17  C   UNL     1       6.131  10.846  -7.563  1.00  0.00     0.002 C 
BRANCH  17  18
ATOM     18  C   UNL     1       7.405  10.099  -7.177  1.00  0.00     0.000 C 
BRANCH  18  19
ATOM     19  C   UNL     1       7.162   8.856  -6.310  1.00  0.00    -0.000 C 
BRANCH  19  20
ATOM     20  C   UNL     1       7.403   7.517  -7.011  1.00  0.00    -0.000 C 
BRANCH  20  21
ATOM     21  C   UNL     1       6.213   6.560  -6.903  1.00  0.00    -0.003 C 
ATOM     22  C   UNL     1       5.641   6.544  -5.493  1.00  0.00     0.004 C 
ENDBRANCH  20  21
ENDBRANCH  19  20
ENDBRANCH  18  19
ENDBRANCH  17  18
ENDBRANCH  16  17
ENDBRANCH  12  16
ENDBRANCH   9  12
ENDBRANCH   6   9
ENDBRANCH   3   5
ENDBRANCH   2   3
BRANCH   2  23
ATOM     23  N   UNL     1      -0.585  11.144  -2.723  1.00  0.00    -0.332 N 
ATOM     24  C   UNL     1      -1.245  12.099  -1.846  1.00  0.00     0.147 C 
BRANCH  23  25
ATOM     25  C   UNL     1       0.047   9.988  -2.029  1.00  0.00     0.174 C 
BRANCH  25  26
ATOM     26  C   UNL     1      -0.651   9.633  -0.695  1.00  0.00     0.038 C 
BRANCH  26  27
ATOM     27  C   UNL     1      -0.736   8.134  -0.327  1.00  0.00    -0.015 C 
ATOM     28  C   UNL     1       0.574   7.599   0.249  1.00  0.00     0.007 C 
ATOM     29  C   UNL     1      -1.905   7.802   0.597  1.00  0.00     0.007 C 
ENDBRANCH  26  27
ENDBRANCH  25  26
BRANCH  25  30
ATOM     30  C   UNL     1       1.570  10.217  -1.892  1.00  0.00     0.243 C 
ATOM     31  O   UNL     1       2.380   9.653  -2.626  1.00  0.00    -0.273 OA
ATOM     32  N   UNL     1       1.953  11.080  -0.898  1.00  0.00    -0.342 N 
ATOM     33  H   UNL     1       1.219  11.615  -0.426  1.00  0.00     0.164 HD
BRANCH  32  34
ATOM     34  C   UNL     1       3.354  11.395  -0.606  1.00  0.00     0.175 C 
BRANCH  34  35
ATOM     35  C   UNL     1       3.758  12.752  -1.202  1.00  0.00     0.070 C 
BRANCH  35  36
ATOM     36  C   UNL     1       4.975  12.659  -2.095  1.00  0.00    -0.045 A 
ATOM     37  C   UNL     1       4.819  12.448  -3.474  1.00  0.00     0.007 A 
ATOM     38  C   UNL     1       6.267  12.758  -1.563  1.00  0.00     0.007 A 
ATOM     39  C   UNL     1       5.936  12.348  -4.304  1.00  0.00     0.046 A 
ATOM     40  C   UNL     1       7.386  12.656  -2.393  1.00  0.00     0.046 A 
ATOM     41  C   UNL     1       7.210  12.453  -3.757  1.00  0.00     0.115 A 
BRANCH  41  42
ATOM     42  O   UNL     1       8.274  12.346  -4.602  1.00  0.00    -0.508 OA
ATOM     43  H   UNL     1       8.920  11.740  -4.203  1.00  0.00     0.293 HD
ENDBRANCH  41  42
ENDBRANCH  35  36
ENDBRANCH  34  35
BRANCH  34  44
ATOM     44  C   UNL     1       3.543  11.359   0.927  1.00  0.00     0.243 C 
ATOM     45  O   UNL     1       3.918  12.313   1.603  1.00  0.00    -0.273 OA
ATOM     46  N   UNL     1       3.377  10.103   1.471  1.00  0.00    -0.341 N 
ATOM     47  H   UNL     1       3.181   9.319   0.853  1.00  0.00     0.164 HD
BRANCH  46  48
ATOM     48  C   UNL     1       3.571   9.808   2.893  1.00  0.00     0.196 C 
BRANCH  48  49
ATOM     49  C   UNL     1       2.492   8.846   3.418  1.00  0.00     0.072 C 
BRANCH  49  50
ATOM     50  C   UNL     1       1.172   9.538   3.673  1.00  0.00    -0.045 A 
ATOM     51  C   UNL     1       1.149  10.898   4.014  1.00  0.00     0.007 A 
ATOM     52  C   UNL     1      -0.037   8.834   3.596  1.00  0.00     0.007 A 
ATOM     53  C   UNL     1      -0.062  11.543   4.265  1.00  0.00     0.046 A 
ATOM     54  C   UNL     1      -1.250   9.480   3.848  1.00  0.00     0.046 A 
ATOM     55  C   UNL     1      -1.252  10.830   4.179  1.00  0.00     0.115 A 
BRANCH  55  56
ATOM     56  O   UNL     1      -2.413  11.497   4.434  1.00  0.00    -0.508 OA
ATOM     57  H   UNL     1      -2.565  11.492   5.392  1.00  0.00     0.293 HD
ENDBRANCH  55  56
ENDBRANCH  49  50
ENDBRANCH  48  49
BRANCH  48  58
ATOM     58  C   UNL     1       4.958   9.180   3.087  1.00  0.00     0.326 C 
ATOM     59  O   UNL     1       6.028   9.762   3.172  1.00  0.00    -0.250 OA
BRANCH  58  60
ATOM     60  O   UNL     1       4.932   7.827   3.182  1.00  0.00    -0.480 OA
ATOM     61  H   UNL     1       4.067   7.589   2.782  1.00  0.00     0.296 HD
ENDBRANCH  58  60
ENDBRANCH  48  58
ENDBRANCH  46  48
ENDBRANCH  34  44
ENDBRANCH  32  34
ENDBRANCH  25  30
ENDBRANCH  23  25
ENDBRANCH   2  23
TORSDOF 28
ENDMDL
MODEL 3
REMARK VINA RESULT:    -6.450      3.276      9.667
REMARK INTER + INTRA:         -22.323
REMARK INTER:                 -17.680
REMARK INTRA:                  -4.643
REMARK UNBOUND:                -6.258
REMARK SMILES CCCCCCC[C@H](N)[C@H](O)C(=O)N[C@H](C)C(=O)N(C)[C@H](CC(C)C)C(=O)N[C@@H](Cc1ccc(O)cc1)C(=O)N[C@@H](Cc1ccc(O)cc1)C(=O)O
REMARK SMILES IDX 18 1 17 2 15 3 16 4 14 5 12 6 13 7 10 9 11 10 8 12 9 13 7 16
REMARK SMILES IDX 6 17 5 18 4 19 3 20 2 21 1 22 19 23 20 24 21 25 22 26 23 27
REMARK SMILES IDX 24 28 25 29 26 30 27 31 28 32 29 34 30 35 31 36 32 37 37 38
REMARK SMILES IDX 33 39 36 40 34 41 35 42 38 44 39 45 40 46 41 48 42 49 43 50
REMARK SMILES IDX 44 51 49 52 45 53 48 54 46 55 47 56 50 58 51 59 52 60
REMARK H PARENT 14 8 11 11 9 14 9 15 28 33 35 43 40 47 47 57 52 61
ROOT
ATOM      1  O   UNL     1       7.217  10.343  -5.163  1.00  0.00    -0.272 OA
ATOM      2  C   UNL     1       7.008  11.563  -5.245  1.00  0.00     0.245 C 
ENDROOT
BRANCH   2   3
ATOM      3  C   UNL     1       6.446  12.131  -6.572  1.00  0.00     0.168 C 
ATOM      4  C   UNL     1       7.569  12.379  -7.574  1.00  0.00     0.041 C 
BRANCH   3   5
ATOM      5  N   UNL     1       5.360  11.359  -7.155  1.00  0.00    -0.342 N 
ATOM      6  C   UNL     1       4.037  11.681  -6.934  1.00  0.00     0.251 C 
ATOM      7  O   UNL     1       3.678  12.601  -6.206  1.00  0.00    -0.272 OA
ATOM      8  H   UNL     1       5.534  10.552  -7.749  1.00  0.00     0.164 HD
BRANCH   6   9
ATOM      9  C   UNL     1       3.069  10.820  -7.761  1.00  0.00     0.219 C 
BRANCH   9  10
ATOM     10  O   UNL     1       1.722  11.304  -7.714  1.00  0.00    -0.382 OA
ATOM     11  H   UNL     1       1.793  12.136  -7.196  1.00  0.00     0.211 HD
ENDBRANCH   9  10
BRANCH   9  12
ATOM     12  C   UNL     1       3.532  10.623  -9.228  1.00  0.00     0.089 C 
BRANCH  12  13
ATOM     13  N   UNL     1       4.413  11.755  -9.597  1.00  0.00    -0.325 NA
ATOM     14  H   UNL     1       5.359  11.569  -9.259  1.00  0.00     0.119 HD
ATOM     15  H   UNL     1       4.108  12.590  -9.091  1.00  0.00     0.119 HD
ENDBRANCH  12  13
BRANCH  12  16
ATOM     16  C   UNL     1       4.233   9.280  -9.544  1.00  0.00     0.022 C 
BRANCH  16  17
ATOM     17  C   UNL     1       4.756   8.420  -8.385  1.00  0.00     0.002 C 
BRANCH  17  18
ATOM     18  C   UNL     1       5.711   7.301  -8.792  1.00  0.00     0.000 C 
BRANCH  18  19
ATOM     19  C   UNL     1       6.067   7.296 -10.285  1.00  0.00    -0.000 C 
BRANCH  19  20
ATOM     20  C   UNL     1       5.739   5.997 -11.027  1.00  0.00    -0.000 C 
BRANCH  20  21
ATOM     21  C   UNL     1       4.492   5.294 -10.483  1.00  0.00    -0.003 C 
ATOM     22  C   UNL     1       3.224   5.852 -11.109  1.00  0.00     0.004 C 
ENDBRANCH  20  21
ENDBRANCH  19  20
ENDBRANCH  18  19
ENDBRANCH  17  18
ENDBRANCH  16  17
ENDBRANCH  12  16
ENDBRANCH   9  12
ENDBRANCH   6   9
ENDBRANCH   3   5
ENDBRANCH   2   3
BRANCH   2  23
ATOM     23  N   UNL     1       7.163  12.372  -4.124  1.00  0.00    -0.332 N 
ATOM     24  C   UNL     1       8.310  12.331  -3.229  1.00  0.00     0.147 C 
BRANCH  23  25
ATOM     25  C   UNL     1       6.184  13.456  -3.840  1.00  0.00     0.174 C 
BRANCH  25  26
ATOM     26  C   UNL     1       6.859  14.815  -3.540  1.00  0.00     0.038 C 
BRANCH  26  27
ATOM     27  C   UNL     1       7.051  15.779  -4.732  1.00  0.00    -0.015 C 
ATOM     28  C   UNL     1       8.342  15.507  -5.503  1.00  0.00     0.007 C 
ATOM     29  C   UNL     1       5.856  15.816  -5.681  1.00  0.00     0.007 C 
ENDBRANCH  26  27
ENDBRANCH  25  26
BRANCH  25  30
ATOM     30  C   UNL     1       5.190  13.001  -2.746  1.00  0.00     0.243 C 
ATOM     31  O   UNL     1       5.490  13.006  -1.553  1.00  0.00    -0.273 OA
ATOM     32  N   UNL     1       3.962  12.589  -3.194  1.00  0.00    -0.342 N 
ATOM     33  H   UNL     1       3.740  12.747  -4.181  1.00  0.00     0.164 HD
BRANCH  32  34
ATOM     34  C   UNL     1       2.906  12.099  -2.304  1.00  0.00     0.175 C 
BRANCH  34  35
ATOM     35  C   UNL     1       1.954  13.232  -1.890  1.00  0.00     0.070 C 
BRANCH  35  36
ATOM     36  C   UNL     1       1.290  12.980  -0.555  1.00  0.00    -0.045 A 
ATOM     37  C   UNL     1       1.947  12.217   0.422  1.00  0.00     0.007 A 
ATOM     38  C   UNL     1       0.009  13.479  -0.284  1.00  0.00     0.007 A 
ATOM     39  C   UNL     1       1.336  11.968   1.652  1.00  0.00     0.046 A 
ATOM     40  C   UNL     1      -0.603  13.228   0.946  1.00  0.00     0.046 A 
ATOM     41  C   UNL     1       0.068  12.475   1.904  1.00  0.00     0.115 A 
BRANCH  41  42
ATOM     42  O   UNL     1      -0.495  12.206   3.117  1.00  0.00    -0.508 OA
ATOM     43  H   UNL     1      -0.677  11.252   3.163  1.00  0.00     0.293 HD
ENDBRANCH  41  42
ENDBRANCH  35  36
ENDBRANCH  34  35
BRANCH  34  44
ATOM     44  C   UNL     1       2.162  10.955  -3.028  1.00  0.00     0.243 C 
ATOM     45  O   UNL     1       2.644  10.273  -3.928  1.00  0.00    -0.273 OA
ATOM     46  N   UNL     1       0.837  10.843  -2.661  1.00  0.00    -0.341 N 
ATOM     47  H   UNL     1       0.452  11.508  -1.994  1.00  0.00     0.164 HD
BRANCH  46  48
ATOM     48  C   UNL     1      -0.086   9.877  -3.260  1.00  0.00     0.196 C 
BRANCH  48  49
ATOM     49  C   UNL     1      -1.228   9.520  -2.293  1.00  0.00     0.072 C 
BRANCH  49  50
ATOM     50  C   UNL     1      -0.731   8.881  -1.016  1.00  0.00    -0.045 A 
ATOM     51  C   UNL     1      -1.194   9.345   0.224  1.00  0.00     0.007 A 
ATOM     52  C   UNL     1       0.205   7.840  -1.049  1.00  0.00     0.007 A 
ATOM     53  C   UNL     1      -0.733   8.771   1.409  1.00  0.00     0.046 A 
ATOM     54  C   UNL     1       0.668   7.266   0.138  1.00  0.00     0.046 A 
ATOM     55  C   UNL     1       0.193   7.737   1.357  1.00  0.00     0.115 A 
BRANCH  55  56
ATOM     56  O   UNL     1       0.620   7.205   2.538  1.00  0.00    -0.508 OA
ATOM     57  H   UNL     1       0.006   7.479   3.237  1.00  0.00     0.293 HD
ENDBRANCH  55  56
ENDBRANCH  49  50
ENDBRANCH  48  49
BRANCH  48  58
ATOM     58  C   UNL     1      -0.669  10.476  -4.547  1.00  0.00     0.326 C 
ATOM     59  O   UNL     1      -1.810  10.869  -4.729  1.00  0.00    -0.250 OA
BRANCH  58  60
ATOM     60  O   UNL     1       0.231  10.567  -5.558  1.00  0.00    -0.480 OA
ATOM     61  H   UNL     1       1.023  10.113  -5.197  1.00  0.00     0.296 HD
ENDBRANCH  58  60
ENDBRANCH  48  58
ENDBRANCH  46  48
ENDBRANCH  34  44
ENDBRANCH  32  34
ENDBRANCH  25  30
ENDBRANCH  23  25
ENDBRANCH   2  23
TORSDOF 28
ENDMDL
MODEL 4
REMARK VINA RESULT:    -6.254      2.784     10.374
REMARK INTER + INTRA:         -21.835
REMARK INTER:                 -16.659
REMARK INTRA:                  -5.176
REMARK UNBOUND:                -6.258
REMARK SMILES CCCCCCC[C@H](N)[C@H](O)C(=O)N[C@H](C)C(=O)N(C)[C@H](CC(C)C)C(=O)N[C@@H](Cc1ccc(O)cc1)C(=O)N[C@@H](Cc1ccc(O)cc1)C(=O)O
REMARK SMILES IDX 18 1 17 2 15 3 16 4 14 5 12 6 13 7 10 9 11 10 8 12 9 13 7 16
REMARK SMILES IDX 6 17 5 18 4 19 3 20 2 21 1 22 19 23 20 24 21 25 22 26 23 27
REMARK SMILES IDX 24 28 25 29 26 30 27 31 28 32 29 34 30 35 31 36 32 37 37 38
REMARK SMILES IDX 33 39 36 40 34 41 35 42 38 44 39 45 40 46 41 48 42 49 43 50
REMARK SMILES IDX 44 51 49 52 45 53 48 54 46 55 47 56 50 58 51 59 52 60
REMARK H PARENT 14 8 11 11 9 14 9 15 28 33 35 43 40 47 47 57 52 61
ROOT
ATOM      1  O   UNL     1       2.978  12.171  -2.300  1.00  0.00    -0.272 OA
ATOM      2  C   UNL     1       3.244  12.690  -3.394  1.00  0.00     0.245 C 
ENDROOT
BRANCH   2   3
ATOM      3  C   UNL     1       4.702  13.137  -3.667  1.00  0.00     0.168 C 
ATOM      4  C   UNL     1       5.610  12.765  -2.499  1.00  0.00     0.041 C 
BRANCH   3   5
ATOM      5  N   UNL     1       5.249  12.695  -4.940  1.00  0.00    -0.342 N 
ATOM      6  C   UNL     1       5.708  13.588  -5.885  1.00  0.00     0.251 C 
ATOM      7  O   UNL     1       5.654  14.806  -5.746  1.00  0.00    -0.272 OA
ATOM      8  H   UNL     1       5.313  11.709  -5.183  1.00  0.00     0.164 HD
BRANCH   6   9
ATOM      9  C   UNL     1       6.371  12.895  -7.086  1.00  0.00     0.219 C 
BRANCH   9  10
ATOM     10  O   UNL     1       6.759  13.818  -8.111  1.00  0.00    -0.382 OA
ATOM     11  H   UNL     1       7.561  13.407  -8.501  1.00  0.00     0.211 HD
ENDBRANCH   9  10
BRANCH   9  12
ATOM     12  C   UNL     1       7.561  11.986  -6.684  1.00  0.00     0.089 C 
BRANCH  12  13
ATOM     13  N   UNL     1       8.154  12.517  -5.436  1.00  0.00    -0.325 NA
ATOM     14  H   UNL     1       7.833  11.955  -4.646  1.00  0.00     0.119 HD
ATOM     15  H   UNL     1       7.782  13.455  -5.265  1.00  0.00     0.119 HD
ENDBRANCH  12  13
BRANCH  12  16
ATOM     16  C   UNL     1       7.240  10.481  -6.522  1.00  0.00     0.022 C 
BRANCH  16  17
ATOM     17  C   UNL     1       7.405   9.547  -7.729  1.00  0.00     0.002 C 
BRANCH  17  18
ATOM     18  C   UNL     1       6.746  10.036  -9.017  1.00  0.00     0.000 C 
BRANCH  18  19
ATOM     19  C   UNL     1       6.283   8.908  -9.948  1.00  0.00    -0.000 C 
BRANCH  19  20
ATOM     20  C   UNL     1       6.784   7.510  -9.576  1.00  0.00    -0.000 C 
BRANCH  20  21
ATOM     21  C   UNL     1       5.658   6.562  -9.155  1.00  0.00    -0.003 C 
ATOM     22  C   UNL     1       4.299   7.236  -9.256  1.00  0.00     0.004 C 
ENDBRANCH  20  21
ENDBRANCH  19  20
ENDBRANCH  18  19
ENDBRANCH  17  18
ENDBRANCH  16  17
ENDBRANCH  12  16
ENDBRANCH   9  12
ENDBRANCH   6   9
ENDBRANCH   3   5
ENDBRANCH   2   3
BRANCH   2  23
ATOM     23  N   UNL     1       2.275  12.750  -4.390  1.00  0.00    -0.332 N 
ATOM     24  C   UNL     1       1.719  13.982  -4.928  1.00  0.00     0.147 C 
BRANCH  23  25
ATOM     25  C   UNL     1       1.827  11.508  -5.078  1.00  0.00     0.174 C 
BRANCH  25  26
ATOM     26  C   UNL     1       1.948  11.595  -6.618  1.00  0.00     0.038 C 
BRANCH  26  27
ATOM     27  C   UNL     1       3.229  11.011  -7.254  1.00  0.00    -0.015 C 
ATOM     28  C   UNL     1       3.706   9.742  -6.547  1.00  0.00     0.007 C 
ATOM     29  C   UNL     1       3.108  10.776  -8.757  1.00  0.00     0.007 C 
ENDBRANCH  26  27
ENDBRANCH  25  26
BRANCH  25  30
ATOM     30  C   UNL     1       0.417  11.107  -4.587  1.00  0.00     0.243 C 
ATOM     31  O   UNL     1      -0.561  11.127  -5.332  1.00  0.00    -0.273 OA
ATOM     32  N   UNL     1       0.331  10.736  -3.269  1.00  0.00    -0.342 N 
ATOM     33  H   UNL     1       1.206  10.609  -2.755  1.00  0.00     0.164 HD
BRANCH  32  34
ATOM     34  C   UNL     1      -0.928  10.352  -2.625  1.00  0.00     0.175 C 
BRANCH  34  35
ATOM     35  C   UNL     1      -1.026   8.828  -2.456  1.00  0.00     0.070 C 
BRANCH  35  36
ATOM     36  C   UNL     1      -0.666   8.371  -1.060  1.00  0.00    -0.045 A 
ATOM     37  C   UNL     1      -1.657   8.295  -0.069  1.00  0.00     0.007 A 
ATOM     38  C   UNL     1       0.654   8.040  -0.730  1.00  0.00     0.007 A 
ATOM     39  C   UNL     1      -1.332   7.888   1.225  1.00  0.00     0.046 A 
ATOM     40  C   UNL     1       0.981   7.633   0.566  1.00  0.00     0.046 A 
ATOM     41  C   UNL     1      -0.017   7.559   1.532  1.00  0.00     0.115 A 
BRANCH  41  42
ATOM     42  O   UNL     1       0.258   7.169   2.809  1.00  0.00    -0.508 OA
ATOM     43  H   UNL     1      -0.024   6.245   2.913  1.00  0.00     0.293 HD
ENDBRANCH  41  42
ENDBRANCH  35  36
ENDBRANCH  34  35
BRANCH  34  44
ATOM     44  C   UNL     1      -1.018  11.090  -1.271  1.00  0.00     0.243 C 
ATOM     45  O   UNL     1      -2.066  11.472  -0.758  1.00  0.00    -0.273 OA
ATOM     46  N   UNL     1       0.213  11.407  -0.736  1.00  0.00    -0.341 N 
ATOM     47  H   UNL     1       1.053  11.172  -1.257  1.00  0.00     0.164 HD
BRANCH  46  48
ATOM     48  C   UNL     1       0.380  12.165   0.506  1.00  0.00     0.196 C 
BRANCH  48  49
ATOM     49  C   UNL     1       0.751  11.243   1.679  1.00  0.00     0.072 C 
BRANCH  49  50
ATOM     50  C   UNL     1      -0.212  11.361   2.839  1.00  0.00    -0.045 A 
ATOM     51  C   UNL     1      -0.179  10.414   3.873  1.00  0.00     0.007 A 
ATOM     52  C   UNL     1      -1.157  12.393   2.889  1.00  0.00     0.007 A 
ATOM     53  C   UNL     1      -1.072  10.505   4.941  1.00  0.00     0.046 A 
ATOM     54  C   UNL     1      -2.052  12.483   3.958  1.00  0.00     0.046 A 
ATOM     55  C   UNL     1      -2.001  11.538   4.976  1.00  0.00     0.115 A 
BRANCH  55  56
ATOM     56  O   UNL     1      -2.856  11.589   6.036  1.00  0.00    -0.508 OA
ATOM     57  H   UNL     1      -2.972  10.689   6.380  1.00  0.00     0.293 HD
ENDBRANCH  55  56
ENDBRANCH  49  50
ENDBRANCH  48  49
BRANCH  48  58
ATOM     58  C   UNL     1       1.483  13.214   0.306  1.00  0.00     0.326 C 
ATOM     59  O   UNL     1       2.570  13.257   0.858  1.00  0.00    -0.250 OA
BRANCH  58  60
ATOM     60  O   UNL     1       1.166  14.166  -0.608  1.00  0.00    -0.480 OA
ATOM     61  H   UNL     1       2.036  14.564  -0.830  1.00  0.00     0.296 HD
ENDBRANCH  58  60
ENDBRANCH  48  58
ENDBRANCH  46  48
ENDBRANCH  34  44
ENDBRANCH  32  34
ENDBRANCH  25  30
ENDBRANCH  23  25
ENDBRANCH   2  23
TORSDOF 28
ENDMDL
MODEL 5
REMARK VINA RESULT:    -6.239      2.531      9.145
REMARK INTER + INTRA:         -21.797
REMARK INTER:                 -17.142
REMARK INTRA:                  -4.655
REMARK UNBOUND:                -6.258
REMARK SMILES CCCCCCC[C@H](N)[C@H](O)C(=O)N[C@H](C)C(=O)N(C)[C@H](CC(C)C)C(=O)N[C@@H](Cc1ccc(O)cc1)C(=O)N[C@@H](Cc1ccc(O)cc1)C(=O)O
REMARK SMILES IDX 18 1 17 2 15 3 16 4 14 5 12 6 13 7 10 9 11 10 8 12 9 13 7 16
REMARK SMILES IDX 6 17 5 18 4 19 3 20 2 21 1 22 19 23 20 24 21 25 22 26 23 27
REMARK SMILES IDX 24 28 25 29 26 30 27 31 28 32 29 34 30 35 31 36 32 37 37 38
REMARK SMILES IDX 33 39 36 40 34 41 35 42 38 44 39 45 40 46 41 48 42 49 43 50
REMARK SMILES IDX 44 51 49 52 45 53 48 54 46 55 47 56 50 58 51 59 52 60
REMARK H PARENT 14 8 11 11 9 14 9 15 28 33 35 43 40 47 47 57 52 61
ROOT
ATOM      1  O   UNL     1      -1.553  11.076  -4.444  1.00  0.00    -0.272 OA
ATOM      2  C   UNL     1      -0.498  11.416  -3.890  1.00  0.00     0.245 C 
ENDROOT
BRANCH   2   3
ATOM      3  C   UNL     1       0.652  11.975  -4.765  1.00  0.00     0.168 C 
ATOM      4  C   UNL     1       1.384  13.101  -4.043  1.00  0.00     0.041 C 
BRANCH   3   5
ATOM      5  N   UNL     1       1.572  10.972  -5.278  1.00  0.00    -0.342 N 
ATOM      6  C   UNL     1       2.231  11.135  -6.478  1.00  0.00     0.251 C 
ATOM      7  O   UNL     1       2.066  12.101  -7.215  1.00  0.00    -0.272 OA
ATOM      8  H   UNL     1       1.764  10.111  -4.772  1.00  0.00     0.164 HD
BRANCH   6   9
ATOM      9  C   UNL     1       3.256  10.022  -6.750  1.00  0.00     0.219 C 
BRANCH   9  10
ATOM     10  O   UNL     1       3.312   9.647  -8.131  1.00  0.00    -0.382 OA
ATOM     11  H   UNL     1       3.876   8.843  -8.130  1.00  0.00     0.211 HD
ENDBRANCH   9  10
BRANCH   9  12
ATOM     12  C   UNL     1       4.672  10.353  -6.212  1.00  0.00     0.089 C 
BRANCH  12  13
ATOM     13  N   UNL     1       4.529  11.241  -5.035  1.00  0.00    -0.325 NA
ATOM     14  H   UNL     1       4.175  10.699  -4.246  1.00  0.00     0.119 HD
ATOM     15  H   UNL     1       3.803  11.934  -5.230  1.00  0.00     0.119 HD
ENDBRANCH  12  13
BRANCH  12  16
ATOM     16  C   UNL     1       5.564   9.140  -5.856  1.00  0.00     0.022 C 
BRANCH  16  17
ATOM     17  C   UNL     1       4.921   7.752  -5.729  1.00  0.00     0.002 C 
BRANCH  17  18
ATOM     18  C   UNL     1       5.747   6.603  -6.302  1.00  0.00     0.000 C 
BRANCH  18  19
ATOM     19  C   UNL     1       7.064   7.046  -6.954  1.00  0.00    -0.000 C 
BRANCH  19  20
ATOM     20  C   UNL     1       7.238   6.626  -8.417  1.00  0.00    -0.000 C 
BRANCH  20  21
ATOM     21  C   UNL     1       8.127   7.584  -9.214  1.00  0.00    -0.003 C 
ATOM     22  C   UNL     1       7.298   8.615  -9.964  1.00  0.00     0.004 C 
ENDBRANCH  20  21
ENDBRANCH  19  20
ENDBRANCH  18  19
ENDBRANCH  17  18
ENDBRANCH  16  17
ENDBRANCH  12  16
ENDBRANCH   9  12
ENDBRANCH   6   9
ENDBRANCH   3   5
ENDBRANCH   2   3
BRANCH   2  23
ATOM     23  N   UNL     1      -0.406  11.407  -2.502  1.00  0.00    -0.332 N 
ATOM     24  C   UNL     1      -1.087  12.347  -1.624  1.00  0.00     0.147 C 
BRANCH  23  25
ATOM     25  C   UNL     1       0.323  10.313  -1.805  1.00  0.00     0.174 C 
BRANCH  25  26
ATOM     26  C   UNL     1      -0.396   9.832  -0.522  1.00  0.00     0.038 C 
BRANCH  26  27
ATOM     27  C   UNL     1      -0.721   8.325  -0.425  1.00  0.00    -0.015 C 
ATOM     28  C   UNL     1      -1.697   7.866  -1.508  1.00  0.00     0.007 C 
ATOM     29  C   UNL     1       0.520   7.436  -0.409  1.00  0.00     0.007 C 
ENDBRANCH  26  27
ENDBRANCH  25  26
BRANCH  25  30
ATOM     30  C   UNL     1       1.798  10.717  -1.577  1.00  0.00     0.243 C 
ATOM     31  O   UNL     1       2.661  10.537  -2.434  1.00  0.00    -0.273 OA
ATOM     32  N   UNL     1       2.077  11.280  -0.358  1.00  0.00    -0.342 N 
ATOM     33  H   UNL     1       1.286  11.525   0.243  1.00  0.00     0.164 HD
BRANCH  32  34
ATOM     34  C   UNL     1       3.423  11.698   0.043  1.00  0.00     0.175 C 
BRANCH  34  35
ATOM     35  C   UNL     1       3.654  13.189  -0.248  1.00  0.00     0.070 C 
BRANCH  35  36
ATOM     36  C   UNL     1       5.024  13.467  -0.825  1.00  0.00    -0.045 A 
ATOM     37  C   UNL     1       6.039  13.985  -0.005  1.00  0.00     0.007 A 
ATOM     38  C   UNL     1       5.294  13.236  -2.180  1.00  0.00     0.007 A 
ATOM     39  C   UNL     1       7.302  14.257  -0.531  1.00  0.00     0.046 A 
ATOM     40  C   UNL     1       6.558  13.510  -2.708  1.00  0.00     0.046 A 
ATOM     41  C   UNL     1       7.551  14.017  -1.877  1.00  0.00     0.115 A 
BRANCH  41  42
ATOM     42  O   UNL     1       8.798  14.300  -2.352  1.00  0.00    -0.508 OA
ATOM     43  H   UNL     1       8.732  14.452  -3.310  1.00  0.00     0.293 HD
ENDBRANCH  41  42
ENDBRANCH  35  36
ENDBRANCH  34  35
BRANCH  34  44
ATOM     44  C   UNL     1       3.601  11.368   1.542  1.00  0.00     0.243 C 
ATOM     45  O   UNL     1       3.524  12.193   2.448  1.00  0.00    -0.273 OA
ATOM     46  N   UNL     1       3.989  10.065   1.774  1.00  0.00    -0.341 N 
ATOM     47  H   UNL     1       4.153   9.450   0.981  1.00  0.00     0.164 HD
BRANCH  46  48
ATOM     48  C   UNL     1       4.284   9.538   3.108  1.00  0.00     0.196 C 
BRANCH  48  49
ATOM     49  C   UNL     1       3.321   8.400   3.487  1.00  0.00     0.072 C 
BRANCH  49  50
ATOM     50  C   UNL     1       1.909   8.888   3.724  1.00  0.00    -0.045 A 
ATOM     51  C   UNL     1       0.837   8.276   3.057  1.00  0.00     0.007 A 
ATOM     52  C   UNL     1       1.652   9.960   4.588  1.00  0.00     0.007 A 
ATOM     53  C   UNL     1      -0.468   8.726   3.258  1.00  0.00     0.046 A 
ATOM     54  C   UNL     1       0.346  10.411   4.788  1.00  0.00     0.046 A 
ATOM     55  C   UNL     1      -0.704   9.788   4.122  1.00  0.00     0.115 A 
BRANCH  55  56
ATOM     56  O   UNL     1      -1.994  10.199   4.289  1.00  0.00    -0.508 OA
ATOM     57  H   UNL     1      -1.999  11.166   4.369  1.00  0.00     0.293 HD
ENDBRANCH  55  56
ENDBRANCH  49  50
ENDBRANCH  48  49
BRANCH  48  58
ATOM     58  C   UNL     1       5.728   9.019   3.132  1.00  0.00     0.326 C 
ATOM     59  O   UNL     1       6.727   9.628   3.481  1.00  0.00    -0.250 OA
BRANCH  58  60
ATOM     60  O   UNL     1       5.847   7.731   2.723  1.00  0.00    -0.480 OA
ATOM     61  H   UNL     1       6.404   7.801   1.917  1.00  0.00     0.296 HD
ENDBRANCH  58  60
ENDBRANCH  48  58
ENDBRANCH  46  48
ENDBRANCH  34  44
ENDBRANCH  32  34
ENDBRANCH  25  30
ENDBRANCH  23  25
ENDBRANCH   2  23
TORSDOF 28
ENDMDL
MODEL 6
REMARK VINA RESULT:    -6.193      3.171     10.306
REMARK INTER + INTRA:         -21.683
REMARK INTER:                 -16.128
REMARK INTRA:                  -5.555
REMARK UNBOUND:                -6.258
REMARK SMILES CCCCCCC[C@H](N)[C@H](O)C(=O)N[C@H](C)C(=O)N(C)[C@H](CC(C)C)C(=O)N[C@@H](Cc1ccc(O)cc1)C(=O)N[C@@H](Cc1ccc(O)cc1)C(=O)O
REMARK SMILES IDX 18 1 17 2 15 3 16 4 14 5 12 6 13 7 10 9 11 10 8 12 9 13 7 16
REMARK SMILES IDX 6 17 5 18 4 19 3 20 2 21 1 22 19 23 20 24 21 25 22 26 23 27
REMARK SMILES IDX 24 28 25 29 26 30 27 31 28 32 29 34 30 35 31 36 32 37 37 38
REMARK SMILES IDX 33 39 36 40 34 41 35 42 38 44 39 45 40 46 41 48 42 49 43 50
REMARK SMILES IDX 44 51 49 52 45 53 48 54 46 55 47 56 50 58 51 59 52 60
REMARK H PARENT 14 8 11 11 9 14 9 15 28 33 35 43 40 47 47 57 52 61
ROOT
ATOM      1  O   UNL     1       7.826  11.891  -4.122  1.00  0.00    -0.272 OA
ATOM      2  C   UNL     1       6.832  12.238  -4.777  1.00  0.00     0.245 C 
ENDROOT
BRANCH   2   3
ATOM      3  C   UNL     1       6.566  11.553  -6.140  1.00  0.00     0.168 C 
ATOM      4  C   UNL     1       7.746  11.752  -7.085  1.00  0.00     0.041 C 
BRANCH   3   5
ATOM      5  N   UNL     1       6.169  10.156  -6.055  1.00  0.00    -0.342 N 
ATOM      6  C   UNL     1       4.868   9.755  -6.269  1.00  0.00     0.251 C 
ATOM      7  O   UNL     1       3.949  10.534  -6.503  1.00  0.00    -0.272 OA
ATOM      8  H   UNL     1       6.837   9.421  -5.834  1.00  0.00     0.164 HD
BRANCH   6   9
ATOM      9  C   UNL     1       4.709   8.226  -6.270  1.00  0.00     0.219 C 
BRANCH   9  10
ATOM     10  O   UNL     1       3.510   7.794  -6.923  1.00  0.00    -0.382 OA
ATOM     11  H   UNL     1       3.838   7.323  -7.721  1.00  0.00     0.211 HD
ENDBRANCH   9  10
BRANCH   9  12
ATOM     12  C   UNL     1       5.946   7.485  -6.843  1.00  0.00     0.089 C 
BRANCH  12  13
ATOM     13  N   UNL     1       6.832   7.114  -5.716  1.00  0.00    -0.325 NA
ATOM     14  H   UNL     1       6.447   6.295  -5.242  1.00  0.00     0.119 HD
ATOM     15  H   UNL     1       6.811   7.861  -5.018  1.00  0.00     0.119 HD
ENDBRANCH  12  13
BRANCH  12  16
ATOM     16  C   UNL     1       5.648   6.243  -7.717  1.00  0.00     0.022 C 
BRANCH  16  17
ATOM     17  C   UNL     1       6.050   6.258  -9.198  1.00  0.00     0.002 C 
BRANCH  17  18
ATOM     18  C   UNL     1       6.756   7.530  -9.661  1.00  0.00     0.000 C 
BRANCH  18  19
ATOM     19  C   UNL     1       5.818   8.578 -10.275  1.00  0.00    -0.000 C 
BRANCH  19  20
ATOM     20  C   UNL     1       5.912   9.976  -9.657  1.00  0.00    -0.000 C 
BRANCH  20  21
ATOM     21  C   UNL     1       4.697  10.853  -9.971  1.00  0.00    -0.003 C 
ATOM     22  C   UNL     1       3.404  10.055  -9.904  1.00  0.00     0.004 C 
ENDBRANCH  20  21
ENDBRANCH  19  20
ENDBRANCH  18  19
ENDBRANCH  17  18
ENDBRANCH  16  17
ENDBRANCH  12  16
ENDBRANCH   9  12
ENDBRANCH   6   9
ENDBRANCH   3   5
ENDBRANCH   2   3
BRANCH   2  23
ATOM     23  N   UNL     1       5.918  13.133  -4.231  1.00  0.00    -0.332 N 
ATOM     24  C   UNL     1       5.920  13.573  -2.844  1.00  0.00     0.147 C 
BRANCH  23  25
ATOM     25  C   UNL     1       4.922  13.815  -5.103  1.00  0.00     0.174 C 
BRANCH  25  26
ATOM     26  C   UNL     1       5.111  15.350  -5.146  1.00  0.00     0.038 C 
BRANCH  26  27
ATOM     27  C   UNL     1       6.272  15.889  -6.011  1.00  0.00    -0.015 C 
ATOM     28  C   UNL     1       7.581  15.995  -5.230  1.00  0.00     0.007 C 
ATOM     29  C   UNL     1       6.480  15.106  -7.305  1.00  0.00     0.007 C 
ENDBRANCH  26  27
ENDBRANCH  25  26
BRANCH  25  30
ATOM     30  C   UNL     1       3.490  13.375  -4.721  1.00  0.00     0.243 C 
ATOM     31  O   UNL     1       2.505  14.055  -5.002  1.00  0.00    -0.273 OA
ATOM     32  N   UNL     1       3.395  12.185  -4.047  1.00  0.00    -0.342 N 
ATOM     33  H   UNL     1       4.240  11.612  -3.976  1.00  0.00     0.164 HD
BRANCH  32  34
ATOM     34  C   UNL     1       2.123  11.626  -3.582  1.00  0.00     0.175 C 
BRANCH  34  35
ATOM     35  C   UNL     1       2.176  10.092  -3.521  1.00  0.00     0.070 C 
BRANCH  35  36
ATOM     36  C   UNL     1       1.059   9.501  -2.690  1.00  0.00    -0.045 A 
ATOM     37  C   UNL     1      -0.276   9.815  -2.984  1.00  0.00     0.007 A 
ATOM     38  C   UNL     1       1.338   8.655  -1.608  1.00  0.00     0.007 A 
ATOM     39  C   UNL     1      -1.312   9.286  -2.214  1.00  0.00     0.046 A 
ATOM     40  C   UNL     1       0.301   8.126  -0.836  1.00  0.00     0.046 A 
ATOM     41  C   UNL     1      -1.016   8.445  -1.148  1.00  0.00     0.115 A 
BRANCH  41  42
ATOM     42  O   UNL     1      -2.057   7.952  -0.419  1.00  0.00    -0.508 OA
ATOM     43  H   UNL     1      -2.764   8.619  -0.407  1.00  0.00     0.293 HD
ENDBRANCH  41  42
ENDBRANCH  35  36
ENDBRANCH  34  35
BRANCH  34  44
ATOM     44  C   UNL     1       1.801  12.248  -2.205  1.00  0.00     0.243 C 
ATOM     45  O   UNL     1       0.924  13.084  -2.009  1.00  0.00    -0.273 OA
ATOM     46  N   UNL     1       2.685  11.875  -1.214  1.00  0.00    -0.341 N 
ATOM     47  H   UNL     1       3.467  11.270  -1.452  1.00  0.00     0.164 HD
BRANCH  46  48
ATOM     48  C   UNL     1       2.623  12.388   0.156  1.00  0.00     0.196 C 
BRANCH  48  49
ATOM     49  C   UNL     1       2.427  11.251   1.172  1.00  0.00     0.072 C 
BRANCH  49  50
ATOM     50  C   UNL     1       0.969  10.957   1.443  1.00  0.00    -0.045 A 
ATOM     51  C   UNL     1      -0.026  11.726   0.822  1.00  0.00     0.007 A 
ATOM     52  C   UNL     1       0.591   9.936   2.324  1.00  0.00     0.007 A 
ATOM     53  C   UNL     1      -1.374  11.473   1.074  1.00  0.00     0.046 A 
ATOM     54  C   UNL     1      -0.759   9.683   2.577  1.00  0.00     0.046 A 
ATOM     55  C   UNL     1      -1.731  10.453   1.949  1.00  0.00     0.115 A 
BRANCH  55  56
ATOM     56  O   UNL     1      -3.059  10.239   2.169  1.00  0.00    -0.508 OA
ATOM     57  H   UNL     1      -3.528  11.081   2.054  1.00  0.00     0.293 HD
ENDBRANCH  55  56
ENDBRANCH  49  50
ENDBRANCH  48  49
BRANCH  48  58
ATOM     58  C   UNL     1       3.925  13.138   0.467  1.00  0.00     0.326 C 
ATOM     59  O   UNL     1       4.226  14.270   0.125  1.00  0.00    -0.250 OA
BRANCH  58  60
ATOM     60  O   UNL     1       4.796  12.420   1.221  1.00  0.00    -0.480 OA
ATOM     61  H   UNL     1       5.630  12.936   1.155  1.00  0.00     0.296 HD
ENDBRANCH  58  60
ENDBRANCH  48  58
ENDBRANCH  46  48
ENDBRANCH  34  44
ENDBRANCH  32  34
ENDBRANCH  25  30
ENDBRANCH  23  25
ENDBRANCH   2  23
TORSDOF 28
ENDMDL
MODEL 7
REMARK VINA RESULT:    -6.173      2.960      8.533
REMARK INTER + INTRA:         -21.633
REMARK INTER:                 -16.933
REMARK INTRA:                  -4.700
REMARK UNBOUND:                -6.258
REMARK SMILES CCCCCCC[C@H](N)[C@H](O)C(=O)N[C@H](C)C(=O)N(C)[C@H](CC(C)C)C(=O)N[C@@H](Cc1ccc(O)cc1)C(=O)N[C@@H](Cc1ccc(O)cc1)C(=O)O
REMARK SMILES IDX 18 1 17 2 15 3 16 4 14 5 12 6 13 7 10 9 11 10 8 12 9 13 7 16
REMARK SMILES IDX 6 17 5 18 4 19 3 20 2 21 1 22 19 23 20 24 21 25 22 26 23 27
REMARK SMILES IDX 24 28 25 29 26 30 27 31 28 32 29 34 30 35 31 36 32 37 37 38
REMARK SMILES IDX 33 39 36 40 34 41 35 42 38 44 39 45 40 46 41 48 42 49 43 50
REMARK SMILES IDX 44 51 49 52 45 53 48 54 46 55 47 56 50 58 51 59 52 60
REMARK H PARENT 14 8 11 11 9 14 9 15 28 33 35 43 40 47 47 57 52 61
ROOT
ATOM      1  O   UNL     1      -2.344  10.695   1.477  1.00  0.00    -0.272 OA
ATOM      2  C   UNL     1      -1.360  11.105   0.844  1.00  0.00     0.245 C 
ENDROOT
BRANCH   2   3
ATOM      3  C   UNL     1      -1.567  11.605  -0.607  1.00  0.00     0.168 C 
ATOM      4  C   UNL     1      -2.022  13.060  -0.620  1.00  0.00     0.041 C 
BRANCH   3   5
ATOM      5  N   UNL     1      -0.438  11.382  -1.497  1.00  0.00    -0.342 N 
ATOM      6  C   UNL     1      -0.373  10.285  -2.330  1.00  0.00     0.251 C 
ATOM      7  O   UNL     1      -1.225   9.404  -2.356  1.00  0.00    -0.272 OA
ATOM      8  H   UNL     1       0.348  12.027  -1.538  1.00  0.00     0.164 HD
BRANCH   6   9
ATOM      9  C   UNL     1       0.836  10.330  -3.279  1.00  0.00     0.219 C 
BRANCH   9  10
ATOM     10  O   UNL     1       1.726   9.223  -3.094  1.00  0.00    -0.382 OA
ATOM     11  H   UNL     1       1.378   8.779  -2.289  1.00  0.00     0.211 HD
ENDBRANCH   9  10
BRANCH   9  12
ATOM     12  C   UNL     1       0.434  10.470  -4.771  1.00  0.00     0.089 C 
BRANCH  12  13
ATOM     13  N   UNL     1      -1.023  10.728  -4.840  1.00  0.00    -0.325 NA
ATOM     14  H   UNL     1      -1.462  10.408  -3.974  1.00  0.00     0.119 HD
ATOM     15  H   UNL     1      -1.428  10.144  -5.576  1.00  0.00     0.119 HD
ENDBRANCH  12  13
BRANCH  12  16
ATOM     16  C   UNL     1       1.202  11.540  -5.583  1.00  0.00     0.022 C 
BRANCH  16  17
ATOM     17  C   UNL     1       2.379  11.104  -6.466  1.00  0.00     0.002 C 
BRANCH  17  18
ATOM     18  C   UNL     1       3.762  11.368  -5.874  1.00  0.00     0.000 C 
BRANCH  18  19
ATOM     19  C   UNL     1       4.537  10.096  -5.506  1.00  0.00    -0.000 C 
BRANCH  19  20
ATOM     20  C   UNL     1       3.822   8.782  -5.832  1.00  0.00    -0.000 C 
BRANCH  20  21
ATOM     21  C   UNL     1       4.721   7.772  -6.549  1.00  0.00    -0.003 C 
ATOM     22  C   UNL     1       5.414   6.847  -5.560  1.00  0.00     0.004 C 
ENDBRANCH  20  21
ENDBRANCH  19  20
ENDBRANCH  18  19
ENDBRANCH  17  18
ENDBRANCH  16  17
ENDBRANCH  12  16
ENDBRANCH   9  12
ENDBRANCH   6   9
ENDBRANCH   3   5
ENDBRANCH   2   3
BRANCH   2  23
ATOM     23  N   UNL     1      -0.127  11.225   1.477  1.00  0.00    -0.332 N 
ATOM     24  C   UNL     1       0.345  12.428   2.146  1.00  0.00     0.147 C 
BRANCH  23  25
ATOM     25  C   UNL     1       0.762  10.039   1.620  1.00  0.00     0.174 C 
BRANCH  25  26
ATOM     26  C   UNL     1       0.895   9.559   3.084  1.00  0.00     0.038 C 
BRANCH  26  27
ATOM     27  C   UNL     1      -0.175   8.569   3.597  1.00  0.00    -0.015 C 
ATOM     28  C   UNL     1      -1.279   9.263   4.394  1.00  0.00     0.007 C 
ATOM     29  C   UNL     1      -0.773   7.698   2.495  1.00  0.00     0.007 C 
ENDBRANCH  26  27
ENDBRANCH  25  26
BRANCH  25  30
ATOM     30  C   UNL     1       2.118  10.304   0.927  1.00  0.00     0.243 C 
ATOM     31  O   UNL     1       2.298  10.056  -0.265  1.00  0.00    -0.273 OA
ATOM     32  N   UNL     1       3.102  10.825   1.727  1.00  0.00    -0.342 N 
ATOM     33  H   UNL     1       2.835  11.134   2.666  1.00  0.00     0.164 HD
BRANCH  32  34
ATOM     34  C   UNL     1       4.456  11.114   1.248  1.00  0.00     0.175 C 
BRANCH  34  35
ATOM     35  C   UNL     1       4.654  12.618   1.006  1.00  0.00     0.070 C 
BRANCH  35  36
ATOM     36  C   UNL     1       4.018  13.091  -0.282  1.00  0.00    -0.045 A 
ATOM     37  C   UNL     1       2.835  13.845  -0.245  1.00  0.00     0.007 A 
ATOM     38  C   UNL     1       4.581  12.768  -1.523  1.00  0.00     0.007 A 
ATOM     39  C   UNL     1       2.233  14.274  -1.428  1.00  0.00     0.046 A 
ATOM     40  C   UNL     1       3.979  13.197  -2.708  1.00  0.00     0.046 A 
ATOM     41  C   UNL     1       2.810  13.948  -2.649  1.00  0.00     0.115 A 
BRANCH  41  42
ATOM     42  O   UNL     1       2.189  14.384  -3.782  1.00  0.00    -0.508 OA
ATOM     43  H   UNL     1       2.672  15.158  -4.115  1.00  0.00     0.293 HD
ENDBRANCH  41  42
ENDBRANCH  35  36
ENDBRANCH  34  35
BRANCH  34  44
ATOM     44  C   UNL     1       5.459  10.559   2.285  1.00  0.00     0.243 C 
ATOM     45  O   UNL     1       6.239  11.251   2.935  1.00  0.00    -0.273 OA
ATOM     46  N   UNL     1       5.498   9.182   2.329  1.00  0.00    -0.341 N 
ATOM     47  H   UNL     1       4.915   8.650   1.687  1.00  0.00     0.164 HD
BRANCH  46  48
ATOM     48  C   UNL     1       6.417   8.428   3.184  1.00  0.00     0.196 C 
BRANCH  48  49
ATOM     49  C   UNL     1       5.884   7.015   3.472  1.00  0.00     0.072 C 
BRANCH  49  50
ATOM     50  C   UNL     1       5.410   6.850   4.898  1.00  0.00    -0.045 A 
ATOM     51  C   UNL     1       5.454   5.588   5.508  1.00  0.00     0.007 A 
ATOM     52  C   UNL     1       4.905   7.939   5.620  1.00  0.00     0.007 A 
ATOM     53  C   UNL     1       5.007   5.422   6.819  1.00  0.00     0.046 A 
ATOM     54  C   UNL     1       4.457   7.773   6.932  1.00  0.00     0.046 A 
ATOM     55  C   UNL     1       4.512   6.514   7.521  1.00  0.00     0.115 A 
BRANCH  55  56
ATOM     56  O   UNL     1       4.084   6.309   8.799  1.00  0.00    -0.508 OA
ATOM     57  H   UNL     1       3.429   5.593   8.791  1.00  0.00     0.293 HD
ENDBRANCH  55  56
ENDBRANCH  49  50
ENDBRANCH  48  49
BRANCH  48  58
ATOM     58  C   UNL     1       7.782   8.332   2.487  1.00  0.00     0.326 C 
ATOM     59  O   UNL     1       8.168   8.978   1.527  1.00  0.00    -0.250 OA
BRANCH  58  60
ATOM     60  O   UNL     1       8.615   7.422   3.052  1.00  0.00    -0.480 OA
ATOM     61  H   UNL     1       8.048   6.626   3.149  1.00  0.00     0.296 HD
ENDBRANCH  58  60
ENDBRANCH  48  58
ENDBRANCH  46  48
ENDBRANCH  34  44
ENDBRANCH  32  34
ENDBRANCH  25  30
ENDBRANCH  23  25
ENDBRANCH   2  23
TORSDOF 28
ENDMDL
MODEL 8
REMARK VINA RESULT:    -6.122      3.276      9.175
REMARK INTER + INTRA:         -21.507
REMARK INTER:                 -17.015
REMARK INTRA:                  -4.492
REMARK UNBOUND:                -6.258
REMARK SMILES CCCCCCC[C@H](N)[C@H](O)C(=O)N[C@H](C)C(=O)N(C)[C@H](CC(C)C)C(=O)N[C@@H](Cc1ccc(O)cc1)C(=O)N[C@@H](Cc1ccc(O)cc1)C(=O)O
REMARK SMILES IDX 18 1 17 2 15 3 16 4 14 5 12 6 13 7 10 9 11 10 8 12 9 13 7 16
REMARK SMILES IDX 6 17 5 18 4 19 3 20 2 21 1 22 19 23 20 24 21 25 22 26 23 27
REMARK SMILES IDX 24 28 25 29 26 30 27 31 28 32 29 34 30 35 31 36 32 37 37 38
REMARK SMILES IDX 33 39 36 40 34 41 35 42 38 44 39 45 40 46 41 48 42 49 43 50
REMARK SMILES IDX 44 51 49 52 45 53 48 54 46 55 47 56 50 58 51 59 52 60
REMARK H PARENT 14 8 11 11 9 14 9 15 28 33 35 43 40 47 47 57 52 61
ROOT
ATOM      1  O   UNL     1       0.857  13.188   0.106  1.00  0.00    -0.272 OA
ATOM      2  C   UNL     1       0.560  12.485  -0.871  1.00  0.00     0.245 C 
ENDROOT
BRANCH   2   3
ATOM      3  C   UNL     1       1.154  12.849  -2.254  1.00  0.00     0.168 C 
ATOM      4  C   UNL     1       2.104  14.036  -2.140  1.00  0.00     0.041 C 
BRANCH   3   5
ATOM      5  N   UNL     1       1.758  11.738  -2.972  1.00  0.00    -0.342 N 
ATOM      6  C   UNL     1       1.184  11.206  -4.107  1.00  0.00     0.251 C 
ATOM      7  O   UNL     1       0.116  11.592  -4.569  1.00  0.00    -0.272 OA
ATOM      8  H   UNL     1       2.628  11.310  -2.663  1.00  0.00     0.164 HD
BRANCH   6   9
ATOM      9  C   UNL     1       2.067  10.139  -4.775  1.00  0.00     0.219 C 
BRANCH   9  10
ATOM     10  O   UNL     1       1.367   8.912  -5.011  1.00  0.00    -0.382 OA
ATOM     11  H   UNL     1       1.493   8.410  -4.176  1.00  0.00     0.211 HD
ENDBRANCH   9  10
BRANCH   9  12
ATOM     12  C   UNL     1       2.751  10.642  -6.074  1.00  0.00     0.089 C 
BRANCH  12  13
ATOM     13  N   UNL     1       2.878  12.115  -5.995  1.00  0.00    -0.325 NA
ATOM     14  H   UNL     1       2.999  12.492  -6.937  1.00  0.00     0.119 HD
ATOM     15  H   UNL     1       3.744  12.346  -5.502  1.00  0.00     0.119 HD
ENDBRANCH  12  13
BRANCH  12  16
ATOM     16  C   UNL     1       4.122  10.006  -6.407  1.00  0.00     0.022 C 
BRANCH  16  17
ATOM     17  C   UNL     1       5.404  10.788  -6.090  1.00  0.00     0.002 C 
BRANCH  17  18
ATOM     18  C   UNL     1       6.623   9.925  -5.770  1.00  0.00     0.000 C 
BRANCH  18  19
ATOM     19  C   UNL     1       7.232   9.228  -6.994  1.00  0.00    -0.000 C 
BRANCH  19  20
ATOM     20  C   UNL     1       7.276   7.699  -6.917  1.00  0.00    -0.000 C 
BRANCH  20  21
ATOM     21  C   UNL     1       6.396   7.130  -5.801  1.00  0.00    -0.003 C 
ATOM     22  C   UNL     1       5.266   6.282  -6.365  1.00  0.00     0.004 C 
ENDBRANCH  20  21
ENDBRANCH  19  20
ENDBRANCH  18  19
ENDBRANCH  17  18
ENDBRANCH  16  17
ENDBRANCH  12  16
ENDBRANCH   9  12
ENDBRANCH   6   9
ENDBRANCH   3   5
ENDBRANCH   2   3
BRANCH   2  23
ATOM     23  N   UNL     1      -0.190  11.327  -0.692  1.00  0.00    -0.332 N 
ATOM     24  C   UNL     1      -1.440  11.039  -1.380  1.00  0.00     0.147 C 
BRANCH  23  25
ATOM     25  C   UNL     1       0.330  10.218   0.153  1.00  0.00     0.174 C 
BRANCH  25  26
ATOM     26  C   UNL     1      -0.201  10.267   1.605  1.00  0.00     0.038 C 
BRANCH  26  27
ATOM     27  C   UNL     1      -0.945   9.014   2.121  1.00  0.00    -0.015 C 
ATOM     28  C   UNL     1      -1.465   8.134   0.984  1.00  0.00     0.007 C 
ATOM     29  C   UNL     1      -0.128   8.187   3.110  1.00  0.00     0.007 C 
ENDBRANCH  26  27
ENDBRANCH  25  26
BRANCH  25  30
ATOM     30  C   UNL     1       1.872  10.154   0.057  1.00  0.00     0.243 C 
ATOM     31  O   UNL     1       2.443   9.544  -0.845  1.00  0.00    -0.273 OA
ATOM     32  N   UNL     1       2.556  10.816   1.045  1.00  0.00    -0.342 N 
ATOM     33  H   UNL     1       2.016  11.415   1.675  1.00  0.00     0.164 HD
BRANCH  32  34
ATOM     34  C   UNL     1       4.018  10.840   1.130  1.00  0.00     0.175 C 
BRANCH  34  35
ATOM     35  C   UNL     1       4.567  12.260   0.920  1.00  0.00     0.070 C 
BRANCH  35  36
ATOM     36  C   UNL     1       5.637  12.322  -0.146  1.00  0.00    -0.045 A 
ATOM     37  C   UNL     1       6.953  11.939   0.158  1.00  0.00     0.007 A 
ATOM     38  C   UNL     1       5.342  12.780  -1.436  1.00  0.00     0.007 A 
ATOM     39  C   UNL     1       7.951  12.006  -0.815  1.00  0.00     0.046 A 
ATOM     40  C   UNL     1       6.341  12.848  -2.411  1.00  0.00     0.046 A 
ATOM     41  C   UNL     1       7.637  12.459  -2.091  1.00  0.00     0.115 A 
BRANCH  41  42
ATOM     42  O   UNL     1       8.641  12.512  -3.011  1.00  0.00    -0.508 OA
ATOM     43  H   UNL     1       9.176  13.303  -2.833  1.00  0.00     0.293 HD
ENDBRANCH  41  42
ENDBRANCH  35  36
ENDBRANCH  34  35
BRANCH  34  44
ATOM     44  C   UNL     1       4.428  10.260   2.502  1.00  0.00     0.243 C 
ATOM     45  O   UNL     1       4.118  10.751   3.584  1.00  0.00    -0.273 OA
ATOM     46  N   UNL     1       5.299   9.194   2.409  1.00  0.00    -0.341 N 
ATOM     47  H   UNL     1       5.619   8.897   1.491  1.00  0.00     0.164 HD
BRANCH  46  48
ATOM     48  C   UNL     1       5.878   8.523   3.575  1.00  0.00     0.196 C 
BRANCH  48  49
ATOM     49  C   UNL     1       5.470   7.041   3.628  1.00  0.00     0.072 C 
BRANCH  49  50
ATOM     50  C   UNL     1       5.244   6.550   5.040  1.00  0.00    -0.045 A 
ATOM     51  C   UNL     1       5.502   5.209   5.363  1.00  0.00     0.007 A 
ATOM     52  C   UNL     1       4.759   7.409   6.033  1.00  0.00     0.007 A 
ATOM     53  C   UNL     1       5.285   4.741   6.659  1.00  0.00     0.046 A 
ATOM     54  C   UNL     1       4.540   6.940   7.331  1.00  0.00     0.046 A 
ATOM     55  C   UNL     1       4.806   5.610   7.633  1.00  0.00     0.115 A 
BRANCH  55  56
ATOM     56  O   UNL     1       4.605   5.112   8.886  1.00  0.00    -0.508 OA
ATOM     57  H   UNL     1       5.140   5.629   9.510  1.00  0.00     0.293 HD
ENDBRANCH  55  56
ENDBRANCH  49  50
ENDBRANCH  48  49
BRANCH  48  58
ATOM     58  C   UNL     1       7.407   8.635   3.507  1.00  0.00     0.326 C 
ATOM     59  O   UNL     1       8.124   9.376   4.159  1.00  0.00    -0.250 OA
BRANCH  58  60
ATOM     60  O   UNL     1       7.973   7.782   2.616  1.00  0.00    -0.480 OA
ATOM     61  H   UNL     1       7.582   8.058   1.759  1.00  0.00     0.296 HD
ENDBRANCH  58  60
ENDBRANCH  48  58
ENDBRANCH  46  48
ENDBRANCH  34  44
ENDBRANCH  32  34
ENDBRANCH  25  30
ENDBRANCH  23  25
ENDBRANCH   2  23
TORSDOF 28
ENDMDL
MODEL 9
REMARK VINA RESULT:    -6.097      2.135      7.881
REMARK INTER + INTRA:         -21.444
REMARK INTER:                 -15.218
REMARK INTRA:                  -6.226
REMARK UNBOUND:                -6.258
REMARK SMILES CCCCCCC[C@H](N)[C@H](O)C(=O)N[C@H](C)C(=O)N(C)[C@H](CC(C)C)C(=O)N[C@@H](Cc1ccc(O)cc1)C(=O)N[C@@H](Cc1ccc(O)cc1)C(=O)O
REMARK SMILES IDX 18 1 17 2 15 3 16 4 14 5 12 6 13 7 10 9 11 10 8 12 9 13 7 16
REMARK SMILES IDX 6 17 5 18 4 19 3 20 2 21 1 22 19 23 20 24 21 25 22 26 23 27
REMARK SMILES IDX 24 28 25 29 26 30 27 31 28 32 29 34 30 35 31 36 32 37 37 38
REMARK SMILES IDX 33 39 36 40 34 41 35 42 38 44 39 45 40 46 41 48 42 49 43 50
REMARK SMILES IDX 44 51 49 52 45 53 48 54 46 55 47 56 50 58 51 59 52 60
REMARK H PARENT 14 8 11 11 9 14 9 15 28 33 35 43 40 47 47 57 52 61
ROOT
ATOM      1  O   UNL     1       3.555  13.435  -3.121  1.00  0.00    -0.272 OA
ATOM      2  C   UNL     1       4.549  12.854  -3.582  1.00  0.00     0.245 C 
ENDROOT
BRANCH   2   3
ATOM      3  C   UNL     1       5.833  12.782  -2.718  1.00  0.00     0.168 C 
ATOM      4  C   UNL     1       6.960  13.587  -3.355  1.00  0.00     0.041 C 
BRANCH   3   5
ATOM      5  N   UNL     1       5.646  13.126  -1.317  1.00  0.00    -0.342 N 
ATOM      6  C   UNL     1       6.436  12.587  -0.323  1.00  0.00     0.251 C 
ATOM      7  O   UNL     1       7.314  11.758  -0.533  1.00  0.00    -0.272 OA
ATOM      8  H   UNL     1       4.925  13.778  -1.016  1.00  0.00     0.164 HD
BRANCH   6   9
ATOM      9  C   UNL     1       6.154  13.200   1.058  1.00  0.00     0.219 C 
BRANCH   9  10
ATOM     10  O   UNL     1       5.462  14.452   0.976  1.00  0.00    -0.382 OA
ATOM     11  H   UNL     1       4.754  14.369   1.653  1.00  0.00     0.211 HD
ENDBRANCH   9  10
BRANCH   9  12
ATOM     12  C   UNL     1       5.422  12.228   2.018  1.00  0.00     0.089 C 
BRANCH  12  13
ATOM     13  N   UNL     1       4.310  12.960   2.667  1.00  0.00    -0.325 NA
ATOM     14  H   UNL     1       4.182  12.603   3.616  1.00  0.00     0.119 HD
ATOM     15  H   UNL     1       3.439  12.739   2.179  1.00  0.00     0.119 HD
ENDBRANCH  12  13
BRANCH  12  16
ATOM     16  C   UNL     1       4.897  10.917   1.385  1.00  0.00     0.022 C 
BRANCH  16  17
ATOM     17  C   UNL     1       3.446  10.489   1.647  1.00  0.00     0.002 C 
BRANCH  17  18
ATOM     18  C   UNL     1       3.286   9.276   2.561  1.00  0.00     0.000 C 
BRANCH  18  19
ATOM     19  C   UNL     1       2.513   9.566   3.854  1.00  0.00    -0.000 C 
BRANCH  19  20
ATOM     20  C   UNL     1       1.060  10.009   3.657  1.00  0.00    -0.000 C 
BRANCH  20  21
ATOM     21  C   UNL     1       0.673  11.202   4.535  1.00  0.00    -0.003 C 
ATOM     22  C   UNL     1       1.200  11.043   5.952  1.00  0.00     0.004 C 
ENDBRANCH  20  21
ENDBRANCH  19  20
ENDBRANCH  18  19
ENDBRANCH  17  18
ENDBRANCH  16  17
ENDBRANCH  12  16
ENDBRANCH   9  12
ENDBRANCH   6   9
ENDBRANCH   3   5
ENDBRANCH   2   3
BRANCH   2  23
ATOM     23  N   UNL     1       4.460  12.179  -4.795  1.00  0.00    -0.332 N 
ATOM     24  C   UNL     1       4.847  12.739  -6.082  1.00  0.00     0.147 C 
BRANCH  23  25
ATOM     25  C   UNL     1       4.066  10.744  -4.830  1.00  0.00     0.174 C 
BRANCH  25  26
ATOM     26  C   UNL     1       4.854   9.928  -5.881  1.00  0.00     0.038 C 
BRANCH  26  27
ATOM     27  C   UNL     1       4.516   8.425  -5.997  1.00  0.00    -0.015 C 
ATOM     28  C   UNL     1       4.177   8.011  -7.429  1.00  0.00     0.007 C 
ATOM     29  C   UNL     1       5.594   7.514  -5.415  1.00  0.00     0.007 C 
ENDBRANCH  26  27
ENDBRANCH  25  26
BRANCH  25  30
ATOM     30  C   UNL     1       2.531  10.617  -4.967  1.00  0.00     0.243 C 
ATOM     31  O   UNL     1       1.990  10.423  -6.054  1.00  0.00    -0.273 OA
ATOM     32  N   UNL     1       1.819  10.742  -3.802  1.00  0.00    -0.342 N 
ATOM     33  H   UNL     1       2.345  10.760  -2.925  1.00  0.00     0.164 HD
BRANCH  32  34
ATOM     34  C   UNL     1       0.356  10.677  -3.746  1.00  0.00     0.175 C 
BRANCH  34  35
ATOM     35  C   UNL     1      -0.133   9.229  -3.588  1.00  0.00     0.070 C 
BRANCH  35  36
ATOM     36  C   UNL     1      -0.152   8.772  -2.147  1.00  0.00    -0.045 A 
ATOM     37  C   UNL     1       1.055   8.550  -1.465  1.00  0.00     0.007 A 
ATOM     38  C   UNL     1      -1.363   8.542  -1.481  1.00  0.00     0.007 A 
ATOM     39  C   UNL     1       1.048   8.116  -0.139  1.00  0.00     0.046 A 
ATOM     40  C   UNL     1      -1.371   8.105  -0.154  1.00  0.00     0.046 A 
ATOM     41  C   UNL     1      -0.164   7.897   0.506  1.00  0.00     0.115 A 
BRANCH  41  42
ATOM     42  O   UNL     1      -0.127   7.470   1.800  1.00  0.00    -0.508 OA
ATOM     43  H   UNL     1      -1.020   7.552   2.174  1.00  0.00     0.293 HD
ENDBRANCH  41  42
ENDBRANCH  35  36
ENDBRANCH  34  35
BRANCH  34  44
ATOM     44  C   UNL     1      -0.120  11.577  -2.583  1.00  0.00     0.243 C 
ATOM     45  O   UNL     1      -1.287  11.908  -2.395  1.00  0.00    -0.273 OA
ATOM     46  N   UNL     1       0.914  12.094  -1.832  1.00  0.00    -0.341 N 
ATOM     47  H   UNL     1       1.873  11.884  -2.099  1.00  0.00     0.164 HD
BRANCH  46  48
ATOM     48  C   UNL     1       0.715  13.026  -0.720  1.00  0.00     0.196 C 
BRANCH  48  49
ATOM     49  C   UNL     1       0.708  12.293   0.631  1.00  0.00     0.072 C 
BRANCH  49  50
ATOM     50  C   UNL     1      -0.602  12.448   1.371  1.00  0.00    -0.045 A 
ATOM     51  C   UNL     1      -0.864  13.623   2.090  1.00  0.00     0.007 A 
ATOM     52  C   UNL     1      -1.557  11.423   1.368  1.00  0.00     0.007 A 
ATOM     53  C   UNL     1      -2.063  13.772   2.787  1.00  0.00     0.046 A 
ATOM     54  C   UNL     1      -2.757  11.572   2.067  1.00  0.00     0.046 A 
ATOM     55  C   UNL     1      -3.000  12.747   2.770  1.00  0.00     0.115 A 
BRANCH  55  56
ATOM     56  O   UNL     1      -4.159  12.931   3.465  1.00  0.00    -0.508 OA
ATOM     57  H   UNL     1      -3.934  13.095   4.395  1.00  0.00     0.293 HD
ENDBRANCH  55  56
ENDBRANCH  49  50
ENDBRANCH  48  49
BRANCH  48  58
ATOM     58  C   UNL     1       1.841  14.069  -0.734  1.00  0.00     0.326 C 
ATOM     59  O   UNL     1       1.798  15.198  -1.196  1.00  0.00    -0.250 OA
BRANCH  58  60
ATOM     60  O   UNL     1       2.984  13.639  -0.142  1.00  0.00    -0.480 OA
ATOM     61  H   UNL     1       3.578  13.459  -0.902  1.00  0.00     0.296 HD
ENDBRANCH  58  60
ENDBRANCH  48  58
ENDBRANCH  46  48
ENDBRANCH  34  44
ENDBRANCH  32  34
ENDBRANCH  25  30
ENDBRANCH  23  25
ENDBRANCH   2  23
TORSDOF 28
ENDMDL
MODEL 10
REMARK VINA RESULT:    -6.040      4.065      7.156
REMARK INTER + INTRA:         -21.302
REMARK INTER:                 -16.523
REMARK INTRA:                  -4.780
REMARK UNBOUND:                -6.258
REMARK SMILES CCCCCCC[C@H](N)[C@H](O)C(=O)N[C@H](C)C(=O)N(C)[C@H](CC(C)C)C(=O)N[C@@H](Cc1ccc(O)cc1)C(=O)N[C@@H](Cc1ccc(O)cc1)C(=O)O
REMARK SMILES IDX 18 1 17 2 15 3 16 4 14 5 12 6 13 7 10 9 11 10 8 12 9 13 7 16
REMARK SMILES IDX 6 17 5 18 4 19 3 20 2 21 1 22 19 23 20 24 21 25 22 26 23 27
REMARK SMILES IDX 24 28 25 29 26 30 27 31 28 32 29 34 30 35 31 36 32 37 37 38
REMARK SMILES IDX 33 39 36 40 34 41 35 42 38 44 39 45 40 46 41 48 42 49 43 50
REMARK SMILES IDX 44 51 49 52 45 53 48 54 46 55 47 56 50 58 51 59 52 60
REMARK H PARENT 14 8 11 11 9 14 9 15 28 33 35 43 40 47 47 57 52 61
ROOT
ATOM      1  O   UNL     1       3.350   8.909   2.605  1.00  0.00    -0.272 OA
ATOM      2  C   UNL     1       4.374   9.324   3.167  1.00  0.00     0.245 C 
ENDROOT
BRANCH   2   3
ATOM      3  C   UNL     1       4.683   8.833   4.603  1.00  0.00     0.168 C 
ATOM      4  C   UNL     1       3.503   9.100   5.532  1.00  0.00     0.041 C 
BRANCH   3   5
ATOM      5  N   UNL     1       5.142   7.456   4.692  1.00  0.00    -0.342 N 
ATOM      6  C   UNL     1       6.438   7.142   5.045  1.00  0.00     0.251 C 
ATOM      7  O   UNL     1       7.301   7.984   5.266  1.00  0.00    -0.272 OA
ATOM      8  H   UNL     1       4.525   6.671   4.497  1.00  0.00     0.164 HD
BRANCH   6   9
ATOM      9  C   UNL     1       6.658   5.630   5.214  1.00  0.00     0.219 C 
BRANCH   9  10
ATOM     10  O   UNL     1       8.014   5.238   4.968  1.00  0.00    -0.382 OA
ATOM     11  H   UNL     1       8.208   4.609   5.698  1.00  0.00     0.211 HD
ENDBRANCH   9  10
BRANCH   9  12
ATOM     12  C   UNL     1       6.169   5.093   6.585  1.00  0.00     0.089 C 
BRANCH  12  13
ATOM     13  N   UNL     1       5.777   6.247   7.426  1.00  0.00    -0.325 NA
ATOM     14  H   UNL     1       6.612   6.649   7.856  1.00  0.00     0.119 HD
ATOM     15  H   UNL     1       5.211   5.910   8.208  1.00  0.00     0.119 HD
ENDBRANCH  12  13
BRANCH  12  16
ATOM     16  C   UNL     1       5.022   4.056   6.537  1.00  0.00     0.022 C 
BRANCH  16  17
ATOM     17  C   UNL     1       3.887   4.150   7.566  1.00  0.00     0.002 C 
BRANCH  17  18
ATOM     18  C   UNL     1       3.011   2.904   7.675  1.00  0.00     0.000 C 
BRANCH  18  19
ATOM     19  C   UNL     1       1.667   3.144   8.375  1.00  0.00    -0.000 C 
BRANCH  19  20
ATOM     20  C   UNL     1       0.476   2.394   7.772  1.00  0.00    -0.000 C 
BRANCH  20  21
ATOM     21  C   UNL     1      -0.849   3.144   7.931  1.00  0.00    -0.003 C 
ATOM     22  C   UNL     1      -1.120   3.488   9.387  1.00  0.00     0.004 C 
ENDBRANCH  20  21
ENDBRANCH  19  20
ENDBRANCH  18  19
ENDBRANCH  17  18
ENDBRANCH  16  17
ENDBRANCH  12  16
ENDBRANCH   9  12
ENDBRANCH   6   9
ENDBRANCH   3   5
ENDBRANCH   2   3
BRANCH   2  23
ATOM     23  N   UNL     1       5.279  10.114   2.466  1.00  0.00    -0.332 N 
ATOM     24  C   UNL     1       6.652   9.733   2.170  1.00  0.00     0.147 C 
BRANCH  23  25
ATOM     25  C   UNL     1       4.837  11.394   1.847  1.00  0.00     0.174 C 
BRANCH  25  26
ATOM     26  C   UNL     1       5.893  12.518   1.968  1.00  0.00     0.038 C 
BRANCH  26  27
ATOM     27  C   UNL     1       6.337  13.205   0.658  1.00  0.00    -0.015 C 
ATOM     28  C   UNL     1       5.754  12.530  -0.583  1.00  0.00     0.007 C 
ATOM     29  C   UNL     1       6.058  14.706   0.634  1.00  0.00     0.007 C 
ENDBRANCH  26  27
ENDBRANCH  25  26
BRANCH  25  30
ATOM     30  C   UNL     1       3.443  11.791   2.383  1.00  0.00     0.243 C 
ATOM     31  O   UNL     1       3.288  12.252   3.513  1.00  0.00    -0.273 OA
ATOM     32  N   UNL     1       2.396  11.588   1.521  1.00  0.00    -0.342 N 
ATOM     33  H   UNL     1       2.620  11.336   0.555  1.00  0.00     0.164 HD
BRANCH  32  34
ATOM     34  C   UNL     1       1.003  11.881   1.869  1.00  0.00     0.175 C 
BRANCH  34  35
ATOM     35  C   UNL     1       0.479  13.103   1.099  1.00  0.00     0.070 C 
BRANCH  35  36
ATOM     36  C   UNL     1       1.074  13.220  -0.286  1.00  0.00    -0.045 A 
ATOM     37  C   UNL     1       2.157  14.083  -0.515  1.00  0.00     0.007 A 
ATOM     38  C   UNL     1       0.544  12.492  -1.360  1.00  0.00     0.007 A 
ATOM     39  C   UNL     1       2.703  14.208  -1.792  1.00  0.00     0.046 A 
ATOM     40  C   UNL     1       1.090  12.618  -2.640  1.00  0.00     0.046 A 
ATOM     41  C   UNL     1       2.167  13.475  -2.844  1.00  0.00     0.115 A 
BRANCH  41  42
ATOM     42  O   UNL     1       2.728  13.628  -4.077  1.00  0.00    -0.508 OA
ATOM     43  H   UNL     1       2.087  13.329  -4.743  1.00  0.00     0.293 HD
ENDBRANCH  41  42
ENDBRANCH  35  36
ENDBRANCH  34  35
BRANCH  34  44
ATOM     44  C   UNL     1       0.162  10.615   1.585  1.00  0.00     0.243 C 
ATOM     45  O   UNL     1      -0.989  10.445   1.975  1.00  0.00    -0.273 OA
ATOM     46  N   UNL     1       0.871   9.617   0.951  1.00  0.00    -0.341 N 
ATOM     47  H   UNL     1       1.858   9.762   0.752  1.00  0.00     0.164 HD
BRANCH  46  48
ATOM     48  C   UNL     1       0.307   8.302   0.639  1.00  0.00     0.196 C 
BRANCH  48  49
ATOM     49  C   UNL     1       0.889   7.739  -0.669  1.00  0.00     0.072 C 
BRANCH  49  50
ATOM     50  C   UNL     1       0.406   8.487  -1.891  1.00  0.00    -0.045 A 
ATOM     51  C   UNL     1      -0.906   8.982  -1.934  1.00  0.00     0.007 A 
ATOM     52  C   UNL     1       1.243   8.679  -2.997  1.00  0.00     0.007 A 
ATOM     53  C   UNL     1      -1.367   9.663  -3.061  1.00  0.00     0.046 A 
ATOM     54  C   UNL     1       0.781   9.359  -4.126  1.00  0.00     0.046 A 
ATOM     55  C   UNL     1      -0.521   9.846  -4.147  1.00  0.00     0.115 A 
BRANCH  55  56
ATOM     56  O   UNL     1      -1.011  10.515  -5.230  1.00  0.00    -0.508 OA
ATOM     57  H   UNL     1      -0.321  11.114  -5.558  1.00  0.00     0.293 HD
ENDBRANCH  55  56
ENDBRANCH  49  50
ENDBRANCH  48  49
BRANCH  48  58
ATOM     58  C   UNL     1       0.613   7.340   1.795  1.00  0.00     0.326 C 
ATOM     59  O   UNL     1      -0.060   7.148   2.795  1.00  0.00    -0.250 OA
BRANCH  58  60
ATOM     60  O   UNL     1       1.764   6.641   1.627  1.00  0.00    -0.480 OA
ATOM     61  H   UNL     1       1.950   6.738   0.668  1.00  0.00     0.296 HD
ENDBRANCH  58  60
ENDBRANCH  48  58
ENDBRANCH  46  48
ENDBRANCH  34  44
ENDBRANCH  32  34
ENDBRANCH  25  30
ENDBRANCH  23  25
ENDBRANCH   2  23
TORSDOF 28
ENDMDL
