MODEL 1
REMARK VINA RESULT:    -6.078      0.000      0.000
REMARK INTER + INTRA:         -27.366
REMARK INTER:                 -18.160
REMARK INTRA:                  -9.206
REMARK UNBOUND:                -9.206
REMARK SMILES C=C1C(=O)N[C@H](C)C(=O)N[C@@H](CC(C)C)C(=O)N[C@@H](C(=O)O)[C@H](C)C(=O)N[C@@H](CCCN=C(N)N)C(=O)N[C@@H](/C=C/C(C)=C/[C@H](C)[C@H](Cc2ccccc2)OC)[C@H](C)C(=O)N[C@@H](C(=O)O)CCC(=O)N1C
REMARK SMILES IDX 39 1 38 2 37 3 36 4 28 6 27 7 25 8 26 9 23 11 24 12 19 13
REMARK SMILES IDX 18 14 16 15 17 16 11 18 10 19 8 20 9 21 12 24 13 25 14 26
REMARK SMILES IDX 15 27 20 28 21 29 22 30 29 32 30 33 31 34 32 35 33 36 34 37
REMARK SMILES IDX 35 38 57 43 58 44 59 45 60 46 61 47 62 49 66 50 67 51 68 52
REMARK SMILES IDX 69 53 70 54 71 55 2 56 1 57 3 58 4 59 5 60 6 62 7 63 63 65
REMARK SMILES IDX 64 66 65 67 40 69 41 70 42 71 44 72 43 73 45 74 46 75 47 76
REMARK SMILES IDX 55 77 56 78 48 79 49 80 50 81 54 82 51 83 53 84 52 85
REMARK H PARENT 38 5 27 10 18 17 10 22 22 31 34 39 34 40 35 41 35 42 61 48
REMARK H PARENT 5 61 65 68
REMARK Flexibility Score:  369.900
ROOT
ATOM      1  C   UNL     1       3.987   8.174   0.025  1.00  0.00     0.117 C 
ENDROOT
BRANCH   1   2
ATOM      2  N   UNL     1       5.385   7.820  -0.222  1.00  0.00    -0.347 N 
ATOM      3  O   UNL     1       6.205   9.948  -0.484  1.00  0.00    -0.273 OA
ATOM      4  C   UNL     1       6.402   8.744  -0.367  1.00  0.00     0.243 C 
ATOM      5  H   UNL     1       5.653   6.848  -0.244  1.00  0.00     0.164 HD
BRANCH   4   6
ATOM      6  C   UNL     1       7.805   8.105  -0.534  1.00  0.00     0.171 C 
BRANCH   6   7
ATOM      7  N   UNL     1       7.868   7.320  -1.777  1.00  0.00    -0.344 N 
ATOM      8  C   UNL     1       8.763   6.280  -1.906  1.00  0.00     0.226 C 
ATOM      9  O   UNL     1       9.554   5.976  -1.021  1.00  0.00    -0.275 OA
ATOM     10  H   UNL     1       7.277   7.584  -2.555  1.00  0.00     0.164 HD
BRANCH   8  11
ATOM     11  C   UNL     1       8.668   5.533  -3.225  1.00  0.00     0.109 C 
ATOM     12  C   UNL     1       9.876   4.613  -3.396  1.00  0.00     0.021 C 
BRANCH  11  13
ATOM     13  C   UNL     1       7.299   4.833  -3.330  1.00  0.00     0.204 C 
BRANCH  13  14
ATOM     14  N   UNL     1       7.316   3.731  -4.297  1.00  0.00    -0.340 N 
ATOM     15  C   UNL     1       7.139   3.920  -5.650  1.00  0.00     0.243 C 
ATOM     16  O   UNL     1       7.016   5.036  -6.151  1.00  0.00    -0.273 OA
ATOM     17  H   UNL     1       7.262   2.774  -3.936  1.00  0.00     0.164 HD
BRANCH  15  18
ATOM     18  C   UNL     1       6.987   2.599  -6.445  1.00  0.00     0.171 C 
BRANCH  18  19
ATOM     19  N   UNL     1       8.335   2.069  -6.637  1.00  0.00    -0.343 N 
ATOM     20  C   UNL     1       9.068   2.337  -7.777  1.00  0.00     0.242 CG0
ATOM     21  O   UNL     1       8.573   2.922  -8.737  1.00  0.00    -0.273 OA
ATOM     22  H   UNL     1       8.746   1.482  -5.920  1.00  0.00     0.164 HD
ATOM     23  G   UNL     1      10.498   1.758  -7.766  1.00  0.00     0.000 G0
ENDBRANCH  18  19
BRANCH  18  24
ATOM     24  C   UNL     1       6.097   1.609  -5.684  1.00  0.00     0.038 C 
BRANCH  24  25
ATOM     25  C   UNL     1       4.595   1.697  -6.027  1.00  0.00    -0.015 C 
ATOM     26  C   UNL     1       3.885   0.349  -5.900  1.00  0.00     0.007 C 
ATOM     27  C   UNL     1       4.423   2.238  -7.449  1.00  0.00     0.007 C 
ENDBRANCH  24  25
ENDBRANCH  18  24
ENDBRANCH  15  18
ENDBRANCH  13  14
BRANCH  13  28
ATOM     28  C   UNL     1       6.811   4.259  -1.996  1.00  0.00     0.327 C 
ATOM     29  O   UNL     1       6.073   4.815  -1.197  1.00  0.00    -0.250 OA
BRANCH  28  30
ATOM     30  O   UNL     1       7.374   3.072  -1.693  1.00  0.00    -0.480 OA
ATOM     31  H   UNL     1       6.759   2.410  -2.071  1.00  0.00     0.296 HD
ENDBRANCH  28  30
ENDBRANCH  13  28
ENDBRANCH  11  13
ENDBRANCH   8  11
ENDBRANCH   6   7
BRANCH   6  32
ATOM     32  C   UNL     1       8.865   9.212  -0.531  1.00  0.00     0.037 C 
BRANCH  32  33
ATOM     33  C   UNL     1       9.844   9.073   0.643  1.00  0.00     0.026 C 
BRANCH  33  34
ATOM     34  C   UNL     1       9.814  10.284   1.576  1.00  0.00     0.146 C 
BRANCH  34  35
ATOM     35  N   UNL     1       9.033   9.948   2.758  1.00  0.00    -0.254 NA
ATOM     36  C   UNL     1       7.863  10.454   2.886  1.00  0.00     0.185 C 
ATOM     37  N   UNL     1       7.132  10.146   3.968  1.00  0.00    -0.370 N 
ATOM     38  N   UNL     1       7.211  11.293   2.061  1.00  0.00    -0.370 N 
ATOM     39  H   UNL     1       7.552   9.510   4.634  1.00  0.00     0.159 HD
ATOM     40  H   UNL     1       6.153  10.359   4.057  1.00  0.00     0.159 HD
ATOM     41  H   UNL     1       6.349  11.732   2.340  1.00  0.00     0.159 HD
ATOM     42  H   UNL     1       7.647  11.622   1.214  1.00  0.00     0.159 HD
ENDBRANCH  34  35
ENDBRANCH  33  34
ENDBRANCH  32  33
ENDBRANCH   6  32
ENDBRANCH   4   6
ENDBRANCH   1   2
BRANCH   1  43
ATOM     43  C   UNL     1       3.736   8.155   1.561  1.00  0.00     0.102 C 
ATOM     44  C   UNL     1       3.968   9.518   2.236  1.00  0.00     0.020 C 
BRANCH  43  45
ATOM     45  C   UNL     1       4.485   6.997   2.226  1.00  0.00     0.225 C 
ATOM     46  O   UNL     1       4.349   5.825   1.885  1.00  0.00    -0.275 OA
ATOM     47  N   UNL     1       5.262   7.338   3.310  1.00  0.00    -0.342 N 
ATOM     48  H   UNL     1       5.482   8.309   3.481  1.00  0.00     0.164 HD
BRANCH  47  49
ATOM     49  C   UNL     1       6.064   6.339   4.023  1.00  0.00     0.192 C 
BRANCH  49  50
ATOM     50  C   UNL     1       6.267   6.784   5.474  1.00  0.00     0.047 C 
BRANCH  50  51
ATOM     51  C   UNL     1       5.253   6.137   6.428  1.00  0.00     0.103 C 
BRANCH  51  52
ATOM     52  C   UNL     1       5.919   5.599   7.693  1.00  0.00     0.226 C 
ATOM     53  O   UNL     1       6.889   4.845   7.599  1.00  0.00    -0.275 OA
BRANCH  52  54
ATOM     54  N   UNL     1       5.412   6.073   8.918  1.00  0.00    -0.311 N 
ATOM     55  C   UNL     1       4.100   5.635   9.413  1.00  0.00     0.153 C 
BRANCH  54  56
ATOM     56  C   UNL     1       6.141   6.974   9.712  1.00  0.00     0.102 C 
ATOM     57  C   UNL     1       6.121   8.310   9.574  1.00  0.00     0.043 C 
BRANCH  56  58
ATOM     58  C   UNL     1       6.999   6.482  10.854  1.00  0.00     0.268 C 
ATOM     59  O   UNL     1       7.533   5.381  10.864  1.00  0.00    -0.268 OA
ATOM     60  N   UNL     1       7.169   7.419  11.844  1.00  0.00    -0.339 N 
ATOM     61  H   UNL     1       6.683   8.304  11.766  1.00  0.00     0.164 HD
BRANCH  60  62
ATOM     62  C   UNL     1       8.014   7.173  13.012  1.00  0.00     0.168 CG0
ATOM     63  C   UNL     1       7.340   7.663  14.288  1.00  0.00     0.041 C 
ATOM     64  G   UNL     1       9.380   7.864  12.817  1.00  0.00     0.000 G0
ENDBRANCH  60  62
ENDBRANCH  56  58
ENDBRANCH  54  56
ENDBRANCH  52  54
ENDBRANCH  51  52
ENDBRANCH  50  51
ENDBRANCH  49  50
BRANCH  49  65
ATOM     65  C   UNL     1       7.433   6.132   3.358  1.00  0.00     0.326 C 
ATOM     66  O   UNL     1       7.779   5.136   2.739  1.00  0.00    -0.250 OA
BRANCH  65  67
ATOM     67  O   UNL     1       8.312   7.140   3.549  1.00  0.00    -0.480 OA
ATOM     68  H   UNL     1       7.911   7.661   4.279  1.00  0.00     0.296 HD
ENDBRANCH  65  67
ENDBRANCH  49  65
ENDBRANCH  47  49
ENDBRANCH  43  45
ENDBRANCH   1  43
BRANCH   1  69
ATOM     69  C   UNL     1       3.156   7.268  -0.865  1.00  0.00    -0.001 C 
ATOM     70  C   UNL     1       1.901   7.477  -1.300  1.00  0.00     0.001 C 
BRANCH  70  71
ATOM     71  C   UNL     1       1.117   6.605  -2.177  1.00  0.00    -0.055 C 
ATOM     72  C   UNL     1       0.907   5.334  -1.773  1.00  0.00    -0.018 C 
ATOM     73  C   UNL     1       0.594   7.189  -3.463  1.00  0.00     0.044 C 
BRANCH  72  74
ATOM     74  C   UNL     1       0.138   4.218  -2.465  1.00  0.00     0.038 C 
ATOM     75  C   UNL     1      -1.176   4.030  -1.698  1.00  0.00     0.015 C 
BRANCH  74  76
ATOM     76  C   UNL     1       1.043   2.953  -2.531  1.00  0.00     0.128 C 
BRANCH  76  77
ATOM     77  O   UNL     1       0.307   1.800  -2.089  1.00  0.00    -0.381 OA
ATOM     78  C   UNL     1       0.596   0.620  -2.826  1.00  0.00     0.195 C 
ENDBRANCH  76  77
BRANCH  76  79
ATOM     79  C   UNL     1       1.725   2.737  -3.905  1.00  0.00     0.068 C 
BRANCH  79  80
ATOM     80  C   UNL     1       2.319   3.941  -4.596  1.00  0.00    -0.045 A 
ATOM     81  C   UNL     1       3.449   4.587  -4.077  1.00  0.00     0.004 A 
ATOM     82  C   UNL     1       1.727   4.451  -5.761  1.00  0.00     0.004 A 
ATOM     83  C   UNL     1       3.984   5.708  -4.715  1.00  0.00     0.000 A 
ATOM     84  C   UNL     1       2.262   5.573  -6.397  1.00  0.00     0.000 A 
ATOM     85  C   UNL     1       3.391   6.200  -5.875  1.00  0.00     0.000 A 
ENDBRANCH  79  80
ENDBRANCH  76  79
ENDBRANCH  74  76
ENDBRANCH  72  74
ENDBRANCH  70  71
ENDBRANCH   1  69
TORSDOF 17
ENDMDL
MODEL 2
REMARK VINA RESULT:    -5.787      3.631      4.905
REMARK INTER + INTRA:         -26.497
REMARK INTER:                 -18.691
REMARK INTRA:                  -7.806
REMARK UNBOUND:                -9.206
REMARK SMILES C=C1C(=O)N[C@H](C)C(=O)N[C@@H](CC(C)C)C(=O)N[C@@H](C(=O)O)[C@H](C)C(=O)N[C@@H](CCCN=C(N)N)C(=O)N[C@@H](/C=C/C(C)=C/[C@H](C)[C@H](Cc2ccccc2)OC)[C@H](C)C(=O)N[C@@H](C(=O)O)CCC(=O)N1C
REMARK SMILES IDX 39 1 38 2 37 3 36 4 28 6 27 7 25 8 26 9 23 11 24 12 19 13
REMARK SMILES IDX 18 14 16 15 17 16 11 18 10 19 8 20 9 21 12 24 13 25 14 26
REMARK SMILES IDX 15 27 20 28 21 29 22 30 29 32 30 33 31 34 32 35 33 36 34 37
REMARK SMILES IDX 35 38 57 43 58 44 59 45 60 46 61 47 62 49 66 50 67 51 68 52
REMARK SMILES IDX 69 53 70 54 71 55 2 56 1 57 3 58 4 59 5 60 6 62 7 63 63 65
REMARK SMILES IDX 64 66 65 67 40 69 41 70 42 71 44 72 43 73 45 74 46 75 47 76
REMARK SMILES IDX 55 77 56 78 48 79 49 80 50 81 54 82 51 83 53 84 52 85
REMARK H PARENT 38 5 27 10 18 17 10 22 22 31 34 39 34 40 35 41 35 42 61 48
REMARK H PARENT 5 61 65 68
REMARK Flexibility Score:  369.900
ROOT
ATOM      1  C   UNL     1       4.050   8.791   0.730  1.00  0.00     0.117 C 
ENDROOT
BRANCH   1   2
ATOM      2  N   UNL     1       5.379   8.242   0.459  1.00  0.00    -0.347 N 
ATOM      3  O   UNL     1       6.246  10.054  -0.652  1.00  0.00    -0.273 OA
ATOM      4  C   UNL     1       6.405   8.954  -0.132  1.00  0.00     0.243 C 
ATOM      5  H   UNL     1       5.597   7.303   0.758  1.00  0.00     0.164 HD
BRANCH   4   6
ATOM      6  C   UNL     1       7.737   8.168  -0.226  1.00  0.00     0.171 C 
BRANCH   6   7
ATOM      7  N   UNL     1       7.823   7.453  -1.510  1.00  0.00    -0.344 N 
ATOM      8  C   UNL     1       8.667   6.374  -1.658  1.00  0.00     0.226 C 
ATOM      9  O   UNL     1       9.393   5.975  -0.755  1.00  0.00    -0.275 OA
ATOM     10  H   UNL     1       7.289   7.795  -2.299  1.00  0.00     0.164 HD
BRANCH   8  11
ATOM     11  C   UNL     1       8.602   5.711  -3.023  1.00  0.00     0.109 C 
ATOM     12  C   UNL     1       9.872   4.899  -3.275  1.00  0.00     0.021 C 
BRANCH  11  13
ATOM     13  C   UNL     1       7.287   4.916  -3.153  1.00  0.00     0.204 C 
BRANCH  13  14
ATOM     14  N   UNL     1       7.379   3.861  -4.168  1.00  0.00    -0.340 N 
ATOM     15  C   UNL     1       7.199   4.099  -5.513  1.00  0.00     0.243 C 
ATOM     16  O   UNL     1       7.008   5.227  -5.964  1.00  0.00    -0.273 OA
ATOM     17  H   UNL     1       7.384   2.888  -3.850  1.00  0.00     0.164 HD
BRANCH  15  18
ATOM     18  C   UNL     1       7.135   2.808  -6.366  1.00  0.00     0.171 C 
BRANCH  18  19
ATOM     19  N   UNL     1       8.475   2.225  -6.344  1.00  0.00    -0.343 N 
ATOM     20  C   UNL     1       9.418   2.527  -7.308  1.00  0.00     0.242 CG0
ATOM     21  O   UNL     1       9.133   3.193  -8.300  1.00  0.00    -0.273 OA
ATOM     22  H   UNL     1       8.723   1.576  -5.606  1.00  0.00     0.164 HD
ATOM     23  G   UNL     1      10.798   1.878  -7.075  1.00  0.00     0.000 G0
ENDBRANCH  18  19
BRANCH  18  24
ATOM     24  C   UNL     1       6.090   1.838  -5.803  1.00  0.00     0.038 C 
BRANCH  24  25
ATOM     25  C   UNL     1       4.625   2.251  -6.054  1.00  0.00    -0.015 C 
ATOM     26  C   UNL     1       3.656   1.074  -5.939  1.00  0.00     0.007 C 
ATOM     27  C   UNL     1       4.500   2.888  -7.441  1.00  0.00     0.007 C 
ENDBRANCH  24  25
ENDBRANCH  18  24
ENDBRANCH  15  18
ENDBRANCH  13  14
BRANCH  13  28
ATOM     28  C   UNL     1       6.852   4.250  -1.844  1.00  0.00     0.327 C 
ATOM     29  O   UNL     1       6.097   4.722  -1.009  1.00  0.00    -0.250 OA
BRANCH  28  30
ATOM     30  O   UNL     1       7.486   3.083  -1.609  1.00  0.00    -0.480 OA
ATOM     31  H   UNL     1       8.190   3.316  -0.969  1.00  0.00     0.296 HD
ENDBRANCH  28  30
ENDBRANCH  13  28
ENDBRANCH  11  13
ENDBRANCH   8  11
ENDBRANCH   6   7
BRANCH   6  32
ATOM     32  C   UNL     1       8.909   9.142  -0.062  1.00  0.00     0.037 C 
BRANCH  32  33
ATOM     33  C   UNL     1       8.983   9.725   1.356  1.00  0.00     0.026 C 
BRANCH  33  34
ATOM     34  C   UNL     1       9.634  11.109   1.386  1.00  0.00     0.146 C 
BRANCH  34  35
ATOM     35  N   UNL     1       8.662  12.095   0.936  1.00  0.00    -0.254 NA
ATOM     36  C   UNL     1       9.012  13.327   0.891  1.00  0.00     0.185 C 
ATOM     37  N   UNL     1       8.125  14.243   0.473  1.00  0.00    -0.370 N 
ATOM     38  N   UNL     1      10.194  13.881   1.211  1.00  0.00    -0.370 N 
ATOM     39  H   UNL     1       7.212  13.902   0.203  1.00  0.00     0.159 HD
ATOM     40  H   UNL     1       8.371  15.191   0.245  1.00  0.00     0.159 HD
ATOM     41  H   UNL     1      10.303  14.880   1.266  1.00  0.00     0.159 HD
ATOM     42  H   UNL     1      10.951  13.311   1.557  1.00  0.00     0.159 HD
ENDBRANCH  34  35
ENDBRANCH  33  34
ENDBRANCH  32  33
ENDBRANCH   6  32
ENDBRANCH   4   6
ENDBRANCH   1   2
BRANCH   1  43
ATOM     43  C   UNL     1       3.939   9.088   2.253  1.00  0.00     0.102 C 
ATOM     44  C   UNL     1       4.922  10.166   2.740  1.00  0.00     0.020 C 
BRANCH  43  45
ATOM     45  C   UNL     1       3.981   7.794   3.071  1.00  0.00     0.225 C 
ATOM     46  O   UNL     1       4.913   6.997   3.018  1.00  0.00    -0.275 OA
ATOM     47  N   UNL     1       2.853   7.524   3.812  1.00  0.00    -0.342 N 
ATOM     48  H   UNL     1       2.169   8.252   3.964  1.00  0.00     0.164 HD
BRANCH  47  49
ATOM     49  C   UNL     1       2.766   6.339   4.670  1.00  0.00     0.192 C 
BRANCH  49  50
ATOM     50  C   UNL     1       1.312   5.865   4.747  1.00  0.00     0.047 C 
BRANCH  50  51
ATOM     51  C   UNL     1       0.880   5.107   3.484  1.00  0.00     0.103 C 
BRANCH  51  52
ATOM     52  C   UNL     1      -0.184   4.052   3.784  1.00  0.00     0.226 C 
ATOM     53  O   UNL     1       0.157   2.892   4.022  1.00  0.00    -0.275 OA
BRANCH  52  54
ATOM     54  N   UNL     1      -1.515   4.505   3.845  1.00  0.00    -0.311 N 
ATOM     55  C   UNL     1      -2.253   4.849   2.622  1.00  0.00     0.153 C 
BRANCH  54  56
ATOM     56  C   UNL     1      -2.188   4.639   5.071  1.00  0.00     0.102 C 
ATOM     57  C   UNL     1      -2.371   5.798   5.724  1.00  0.00     0.043 C 
BRANCH  56  58
ATOM     58  C   UNL     1      -2.818   3.442   5.744  1.00  0.00     0.268 C 
ATOM     59  O   UNL     1      -3.018   2.380   5.171  1.00  0.00    -0.268 OA
ATOM     60  N   UNL     1      -3.080   3.649   7.077  1.00  0.00    -0.339 N 
ATOM     61  H   UNL     1      -2.895   4.562   7.474  1.00  0.00     0.164 HD
BRANCH  60  62
ATOM     62  C   UNL     1      -3.633   2.600   7.933  1.00  0.00     0.168 CG0
ATOM     63  C   UNL     1      -5.156   2.599   7.884  1.00  0.00     0.041 C 
ATOM     64  G   UNL     1      -3.133   2.797   9.380  1.00  0.00     0.000 G0
ENDBRANCH  60  62
ENDBRANCH  56  58
ENDBRANCH  54  56
ENDBRANCH  52  54
ENDBRANCH  51  52
ENDBRANCH  50  51
ENDBRANCH  49  50
BRANCH  49  65
ATOM     65  C   UNL     1       3.282   6.628   6.089  1.00  0.00     0.326 C 
ATOM     66  O   UNL     1       2.602   6.633   7.105  1.00  0.00    -0.250 OA
BRANCH  65  67
ATOM     67  O   UNL     1       4.592   6.952   6.157  1.00  0.00    -0.480 OA
ATOM     68  H   UNL     1       4.740   7.117   7.113  1.00  0.00     0.296 HD
ENDBRANCH  65  67
ENDBRANCH  49  65
ENDBRANCH  47  49
ENDBRANCH  43  45
ENDBRANCH   1  43
BRANCH   1  69
ATOM     69  C   UNL     1       3.058   7.833   0.095  1.00  0.00    -0.001 C 
ATOM     70  C   UNL     1       2.523   7.909  -1.136  1.00  0.00     0.001 C 
BRANCH  70  71
ATOM     71  C   UNL     1       1.583   6.967  -1.746  1.00  0.00    -0.055 C 
ATOM     72  C   UNL     1       1.493   5.733  -1.208  1.00  0.00    -0.018 C 
ATOM     73  C   UNL     1       0.776   7.444  -2.926  1.00  0.00     0.044 C 
BRANCH  72  74
ATOM     74  C   UNL     1       0.613   4.562  -1.623  1.00  0.00     0.038 C 
ATOM     75  C   UNL     1      -0.521   4.462  -0.595  1.00  0.00     0.015 C 
BRANCH  74  76
ATOM     76  C   UNL     1       1.499   3.288  -1.745  1.00  0.00     0.128 C 
BRANCH  76  77
ATOM     77  O   UNL     1       0.844   2.173  -1.117  1.00  0.00    -0.381 OA
ATOM     78  C   UNL     1       0.623   1.074  -1.991  1.00  0.00     0.195 C 
ENDBRANCH  76  77
BRANCH  76  79
ATOM     79  C   UNL     1       1.957   2.976  -3.192  1.00  0.00     0.068 C 
BRANCH  79  80
ATOM     80  C   UNL     1       2.404   4.131  -4.056  1.00  0.00    -0.045 A 
ATOM     81  C   UNL     1       3.596   4.816  -3.786  1.00  0.00     0.004 A 
ATOM     82  C   UNL     1       1.611   4.556  -5.133  1.00  0.00     0.004 A 
ATOM     83  C   UNL     1       3.995   5.892  -4.582  1.00  0.00     0.000 A 
ATOM     84  C   UNL     1       2.011   5.632  -5.928  1.00  0.00     0.000 A 
ATOM     85  C   UNL     1       3.203   6.299  -5.653  1.00  0.00     0.000 A 
ENDBRANCH  79  80
ENDBRANCH  76  79
ENDBRANCH  74  76
ENDBRANCH  72  74
ENDBRANCH  70  71
ENDBRANCH   1  69
TORSDOF 17
ENDMDL
MODEL 3
REMARK VINA RESULT:    -5.769      3.801     13.227
REMARK INTER + INTRA:         -26.443
REMARK INTER:                 -19.026
REMARK INTRA:                  -7.417
REMARK UNBOUND:                -9.206
REMARK SMILES C=C1C(=O)N[C@H](C)C(=O)N[C@@H](CC(C)C)C(=O)N[C@@H](C(=O)O)[C@H](C)C(=O)N[C@@H](CCCN=C(N)N)C(=O)N[C@@H](/C=C/C(C)=C/[C@H](C)[C@H](Cc2ccccc2)OC)[C@H](C)C(=O)N[C@@H](C(=O)O)CCC(=O)N1C
REMARK SMILES IDX 39 1 38 2 37 3 36 4 28 6 27 7 25 8 26 9 23 11 24 12 19 13
REMARK SMILES IDX 18 14 16 15 17 16 11 18 10 19 8 20 9 21 12 24 13 25 14 26
REMARK SMILES IDX 15 27 20 28 21 29 22 30 29 32 30 33 31 34 32 35 33 36 34 37
REMARK SMILES IDX 35 38 57 43 58 44 59 45 60 46 61 47 62 49 66 50 67 51 68 52
REMARK SMILES IDX 69 53 70 54 71 55 2 56 1 57 3 58 4 59 5 60 6 62 7 63 63 65
REMARK SMILES IDX 64 66 65 67 40 69 41 70 42 71 44 72 43 73 45 74 46 75 47 76
REMARK SMILES IDX 55 77 56 78 48 79 49 80 50 81 54 82 51 83 53 84 52 85
REMARK H PARENT 38 5 27 10 18 17 10 22 22 31 34 39 34 40 35 41 35 42 61 48
REMARK H PARENT 5 61 65 68
REMARK Flexibility Score:  369.900
ROOT
ATOM      1  C   UNL     1       6.241   7.292   3.320  1.00  0.00     0.117 C 
ENDROOT
BRANCH   1   2
ATOM      2  N   UNL     1       5.053   6.887   4.073  1.00  0.00    -0.347 N 
ATOM      3  O   UNL     1       4.073   5.600   2.444  1.00  0.00    -0.273 OA
ATOM      4  C   UNL     1       4.107   5.996   3.604  1.00  0.00     0.243 C 
ATOM      5  H   UNL     1       4.923   7.229   5.013  1.00  0.00     0.164 HD
BRANCH   4   6
ATOM      6  C   UNL     1       2.994   5.670   4.633  1.00  0.00     0.171 C 
BRANCH   6   7
ATOM      7  N   UNL     1       3.455   5.964   5.999  1.00  0.00    -0.344 N 
ATOM      8  C   UNL     1       3.018   5.208   7.066  1.00  0.00     0.226 C 
ATOM      9  O   UNL     1       2.222   4.285   6.939  1.00  0.00    -0.275 OA
ATOM     10  H   UNL     1       4.060   6.761   6.153  1.00  0.00     0.164 HD
BRANCH   8  11
ATOM     11  C   UNL     1       3.625   5.600   8.401  1.00  0.00     0.109 C 
ATOM     12  C   UNL     1       5.094   5.984   8.218  1.00  0.00     0.021 C 
BRANCH  11  13
ATOM     13  C   UNL     1       2.752   6.678   9.074  1.00  0.00     0.204 C 
BRANCH  13  14
ATOM     14  N   UNL     1       3.203   8.035   8.750  1.00  0.00    -0.340 N 
ATOM     15  C   UNL     1       3.024   9.106   9.599  1.00  0.00     0.243 C 
ATOM     16  O   UNL     1       2.527   8.986  10.718  1.00  0.00    -0.273 OA
ATOM     17  H   UNL     1       3.483   8.231   7.786  1.00  0.00     0.164 HD
BRANCH  15  18
ATOM     18  C   UNL     1       3.389  10.469   8.962  1.00  0.00     0.171 C 
BRANCH  18  19
ATOM     19  N   UNL     1       2.904  11.501   9.875  1.00  0.00    -0.343 N 
ATOM     20  C   UNL     1       2.326  12.668   9.414  1.00  0.00     0.242 CG0
ATOM     21  O   UNL     1       2.312  12.952   8.218  1.00  0.00    -0.273 OA
ATOM     22  H   UNL     1       2.998  11.365  10.875  1.00  0.00     0.164 HD
ATOM     23  G   UNL     1       1.803  13.602  10.525  1.00  0.00     0.000 G0
ENDBRANCH  18  19
BRANCH  18  24
ATOM     24  C   UNL     1       4.903  10.577   8.744  1.00  0.00     0.038 C 
BRANCH  24  25
ATOM     25  C   UNL     1       5.747  10.490  10.034  1.00  0.00    -0.015 C 
ATOM     26  C   UNL     1       6.625  11.725  10.243  1.00  0.00     0.007 C 
ATOM     27  C   UNL     1       6.624   9.236   9.992  1.00  0.00     0.007 C 
ENDBRANCH  24  25
ENDBRANCH  18  24
ENDBRANCH  15  18
ENDBRANCH  13  14
BRANCH  13  28
ATOM     28  C   UNL     1       1.273   6.586   8.686  1.00  0.00     0.327 C 
ATOM     29  O   UNL     1       0.412   5.945   9.268  1.00  0.00    -0.250 OA
BRANCH  28  30
ATOM     30  O   UNL     1       0.992   7.209   7.523  1.00  0.00    -0.480 OA
ATOM     31  H   UNL     1       1.144   6.523   6.840  1.00  0.00     0.296 HD
ENDBRANCH  28  30
ENDBRANCH  13  28
ENDBRANCH  11  13
ENDBRANCH   8  11
ENDBRANCH   6   7
BRANCH   6  32
ATOM     32  C   UNL     1       1.740   6.483   4.292  1.00  0.00     0.037 C 
BRANCH  32  33
ATOM     33  C   UNL     1       0.613   5.602   3.734  1.00  0.00     0.026 C 
BRANCH  33  34
ATOM     34  C   UNL     1      -0.688   5.747   4.524  1.00  0.00     0.146 C 
BRANCH  34  35
ATOM     35  N   UNL     1      -0.508   5.151   5.840  1.00  0.00    -0.254 NA
ATOM     36  C   UNL     1      -1.541   4.737   6.474  1.00  0.00     0.185 C 
ATOM     37  N   UNL     1      -1.386   4.181   7.686  1.00  0.00    -0.370 N 
ATOM     38  N   UNL     1      -2.832   4.771   6.099  1.00  0.00    -0.370 N 
ATOM     39  H   UNL     1      -0.438   4.109   8.035  1.00  0.00     0.159 HD
ATOM     40  H   UNL     1      -2.114   3.680   8.165  1.00  0.00     0.159 HD
ATOM     41  H   UNL     1      -3.569   4.541   6.746  1.00  0.00     0.159 HD
ATOM     42  H   UNL     1      -3.099   5.177   5.216  1.00  0.00     0.159 HD
ENDBRANCH  34  35
ENDBRANCH  33  34
ENDBRANCH  32  33
ENDBRANCH   6  32
ENDBRANCH   4   6
ENDBRANCH   1   2
BRANCH   1  43
ATOM     43  C   UNL     1       7.263   6.119   3.340  1.00  0.00     0.102 C 
ATOM     44  C   UNL     1       8.461   6.367   4.272  1.00  0.00     0.020 C 
BRANCH  43  45
ATOM     45  C   UNL     1       7.657   5.709   1.917  1.00  0.00     0.225 C 
ATOM     46  O   UNL     1       8.721   6.032   1.397  1.00  0.00    -0.275 OA
ATOM     47  N   UNL     1       6.695   5.025   1.210  1.00  0.00    -0.342 N 
ATOM     48  H   UNL     1       5.897   4.639   1.695  1.00  0.00     0.164 HD
BRANCH  47  49
ATOM     49  C   UNL     1       6.945   4.538  -0.150  1.00  0.00     0.192 C 
BRANCH  49  50
ATOM     50  C   UNL     1       6.447   5.570  -1.165  1.00  0.00     0.047 C 
BRANCH  50  51
ATOM     51  C   UNL     1       7.599   6.243  -1.924  1.00  0.00     0.103 C 
BRANCH  51  52
ATOM     52  C   UNL     1       8.514   5.224  -2.599  1.00  0.00     0.226 C 
ATOM     53  O   UNL     1       9.646   5.031  -2.152  1.00  0.00    -0.275 OA
BRANCH  52  54
ATOM     54  N   UNL     1       7.962   4.499  -3.671  1.00  0.00    -0.311 N 
ATOM     55  C   UNL     1       6.874   5.061  -4.484  1.00  0.00     0.153 C 
BRANCH  54  56
ATOM     56  C   UNL     1       8.430   3.218  -4.007  1.00  0.00     0.102 C 
ATOM     57  C   UNL     1       8.227   2.109  -3.278  1.00  0.00     0.043 C 
BRANCH  56  58
ATOM     58  C   UNL     1       9.190   2.983  -5.292  1.00  0.00     0.268 C 
ATOM     59  O   UNL     1      10.345   3.349  -5.463  1.00  0.00    -0.268 OA
ATOM     60  N   UNL     1       8.475   2.262  -6.218  1.00  0.00    -0.339 N 
ATOM     61  H   UNL     1       7.519   2.006  -6.004  1.00  0.00     0.164 HD
BRANCH  60  62
ATOM     62  C   UNL     1       9.043   1.869  -7.507  1.00  0.00     0.168 CG0
ATOM     63  C   UNL     1       7.974   1.848  -8.593  1.00  0.00     0.041 C 
ATOM     64  G   UNL     1       9.715   0.487  -7.376  1.00  0.00     0.000 G0
ENDBRANCH  60  62
ENDBRANCH  56  58
ENDBRANCH  54  56
ENDBRANCH  52  54
ENDBRANCH  51  52
ENDBRANCH  50  51
ENDBRANCH  49  50
BRANCH  49  65
ATOM     65  C   UNL     1       6.248   3.193  -0.408  1.00  0.00     0.326 C 
ATOM     66  O   UNL     1       5.428   2.975  -1.288  1.00  0.00    -0.250 OA
BRANCH  65  67
ATOM     67  O   UNL     1       6.561   2.218   0.474  1.00  0.00    -0.480 OA
ATOM     68  H   UNL     1       7.463   2.461   0.777  1.00  0.00     0.296 HD
ENDBRANCH  65  67
ENDBRANCH  49  65
ENDBRANCH  47  49
ENDBRANCH  43  45
ENDBRANCH   1  43
BRANCH   1  69
ATOM     69  C   UNL     1       6.659   8.639   3.881  1.00  0.00    -0.001 C 
ATOM     70  C   UNL     1       7.479   9.541   3.313  1.00  0.00     0.001 C 
BRANCH  70  71
ATOM     71  C   UNL     1       7.858  10.847   3.854  1.00  0.00    -0.055 C 
ATOM     72  C   UNL     1       6.915  11.552   4.513  1.00  0.00    -0.018 C 
ATOM     73  C   UNL     1       9.277  11.309   3.645  1.00  0.00     0.044 C 
BRANCH  72  74
ATOM     74  C   UNL     1       7.020  12.918   5.175  1.00  0.00     0.038 C 
ATOM     75  C   UNL     1       6.872  12.701   6.686  1.00  0.00     0.015 C 
BRANCH  74  76
ATOM     76  C   UNL     1       5.956  13.864   4.544  1.00  0.00     0.128 C 
BRANCH  76  77
ATOM     77  O   UNL     1       6.164  13.960   3.125  1.00  0.00    -0.381 OA
ATOM     78  C   UNL     1       6.624  15.236   2.700  1.00  0.00     0.195 C 
ENDBRANCH  76  77
BRANCH  76  79
ATOM     79  C   UNL     1       4.495  13.503   4.913  1.00  0.00     0.068 C 
BRANCH  79  80
ATOM     80  C   UNL     1       3.939  12.196   4.402  1.00  0.00    -0.045 A 
ATOM     81  C   UNL     1       3.670  12.009   3.040  1.00  0.00     0.004 A 
ATOM     82  C   UNL     1       3.656  11.151   5.295  1.00  0.00     0.004 A 
ATOM     83  C   UNL     1       3.143  10.801   2.577  1.00  0.00     0.000 A 
ATOM     84  C   UNL     1       3.128   9.944   4.831  1.00  0.00     0.000 A 
ATOM     85  C   UNL     1       2.873   9.769   3.473  1.00  0.00     0.000 A 
ENDBRANCH  79  80
ENDBRANCH  76  79
ENDBRANCH  74  76
ENDBRANCH  72  74
ENDBRANCH  70  71
ENDBRANCH   1  69
TORSDOF 17
ENDMDL
MODEL 4
REMARK VINA RESULT:    -5.641      3.671     13.981
REMARK INTER + INTRA:         -26.061
REMARK INTER:                 -18.122
REMARK INTRA:                  -7.939
REMARK UNBOUND:                -9.206
REMARK SMILES C=C1C(=O)N[C@H](C)C(=O)N[C@@H](CC(C)C)C(=O)N[C@@H](C(=O)O)[C@H](C)C(=O)N[C@@H](CCCN=C(N)N)C(=O)N[C@@H](/C=C/C(C)=C/[C@H](C)[C@H](Cc2ccccc2)OC)[C@H](C)C(=O)N[C@@H](C(=O)O)CCC(=O)N1C
REMARK SMILES IDX 39 1 38 2 37 3 36 4 28 6 27 7 25 8 26 9 23 11 24 12 19 13
REMARK SMILES IDX 18 14 16 15 17 16 11 18 10 19 8 20 9 21 12 24 13 25 14 26
REMARK SMILES IDX 15 27 20 28 21 29 22 30 29 32 30 33 31 34 32 35 33 36 34 37
REMARK SMILES IDX 35 38 57 43 58 44 59 45 60 46 61 47 62 49 66 50 67 51 68 52
REMARK SMILES IDX 69 53 70 54 71 55 2 56 1 57 3 58 4 59 5 60 6 62 7 63 63 65
REMARK SMILES IDX 64 66 65 67 40 69 41 70 42 71 44 72 43 73 45 74 46 75 47 76
REMARK SMILES IDX 55 77 56 78 48 79 49 80 50 81 54 82 51 83 53 84 52 85
REMARK H PARENT 38 5 27 10 18 17 10 22 22 31 34 39 34 40 35 41 35 42 61 48
REMARK H PARENT 5 61 65 68
REMARK Flexibility Score:  369.900
ROOT
ATOM      1  C   UNL     1       5.586   7.033   2.964  1.00  0.00     0.117 C 
ENDROOT
BRANCH   1   2
ATOM      2  N   UNL     1       4.433   6.574   3.739  1.00  0.00    -0.347 N 
ATOM      3  O   UNL     1       3.138   5.864   1.981  1.00  0.00    -0.273 OA
ATOM      4  C   UNL     1       3.335   5.940   3.190  1.00  0.00     0.243 C 
ATOM      5  H   UNL     1       4.440   6.673   4.743  1.00  0.00     0.164 HD
BRANCH   4   6
ATOM      6  C   UNL     1       2.292   5.478   4.239  1.00  0.00     0.171 C 
BRANCH   6   7
ATOM      7  N   UNL     1       2.369   6.318   5.445  1.00  0.00    -0.344 N 
ATOM      8  C   UNL     1       3.126   5.925   6.527  1.00  0.00     0.226 C 
ATOM      9  O   UNL     1       3.745   4.868   6.552  1.00  0.00    -0.275 OA
ATOM     10  H   UNL     1       1.819   7.166   5.488  1.00  0.00     0.164 HD
BRANCH   8  11
ATOM     11  C   UNL     1       3.148   6.925   7.671  1.00  0.00     0.109 C 
ATOM     12  C   UNL     1       2.507   8.241   7.231  1.00  0.00     0.021 C 
BRANCH  11  13
ATOM     13  C   UNL     1       2.526   6.289   8.930  1.00  0.00     0.204 C 
BRANCH  13  14
ATOM     14  N   UNL     1       2.246   7.285   9.970  1.00  0.00    -0.340 N 
ATOM     15  C   UNL     1       3.013   7.415  11.107  1.00  0.00     0.243 C 
ATOM     16  O   UNL     1       4.025   6.744  11.302  1.00  0.00    -0.273 OA
ATOM     17  H   UNL     1       1.343   7.765   9.944  1.00  0.00     0.164 HD
BRANCH  15  18
ATOM     18  C   UNL     1       2.409   8.384  12.153  1.00  0.00     0.171 C 
BRANCH  18  19
ATOM     19  N   UNL     1       2.694   7.812  13.467  1.00  0.00    -0.343 N 
ATOM     20  C   UNL     1       1.768   7.841  14.492  1.00  0.00     0.242 CG0
ATOM     21  O   UNL     1       0.715   8.466  14.389  1.00  0.00    -0.273 OA
ATOM     22  H   UNL     1       3.598   7.385  13.639  1.00  0.00     0.164 HD
ATOM     23  G   UNL     1       2.218   7.119  15.779  1.00  0.00     0.000 G0
ENDBRANCH  18  19
BRANCH  18  24
ATOM     24  C   UNL     1       3.015   9.785  12.007  1.00  0.00     0.038 C 
BRANCH  24  25
ATOM     25  C   UNL     1       2.058  10.842  11.414  1.00  0.00    -0.015 C 
ATOM     26  C   UNL     1       2.748  11.750  10.396  1.00  0.00     0.007 C 
ATOM     27  C   UNL     1       1.466  11.690  12.543  1.00  0.00     0.007 C 
ENDBRANCH  24  25
ENDBRANCH  18  24
ENDBRANCH  15  18
ENDBRANCH  13  14
BRANCH  13  28
ATOM     28  C   UNL     1       1.216   5.547   8.648  1.00  0.00     0.327 C 
ATOM     29  O   UNL     1       0.100   6.042   8.603  1.00  0.00    -0.250 OA
BRANCH  28  30
ATOM     30  O   UNL     1       1.374   4.211   8.557  1.00  0.00    -0.480 OA
ATOM     31  H   UNL     1       0.476   3.851   8.710  1.00  0.00     0.296 HD
ENDBRANCH  28  30
ENDBRANCH  13  28
ENDBRANCH  11  13
ENDBRANCH   8  11
ENDBRANCH   6   7
BRANCH   6  32
ATOM     32  C   UNL     1       0.892   5.539   3.618  1.00  0.00     0.037 C 
BRANCH  32  33
ATOM     33  C   UNL     1       0.204   4.167   3.605  1.00  0.00     0.026 C 
BRANCH  33  34
ATOM     34  C   UNL     1       0.188   3.534   2.213  1.00  0.00     0.146 C 
BRANCH  34  35
ATOM     35  N   UNL     1       0.203   4.594   1.214  1.00  0.00    -0.254 NA
ATOM     36  C   UNL     1       0.731   4.354   0.072  1.00  0.00     0.185 C 
ATOM     37  N   UNL     1       0.746   5.322  -0.857  1.00  0.00    -0.370 N 
ATOM     38  N   UNL     1       1.306   3.223  -0.372  1.00  0.00    -0.370 N 
ATOM     39  H   UNL     1       0.321   6.204  -0.601  1.00  0.00     0.159 HD
ATOM     40  H   UNL     1       0.980   5.163  -1.822  1.00  0.00     0.159 HD
ATOM     41  H   UNL     1       1.811   3.202  -1.243  1.00  0.00     0.159 HD
ATOM     42  H   UNL     1       1.380   2.415   0.228  1.00  0.00     0.159 HD
ENDBRANCH  34  35
ENDBRANCH  33  34
ENDBRANCH  32  33
ENDBRANCH   6  32
ENDBRANCH   4   6
ENDBRANCH   1   2
BRANCH   1  43
ATOM     43  C   UNL     1       6.685   5.932   3.013  1.00  0.00     0.102 C 
ATOM     44  C   UNL     1       8.010   6.416   3.626  1.00  0.00     0.020 C 
BRANCH  43  45
ATOM     45  C   UNL     1       6.843   5.253   1.649  1.00  0.00     0.225 C 
ATOM     46  O   UNL     1       7.748   4.464   1.394  1.00  0.00    -0.275 OA
ATOM     47  N   UNL     1       5.952   5.654   0.681  1.00  0.00    -0.342 N 
ATOM     48  H   UNL     1       5.130   6.180   0.944  1.00  0.00     0.164 HD
BRANCH  47  49
ATOM     49  C   UNL     1       5.961   5.063  -0.661  1.00  0.00     0.192 C 
BRANCH  49  50
ATOM     50  C   UNL     1       6.395   6.116  -1.684  1.00  0.00     0.047 C 
BRANCH  50  51
ATOM     51  C   UNL     1       6.919   5.486  -2.982  1.00  0.00     0.103 C 
BRANCH  51  52
ATOM     52  C   UNL     1       8.177   4.652  -2.748  1.00  0.00     0.226 C 
ATOM     53  O   UNL     1       9.074   5.091  -2.025  1.00  0.00    -0.275 OA
BRANCH  52  54
ATOM     54  N   UNL     1       8.196   3.371  -3.329  1.00  0.00    -0.311 N 
ATOM     55  C   UNL     1       7.306   2.307  -2.844  1.00  0.00     0.153 C 
BRANCH  54  56
ATOM     56  C   UNL     1       9.059   3.062  -4.393  1.00  0.00     0.102 C 
ATOM     57  C   UNL     1      10.359   2.750  -4.263  1.00  0.00     0.043 C 
BRANCH  56  58
ATOM     58  C   UNL     1       8.550   3.014  -5.815  1.00  0.00     0.268 C 
ATOM     59  O   UNL     1       8.788   2.090  -6.581  1.00  0.00    -0.268 OA
ATOM     60  N   UNL     1       7.742   4.079  -6.135  1.00  0.00    -0.339 N 
ATOM     61  H   UNL     1       7.602   4.809  -5.447  1.00  0.00     0.164 HD
BRANCH  60  62
ATOM     62  C   UNL     1       7.092   4.198  -7.440  1.00  0.00     0.168 CG0
ATOM     63  C   UNL     1       7.690   5.345  -8.245  1.00  0.00     0.041 C 
ATOM     64  G   UNL     1       5.575   4.401  -7.245  1.00  0.00     0.000 G0
ENDBRANCH  60  62
ENDBRANCH  56  58
ENDBRANCH  54  56
ENDBRANCH  52  54
ENDBRANCH  51  52
ENDBRANCH  50  51
ENDBRANCH  49  50
BRANCH  49  65
ATOM     65  C   UNL     1       4.579   4.516  -1.049  1.00  0.00     0.326 C 
ATOM     66  O   UNL     1       3.667   5.169  -1.537  1.00  0.00    -0.250 OA
BRANCH  65  67
ATOM     67  O   UNL     1       4.386   3.211  -0.756  1.00  0.00    -0.480 OA
ATOM     68  H   UNL     1       4.729   3.126   0.159  1.00  0.00     0.296 HD
ENDBRANCH  65  67
ENDBRANCH  49  65
ENDBRANCH  47  49
ENDBRANCH  43  45
ENDBRANCH   1  43
BRANCH   1  69
ATOM     69  C   UNL     1       5.917   8.422   3.479  1.00  0.00    -0.001 C 
ATOM     70  C   UNL     1       6.352   9.476   2.765  1.00  0.00     0.001 C 
BRANCH  70  71
ATOM     71  C   UNL     1       6.647  10.818   3.270  1.00  0.00    -0.055 C 
ATOM     72  C   UNL     1       6.396  11.069   4.572  1.00  0.00    -0.018 C 
ATOM     73  C   UNL     1       7.217  11.823   2.302  1.00  0.00     0.044 C 
BRANCH  72  74
ATOM     74  C   UNL     1       6.604  12.352   5.364  1.00  0.00     0.038 C 
ATOM     75  C   UNL     1       8.090  12.419   5.735  1.00  0.00     0.015 C 
BRANCH  74  76
ATOM     76  C   UNL     1       5.626  12.357   6.576  1.00  0.00     0.128 C 
BRANCH  76  77
ATOM     77  O   UNL     1       4.434  13.087   6.242  1.00  0.00    -0.381 OA
ATOM     78  C   UNL     1       3.238  12.340   6.419  1.00  0.00     0.195 C 
ENDBRANCH  76  77
BRANCH  76  79
ATOM     79  C   UNL     1       5.326  10.948   7.148  1.00  0.00     0.068 C 
BRANCH  79  80
ATOM     80  C   UNL     1       5.874  10.608   8.513  1.00  0.00    -0.045 A 
ATOM     81  C   UNL     1       5.883   9.286   8.978  1.00  0.00     0.004 A 
ATOM     82  C   UNL     1       6.360  11.622   9.353  1.00  0.00     0.004 A 
ATOM     83  C   UNL     1       6.378   8.982  10.248  1.00  0.00     0.000 A 
ATOM     84  C   UNL     1       6.854  11.316  10.623  1.00  0.00     0.000 A 
ATOM     85  C   UNL     1       6.865   9.997  11.069  1.00  0.00     0.000 A 
ENDBRANCH  79  80
ENDBRANCH  76  79
ENDBRANCH  74  76
ENDBRANCH  72  74
ENDBRANCH  70  71
ENDBRANCH   1  69
TORSDOF 17
ENDMDL
MODEL 5
REMARK VINA RESULT:    -5.575      2.180      3.235
REMARK INTER + INTRA:         -25.862
REMARK INTER:                 -19.370
REMARK INTRA:                  -6.492
REMARK UNBOUND:                -9.206
REMARK SMILES C=C1C(=O)N[C@H](C)C(=O)N[C@@H](CC(C)C)C(=O)N[C@@H](C(=O)O)[C@H](C)C(=O)N[C@@H](CCCN=C(N)N)C(=O)N[C@@H](/C=C/C(C)=C/[C@H](C)[C@H](Cc2ccccc2)OC)[C@H](C)C(=O)N[C@@H](C(=O)O)CCC(=O)N1C
REMARK SMILES IDX 39 1 38 2 37 3 36 4 28 6 27 7 25 8 26 9 23 11 24 12 19 13
REMARK SMILES IDX 18 14 16 15 17 16 11 18 10 19 8 20 9 21 12 24 13 25 14 26
REMARK SMILES IDX 15 27 20 28 21 29 22 30 29 32 30 33 31 34 32 35 33 36 34 37
REMARK SMILES IDX 35 38 57 43 58 44 59 45 60 46 61 47 62 49 66 50 67 51 68 52
REMARK SMILES IDX 69 53 70 54 71 55 2 56 1 57 3 58 4 59 5 60 6 62 7 63 63 65
REMARK SMILES IDX 64 66 65 67 40 69 41 70 42 71 44 72 43 73 45 74 46 75 47 76
REMARK SMILES IDX 55 77 56 78 48 79 49 80 50 81 54 82 51 83 53 84 52 85
REMARK H PARENT 38 5 27 10 18 17 10 22 22 31 34 39 34 40 35 41 35 42 61 48
REMARK H PARENT 5 61 65 68
REMARK Flexibility Score:  369.900
ROOT
ATOM      1  C   UNL     1       3.898   8.217  -0.081  1.00  0.00     0.117 C 
ENDROOT
BRANCH   1   2
ATOM      2  N   UNL     1       5.279   7.809  -0.345  1.00  0.00    -0.347 N 
ATOM      3  O   UNL     1       6.223   9.901  -0.375  1.00  0.00    -0.273 OA
ATOM      4  C   UNL     1       6.349   8.681  -0.380  1.00  0.00     0.243 C 
ATOM      5  H   UNL     1       5.491   6.830  -0.462  1.00  0.00     0.164 HD
BRANCH   4   6
ATOM      6  C   UNL     1       7.716   7.982  -0.592  1.00  0.00     0.171 C 
BRANCH   6   7
ATOM      7  N   UNL     1       7.657   7.080  -1.754  1.00  0.00    -0.344 N 
ATOM      8  C   UNL     1       8.624   6.116  -1.944  1.00  0.00     0.226 C 
ATOM      9  O   UNL     1       9.575   5.976  -1.185  1.00  0.00    -0.275 OA
ATOM     10  H   UNL     1       6.923   7.209  -2.439  1.00  0.00     0.164 HD
BRANCH   8  11
ATOM     11  C   UNL     1       8.393   5.230  -3.156  1.00  0.00     0.109 C 
ATOM     12  C   UNL     1       9.632   4.377  -3.427  1.00  0.00     0.021 C 
BRANCH  11  13
ATOM     13  C   UNL     1       7.084   4.434  -2.979  1.00  0.00     0.204 C 
BRANCH  13  14
ATOM     14  N   UNL     1       6.820   3.548  -4.116  1.00  0.00    -0.340 N 
ATOM     15  C   UNL     1       6.373   4.008  -5.336  1.00  0.00     0.243 C 
ATOM     16  O   UNL     1       6.223   5.205  -5.576  1.00  0.00    -0.273 OA
ATOM     17  H   UNL     1       6.778   2.540  -3.941  1.00  0.00     0.164 HD
BRANCH  15  18
ATOM     18  C   UNL     1       5.965   2.877  -6.313  1.00  0.00     0.171 C 
BRANCH  18  19
ATOM     19  N   UNL     1       6.986   2.839  -7.358  1.00  0.00    -0.343 N 
ATOM     20  C   UNL     1       8.282   2.439  -7.097  1.00  0.00     0.242 CG0
ATOM     21  O   UNL     1       8.671   2.226  -5.951  1.00  0.00    -0.273 OA
ATOM     22  H   UNL     1       6.742   3.118  -8.302  1.00  0.00     0.164 HD
ATOM     23  G   UNL     1       9.195   2.388  -8.339  1.00  0.00     0.000 G0
ENDBRANCH  18  19
BRANCH  18  24
ATOM     24  C   UNL     1       5.865   1.536  -5.576  1.00  0.00     0.038 C 
BRANCH  24  25
ATOM     25  C   UNL     1       4.618   0.698  -5.931  1.00  0.00    -0.015 C 
ATOM     26  C   UNL     1       4.307   0.717  -7.428  1.00  0.00     0.007 C 
ATOM     27  C   UNL     1       3.409   1.215  -5.147  1.00  0.00     0.007 C 
ENDBRANCH  24  25
ENDBRANCH  18  24
ENDBRANCH  15  18
ENDBRANCH  13  14
BRANCH  13  28
ATOM     28  C   UNL     1       7.070   3.568  -1.716  1.00  0.00     0.327 C 
ATOM     29  O   UNL     1       6.954   3.968  -0.567  1.00  0.00    -0.250 OA
BRANCH  28  30
ATOM     30  O   UNL     1       7.322   2.267  -1.964  1.00  0.00    -0.480 OA
ATOM     31  H   UNL     1       6.483   1.813  -1.742  1.00  0.00     0.296 HD
ENDBRANCH  28  30
ENDBRANCH  13  28
ENDBRANCH  11  13
ENDBRANCH   8  11
ENDBRANCH   6   7
BRANCH   6  32
ATOM     32  C   UNL     1       8.802   9.047  -0.781  1.00  0.00     0.037 C 
BRANCH  32  33
ATOM     33  C   UNL     1       9.780   9.092   0.401  1.00  0.00     0.026 C 
BRANCH  33  34
ATOM     34  C   UNL     1       9.363  10.105   1.468  1.00  0.00     0.146 C 
BRANCH  34  35
ATOM     35  N   UNL     1       9.259  11.421   0.851  1.00  0.00    -0.254 NA
ATOM     36  C   UNL     1       8.239  12.147   1.120  1.00  0.00     0.185 C 
ATOM     37  N   UNL     1       8.136  13.363   0.561  1.00  0.00    -0.370 N 
ATOM     38  N   UNL     1       7.194  11.872   1.920  1.00  0.00    -0.370 N 
ATOM     39  H   UNL     1       8.893  13.648  -0.048  1.00  0.00     0.159 HD
ATOM     40  H   UNL     1       7.467  14.054   0.853  1.00  0.00     0.159 HD
ATOM     41  H   UNL     1       6.383  12.469   1.942  1.00  0.00     0.159 HD
ATOM     42  H   UNL     1       7.130  10.985   2.394  1.00  0.00     0.159 HD
ENDBRANCH  34  35
ENDBRANCH  33  34
ENDBRANCH  32  33
ENDBRANCH   6  32
ENDBRANCH   4   6
ENDBRANCH   1   2
BRANCH   1  43
ATOM     43  C   UNL     1       3.604   8.016   1.434  1.00  0.00     0.102 C 
ATOM     44  C   UNL     1       3.794   9.294   2.268  1.00  0.00     0.020 C 
BRANCH  43  45
ATOM     45  C   UNL     1       4.352   6.798   1.984  1.00  0.00     0.225 C 
ATOM     46  O   UNL     1       4.148   5.653   1.593  1.00  0.00    -0.275 OA
ATOM     47  N   UNL     1       5.216   7.054   3.024  1.00  0.00    -0.342 N 
ATOM     48  H   UNL     1       5.485   8.006   3.229  1.00  0.00     0.164 HD
BRANCH  47  49
ATOM     49  C   UNL     1       6.026   5.991   3.626  1.00  0.00     0.192 C 
BRANCH  49  50
ATOM     50  C   UNL     1       6.197   6.259   5.123  1.00  0.00     0.047 C 
BRANCH  50  51
ATOM     51  C   UNL     1       4.854   6.482   5.831  1.00  0.00     0.103 C 
BRANCH  51  52
ATOM     52  C   UNL     1       4.326   5.202   6.476  1.00  0.00     0.226 C 
ATOM     53  O   UNL     1       4.750   4.109   6.098  1.00  0.00    -0.275 OA
BRANCH  52  54
ATOM     54  N   UNL     1       3.420   5.365   7.540  1.00  0.00    -0.311 N 
ATOM     55  C   UNL     1       2.041   4.867   7.442  1.00  0.00     0.153 C 
BRANCH  54  56
ATOM     56  C   UNL     1       3.799   6.000   8.734  1.00  0.00     0.102 C 
ATOM     57  C   UNL     1       4.809   5.607   9.527  1.00  0.00     0.043 C 
BRANCH  56  58
ATOM     58  C   UNL     1       3.093   7.250   9.205  1.00  0.00     0.268 C 
ATOM     59  O   UNL     1       2.981   8.255   8.516  1.00  0.00    -0.268 OA
ATOM     60  N   UNL     1       2.536   7.119  10.454  1.00  0.00    -0.339 N 
ATOM     61  H   UNL     1       2.683   6.256  10.965  1.00  0.00     0.164 HD
BRANCH  60  62
ATOM     62  C   UNL     1       1.754   8.187  11.075  1.00  0.00     0.168 CG0
ATOM     63  C   UNL     1       2.621   9.034  11.998  1.00  0.00     0.041 C 
ATOM     64  G   UNL     1       0.567   7.576  11.849  1.00  0.00     0.000 G0
ENDBRANCH  60  62
ENDBRANCH  56  58
ENDBRANCH  54  56
ENDBRANCH  52  54
ENDBRANCH  51  52
ENDBRANCH  50  51
ENDBRANCH  49  50
BRANCH  49  65
ATOM     65  C   UNL     1       7.411   5.891   2.966  1.00  0.00     0.326 C 
ATOM     66  O   UNL     1       7.992   4.852   2.688  1.00  0.00    -0.250 OA
BRANCH  65  67
ATOM     67  O   UNL     1       8.017   7.078   2.744  1.00  0.00    -0.480 OA
ATOM     68  H   UNL     1       8.009   7.510   3.626  1.00  0.00     0.296 HD
ENDBRANCH  65  67
ENDBRANCH  49  65
ENDBRANCH  47  49
ENDBRANCH  43  45
ENDBRANCH   1  43
BRANCH   1  69
ATOM     69  C   UNL     1       3.039   7.488  -1.098  1.00  0.00    -0.001 C 
ATOM     70  C   UNL     1       3.389   6.436  -1.859  1.00  0.00     0.001 C 
BRANCH  70  71
ATOM     71  C   UNL     1       2.544   5.727  -2.822  1.00  0.00    -0.055 C 
ATOM     72  C   UNL     1       1.246   6.089  -2.904  1.00  0.00    -0.018 C 
ATOM     73  C   UNL     1       3.184   4.650  -3.658  1.00  0.00     0.044 C 
BRANCH  72  74
ATOM     74  C   UNL     1       0.148   5.539  -3.803  1.00  0.00     0.038 C 
ATOM     75  C   UNL     1      -0.318   6.689  -4.704  1.00  0.00     0.015 C 
BRANCH  74  76
ATOM     76  C   UNL     1      -0.966   4.918  -2.909  1.00  0.00     0.128 C 
BRANCH  76  77
ATOM     77  O   UNL     1      -2.049   4.448  -3.730  1.00  0.00    -0.381 OA
ATOM     78  C   UNL     1      -3.310   4.464  -3.075  1.00  0.00     0.195 C 
ENDBRANCH  76  77
BRANCH  76  79
ATOM     79  C   UNL     1      -0.452   3.840  -1.921  1.00  0.00     0.068 C 
BRANCH  79  80
ATOM     80  C   UNL     1      -0.447   4.175  -0.449  1.00  0.00    -0.045 A 
ATOM     81  C   UNL     1       0.734   4.557   0.201  1.00  0.00     0.004 A 
ATOM     82  C   UNL     1      -1.630   4.082   0.301  1.00  0.00     0.004 A 
ATOM     83  C   UNL     1       0.732   4.852   1.566  1.00  0.00     0.000 A 
ATOM     84  C   UNL     1      -1.630   4.376   1.666  1.00  0.00     0.000 A 
ATOM     85  C   UNL     1      -0.450   4.762   2.298  1.00  0.00     0.000 A 
ENDBRANCH  79  80
ENDBRANCH  76  79
ENDBRANCH  74  76
ENDBRANCH  72  74
ENDBRANCH  70  71
ENDBRANCH   1  69
TORSDOF 17
ENDMDL
MODEL 6
REMARK VINA RESULT:    -5.540      4.156      7.642
REMARK INTER + INTRA:         -25.758
REMARK INTER:                 -16.754
REMARK INTRA:                  -9.004
REMARK UNBOUND:                -9.206
REMARK SMILES C=C1C(=O)N[C@H](C)C(=O)N[C@@H](CC(C)C)C(=O)N[C@@H](C(=O)O)[C@H](C)C(=O)N[C@@H](CCCN=C(N)N)C(=O)N[C@@H](/C=C/C(C)=C/[C@H](C)[C@H](Cc2ccccc2)OC)[C@H](C)C(=O)N[C@@H](C(=O)O)CCC(=O)N1C
REMARK SMILES IDX 39 1 38 2 37 3 36 4 28 6 27 7 25 8 26 9 23 11 24 12 19 13
REMARK SMILES IDX 18 14 16 15 17 16 11 18 10 19 8 20 9 21 12 24 13 25 14 26
REMARK SMILES IDX 15 27 20 28 21 29 22 30 29 32 30 33 31 34 32 35 33 36 34 37
REMARK SMILES IDX 35 38 57 43 58 44 59 45 60 46 61 47 62 49 66 50 67 51 68 52
REMARK SMILES IDX 69 53 70 54 71 55 2 56 1 57 3 58 4 59 5 60 6 62 7 63 63 65
REMARK SMILES IDX 64 66 65 67 40 69 41 70 42 71 44 72 43 73 45 74 46 75 47 76
REMARK SMILES IDX 55 77 56 78 48 79 49 80 50 81 54 82 51 83 53 84 52 85
REMARK H PARENT 38 5 27 10 18 17 10 22 22 31 34 39 34 40 35 41 35 42 61 48
REMARK H PARENT 5 61 65 68
REMARK Flexibility Score:  369.900
ROOT
ATOM      1  C   UNL     1       6.980   4.867  -2.543  1.00  0.00     0.117 C 
ENDROOT
BRANCH   1   2
ATOM      2  N   UNL     1       5.546   4.989  -2.273  1.00  0.00    -0.347 N 
ATOM      3  O   UNL     1       5.322   3.140  -0.932  1.00  0.00    -0.273 OA
ATOM      4  C   UNL     1       4.848   4.165  -1.412  1.00  0.00     0.243 C 
ATOM      5  H   UNL     1       5.027   5.745  -2.694  1.00  0.00     0.164 HD
BRANCH   4   6
ATOM      6  C   UNL     1       3.360   4.562  -1.238  1.00  0.00     0.171 C 
BRANCH   6   7
ATOM      7  N   UNL     1       2.533   3.367  -1.005  1.00  0.00    -0.344 N 
ATOM      8  C   UNL     1       1.457   3.088  -1.819  1.00  0.00     0.226 C 
ATOM      9  O   UNL     1       1.124   3.817  -2.746  1.00  0.00    -0.275 OA
ATOM     10  H   UNL     1       2.736   2.777  -0.208  1.00  0.00     0.164 HD
BRANCH   8  11
ATOM     11  C   UNL     1       0.738   1.793  -1.483  1.00  0.00     0.109 C 
ATOM     12  C   UNL     1      -0.341   2.048  -0.431  1.00  0.00     0.021 C 
BRANCH  11  13
ATOM     13  C   UNL     1       0.235   1.125  -2.779  1.00  0.00     0.204 C 
BRANCH  13  14
ATOM     14  N   UNL     1       1.307   0.421  -3.488  1.00  0.00    -0.340 N 
ATOM     15  C   UNL     1       1.614   0.662  -4.810  1.00  0.00     0.243 C 
ATOM     16  O   UNL     1       1.049   1.531  -5.471  1.00  0.00    -0.273 OA
ATOM     17  H   UNL     1       1.709  -0.411  -3.048  1.00  0.00     0.164 HD
BRANCH  15  18
ATOM     18  C   UNL     1       2.635  -0.341  -5.401  1.00  0.00     0.171 C 
BRANCH  18  19
ATOM     19  N   UNL     1       1.858  -1.417  -6.013  1.00  0.00    -0.343 N 
ATOM     20  C   UNL     1       1.375  -2.479  -5.274  1.00  0.00     0.242 CG0
ATOM     21  O   UNL     1       1.688  -2.638  -4.096  1.00  0.00    -0.273 OA
ATOM     22  H   UNL     1       1.671  -1.390  -7.009  1.00  0.00     0.164 HD
ATOM     23  G   UNL     1       0.511  -3.474  -6.077  1.00  0.00     0.000 G0
ENDBRANCH  18  19
BRANCH  18  24
ATOM     24  C   UNL     1       3.543   0.350  -6.426  1.00  0.00     0.038 C 
BRANCH  24  25
ATOM     25  C   UNL     1       5.046   0.325  -6.076  1.00  0.00    -0.015 C 
ATOM     26  C   UNL     1       5.450   1.474  -5.152  1.00  0.00     0.007 C 
ATOM     27  C   UNL     1       5.874   0.381  -7.362  1.00  0.00     0.007 C 
ENDBRANCH  24  25
ENDBRANCH  18  24
ENDBRANCH  15  18
ENDBRANCH  13  14
BRANCH  13  28
ATOM     28  C   UNL     1      -0.891   0.115  -2.539  1.00  0.00     0.327 C 
ATOM     29  O   UNL     1      -2.074   0.375  -2.377  1.00  0.00    -0.250 OA
BRANCH  28  30
ATOM     30  O   UNL     1      -0.446  -1.150  -2.399  1.00  0.00    -0.480 OA
ATOM     31  H   UNL     1       0.529  -1.059  -2.360  1.00  0.00     0.296 HD
ENDBRANCH  28  30
ENDBRANCH  13  28
ENDBRANCH  11  13
ENDBRANCH   8  11
ENDBRANCH   6   7
BRANCH   6  32
ATOM     32  C   UNL     1       3.236   5.549  -0.073  1.00  0.00     0.037 C 
BRANCH  32  33
ATOM     33  C   UNL     1       2.666   6.903  -0.519  1.00  0.00     0.026 C 
BRANCH  33  34
ATOM     34  C   UNL     1       2.599   7.037  -2.041  1.00  0.00     0.146 C 
BRANCH  34  35
ATOM     35  N   UNL     1       1.202   7.139  -2.442  1.00  0.00    -0.254 NA
ATOM     36  C   UNL     1       0.919   7.754  -3.530  1.00  0.00     0.185 C 
ATOM     37  N   UNL     1      -0.364   7.850  -3.911  1.00  0.00    -0.370 N 
ATOM     38  N   UNL     1       1.749   8.353  -4.402  1.00  0.00    -0.370 N 
ATOM     39  H   UNL     1      -1.051   7.413  -3.310  1.00  0.00     0.159 HD
ATOM     40  H   UNL     1      -0.651   8.158  -4.825  1.00  0.00     0.159 HD
ATOM     41  H   UNL     1       1.393   8.925  -5.150  1.00  0.00     0.159 HD
ATOM     42  H   UNL     1       2.743   8.373  -4.234  1.00  0.00     0.159 HD
ENDBRANCH  34  35
ENDBRANCH  33  34
ENDBRANCH  32  33
ENDBRANCH   6  32
ENDBRANCH   4   6
ENDBRANCH   1   2
BRANCH   1  43
ATOM     43  C   UNL     1       7.696   6.135  -1.994  1.00  0.00     0.102 C 
ATOM     44  C   UNL     1       9.224   5.983  -1.902  1.00  0.00     0.020 C 
BRANCH  43  45
ATOM     45  C   UNL     1       7.041   6.619  -0.697  1.00  0.00     0.225 C 
ATOM     46  O   UNL     1       6.175   7.489  -0.667  1.00  0.00    -0.275 OA
ATOM     47  N   UNL     1       7.553   6.081   0.462  1.00  0.00    -0.342 N 
ATOM     48  H   UNL     1       8.149   5.267   0.415  1.00  0.00     0.164 HD
BRANCH  47  49
ATOM     49  C   UNL     1       7.000   6.424   1.775  1.00  0.00     0.192 C 
BRANCH  49  50
ATOM     50  C   UNL     1       8.123   6.908   2.696  1.00  0.00     0.047 C 
BRANCH  50  51
ATOM     51  C   UNL     1       7.845   8.304   3.270  1.00  0.00     0.103 C 
BRANCH  51  52
ATOM     52  C   UNL     1       8.502   9.406   2.441  1.00  0.00     0.226 C 
ATOM     53  O   UNL     1       9.710   9.621   2.560  1.00  0.00    -0.275 OA
BRANCH  52  54
ATOM     54  N   UNL     1       7.676  10.071   1.517  1.00  0.00    -0.311 N 
ATOM     55  C   UNL     1       8.117  10.297   0.134  1.00  0.00     0.153 C 
BRANCH  54  56
ATOM     56  C   UNL     1       6.401  10.538   1.878  1.00  0.00     0.102 C 
ATOM     57  C   UNL     1       5.244  10.077   1.377  1.00  0.00     0.043 C 
BRANCH  56  58
ATOM     58  C   UNL     1       6.237  11.607   2.932  1.00  0.00     0.268 C 
ATOM     59  O   UNL     1       5.505  11.482   3.905  1.00  0.00    -0.268 OA
ATOM     60  N   UNL     1       7.042  12.702   2.722  1.00  0.00    -0.339 N 
ATOM     61  H   UNL     1       7.612  12.733   1.886  1.00  0.00     0.164 HD
BRANCH  60  62
ATOM     62  C   UNL     1       7.087  13.826   3.656  1.00  0.00     0.168 CG0
ATOM     63  C   UNL     1       6.198  14.969   3.180  1.00  0.00     0.041 C 
ATOM     64  G   UNL     1       8.545  14.302   3.822  1.00  0.00     0.000 G0
ENDBRANCH  60  62
ENDBRANCH  56  58
ENDBRANCH  54  56
ENDBRANCH  52  54
ENDBRANCH  51  52
ENDBRANCH  50  51
ENDBRANCH  49  50
BRANCH  49  65
ATOM     65  C   UNL     1       6.291   5.225   2.423  1.00  0.00     0.326 C 
ATOM     66  O   UNL     1       5.830   5.198   3.555  1.00  0.00    -0.250 OA
BRANCH  65  67
ATOM     67  O   UNL     1       6.249   4.113   1.656  1.00  0.00    -0.480 OA
ATOM     68  H   UNL     1       5.493   4.277   1.053  1.00  0.00     0.296 HD
ENDBRANCH  65  67
ENDBRANCH  49  65
ENDBRANCH  47  49
ENDBRANCH  43  45
ENDBRANCH   1  43
BRANCH   1  69
ATOM     69  C   UNL     1       7.107   4.534  -4.018  1.00  0.00    -0.001 C 
ATOM     70  C   UNL     1       8.169   3.999  -4.646  1.00  0.00     0.001 C 
BRANCH  70  71
ATOM     71  C   UNL     1       8.272   3.662  -6.067  1.00  0.00    -0.055 C 
ATOM     72  C   UNL     1       7.478   4.329  -6.930  1.00  0.00    -0.018 C 
ATOM     73  C   UNL     1       9.264   2.600  -6.466  1.00  0.00     0.044 C 
BRANCH  72  74
ATOM     74  C   UNL     1       7.371   4.195  -8.442  1.00  0.00     0.038 C 
ATOM     75  C   UNL     1       8.514   5.016  -9.051  1.00  0.00     0.015 C 
BRANCH  74  76
ATOM     76  C   UNL     1       5.944   4.632  -8.885  1.00  0.00     0.128 C 
BRANCH  76  77
ATOM     77  O   UNL     1       5.938   4.938 -10.290  1.00  0.00    -0.381 OA
ATOM     78  C   UNL     1       4.688   4.698 -10.921  1.00  0.00     0.195 C 
ENDBRANCH  76  77
BRANCH  76  79
ATOM     79  C   UNL     1       4.827   3.636  -8.484  1.00  0.00     0.068 C 
BRANCH  79  80
ATOM     80  C   UNL     1       3.728   4.134  -7.577  1.00  0.00    -0.045 A 
ATOM     81  C   UNL     1       4.012   4.601  -6.287  1.00  0.00     0.004 A 
ATOM     82  C   UNL     1       2.392   4.110  -8.006  1.00  0.00     0.004 A 
ATOM     83  C   UNL     1       2.988   5.047  -5.449  1.00  0.00     0.000 A 
ATOM     84  C   UNL     1       1.368   4.556  -7.167  1.00  0.00     0.000 A 
ATOM     85  C   UNL     1       1.666   5.026  -5.890  1.00  0.00     0.000 A 
ENDBRANCH  79  80
ENDBRANCH  76  79
ENDBRANCH  74  76
ENDBRANCH  72  74
ENDBRANCH  70  71
ENDBRANCH   1  69
TORSDOF 17
ENDMDL
MODEL 7
REMARK VINA RESULT:    -5.533      4.214      7.357
REMARK INTER + INTRA:         -25.738
REMARK INTER:                 -19.099
REMARK INTRA:                  -6.639
REMARK UNBOUND:                -9.206
REMARK SMILES C=C1C(=O)N[C@H](C)C(=O)N[C@@H](CC(C)C)C(=O)N[C@@H](C(=O)O)[C@H](C)C(=O)N[C@@H](CCCN=C(N)N)C(=O)N[C@@H](/C=C/C(C)=C/[C@H](C)[C@H](Cc2ccccc2)OC)[C@H](C)C(=O)N[C@@H](C(=O)O)CCC(=O)N1C
REMARK SMILES IDX 39 1 38 2 37 3 36 4 28 6 27 7 25 8 26 9 23 11 24 12 19 13
REMARK SMILES IDX 18 14 16 15 17 16 11 18 10 19 8 20 9 21 12 24 13 25 14 26
REMARK SMILES IDX 15 27 20 28 21 29 22 30 29 32 30 33 31 34 32 35 33 36 34 37
REMARK SMILES IDX 35 38 57 43 58 44 59 45 60 46 61 47 62 49 66 50 67 51 68 52
REMARK SMILES IDX 69 53 70 54 71 55 2 56 1 57 3 58 4 59 5 60 6 62 7 63 63 65
REMARK SMILES IDX 64 66 65 67 40 69 41 70 42 71 44 72 43 73 45 74 46 75 47 76
REMARK SMILES IDX 55 77 56 78 48 79 49 80 50 81 54 82 51 83 53 84 52 85
REMARK H PARENT 38 5 27 10 18 17 10 22 22 31 34 39 34 40 35 41 35 42 61 48
REMARK H PARENT 5 61 65 68
REMARK Flexibility Score:  369.900
ROOT
ATOM      1  C   UNL     1       7.081   5.626  -2.621  1.00  0.00     0.117 C 
ENDROOT
BRANCH   1   2
ATOM      2  N   UNL     1       7.415   4.514  -3.511  1.00  0.00    -0.347 N 
ATOM      3  O   UNL     1       9.625   5.036  -3.847  1.00  0.00    -0.273 OA
ATOM      4  C   UNL     1       8.688   4.256  -3.981  1.00  0.00     0.243 C 
ATOM      5  H   UNL     1       6.697   3.854  -3.770  1.00  0.00     0.164 HD
BRANCH   4   6
ATOM      6  C   UNL     1       8.788   2.967  -4.836  1.00  0.00     0.171 C 
BRANCH   6   7
ATOM      7  N   UNL     1       7.557   2.773  -5.620  1.00  0.00    -0.344 N 
ATOM      8  C   UNL     1       6.436   2.217  -5.041  1.00  0.00     0.226 C 
ATOM      9  O   UNL     1       6.412   1.841  -3.876  1.00  0.00    -0.275 OA
ATOM     10  H   UNL     1       7.559   3.009  -6.604  1.00  0.00     0.164 HD
BRANCH   8  11
ATOM     11  C   UNL     1       5.232   2.135  -5.963  1.00  0.00     0.109 C 
ATOM     12  C   UNL     1       5.372   3.144  -7.103  1.00  0.00     0.021 C 
BRANCH  11  13
ATOM     13  C   UNL     1       5.018   0.675  -6.412  1.00  0.00     0.204 C 
BRANCH  13  14
ATOM     14  N   UNL     1       3.620   0.404  -6.759  1.00  0.00    -0.340 N 
ATOM     15  C   UNL     1       2.858  -0.543  -6.110  1.00  0.00     0.243 C 
ATOM     16  O   UNL     1       3.281  -1.188  -5.152  1.00  0.00    -0.273 OA
ATOM     17  H   UNL     1       3.258   0.792  -7.635  1.00  0.00     0.164 HD
BRANCH  15  18
ATOM     18  C   UNL     1       1.486  -0.799  -6.781  1.00  0.00     0.171 C 
BRANCH  18  19
ATOM     19  N   UNL     1       1.722  -0.821  -8.223  1.00  0.00    -0.343 N 
ATOM     20  C   UNL     1       1.058   0.032  -9.083  1.00  0.00     0.242 CG0
ATOM     21  O   UNL     1       0.143   0.754  -8.694  1.00  0.00    -0.273 OA
ATOM     22  H   UNL     1       2.387  -1.482  -8.608  1.00  0.00     0.164 HD
ATOM     23  G   UNL     1       1.496  -0.083 -10.558  1.00  0.00     0.000 G0
ENDBRANCH  18  19
BRANCH  18  24
ATOM     24  C   UNL     1       0.882  -2.121  -6.291  1.00  0.00     0.038 C 
BRANCH  24  25
ATOM     25  C   UNL     1      -0.605  -2.039  -5.885  1.00  0.00    -0.015 C 
ATOM     26  C   UNL     1      -1.025  -3.184  -4.964  1.00  0.00     0.007 C 
ATOM     27  C   UNL     1      -1.482  -2.039  -7.140  1.00  0.00     0.007 C 
ENDBRANCH  24  25
ENDBRANCH  18  24
ENDBRANCH  15  18
ENDBRANCH  13  14
BRANCH  13  28
ATOM     28  C   UNL     1       5.870   0.285  -7.624  1.00  0.00     0.327 C 
ATOM     29  O   UNL     1       7.088   0.339  -7.699  1.00  0.00    -0.250 OA
BRANCH  28  30
ATOM     30  O   UNL     1       5.133  -0.035  -8.707  1.00  0.00    -0.480 OA
ATOM     31  H   UNL     1       5.257   0.723  -9.316  1.00  0.00     0.296 HD
ENDBRANCH  28  30
ENDBRANCH  13  28
ENDBRANCH  11  13
ENDBRANCH   8  11
ENDBRANCH   6   7
BRANCH   6  32
ATOM     32  C   UNL     1      10.011   3.065  -5.755  1.00  0.00     0.037 C 
BRANCH  32  33
ATOM     33  C   UNL     1       9.637   2.910  -7.236  1.00  0.00     0.026 C 
BRANCH  33  34
ATOM     34  C   UNL     1       9.702   4.234  -7.997  1.00  0.00     0.146 C 
BRANCH  34  35
ATOM     35  N   UNL     1       8.359   4.790  -8.088  1.00  0.00    -0.254 NA
ATOM     36  C   UNL     1       8.090   5.857  -7.431  1.00  0.00     0.185 C 
ATOM     37  N   UNL     1       6.857   6.380  -7.511  1.00  0.00    -0.370 N 
ATOM     38  N   UNL     1       8.892   6.579  -6.628  1.00  0.00    -0.370 N 
ATOM     39  H   UNL     1       6.197   5.898  -8.107  1.00  0.00     0.159 HD
ATOM     40  H   UNL     1       6.619   7.297  -7.172  1.00  0.00     0.159 HD
ATOM     41  H   UNL     1       8.524   7.322  -6.057  1.00  0.00     0.159 HD
ATOM     42  H   UNL     1       9.844   6.293  -6.462  1.00  0.00     0.159 HD
ENDBRANCH  34  35
ENDBRANCH  33  34
ENDBRANCH  32  33
ENDBRANCH   6  32
ENDBRANCH   4   6
ENDBRANCH   1   2
BRANCH   1  43
ATOM     43  C   UNL     1       7.502   5.246  -1.173  1.00  0.00     0.102 C 
ATOM     44  C   UNL     1       6.457   4.391  -0.436  1.00  0.00     0.020 C 
BRANCH  43  45
ATOM     45  C   UNL     1       7.959   6.481  -0.390  1.00  0.00     0.225 C 
ATOM     46  O   UNL     1       9.138   6.722  -0.146  1.00  0.00    -0.275 OA
ATOM     47  N   UNL     1       6.950   7.269   0.113  1.00  0.00    -0.342 N 
ATOM     48  H   UNL     1       6.004   7.145  -0.221  1.00  0.00     0.164 HD
BRANCH  47  49
ATOM     49  C   UNL     1       7.237   8.503   0.851  1.00  0.00     0.192 C 
BRANCH  49  50
ATOM     50  C   UNL     1       6.476   8.497   2.179  1.00  0.00     0.047 C 
BRANCH  50  51
ATOM     51  C   UNL     1       6.867   9.676   3.080  1.00  0.00     0.103 C 
BRANCH  51  52
ATOM     52  C   UNL     1       5.654  10.297   3.771  1.00  0.00     0.226 C 
ATOM     53  O   UNL     1       5.186   9.763   4.778  1.00  0.00    -0.275 OA
BRANCH  52  54
ATOM     54  N   UNL     1       5.186  11.513   3.240  1.00  0.00    -0.311 N 
ATOM     55  C   UNL     1       6.092  12.653   3.047  1.00  0.00     0.153 C 
BRANCH  54  56
ATOM     56  C   UNL     1       3.841  11.682   2.871  1.00  0.00     0.102 C 
ATOM     57  C   UNL     1       3.154  10.850   2.071  1.00  0.00     0.043 C 
BRANCH  56  58
ATOM     58  C   UNL     1       3.028  12.836   3.409  1.00  0.00     0.268 C 
ATOM     59  O   UNL     1       2.875  13.047   4.605  1.00  0.00    -0.268 OA
ATOM     60  N   UNL     1       2.536  13.656   2.422  1.00  0.00    -0.339 N 
ATOM     61  H   UNL     1       2.698  13.405   1.454  1.00  0.00     0.164 HD
BRANCH  60  62
ATOM     62  C   UNL     1       1.774  14.867   2.725  1.00  0.00     0.168 CG0
ATOM     63  C   UNL     1       2.353  16.074   1.995  1.00  0.00     0.041 C 
ATOM     64  G   UNL     1       1.763  15.104   4.249  1.00  0.00     0.000 G0
ENDBRANCH  60  62
ENDBRANCH  56  58
ENDBRANCH  54  56
ENDBRANCH  52  54
ENDBRANCH  51  52
ENDBRANCH  50  51
ENDBRANCH  49  50
BRANCH  49  65
ATOM     65  C   UNL     1       6.845   9.751   0.045  1.00  0.00     0.326 C 
ATOM     66  O   UNL     1       5.702  10.099  -0.213  1.00  0.00    -0.250 OA
BRANCH  65  67
ATOM     67  O   UNL     1       7.888  10.457  -0.443  1.00  0.00    -0.480 OA
ATOM     68  H   UNL     1       8.385   9.799  -0.974  1.00  0.00     0.296 HD
ENDBRANCH  65  67
ENDBRANCH  49  65
ENDBRANCH  47  49
ENDBRANCH  43  45
ENDBRANCH   1  43
BRANCH   1  69
ATOM     69  C   UNL     1       5.628   5.967  -2.897  1.00  0.00    -0.001 C 
ATOM     70  C   UNL     1       4.888   5.597  -3.957  1.00  0.00     0.001 C 
BRANCH  70  71
ATOM     71  C   UNL     1       3.480   5.914  -4.202  1.00  0.00    -0.055 C 
ATOM     72  C   UNL     1       2.600   4.891  -4.222  1.00  0.00    -0.018 C 
ATOM     73  C   UNL     1       3.111   7.361  -4.405  1.00  0.00     0.044 C 
BRANCH  72  74
ATOM     74  C   UNL     1       1.095   4.919  -4.447  1.00  0.00     0.038 C 
ATOM     75  C   UNL     1       0.756   6.276  -5.074  1.00  0.00     0.015 C 
BRANCH  74  76
ATOM     76  C   UNL     1       0.382   4.628  -3.093  1.00  0.00     0.128 C 
BRANCH  76  77
ATOM     77  O   UNL     1       1.027   3.532  -2.423  1.00  0.00    -0.381 OA
ATOM     78  C   UNL     1       0.278   2.325  -2.453  1.00  0.00     0.195 C 
ENDBRANCH  76  77
BRANCH  76  79
ATOM     79  C   UNL     1       0.222   5.875  -2.186  1.00  0.00     0.068 C 
BRANCH  79  80
ATOM     80  C   UNL     1       1.371   6.241  -1.279  1.00  0.00    -0.045 A 
ATOM     81  C   UNL     1       2.029   7.472  -1.409  1.00  0.00     0.004 A 
ATOM     82  C   UNL     1       1.819   5.337  -0.305  1.00  0.00     0.004 A 
ATOM     83  C   UNL     1       3.101   7.798  -0.575  1.00  0.00     0.000 A 
ATOM     84  C   UNL     1       2.892   5.664   0.528  1.00  0.00     0.000 A 
ATOM     85  C   UNL     1       3.531   6.894   0.394  1.00  0.00     0.000 A 
ENDBRANCH  79  80
ENDBRANCH  76  79
ENDBRANCH  74  76
ENDBRANCH  72  74
ENDBRANCH  70  71
ENDBRANCH   1  69
TORSDOF 17
ENDMDL
MODEL 8
REMARK VINA RESULT:    -5.515      3.712     13.562
REMARK INTER + INTRA:         -25.684
REMARK INTER:                 -17.105
REMARK INTRA:                  -8.579
REMARK UNBOUND:                -9.206
REMARK SMILES C=C1C(=O)N[C@H](C)C(=O)N[C@@H](CC(C)C)C(=O)N[C@@H](C(=O)O)[C@H](C)C(=O)N[C@@H](CCCN=C(N)N)C(=O)N[C@@H](/C=C/C(C)=C/[C@H](C)[C@H](Cc2ccccc2)OC)[C@H](C)C(=O)N[C@@H](C(=O)O)CCC(=O)N1C
REMARK SMILES IDX 39 1 38 2 37 3 36 4 28 6 27 7 25 8 26 9 23 11 24 12 19 13
REMARK SMILES IDX 18 14 16 15 17 16 11 18 10 19 8 20 9 21 12 24 13 25 14 26
REMARK SMILES IDX 15 27 20 28 21 29 22 30 29 32 30 33 31 34 32 35 33 36 34 37
REMARK SMILES IDX 35 38 57 43 58 44 59 45 60 46 61 47 62 49 66 50 67 51 68 52
REMARK SMILES IDX 69 53 70 54 71 55 2 56 1 57 3 58 4 59 5 60 6 62 7 63 63 65
REMARK SMILES IDX 64 66 65 67 40 69 41 70 42 71 44 72 43 73 45 74 46 75 47 76
REMARK SMILES IDX 55 77 56 78 48 79 49 80 50 81 54 82 51 83 53 84 52 85
REMARK H PARENT 38 5 27 10 18 17 10 22 22 31 34 39 34 40 35 41 35 42 61 48
REMARK H PARENT 5 61 65 68
REMARK Flexibility Score:  369.900
ROOT
ATOM      1  C   UNL     1       5.831   7.070   2.868  1.00  0.00     0.117 C 
ENDROOT
BRANCH   1   2
ATOM      2  N   UNL     1       4.705   6.484   3.596  1.00  0.00    -0.347 N 
ATOM      3  O   UNL     1       3.213   6.405   1.854  1.00  0.00    -0.273 OA
ATOM      4  C   UNL     1       3.513   6.112   3.007  1.00  0.00     0.243 C 
ATOM      5  H   UNL     1       4.803   6.285   4.581  1.00  0.00     0.164 HD
BRANCH   4   6
ATOM      6  C   UNL     1       2.518   5.436   3.984  1.00  0.00     0.171 C 
BRANCH   6   7
ATOM      7  N   UNL     1       2.348   6.257   5.194  1.00  0.00    -0.344 N 
ATOM      8  C   UNL     1       2.957   5.899   6.377  1.00  0.00     0.226 C 
ATOM      9  O   UNL     1       3.639   4.888   6.489  1.00  0.00    -0.275 OA
ATOM     10  H   UNL     1       1.736   7.063   5.158  1.00  0.00     0.164 HD
BRANCH   8  11
ATOM     11  C   UNL     1       2.729   6.875   7.518  1.00  0.00     0.109 C 
ATOM     12  C   UNL     1       1.750   7.968   7.088  1.00  0.00     0.021 C 
BRANCH  11  13
ATOM     13  C   UNL     1       2.324   6.105   8.791  1.00  0.00     0.204 C 
BRANCH  13  14
ATOM     14  N   UNL     1       2.262   6.978   9.967  1.00  0.00    -0.340 N 
ATOM     15  C   UNL     1       3.253   7.015  10.925  1.00  0.00     0.243 C 
ATOM     16  O   UNL     1       4.290   6.361  10.827  1.00  0.00    -0.273 OA
ATOM     17  H   UNL     1       1.369   7.429  10.185  1.00  0.00     0.164 HD
BRANCH  15  18
ATOM     18  C   UNL     1       2.876   7.850  12.173  1.00  0.00     0.171 C 
BRANCH  18  19
ATOM     19  N   UNL     1       4.127   8.164  12.860  1.00  0.00    -0.343 N 
ATOM     20  C   UNL     1       4.440   7.620  14.090  1.00  0.00     0.242 CG0
ATOM     21  O   UNL     1       3.626   6.953  14.724  1.00  0.00    -0.273 OA
ATOM     22  H   UNL     1       4.785   8.804  12.428  1.00  0.00     0.164 HD
ATOM     23  G   UNL     1       5.837   8.006  14.621  1.00  0.00     0.000 G0
ENDBRANCH  18  19
BRANCH  18  24
ATOM     24  C   UNL     1       2.123   9.123  11.766  1.00  0.00     0.038 C 
BRANCH  24  25
ATOM     25  C   UNL     1       2.978  10.165  11.015  1.00  0.00    -0.015 C 
ATOM     26  C   UNL     1       3.270  11.403  11.864  1.00  0.00     0.007 C 
ATOM     27  C   UNL     1       2.267  10.581   9.725  1.00  0.00     0.007 C 
ENDBRANCH  24  25
ENDBRANCH  18  24
ENDBRANCH  15  18
ENDBRANCH  13  14
BRANCH  13  28
ATOM     28  C   UNL     1       0.964   5.411   8.669  1.00  0.00     0.327 C 
ATOM     29  O   UNL     1      -0.124   5.903   8.925  1.00  0.00    -0.250 OA
BRANCH  28  30
ATOM     30  O   UNL     1       1.064   4.105   8.347  1.00  0.00    -0.480 OA
ATOM     31  H   UNL     1       0.184   3.879   7.981  1.00  0.00     0.296 HD
ENDBRANCH  28  30
ENDBRANCH  13  28
ENDBRANCH  11  13
ENDBRANCH   8  11
ENDBRANCH   6   7
BRANCH   6  32
ATOM     32  C   UNL     1       1.177   5.225   3.273  1.00  0.00     0.037 C 
BRANCH  32  33
ATOM     33  C   UNL     1       0.588   3.835   3.547  1.00  0.00     0.026 C 
BRANCH  33  34
ATOM     34  C   UNL     1      -0.007   3.718   4.951  1.00  0.00     0.146 C 
BRANCH  34  35
ATOM     35  N   UNL     1      -0.804   4.906   5.224  1.00  0.00    -0.254 NA
ATOM     36  C   UNL     1      -1.622   4.884   6.210  1.00  0.00     0.185 C 
ATOM     37  N   UNL     1      -2.358   5.975   6.473  1.00  0.00    -0.370 N 
ATOM     38  N   UNL     1      -1.876   3.886   7.075  1.00  0.00    -0.370 N 
ATOM     39  H   UNL     1      -2.216   6.775   5.870  1.00  0.00     0.159 HD
ATOM     40  H   UNL     1      -2.886   6.099   7.320  1.00  0.00     0.159 HD
ATOM     41  H   UNL     1      -2.644   3.942   7.723  1.00  0.00     0.159 HD
ATOM     42  H   UNL     1      -1.405   2.999   6.986  1.00  0.00     0.159 HD
ENDBRANCH  34  35
ENDBRANCH  33  34
ENDBRANCH  32  33
ENDBRANCH   6  32
ENDBRANCH   4   6
ENDBRANCH   1   2
BRANCH   1  43
ATOM     43  C   UNL     1       7.046   6.103   2.972  1.00  0.00     0.102 C 
ATOM     44  C   UNL     1       8.156   6.612   3.907  1.00  0.00     0.020 C 
BRANCH  43  45
ATOM     45  C   UNL     1       7.543   5.693   1.583  1.00  0.00     0.225 C 
ATOM     46  O   UNL     1       8.615   6.067   1.117  1.00  0.00    -0.275 OA
ATOM     47  N   UNL     1       6.663   4.943   0.836  1.00  0.00    -0.342 N 
ATOM     48  H   UNL     1       5.861   4.521   1.283  1.00  0.00     0.164 HD
BRANCH  47  49
ATOM     49  C   UNL     1       7.017   4.449  -0.498  1.00  0.00     0.192 C 
BRANCH  49  50
ATOM     50  C   UNL     1       6.316   5.296  -1.563  1.00  0.00     0.047 C 
BRANCH  50  51
ATOM     51  C   UNL     1       4.967   5.844  -1.076  1.00  0.00     0.103 C 
BRANCH  51  52
ATOM     52  C   UNL     1       3.804   4.934  -1.464  1.00  0.00     0.226 C 
ATOM     53  O   UNL     1       3.374   4.113  -0.652  1.00  0.00    -0.275 OA
BRANCH  52  54
ATOM     54  N   UNL     1       3.236   5.150  -2.734  1.00  0.00    -0.311 N 
ATOM     55  C   UNL     1       3.340   6.457  -3.396  1.00  0.00     0.153 C 
BRANCH  54  56
ATOM     56  C   UNL     1       2.555   4.127  -3.415  1.00  0.00     0.102 C 
ATOM     57  C   UNL     1       1.224   4.073  -3.589  1.00  0.00     0.043 C 
BRANCH  56  58
ATOM     58  C   UNL     1       3.311   2.993  -4.066  1.00  0.00     0.268 C 
ATOM     59  O   UNL     1       2.782   1.943  -4.404  1.00  0.00    -0.268 OA
ATOM     60  N   UNL     1       4.634   3.287  -4.297  1.00  0.00    -0.339 N 
ATOM     61  H   UNL     1       4.998   4.177  -3.976  1.00  0.00     0.164 HD
BRANCH  60  62
ATOM     62  C   UNL     1       5.533   2.354  -4.973  1.00  0.00     0.168 CG0
ATOM     63  C   UNL     1       5.836   2.818  -6.392  1.00  0.00     0.041 C 
ATOM     64  G   UNL     1       4.905   0.945  -4.982  1.00  0.00     0.000 G0
ENDBRANCH  60  62
ENDBRANCH  56  58
ENDBRANCH  54  56
ENDBRANCH  52  54
ENDBRANCH  51  52
ENDBRANCH  50  51
ENDBRANCH  49  50
BRANCH  49  65
ATOM     65  C   UNL     1       6.624   2.975  -0.679  1.00  0.00     0.326 C 
ATOM     66  O   UNL     1       6.396   2.427  -1.748  1.00  0.00    -0.250 OA
BRANCH  65  67
ATOM     67  O   UNL     1       6.477   2.285   0.473  1.00  0.00    -0.480 OA
ATOM     68  H   UNL     1       6.245   2.976   1.129  1.00  0.00     0.296 HD
ENDBRANCH  65  67
ENDBRANCH  49  65
ENDBRANCH  47  49
ENDBRANCH  43  45
ENDBRANCH   1  43
BRANCH   1  69
ATOM     69  C   UNL     1       5.978   8.489   3.386  1.00  0.00    -0.001 C 
ATOM     70  C   UNL     1       6.448   9.558   2.718  1.00  0.00     0.001 C 
BRANCH  70  71
ATOM     71  C   UNL     1       6.565  10.928   3.221  1.00  0.00    -0.055 C 
ATOM     72  C   UNL     1       6.196  11.161   4.499  1.00  0.00    -0.018 C 
ATOM     73  C   UNL     1       7.096  11.978   2.281  1.00  0.00     0.044 C 
BRANCH  72  74
ATOM     74  C   UNL     1       6.211  12.465   5.283  1.00  0.00     0.038 C 
ATOM     75  C   UNL     1       7.644  12.674   5.788  1.00  0.00     0.015 C 
BRANCH  74  76
ATOM     76  C   UNL     1       5.129  12.391   6.400  1.00  0.00     0.128 C 
BRANCH  76  77
ATOM     77  O   UNL     1       3.936  13.070   5.974  1.00  0.00    -0.381 OA
ATOM     78  C   UNL     1       2.863  12.975   6.902  1.00  0.00     0.195 C 
ENDBRANCH  76  77
BRANCH  76  79
ATOM     79  C   UNL     1       4.852  10.955   6.912  1.00  0.00     0.068 C 
BRANCH  79  80
ATOM     80  C   UNL     1       5.499  10.529   8.208  1.00  0.00    -0.045 A 
ATOM     81  C   UNL     1       6.014  11.476   9.103  1.00  0.00     0.004 A 
ATOM     82  C   UNL     1       5.621   9.167   8.523  1.00  0.00     0.004 A 
ATOM     83  C   UNL     1       6.624  11.073  10.293  1.00  0.00     0.000 A 
ATOM     84  C   UNL     1       6.232   8.765   9.713  1.00  0.00     0.000 A 
ATOM     85  C   UNL     1       6.732   9.718  10.598  1.00  0.00     0.000 A 
ENDBRANCH  79  80
ENDBRANCH  76  79
ENDBRANCH  74  76
ENDBRANCH  72  74
ENDBRANCH  70  71
ENDBRANCH   1  69
TORSDOF 17
ENDMDL
MODEL 9
REMARK VINA RESULT:    -5.374      3.036      8.395
REMARK INTER + INTRA:         -25.263
REMARK INTER:                 -17.706
REMARK INTRA:                  -7.557
REMARK UNBOUND:                -9.206
REMARK SMILES C=C1C(=O)N[C@H](C)C(=O)N[C@@H](CC(C)C)C(=O)N[C@@H](C(=O)O)[C@H](C)C(=O)N[C@@H](CCCN=C(N)N)C(=O)N[C@@H](/C=C/C(C)=C/[C@H](C)[C@H](Cc2ccccc2)OC)[C@H](C)C(=O)N[C@@H](C(=O)O)CCC(=O)N1C
REMARK SMILES IDX 39 1 38 2 37 3 36 4 28 6 27 7 25 8 26 9 23 11 24 12 19 13
REMARK SMILES IDX 18 14 16 15 17 16 11 18 10 19 8 20 9 21 12 24 13 25 14 26
REMARK SMILES IDX 15 27 20 28 21 29 22 30 29 32 30 33 31 34 32 35 33 36 34 37
REMARK SMILES IDX 35 38 57 43 58 44 59 45 60 46 61 47 62 49 66 50 67 51 68 52
REMARK SMILES IDX 69 53 70 54 71 55 2 56 1 57 3 58 4 59 5 60 6 62 7 63 63 65
REMARK SMILES IDX 64 66 65 67 40 69 41 70 42 71 44 72 43 73 45 74 46 75 47 76
REMARK SMILES IDX 55 77 56 78 48 79 49 80 50 81 54 82 51 83 53 84 52 85
REMARK H PARENT 38 5 27 10 18 17 10 22 22 31 34 39 34 40 35 41 35 42 61 48
REMARK H PARENT 5 61 65 68
REMARK Flexibility Score:  369.900
ROOT
ATOM      1  C   UNL     1       6.913   7.658   2.936  1.00  0.00     0.117 C 
ENDROOT
BRANCH   1   2
ATOM      2  N   UNL     1       6.373   7.215   1.650  1.00  0.00    -0.347 N 
ATOM      3  O   UNL     1       6.473   9.231   0.558  1.00  0.00    -0.273 OA
ATOM      4  C   UNL     1       6.282   8.020   0.531  1.00  0.00     0.243 C 
ATOM      5  H   UNL     1       6.091   6.253   1.538  1.00  0.00     0.164 HD
BRANCH   4   6
ATOM      6  C   UNL     1       5.756   7.282  -0.726  1.00  0.00     0.171 C 
BRANCH   6   7
ATOM      7  N   UNL     1       6.354   5.942  -0.824  1.00  0.00    -0.344 N 
ATOM      8  C   UNL     1       6.581   5.362  -2.053  1.00  0.00     0.226 C 
ATOM      9  O   UNL     1       6.283   5.910  -3.107  1.00  0.00    -0.275 OA
ATOM     10  H   UNL     1       6.552   5.429   0.026  1.00  0.00     0.164 HD
BRANCH   8  11
ATOM     11  C   UNL     1       7.254   4.001  -1.988  1.00  0.00     0.109 C 
ATOM     12  C   UNL     1       6.235   2.897  -2.269  1.00  0.00     0.021 C 
BRANCH  11  13
ATOM     13  C   UNL     1       8.493   3.988  -2.905  1.00  0.00     0.204 C 
BRANCH  13  14
ATOM     14  N   UNL     1       8.133   3.843  -4.319  1.00  0.00    -0.340 N 
ATOM     15  C   UNL     1       8.785   2.980  -5.172  1.00  0.00     0.243 C 
ATOM     16  O   UNL     1       9.677   2.224  -4.792  1.00  0.00    -0.273 OA
ATOM     17  H   UNL     1       7.509   4.543  -4.730  1.00  0.00     0.164 HD
BRANCH  15  18
ATOM     18  C   UNL     1       8.373   3.148  -6.656  1.00  0.00     0.171 C 
BRANCH  18  19
ATOM     19  N   UNL     1       8.678   1.883  -7.321  1.00  0.00    -0.343 N 
ATOM     20  C   UNL     1       9.513   1.820  -8.420  1.00  0.00     0.242 CG0
ATOM     21  O   UNL     1       9.930   2.837  -8.970  1.00  0.00    -0.273 OA
ATOM     22  H   UNL     1       8.264   1.026  -6.973  1.00  0.00     0.164 HD
ATOM     23  G   UNL     1       9.779   0.392  -8.937  1.00  0.00     0.000 G0
ENDBRANCH  18  19
BRANCH  18  24
ATOM     24  C   UNL     1       6.884   3.497  -6.768  1.00  0.00     0.038 C 
BRANCH  24  25
ATOM     25  C   UNL     1       5.940   2.279  -6.839  1.00  0.00    -0.015 C 
ATOM     26  C   UNL     1       5.164   2.216  -8.155  1.00  0.00     0.007 C 
ATOM     27  C   UNL     1       4.960   2.317  -5.664  1.00  0.00     0.007 C 
ENDBRANCH  24  25
ENDBRANCH  18  24
ENDBRANCH  15  18
ENDBRANCH  13  14
BRANCH  13  28
ATOM     28  C   UNL     1       9.348   5.254  -2.782  1.00  0.00     0.327 C 
ATOM     29  O   UNL     1       9.989   5.601  -1.802  1.00  0.00    -0.250 OA
BRANCH  28  30
ATOM     30  O   UNL     1       9.250   6.064  -3.855  1.00  0.00    -0.480 OA
ATOM     31  H   UNL     1      10.081   6.583  -3.843  1.00  0.00     0.296 HD
ENDBRANCH  28  30
ENDBRANCH  13  28
ENDBRANCH  11  13
ENDBRANCH   8  11
ENDBRANCH   6   7
BRANCH   6  32
ATOM     32  C   UNL     1       4.227   7.196  -0.656  1.00  0.00     0.037 C 
BRANCH  32  33
ATOM     33  C   UNL     1       3.748   5.849  -0.096  1.00  0.00     0.026 C 
BRANCH  33  34
ATOM     34  C   UNL     1       2.226   5.705  -0.138  1.00  0.00     0.146 C 
BRANCH  34  35
ATOM     35  N   UNL     1       1.782   5.057   1.089  1.00  0.00    -0.254 NA
ATOM     36  C   UNL     1       0.655   4.448   1.088  1.00  0.00     0.185 C 
ATOM     37  N   UNL     1       0.238   3.843   2.211  1.00  0.00    -0.370 N 
ATOM     38  N   UNL     1      -0.228   4.307   0.084  1.00  0.00    -0.370 N 
ATOM     39  H   UNL     1       0.855   3.896   3.011  1.00  0.00     0.159 HD
ATOM     40  H   UNL     1      -0.539   3.205   2.243  1.00  0.00     0.159 HD
ATOM     41  H   UNL     1      -1.145   3.924   0.246  1.00  0.00     0.159 HD
ATOM     42  H   UNL     1      -0.052   4.725  -0.817  1.00  0.00     0.159 HD
ENDBRANCH  34  35
ENDBRANCH  33  34
ENDBRANCH  32  33
ENDBRANCH   6  32
ENDBRANCH   4   6
ENDBRANCH   1   2
BRANCH   1  43
ATOM     43  C   UNL     1       8.459   7.483   2.912  1.00  0.00     0.102 C 
ATOM     44  C   UNL     1       8.962   6.361   3.835  1.00  0.00     0.020 C 
BRANCH  43  45
ATOM     45  C   UNL     1       9.167   8.825   3.121  1.00  0.00     0.225 C 
ATOM     46  O   UNL     1      10.299   8.920   3.587  1.00  0.00    -0.275 OA
ATOM     47  N   UNL     1       8.414   9.942   2.840  1.00  0.00    -0.342 N 
ATOM     48  H   UNL     1       7.553   9.848   2.321  1.00  0.00     0.164 HD
BRANCH  47  49
ATOM     49  C   UNL     1       8.973  11.292   2.960  1.00  0.00     0.192 C 
BRANCH  49  50
ATOM     50  C   UNL     1       8.248  12.052   4.074  1.00  0.00     0.047 C 
BRANCH  50  51
ATOM     51  C   UNL     1       6.954  11.352   4.509  1.00  0.00     0.103 C 
BRANCH  51  52
ATOM     52  C   UNL     1       5.729  11.911   3.790  1.00  0.00     0.226 C 
ATOM     53  O   UNL     1       5.838  12.926   3.098  1.00  0.00    -0.275 OA
BRANCH  52  54
ATOM     54  N   UNL     1       4.539  11.169   3.907  1.00  0.00    -0.311 N 
ATOM     55  C   UNL     1       4.139  10.212   2.866  1.00  0.00     0.153 C 
BRANCH  54  56
ATOM     56  C   UNL     1       3.695  11.308   5.021  1.00  0.00     0.102 C 
ATOM     57  C   UNL     1       3.048  10.299   5.626  1.00  0.00     0.043 C 
BRANCH  56  58
ATOM     58  C   UNL     1       3.485  12.656   5.670  1.00  0.00     0.268 C 
ATOM     59  O   UNL     1       2.828  13.551   5.157  1.00  0.00    -0.268 OA
ATOM     60  N   UNL     1       4.050  12.748   6.920  1.00  0.00    -0.339 N 
ATOM     61  H   UNL     1       4.589  11.964   7.270  1.00  0.00     0.164 HD
BRANCH  60  62
ATOM     62  C   UNL     1       3.914  13.944   7.750  1.00  0.00     0.168 CG0
ATOM     63  C   UNL     1       5.123  14.858   7.596  1.00  0.00     0.041 C 
ATOM     64  G   UNL     1       3.726  13.530   9.225  1.00  0.00     0.000 G0
ENDBRANCH  60  62
ENDBRANCH  56  58
ENDBRANCH  54  56
ENDBRANCH  52  54
ENDBRANCH  51  52
ENDBRANCH  50  51
ENDBRANCH  49  50
BRANCH  49  65
ATOM     65  C   UNL     1       8.849  12.077   1.645  1.00  0.00     0.326 C 
ATOM     66  O   UNL     1       9.615  12.949   1.262  1.00  0.00    -0.250 OA
BRANCH  65  67
ATOM     67  O   UNL     1       7.753  11.778   0.912  1.00  0.00    -0.480 OA
ATOM     68  H   UNL     1       7.790  10.801   0.827  1.00  0.00     0.296 HD
ENDBRANCH  65  67
ENDBRANCH  49  65
ENDBRANCH  47  49
ENDBRANCH  43  45
ENDBRANCH   1  43
BRANCH   1  69
ATOM     69  C   UNL     1       6.110   6.937   4.004  1.00  0.00    -0.001 C 
ATOM     70  C   UNL     1       5.749   7.406   5.211  1.00  0.00     0.001 C 
BRANCH  70  71
ATOM     71  C   UNL     1       4.956   6.708   6.225  1.00  0.00    -0.055 C 
ATOM     72  C   UNL     1       4.461   7.438   7.247  1.00  0.00    -0.018 C 
ATOM     73  C   UNL     1       4.741   5.227   6.051  1.00  0.00     0.044 C 
BRANCH  72  74
ATOM     74  C   UNL     1       3.611   6.990   8.427  1.00  0.00     0.038 C 
ATOM     75  C   UNL     1       2.278   7.741   8.336  1.00  0.00     0.015 C 
BRANCH  74  76
ATOM     76  C   UNL     1       4.410   7.234   9.741  1.00  0.00     0.128 C 
BRANCH  76  77
ATOM     77  O   UNL     1       4.309   6.085  10.599  1.00  0.00    -0.381 OA
ATOM     78  C   UNL     1       5.439   5.224  10.536  1.00  0.00     0.195 C 
ENDBRANCH  76  77
BRANCH  76  79
ATOM     79  C   UNL     1       5.875   7.684   9.513  1.00  0.00     0.068 C 
BRANCH  79  80
ATOM     80  C   UNL     1       6.250   9.095   9.898  1.00  0.00    -0.045 A 
ATOM     81  C   UNL     1       5.885  10.184   9.096  1.00  0.00     0.004 A 
ATOM     82  C   UNL     1       6.999   9.335  11.060  1.00  0.00     0.004 A 
ATOM     83  C   UNL     1       6.248  11.484   9.452  1.00  0.00     0.000 A 
ATOM     84  C   UNL     1       7.362  10.636  11.416  1.00  0.00     0.000 A 
ATOM     85  C   UNL     1       6.985  11.710  10.613  1.00  0.00     0.000 A 
ENDBRANCH  79  80
ENDBRANCH  76  79
ENDBRANCH  74  76
ENDBRANCH  72  74
ENDBRANCH  70  71
ENDBRANCH   1  69
TORSDOF 17
ENDMDL
MODEL 10
REMARK VINA RESULT:    -5.365      3.128      6.058
REMARK INTER + INTRA:         -25.235
REMARK INTER:                 -16.689
REMARK INTRA:                  -8.546
REMARK UNBOUND:                -9.206
REMARK SMILES C=C1C(=O)N[C@H](C)C(=O)N[C@@H](CC(C)C)C(=O)N[C@@H](C(=O)O)[C@H](C)C(=O)N[C@@H](CCCN=C(N)N)C(=O)N[C@@H](/C=C/C(C)=C/[C@H](C)[C@H](Cc2ccccc2)OC)[C@H](C)C(=O)N[C@@H](C(=O)O)CCC(=O)N1C
REMARK SMILES IDX 39 1 38 2 37 3 36 4 28 6 27 7 25 8 26 9 23 11 24 12 19 13
REMARK SMILES IDX 18 14 16 15 17 16 11 18 10 19 8 20 9 21 12 24 13 25 14 26
REMARK SMILES IDX 15 27 20 28 21 29 22 30 29 32 30 33 31 34 32 35 33 36 34 37
REMARK SMILES IDX 35 38 57 43 58 44 59 45 60 46 61 47 62 49 66 50 67 51 68 52
REMARK SMILES IDX 69 53 70 54 71 55 2 56 1 57 3 58 4 59 5 60 6 62 7 63 63 65
REMARK SMILES IDX 64 66 65 67 40 69 41 70 42 71 44 72 43 73 45 74 46 75 47 76
REMARK SMILES IDX 55 77 56 78 48 79 49 80 50 81 54 82 51 83 53 84 52 85
REMARK H PARENT 38 5 27 10 18 17 10 22 22 31 34 39 34 40 35 41 35 42 61 48
REMARK H PARENT 5 61 65 68
REMARK Flexibility Score:  369.900
ROOT
ATOM      1  C   UNL     1       7.147   6.487  -0.635  1.00  0.00     0.117 C 
ENDROOT
BRANCH   1   2
ATOM      2  N   UNL     1       7.345   5.540  -1.733  1.00  0.00    -0.347 N 
ATOM      3  O   UNL     1       9.639   5.602  -1.789  1.00  0.00    -0.273 OA
ATOM      4  C   UNL     1       8.583   5.103  -2.163  1.00  0.00     0.243 C 
ATOM      5  H   UNL     1       6.541   5.133  -2.186  1.00  0.00     0.164 HD
BRANCH   4   6
ATOM      6  C   UNL     1       8.512   4.036  -3.285  1.00  0.00     0.171 C 
BRANCH   6   7
ATOM      7  N   UNL     1       7.124   3.862  -3.742  1.00  0.00    -0.344 N 
ATOM      8  C   UNL     1       6.588   2.602  -3.898  1.00  0.00     0.226 C 
ATOM      9  O   UNL     1       7.231   1.580  -3.690  1.00  0.00    -0.275 OA
ATOM     10  H   UNL     1       6.583   4.681  -3.989  1.00  0.00     0.164 HD
BRANCH   8  11
ATOM     11  C   UNL     1       5.130   2.591  -4.323  1.00  0.00     0.109 C 
ATOM     12  C   UNL     1       4.401   3.799  -3.734  1.00  0.00     0.021 C 
BRANCH  11  13
ATOM     13  C   UNL     1       5.035   2.459  -5.856  1.00  0.00     0.204 C 
BRANCH  13  14
ATOM     14  N   UNL     1       3.730   1.947  -6.286  1.00  0.00    -0.340 N 
ATOM     15  C   UNL     1       3.586   0.790  -7.021  1.00  0.00     0.243 C 
ATOM     16  O   UNL     1       4.540   0.073  -7.317  1.00  0.00    -0.273 OA
ATOM     17  H   UNL     1       2.920   2.567  -6.205  1.00  0.00     0.164 HD
BRANCH  15  18
ATOM     18  C   UNL     1       2.144   0.560  -7.535  1.00  0.00     0.171 C 
BRANCH  18  19
ATOM     19  N   UNL     1       2.239  -0.403  -8.631  1.00  0.00    -0.343 N 
ATOM     20  C   UNL     1       1.445  -0.306  -9.757  1.00  0.00     0.242 CG0
ATOM     21  O   UNL     1       0.532   0.514  -9.833  1.00  0.00    -0.273 OA
ATOM     22  H   UNL     1       2.900  -1.169  -8.564  1.00  0.00     0.164 HD
ATOM     23  G   UNL     1       1.743  -1.364 -10.839  1.00  0.00     0.000 G0
ENDBRANCH  18  19
BRANCH  18  24
ATOM     24  C   UNL     1       1.243   0.041  -6.408  1.00  0.00     0.038 C 
BRANCH  24  25
ATOM     25  C   UNL     1       0.211   1.063  -5.886  1.00  0.00    -0.015 C 
ATOM     26  C   UNL     1       0.348   1.319  -4.385  1.00  0.00     0.007 C 
ATOM     27  C   UNL     1      -1.205   0.570  -6.197  1.00  0.00     0.007 C 
ENDBRANCH  24  25
ENDBRANCH  18  24
ENDBRANCH  15  18
ENDBRANCH  13  14
BRANCH  13  28
ATOM     28  C   UNL     1       5.267   3.783  -6.591  1.00  0.00     0.327 C 
ATOM     29  O   UNL     1       4.419   4.450  -7.163  1.00  0.00    -0.250 OA
BRANCH  28  30
ATOM     30  O   UNL     1       6.569   4.127  -6.663  1.00  0.00    -0.480 OA
ATOM     31  H   UNL     1       6.809   3.964  -7.599  1.00  0.00     0.296 HD
ENDBRANCH  28  30
ENDBRANCH  13  28
ENDBRANCH  11  13
ENDBRANCH   8  11
ENDBRANCH   6   7
BRANCH   6  32
ATOM     32  C   UNL     1       9.421   4.462  -4.443  1.00  0.00     0.037 C 
BRANCH  32  33
ATOM     33  C   UNL     1      10.259   3.294  -4.981  1.00  0.00     0.026 C 
BRANCH  33  34
ATOM     34  C   UNL     1      10.010   3.030  -6.467  1.00  0.00     0.146 C 
BRANCH  34  35
ATOM     35  N   UNL     1       8.801   2.229  -6.606  1.00  0.00    -0.254 NA
ATOM     36  C   UNL     1       8.629   1.559  -7.683  1.00  0.00     0.185 C 
ATOM     37  N   UNL     1       7.521   0.814  -7.820  1.00  0.00    -0.370 N 
ATOM     38  N   UNL     1       9.426   1.476  -8.763  1.00  0.00    -0.370 N 
ATOM     39  H   UNL     1       6.874   0.816  -7.042  1.00  0.00     0.159 HD
ATOM     40  H   UNL     1       7.396   0.132  -8.548  1.00  0.00     0.159 HD
ATOM     41  H   UNL     1       9.114   1.025  -9.608  1.00  0.00     0.159 HD
ATOM     42  H   UNL     1      10.287   1.998  -8.806  1.00  0.00     0.159 HD
ENDBRANCH  34  35
ENDBRANCH  33  34
ENDBRANCH  32  33
ENDBRANCH   6  32
ENDBRANCH   4   6
ENDBRANCH   1   2
BRANCH   1  43
ATOM     43  C   UNL     1       7.631   5.821   0.686  1.00  0.00     0.102 C 
ATOM     44  C   UNL     1       6.935   4.483   0.987  1.00  0.00     0.020 C 
BRANCH  43  45
ATOM     45  C   UNL     1       7.594   6.816   1.849  1.00  0.00     0.225 C 
ATOM     46  O   UNL     1       8.511   7.595   2.095  1.00  0.00    -0.275 OA
ATOM     47  N   UNL     1       6.497   6.722   2.674  1.00  0.00    -0.342 N 
ATOM     48  H   UNL     1       5.691   6.191   2.377  1.00  0.00     0.164 HD
BRANCH  47  49
ATOM     49  C   UNL     1       6.310   7.634   3.807  1.00  0.00     0.192 C 
BRANCH  49  50
ATOM     50  C   UNL     1       5.659   6.882   4.971  1.00  0.00     0.047 C 
BRANCH  50  51
ATOM     51  C   UNL     1       5.118   5.510   4.547  1.00  0.00     0.103 C 
BRANCH  51  52
ATOM     52  C   UNL     1       3.695   5.599   3.998  1.00  0.00     0.226 C 
ATOM     53  O   UNL     1       3.517   5.739   2.786  1.00  0.00    -0.275 OA
BRANCH  52  54
ATOM     54  N   UNL     1       2.652   5.437   4.929  1.00  0.00    -0.311 N 
ATOM     55  C   UNL     1       2.133   4.103   5.258  1.00  0.00     0.153 C 
BRANCH  54  56
ATOM     56  C   UNL     1       2.075   6.539   5.580  1.00  0.00     0.102 C 
ATOM     57  C   UNL     1       1.497   7.582   4.961  1.00  0.00     0.043 C 
BRANCH  56  58
ATOM     58  C   UNL     1       2.022   6.608   7.088  1.00  0.00     0.268 C 
ATOM     59  O   UNL     1       1.007   6.384   7.734  1.00  0.00    -0.268 OA
ATOM     60  N   UNL     1       3.242   6.881   7.660  1.00  0.00    -0.339 N 
ATOM     61  H   UNL     1       4.033   7.065   7.055  1.00  0.00     0.164 HD
BRANCH  60  62
ATOM     62  C   UNL     1       3.429   6.931   9.109  1.00  0.00     0.168 CG0
ATOM     63  C   UNL     1       3.948   5.600   9.640  1.00  0.00     0.041 C 
ATOM     64  G   UNL     1       2.098   7.309   9.790  1.00  0.00     0.000 G0
ENDBRANCH  60  62
ENDBRANCH  56  58
ENDBRANCH  54  56
ENDBRANCH  52  54
ENDBRANCH  51  52
ENDBRANCH  50  51
ENDBRANCH  49  50
BRANCH  49  65
ATOM     65  C   UNL     1       5.434   8.839   3.427  1.00  0.00     0.326 C 
ATOM     66  O   UNL     1       5.438   9.925   3.987  1.00  0.00    -0.250 OA
BRANCH  65  67
ATOM     67  O   UNL     1       4.566   8.608   2.417  1.00  0.00    -0.480 OA
ATOM     68  H   UNL     1       3.695   8.843   2.803  1.00  0.00     0.296 HD
ENDBRANCH  65  67
ENDBRANCH  49  65
ENDBRANCH  47  49
ENDBRANCH  43  45
ENDBRANCH   1  43
BRANCH   1  69
ATOM     69  C   UNL     1       5.707   6.956  -0.734  1.00  0.00    -0.001 C 
ATOM     70  C   UNL     1       4.624   6.215  -1.027  1.00  0.00     0.001 C 
BRANCH  70  71
ATOM     71  C   UNL     1       3.236   6.675  -1.100  1.00  0.00    -0.055 C 
ATOM     72  C   UNL     1       2.310   5.807  -1.556  1.00  0.00    -0.018 C 
ATOM     73  C   UNL     1       2.939   8.083  -0.652  1.00  0.00     0.044 C 
BRANCH  72  74
ATOM     74  C   UNL     1       0.811   6.003  -1.735  1.00  0.00     0.038 C 
ATOM     75  C   UNL     1       0.125   4.725  -1.239  1.00  0.00     0.015 C 
BRANCH  74  76
ATOM     76  C   UNL     1       0.527   6.360  -3.224  1.00  0.00     0.128 C 
BRANCH  76  77
ATOM     77  O   UNL     1       0.904   7.724  -3.482  1.00  0.00    -0.381 OA
ATOM     78  C   UNL     1       1.975   7.855  -4.407  1.00  0.00     0.195 C 
ENDBRANCH  76  77
BRANCH  76  79
ATOM     79  C   UNL     1       1.145   5.366  -4.239  1.00  0.00     0.068 C 
BRANCH  79  80
ATOM     80  C   UNL     1       0.287   4.911  -5.395  1.00  0.00    -0.045 A 
ATOM     81  C   UNL     1       0.850   4.638  -6.648  1.00  0.00     0.004 A 
ATOM     82  C   UNL     1      -1.101   4.781  -5.237  1.00  0.00     0.004 A 
ATOM     83  C   UNL     1       0.047   4.231  -7.716  1.00  0.00     0.000 A 
ATOM     84  C   UNL     1      -1.903   4.375  -6.305  1.00  0.00     0.000 A 
ATOM     85  C   UNL     1      -1.329   4.098  -7.544  1.00  0.00     0.000 A 
ENDBRANCH  79  80
ENDBRANCH  76  79
ENDBRANCH  74  76
ENDBRANCH  72  74
ENDBRANCH  70  71
ENDBRANCH   1  69
TORSDOF 17
ENDMDL
