MODEL 1
REMARK VINA RESULT:    -6.915      0.000      0.000
REMARK INTER + INTRA:         -28.191
REMARK INTER:                 -20.659
REMARK INTRA:                  -7.533
REMARK UNBOUND:                -7.533
REMARK SMILES C=C1C(=O)N[C@H](C)C(=O)N[C@@H](CC(C)C)C(=O)N[C@@H](C(=O)O)[C@H](C)C(=O)N[C@@H](CCCN=C(N)N)C(=O)N[C@@H](/C=C/C(C)=C/[C@H](C)[C@H](Cc2ccccc2)OC)[C@H](C)C(=O)N[C@@H](C(=O)O)CCC(=O)N1C
REMARK SMILES IDX 39 1 38 2 37 3 36 4 28 6 27 7 25 8 26 9 23 11 24 12 19 13
REMARK SMILES IDX 18 14 16 15 17 16 11 18 10 19 8 20 9 21 12 24 13 25 14 26
REMARK SMILES IDX 15 27 20 28 21 29 22 30 29 32 30 33 31 34 32 35 33 36 34 37
REMARK SMILES IDX 35 38 57 43 58 44 59 45 60 46 61 47 62 49 66 50 67 51 68 52
REMARK SMILES IDX 69 53 70 54 71 55 2 56 1 57 3 58 4 59 5 60 6 62 7 63 63 65
REMARK SMILES IDX 64 66 65 67 40 69 41 70 42 71 44 72 43 73 45 74 46 75 47 76
REMARK SMILES IDX 55 77 56 78 48 79 49 80 50 81 54 82 51 83 53 84 52 85
REMARK H PARENT 38 5 27 10 18 17 10 22 22 31 34 39 34 40 35 41 35 42 61 48
REMARK H PARENT 5 61 65 68
REMARK Flexibility Score:  369.900
ROOT
ATOM      1  C   UNL     1     -12.844 -12.392   1.173  1.00  0.00     0.117 C 
ENDROOT
BRANCH   1   2
ATOM      2  N   UNL     1     -13.033 -13.829   1.372  1.00  0.00    -0.347 N 
ATOM      3  O   UNL     1     -13.091 -13.823   3.667  1.00  0.00    -0.273 OA
ATOM      4  C   UNL     1     -13.233 -14.420   2.604  1.00  0.00     0.243 C 
ATOM      5  H   UNL     1     -13.071 -14.438   0.569  1.00  0.00     0.164 HD
BRANCH   4   6
ATOM      6  C   UNL     1     -13.493 -15.946   2.530  1.00  0.00     0.171 C 
BRANCH   6   7
ATOM      7  N   UNL     1     -12.436 -16.683   3.240  1.00  0.00    -0.344 N 
ATOM      8  C   UNL     1     -11.134 -16.655   2.788  1.00  0.00     0.226 C 
ATOM      9  O   UNL     1     -10.799 -16.046   1.780  1.00  0.00    -0.275 OA
ATOM     10  H   UNL     1     -12.687 -17.252   4.039  1.00  0.00     0.164 HD
BRANCH   8  11
ATOM     11  C   UNL     1     -10.153 -17.419   3.660  1.00  0.00     0.109 C 
ATOM     12  C   UNL     1      -9.049 -18.029   2.797  1.00  0.00     0.021 C 
BRANCH  11  13
ATOM     13  C   UNL     1      -9.657 -16.513   4.804  1.00  0.00     0.204 C 
BRANCH  13  14
ATOM     14  N   UNL     1      -9.763 -15.090   4.468  1.00  0.00    -0.340 N 
ATOM     15  C   UNL     1      -8.711 -14.361   3.958  1.00  0.00     0.243 C 
ATOM     16  O   UNL     1      -7.623 -14.869   3.692  1.00  0.00    -0.273 OA
ATOM     17  H   UNL     1     -10.583 -14.578   4.803  1.00  0.00     0.164 HD
BRANCH  15  18
ATOM     18  C   UNL     1      -8.994 -12.841   3.877  1.00  0.00     0.171 C 
BRANCH  18  19
ATOM     19  N   UNL     1      -9.456 -12.430   5.202  1.00  0.00    -0.343 N 
ATOM     20  C   UNL     1     -10.414 -11.449   5.367  1.00  0.00     0.242 CG0
ATOM     21  O   UNL     1     -10.825 -10.784   4.419  1.00  0.00    -0.273 OA
ATOM     22  H   UNL     1      -9.061 -12.870   6.025  1.00  0.00     0.164 HD
ATOM     23  G   UNL     1     -10.832 -11.207   6.832  1.00  0.00     0.000 G0
ENDBRANCH  18  19
BRANCH  18  24
ATOM     24  C   UNL     1      -7.731 -12.076   3.461  1.00  0.00     0.038 C 
BRANCH  24  25
ATOM     25  C   UNL     1      -7.995 -10.795   2.642  1.00  0.00    -0.015 C 
ATOM     26  C   UNL     1      -8.973 -11.026   1.491  1.00  0.00     0.007 C 
ATOM     27  C   UNL     1      -6.672 -10.253   2.094  1.00  0.00     0.007 C 
ENDBRANCH  24  25
ENDBRANCH  18  24
ENDBRANCH  15  18
ENDBRANCH  13  14
BRANCH  13  28
ATOM     28  C   UNL     1     -10.417 -16.728   6.117  1.00  0.00     0.327 C 
ATOM     29  O   UNL     1     -11.415 -17.414   6.270  1.00  0.00    -0.250 OA
BRANCH  28  30
ATOM     30  O   UNL     1      -9.946 -15.972   7.130  1.00  0.00    -0.480 OA
ATOM     31  H   UNL     1     -10.392 -16.331   7.925  1.00  0.00     0.296 HD
ENDBRANCH  28  30
ENDBRANCH  13  28
ENDBRANCH  11  13
ENDBRANCH   8  11
ENDBRANCH   6   7
BRANCH   6  32
ATOM     32  C   UNL     1     -14.871 -16.252   3.128  1.00  0.00     0.037 C 
BRANCH  32  33
ATOM     33  C   UNL     1     -14.778 -17.165   4.358  1.00  0.00     0.026 C 
BRANCH  33  34
ATOM     34  C   UNL     1     -15.458 -16.561   5.588  1.00  0.00     0.146 C 
BRANCH  34  35
ATOM     35  N   UNL     1     -14.479 -15.774   6.327  1.00  0.00    -0.254 NA
ATOM     36  C   UNL     1     -14.558 -14.497   6.281  1.00  0.00     0.185 C 
ATOM     37  N   UNL     1     -13.665 -13.762   6.962  1.00  0.00    -0.370 N 
ATOM     38  N   UNL     1     -15.444 -13.727   5.624  1.00  0.00    -0.370 N 
ATOM     39  H   UNL     1     -12.969 -14.270   7.493  1.00  0.00     0.159 HD
ATOM     40  H   UNL     1     -13.761 -12.773   7.119  1.00  0.00     0.159 HD
ATOM     41  H   UNL     1     -15.317 -12.731   5.553  1.00  0.00     0.159 HD
ATOM     42  H   UNL     1     -16.164 -14.146   5.057  1.00  0.00     0.159 HD
ENDBRANCH  34  35
ENDBRANCH  33  34
ENDBRANCH  32  33
ENDBRANCH   6  32
ENDBRANCH   4   6
ENDBRANCH   1   2
BRANCH   1  43
ATOM     43  C   UNL     1     -14.239 -11.702   1.188  1.00  0.00     0.102 C 
ATOM     44  C   UNL     1     -15.083 -12.001  -0.062  1.00  0.00     0.020 C 
BRANCH  43  45
ATOM     45  C   UNL     1     -14.112 -10.210   1.510  1.00  0.00     0.225 C 
ATOM     46  O   UNL     1     -13.033  -9.654   1.697  1.00  0.00    -0.275 OA
ATOM     47  N   UNL     1     -15.300  -9.536   1.674  1.00  0.00    -0.342 N 
ATOM     48  H   UNL     1     -16.164  -9.964   1.371  1.00  0.00     0.164 HD
BRANCH  47  49
ATOM     49  C   UNL     1     -15.333  -8.096   1.949  1.00  0.00     0.192 C 
BRANCH  49  50
ATOM     50  C   UNL     1     -15.755  -7.860   3.401  1.00  0.00     0.047 C 
BRANCH  50  51
ATOM     51  C   UNL     1     -14.552  -7.788   4.352  1.00  0.00     0.103 C 
BRANCH  51  52
ATOM     52  C   UNL     1     -14.982  -7.747   5.818  1.00  0.00     0.226 C 
ATOM     53  O   UNL     1     -15.523  -6.735   6.267  1.00  0.00    -0.275 OA
BRANCH  52  54
ATOM     54  N   UNL     1     -14.793  -8.929   6.559  1.00  0.00    -0.311 N 
ATOM     55  C   UNL     1     -15.605 -10.124   6.296  1.00  0.00     0.153 C 
BRANCH  54  56
ATOM     56  C   UNL     1     -13.822  -9.011   7.571  1.00  0.00     0.102 C 
ATOM     57  C   UNL     1     -13.623  -8.085   8.523  1.00  0.00     0.043 C 
BRANCH  56  58
ATOM     58  C   UNL     1     -12.926 -10.222   7.688  1.00  0.00     0.268 C 
ATOM     59  O   UNL     1     -13.213 -11.205   8.356  1.00  0.00    -0.268 OA
ATOM     60  N   UNL     1     -11.792 -10.131   6.917  1.00  0.00    -0.339 N 
ATOM     61  H   UNL     1     -11.621  -9.277   6.399  1.00  0.00     0.164 HD
BRANCH  60  62
ATOM     62  C   UNL     1     -10.817 -11.218   6.833  1.00  0.00     0.168 CG0
ATOM     63  C   UNL     1      -9.594 -10.923   7.692  1.00  0.00     0.041 C 
ATOM     64  G   UNL     1     -10.411 -11.437   5.361  1.00  0.00     0.000 G0
ENDBRANCH  60  62
ENDBRANCH  56  58
ENDBRANCH  54  56
ENDBRANCH  52  54
ENDBRANCH  51  52
ENDBRANCH  50  51
ENDBRANCH  49  50
BRANCH  49  65
ATOM     65  C   UNL     1     -16.304  -7.362   1.011  1.00  0.00     0.326 C 
ATOM     66  O   UNL     1     -17.274  -7.861   0.460  1.00  0.00    -0.250 OA
BRANCH  65  67
ATOM     67  O   UNL     1     -15.982  -6.073   0.763  1.00  0.00    -0.480 OA
ATOM     68  H   UNL     1     -16.611  -5.566   1.320  1.00  0.00     0.296 HD
ENDBRANCH  65  67
ENDBRANCH  49  65
ENDBRANCH  47  49
ENDBRANCH  43  45
ENDBRANCH   1  43
BRANCH   1  69
ATOM     69  C   UNL     1     -11.967 -12.245  -0.057  1.00  0.00    -0.001 C 
ATOM     70  C   UNL     1     -11.182 -13.182  -0.617  1.00  0.00     0.001 C 
BRANCH  70  71
ATOM     71  C   UNL     1     -10.356 -13.035  -1.817  1.00  0.00    -0.055 C 
ATOM     72  C   UNL     1      -9.972 -14.160  -2.456  1.00  0.00    -0.018 C 
ATOM     73  C   UNL     1     -10.000 -11.640  -2.258  1.00  0.00     0.044 C 
BRANCH  72  74
ATOM     74  C   UNL     1      -9.126 -14.314  -3.712  1.00  0.00     0.038 C 
ATOM     75  C   UNL     1      -9.126 -15.803  -4.079  1.00  0.00     0.015 C 
BRANCH  74  76
ATOM     76  C   UNL     1      -7.717 -13.706  -3.444  1.00  0.00     0.128 C 
BRANCH  76  77
ATOM     77  O   UNL     1      -6.779 -14.755  -3.148  1.00  0.00    -0.381 OA
ATOM     78  C   UNL     1      -5.455 -14.290  -2.924  1.00  0.00     0.195 C 
ENDBRANCH  76  77
BRANCH  76  79
ATOM     79  C   UNL     1      -7.220 -12.755  -4.561  1.00  0.00     0.068 C 
BRANCH  79  80
ATOM     80  C   UNL     1      -8.105 -12.557  -5.768  1.00  0.00    -0.045 A 
ATOM     81  C   UNL     1      -8.962 -11.452  -5.862  1.00  0.00     0.004 A 
ATOM     82  C   UNL     1      -8.102 -13.498  -6.809  1.00  0.00     0.004 A 
ATOM     83  C   UNL     1      -9.788 -11.284  -6.975  1.00  0.00     0.000 A 
ATOM     84  C   UNL     1      -8.929 -13.329  -7.921  1.00  0.00     0.000 A 
ATOM     85  C   UNL     1      -9.770 -12.222  -8.005  1.00  0.00     0.000 A 
ENDBRANCH  79  80
ENDBRANCH  76  79
ENDBRANCH  74  76
ENDBRANCH  72  74
ENDBRANCH  70  71
ENDBRANCH   1  69
TORSDOF 17
ENDMDL
MODEL 2
REMARK VINA RESULT:    -6.652      3.002      5.467
REMARK INTER + INTRA:         -27.407
REMARK INTER:                 -20.051
REMARK INTRA:                  -7.357
REMARK UNBOUND:                -7.533
REMARK SMILES C=C1C(=O)N[C@H](C)C(=O)N[C@@H](CC(C)C)C(=O)N[C@@H](C(=O)O)[C@H](C)C(=O)N[C@@H](CCCN=C(N)N)C(=O)N[C@@H](/C=C/C(C)=C/[C@H](C)[C@H](Cc2ccccc2)OC)[C@H](C)C(=O)N[C@@H](C(=O)O)CCC(=O)N1C
REMARK SMILES IDX 39 1 38 2 37 3 36 4 28 6 27 7 25 8 26 9 23 11 24 12 19 13
REMARK SMILES IDX 18 14 16 15 17 16 11 18 10 19 8 20 9 21 12 24 13 25 14 26
REMARK SMILES IDX 15 27 20 28 21 29 22 30 29 32 30 33 31 34 32 35 33 36 34 37
REMARK SMILES IDX 35 38 57 43 58 44 59 45 60 46 61 47 62 49 66 50 67 51 68 52
REMARK SMILES IDX 69 53 70 54 71 55 2 56 1 57 3 58 4 59 5 60 6 62 7 63 63 65
REMARK SMILES IDX 64 66 65 67 40 69 41 70 42 71 44 72 43 73 45 74 46 75 47 76
REMARK SMILES IDX 55 77 56 78 48 79 49 80 50 81 54 82 51 83 53 84 52 85
REMARK H PARENT 38 5 27 10 18 17 10 22 22 31 34 39 34 40 35 41 35 42 61 48
REMARK H PARENT 5 61 65 68
REMARK Flexibility Score:  369.900
ROOT
ATOM      1  C   UNL     1     -11.886 -11.891   0.123  1.00  0.00     0.117 C 
ENDROOT
BRANCH   1   2
ATOM      2  N   UNL     1     -11.744 -12.559   1.417  1.00  0.00    -0.347 N 
ATOM      3  O   UNL     1     -10.603 -10.892   2.506  1.00  0.00    -0.273 OA
ATOM      4  C   UNL     1     -11.192 -11.966   2.537  1.00  0.00     0.243 C 
ATOM      5  H   UNL     1     -12.110 -13.491   1.535  1.00  0.00     0.164 HD
BRANCH   4   6
ATOM      6  C   UNL     1     -11.241 -12.860   3.802  1.00  0.00     0.171 C 
BRANCH   6   7
ATOM      7  N   UNL     1     -12.072 -14.050   3.560  1.00  0.00    -0.344 N 
ATOM      8  C   UNL     1     -12.940 -14.509   4.527  1.00  0.00     0.226 C 
ATOM      9  O   UNL     1     -13.048 -13.976   5.625  1.00  0.00    -0.275 OA
ATOM     10  H   UNL     1     -11.962 -14.557   2.691  1.00  0.00     0.164 HD
BRANCH   8  11
ATOM     11  C   UNL     1     -13.766 -15.712   4.106  1.00  0.00     0.109 C 
ATOM     12  C   UNL     1     -13.554 -16.001   2.620  1.00  0.00     0.021 C 
BRANCH  11  13
ATOM     13  C   UNL     1     -13.474 -16.900   5.045  1.00  0.00     0.204 C 
BRANCH  13  14
ATOM     14  N   UNL     1     -12.089 -16.893   5.528  1.00  0.00    -0.340 N 
ATOM     15  C   UNL     1     -11.102 -17.684   4.980  1.00  0.00     0.243 C 
ATOM     16  O   UNL     1     -11.300 -18.408   4.006  1.00  0.00    -0.273 OA
ATOM     17  H   UNL     1     -11.894 -16.435   6.422  1.00  0.00     0.164 HD
BRANCH  15  18
ATOM     18  C   UNL     1      -9.778 -17.665   5.783  1.00  0.00     0.171 C 
BRANCH  18  19
ATOM     19  N   UNL     1      -9.191 -18.998   5.654  1.00  0.00    -0.343 N 
ATOM     20  C   UNL     1      -9.062 -19.845   6.738  1.00  0.00     0.242 CG0
ATOM     21  O   UNL     1      -9.311 -19.469   7.881  1.00  0.00    -0.273 OA
ATOM     22  H   UNL     1      -8.863 -19.312   4.748  1.00  0.00     0.164 HD
ATOM     23  G   UNL     1      -8.494 -21.237   6.394  1.00  0.00     0.000 G0
ENDBRANCH  18  19
BRANCH  18  24
ATOM     24  C   UNL     1      -8.835 -16.582   5.245  1.00  0.00     0.038 C 
BRANCH  24  25
ATOM     25  C   UNL     1      -7.359 -17.016   5.122  1.00  0.00    -0.015 C 
ATOM     26  C   UNL     1      -6.606 -16.912   6.448  1.00  0.00     0.007 C 
ATOM     27  C   UNL     1      -6.658 -16.161   4.063  1.00  0.00     0.007 C 
ENDBRANCH  24  25
ENDBRANCH  18  24
ENDBRANCH  15  18
ENDBRANCH  13  14
BRANCH  13  28
ATOM     28  C   UNL     1     -14.384 -16.933   6.276  1.00  0.00     0.327 C 
ATOM     29  O   UNL     1     -15.604 -16.891   6.274  1.00  0.00    -0.250 OA
BRANCH  28  30
ATOM     30  O   UNL     1     -13.701 -16.898   7.439  1.00  0.00    -0.480 OA
ATOM     31  H   UNL     1     -13.477 -15.951   7.558  1.00  0.00     0.296 HD
ENDBRANCH  28  30
ENDBRANCH  13  28
ENDBRANCH  11  13
ENDBRANCH   8  11
ENDBRANCH   6   7
BRANCH   6  32
ATOM     32  C   UNL     1      -9.813 -13.259   4.192  1.00  0.00     0.037 C 
BRANCH  32  33
ATOM     33  C   UNL     1      -9.200 -12.291   5.213  1.00  0.00     0.026 C 
BRANCH  33  34
ATOM     34  C   UNL     1      -9.933 -12.313   6.555  1.00  0.00     0.146 C 
BRANCH  34  35
ATOM     35  N   UNL     1     -10.303 -10.951   6.911  1.00  0.00    -0.254 NA
ATOM     36  C   UNL     1     -11.544 -10.671   7.065  1.00  0.00     0.185 C 
ATOM     37  N   UNL     1     -11.896  -9.419   7.398  1.00  0.00    -0.370 N 
ATOM     38  N   UNL     1     -12.613 -11.477   6.940  1.00  0.00    -0.370 N 
ATOM     39  H   UNL     1     -11.143  -8.754   7.521  1.00  0.00     0.159 HD
ATOM     40  H   UNL     1     -12.819  -9.164   7.704  1.00  0.00     0.159 HD
ATOM     41  H   UNL     1     -13.549 -11.105   6.950  1.00  0.00     0.159 HD
ATOM     42  H   UNL     1     -12.499 -12.443   6.677  1.00  0.00     0.159 HD
ENDBRANCH  34  35
ENDBRANCH  33  34
ENDBRANCH  32  33
ENDBRANCH   6  32
ENDBRANCH   4   6
ENDBRANCH   1   2
BRANCH   1  43
ATOM     43  C   UNL     1     -13.372 -11.466  -0.056  1.00  0.00     0.102 C 
ATOM     44  C   UNL     1     -13.544 -10.161  -0.852  1.00  0.00     0.020 C 
BRANCH  43  45
ATOM     45  C   UNL     1     -14.112 -11.477   1.285  1.00  0.00     0.225 C 
ATOM     46  O   UNL     1     -14.565 -12.500   1.793  1.00  0.00    -0.275 OA
ATOM     47  N   UNL     1     -14.326 -10.243   1.854  1.00  0.00    -0.342 N 
ATOM     48  H   UNL     1     -13.822  -9.439   1.509  1.00  0.00     0.164 HD
BRANCH  47  49
ATOM     49  C   UNL     1     -14.989 -10.103   3.154  1.00  0.00     0.192 C 
BRANCH  49  50
ATOM     50  C   UNL     1     -16.194  -9.168   3.019  1.00  0.00     0.047 C 
BRANCH  50  51
ATOM     51  C   UNL     1     -15.980  -8.096   1.941  1.00  0.00     0.103 C 
BRANCH  51  52
ATOM     52  C   UNL     1     -16.361  -6.702   2.436  1.00  0.00     0.226 C 
ATOM     53  O   UNL     1     -16.089  -6.370   3.592  1.00  0.00    -0.275 OA
BRANCH  52  54
ATOM     54  N   UNL     1     -16.945  -5.839   1.491  1.00  0.00    -0.311 N 
ATOM     55  C   UNL     1     -16.722  -6.032   0.052  1.00  0.00     0.153 C 
BRANCH  54  56
ATOM     56  C   UNL     1     -17.764  -4.768   1.885  1.00  0.00     0.102 C 
ATOM     57  C   UNL     1     -19.080  -4.675   1.636  1.00  0.00     0.043 C 
BRANCH  56  58
ATOM     58  C   UNL     1     -17.203  -3.618   2.688  1.00  0.00     0.268 C 
ATOM     59  O   UNL     1     -16.598  -2.681   2.184  1.00  0.00    -0.268 OA
ATOM     60  N   UNL     1     -17.498  -3.700   4.028  1.00  0.00    -0.339 N 
ATOM     61  H   UNL     1     -17.995  -4.515   4.368  1.00  0.00     0.164 HD
BRANCH  60  62
ATOM     62  C   UNL     1     -17.105  -2.660   4.978  1.00  0.00     0.168 CG0
ATOM     63  C   UNL     1     -16.490  -3.269   6.232  1.00  0.00     0.041 C 
ATOM     64  G   UNL     1     -18.332  -1.796   5.335  1.00  0.00     0.000 G0
ENDBRANCH  60  62
ENDBRANCH  56  58
ENDBRANCH  54  56
ENDBRANCH  52  54
ENDBRANCH  51  52
ENDBRANCH  50  51
ENDBRANCH  49  50
BRANCH  49  65
ATOM     65  C   UNL     1     -14.033  -9.549   4.222  1.00  0.00     0.326 C 
ATOM     66  O   UNL     1     -14.304  -9.385   5.402  1.00  0.00    -0.250 OA
BRANCH  65  67
ATOM     67  O   UNL     1     -12.821  -9.177   3.755  1.00  0.00    -0.480 OA
ATOM     68  H   UNL     1     -13.034  -8.558   3.024  1.00  0.00     0.296 HD
ENDBRANCH  65  67
ENDBRANCH  49  65
ENDBRANCH  47  49
ENDBRANCH  43  45
ENDBRANCH   1  43
BRANCH   1  69
ATOM     69  C   UNL     1     -11.260 -12.819  -0.903  1.00  0.00    -0.001 C 
ATOM     70  C   UNL     1      -9.962 -12.901  -1.245  1.00  0.00     0.001 C 
BRANCH  70  71
ATOM     71  C   UNL     1      -9.367 -13.816  -2.222  1.00  0.00    -0.055 C 
ATOM     72  C   UNL     1      -8.089 -13.591  -2.594  1.00  0.00    -0.018 C 
ATOM     73  C   UNL     1     -10.219 -14.947  -2.736  1.00  0.00     0.044 C 
BRANCH  72  74
ATOM     74  C   UNL     1      -7.221 -14.367  -3.575  1.00  0.00     0.038 C 
ATOM     75  C   UNL     1      -5.778 -14.287  -3.063  1.00  0.00     0.015 C 
BRANCH  74  76
ATOM     76  C   UNL     1      -7.439 -13.788  -5.004  1.00  0.00     0.128 C 
BRANCH  76  77
ATOM     77  O   UNL     1      -6.226 -13.895  -5.768  1.00  0.00    -0.381 OA
ATOM     78  C   UNL     1      -5.889 -12.709  -6.473  1.00  0.00     0.195 C 
ENDBRANCH  76  77
BRANCH  76  79
ATOM     79  C   UNL     1      -8.667 -14.379  -5.742  1.00  0.00     0.068 C 
BRANCH  79  80
ATOM     80  C   UNL     1      -9.636 -13.417  -6.385  1.00  0.00    -0.045 A 
ATOM     81  C   UNL     1     -10.250 -13.720  -7.607  1.00  0.00     0.004 A 
ATOM     82  C   UNL     1      -9.917 -12.184  -5.778  1.00  0.00     0.004 A 
ATOM     83  C   UNL     1     -11.135 -12.819  -8.203  1.00  0.00     0.000 A 
ATOM     84  C   UNL     1     -10.801 -11.282  -6.375  1.00  0.00     0.000 A 
ATOM     85  C   UNL     1     -11.411 -11.601  -7.586  1.00  0.00     0.000 A 
ENDBRANCH  79  80
ENDBRANCH  76  79
ENDBRANCH  74  76
ENDBRANCH  72  74
ENDBRANCH  70  71
ENDBRANCH   1  69
TORSDOF 17
ENDMDL
MODEL 3
REMARK VINA RESULT:    -6.588      3.961      8.613
REMARK INTER + INTRA:         -27.214
REMARK INTER:                 -20.323
REMARK INTRA:                  -6.892
REMARK UNBOUND:                -7.533
REMARK SMILES C=C1C(=O)N[C@H](C)C(=O)N[C@@H](CC(C)C)C(=O)N[C@@H](C(=O)O)[C@H](C)C(=O)N[C@@H](CCCN=C(N)N)C(=O)N[C@@H](/C=C/C(C)=C/[C@H](C)[C@H](Cc2ccccc2)OC)[C@H](C)C(=O)N[C@@H](C(=O)O)CCC(=O)N1C
REMARK SMILES IDX 39 1 38 2 37 3 36 4 28 6 27 7 25 8 26 9 23 11 24 12 19 13
REMARK SMILES IDX 18 14 16 15 17 16 11 18 10 19 8 20 9 21 12 24 13 25 14 26
REMARK SMILES IDX 15 27 20 28 21 29 22 30 29 32 30 33 31 34 32 35 33 36 34 37
REMARK SMILES IDX 35 38 57 43 58 44 59 45 60 46 61 47 62 49 66 50 67 51 68 52
REMARK SMILES IDX 69 53 70 54 71 55 2 56 1 57 3 58 4 59 5 60 6 62 7 63 63 65
REMARK SMILES IDX 64 66 65 67 40 69 41 70 42 71 44 72 43 73 45 74 46 75 47 76
REMARK SMILES IDX 55 77 56 78 48 79 49 80 50 81 54 82 51 83 53 84 52 85
REMARK H PARENT 38 5 27 10 18 17 10 22 22 31 34 39 34 40 35 41 35 42 61 48
REMARK H PARENT 5 61 65 68
REMARK Flexibility Score:  369.900
ROOT
ATOM      1  C   UNL     1     -13.952 -10.585   6.055  1.00  0.00     0.117 C 
ENDROOT
BRANCH   1   2
ATOM      2  N   UNL     1     -13.035 -10.013   5.068  1.00  0.00    -0.347 N 
ATOM      3  O   UNL     1     -12.291 -11.984   4.155  1.00  0.00    -0.273 OA
ATOM      4  C   UNL     1     -12.344 -10.759   4.132  1.00  0.00     0.243 C 
ATOM      5  H   UNL     1     -12.923  -9.012   5.019  1.00  0.00     0.164 HD
BRANCH   4   6
ATOM      6  C   UNL     1     -11.507  -9.902   3.148  1.00  0.00     0.171 C 
BRANCH   6   7
ATOM      7  N   UNL     1     -10.679 -10.766   2.291  1.00  0.00    -0.344 N 
ATOM      8  C   UNL     1      -9.362 -11.017   2.608  1.00  0.00     0.226 C 
ATOM      9  O   UNL     1      -8.814 -10.526   3.588  1.00  0.00    -0.275 OA
ATOM     10  H   UNL     1     -11.077 -11.135   1.436  1.00  0.00     0.164 HD
BRANCH   8  11
ATOM     11  C   UNL     1      -8.660 -11.969   1.656  1.00  0.00     0.109 C 
ATOM     12  C   UNL     1      -7.730 -12.900   2.434  1.00  0.00     0.021 C 
BRANCH  11  13
ATOM     13  C   UNL     1      -9.700 -12.683   0.770  1.00  0.00     0.204 C 
BRANCH  13  14
ATOM     14  N   UNL     1      -9.166 -13.008  -0.556  1.00  0.00    -0.340 N 
ATOM     15  C   UNL     1      -9.816 -12.680  -1.726  1.00  0.00     0.243 C 
ATOM     16  O   UNL     1     -10.864 -12.036  -1.741  1.00  0.00    -0.273 OA
ATOM     17  H   UNL     1      -8.386 -13.668  -0.611  1.00  0.00     0.164 HD
BRANCH  15  18
ATOM     18  C   UNL     1      -9.172 -13.304  -2.988  1.00  0.00     0.171 C 
BRANCH  18  19
ATOM     19  N   UNL     1      -9.180 -12.268  -4.018  1.00  0.00    -0.343 N 
ATOM     20  C   UNL     1     -10.033 -12.325  -5.103  1.00  0.00     0.242 CG0
ATOM     21  O   UNL     1     -10.730 -13.313  -5.322  1.00  0.00    -0.273 OA
ATOM     22  H   UNL     1      -8.538 -11.486  -3.942  1.00  0.00     0.164 HD
ATOM     23  G   UNL     1      -9.952 -11.103  -6.042  1.00  0.00     0.000 G0
ENDBRANCH  18  19
BRANCH  18  24
ATOM     24  C   UNL     1      -7.748 -13.787  -2.686  1.00  0.00     0.038 C 
BRANCH  24  25
ATOM     25  C   UNL     1      -6.828 -13.890  -3.921  1.00  0.00    -0.015 C 
ATOM     26  C   UNL     1      -7.120 -15.129  -4.767  1.00  0.00     0.007 C 
ATOM     27  C   UNL     1      -5.364 -13.906  -3.472  1.00  0.00     0.007 C 
ENDBRANCH  24  25
ENDBRANCH  18  24
ENDBRANCH  15  18
ENDBRANCH  13  14
BRANCH  13  28
ATOM     28  C   UNL     1     -10.220 -13.987   1.382  1.00  0.00     0.327 C 
ATOM     29  O   UNL     1      -9.981 -15.117   0.986  1.00  0.00    -0.250 OA
BRANCH  28  30
ATOM     30  O   UNL     1     -11.104 -13.787   2.382  1.00  0.00    -0.480 OA
ATOM     31  H   UNL     1     -10.645 -13.169   2.988  1.00  0.00     0.296 HD
ENDBRANCH  28  30
ENDBRANCH  13  28
ENDBRANCH  11  13
ENDBRANCH   8  11
ENDBRANCH   6   7
BRANCH   6  32
ATOM     32  C   UNL     1     -12.450  -9.037   2.306  1.00  0.00     0.037 C 
BRANCH  32  33
ATOM     33  C   UNL     1     -13.623  -9.845   1.734  1.00  0.00     0.026 C 
BRANCH  33  34
ATOM     34  C   UNL     1     -14.954  -9.099   1.837  1.00  0.00     0.146 C 
BRANCH  34  35
ATOM     35  N   UNL     1     -15.359  -9.052   3.235  1.00  0.00    -0.254 NA
ATOM     36  C   UNL     1     -15.619  -7.913   3.761  1.00  0.00     0.185 C 
ATOM     37  N   UNL     1     -15.999  -7.859   5.047  1.00  0.00    -0.370 N 
ATOM     38  N   UNL     1     -15.570  -6.692   3.200  1.00  0.00    -0.370 N 
ATOM     39  H   UNL     1     -16.069  -8.741   5.538  1.00  0.00     0.159 HD
ATOM     40  H   UNL     1     -16.383  -7.036   5.479  1.00  0.00     0.159 HD
ATOM     41  H   UNL     1     -15.663  -5.859   3.757  1.00  0.00     0.159 HD
ATOM     42  H   UNL     1     -15.284  -6.580   2.239  1.00  0.00     0.159 HD
ENDBRANCH  34  35
ENDBRANCH  33  34
ENDBRANCH  32  33
ENDBRANCH   6  32
ENDBRANCH   4   6
ENDBRANCH   1   2
BRANCH   1  43
ATOM     43  C   UNL     1     -13.258 -10.563   7.447  1.00  0.00     0.102 C 
ATOM     44  C   UNL     1     -12.580  -9.222   7.772  1.00  0.00     0.020 C 
BRANCH  43  45
ATOM     45  C   UNL     1     -12.345 -11.780   7.625  1.00  0.00     0.225 C 
ATOM     46  O   UNL     1     -12.771 -12.916   7.818  1.00  0.00    -0.275 OA
ATOM     47  N   UNL     1     -10.996 -11.510   7.650  1.00  0.00    -0.342 N 
ATOM     48  H   UNL     1     -10.661 -10.609   7.342  1.00  0.00     0.164 HD
BRANCH  47  49
ATOM     49  C   UNL     1     -10.003 -12.581   7.778  1.00  0.00     0.192 C 
BRANCH  49  50
ATOM     50  C   UNL     1      -8.651 -11.983   8.177  1.00  0.00     0.047 C 
BRANCH  50  51
ATOM     51  C   UNL     1      -8.037 -12.693   9.392  1.00  0.00     0.103 C 
BRANCH  51  52
ATOM     52  C   UNL     1      -7.187 -11.747  10.239  1.00  0.00     0.226 C 
ATOM     53  O   UNL     1      -7.356 -10.530  10.149  1.00  0.00    -0.275 OA
BRANCH  52  54
ATOM     54  N   UNL     1      -6.296 -12.349  11.146  1.00  0.00    -0.311 N 
ATOM     55  C   UNL     1      -5.393 -13.426  10.718  1.00  0.00     0.153 C 
BRANCH  54  56
ATOM     56  C   UNL     1      -6.231 -11.942  12.489  1.00  0.00     0.102 C 
ATOM     57  C   UNL     1      -5.673 -10.798  12.919  1.00  0.00     0.043 C 
BRANCH  56  58
ATOM     58  C   UNL     1      -6.852 -12.777  13.583  1.00  0.00     0.268 C 
ATOM     59  O   UNL     1      -7.797 -13.532  13.396  1.00  0.00    -0.268 OA
ATOM     60  N   UNL     1      -6.206 -12.653  14.790  1.00  0.00    -0.339 N 
ATOM     61  H   UNL     1      -5.437 -11.998  14.866  1.00  0.00     0.164 HD
BRANCH  60  62
ATOM     62  C   UNL     1      -6.604 -13.421  15.969  1.00  0.00     0.168 CG0
ATOM     63  C   UNL     1      -5.466 -14.312  16.451  1.00  0.00     0.041 C 
ATOM     64  G   UNL     1      -7.854 -14.263  15.641  1.00  0.00     0.000 G0
ENDBRANCH  60  62
ENDBRANCH  56  58
ENDBRANCH  54  56
ENDBRANCH  52  54
ENDBRANCH  51  52
ENDBRANCH  50  51
ENDBRANCH  49  50
BRANCH  49  65
ATOM     65  C   UNL     1      -9.845 -13.367   6.467  1.00  0.00     0.326 C 
ATOM     66  O   UNL     1      -9.796 -14.584   6.370  1.00  0.00    -0.250 OA
BRANCH  65  67
ATOM     67  O   UNL     1      -9.696 -12.600   5.365  1.00  0.00    -0.480 OA
ATOM     68  H   UNL     1      -9.112 -13.137   4.786  1.00  0.00     0.296 HD
ENDBRANCH  65  67
ENDBRANCH  49  65
ENDBRANCH  47  49
ENDBRANCH  43  45
ENDBRANCH   1  43
BRANCH   1  69
ATOM     69  C   UNL     1     -14.413 -11.914   5.485  1.00  0.00    -0.001 C 
ATOM     70  C   UNL     1     -15.665 -12.265   5.140  1.00  0.00     0.001 C 
BRANCH  70  71
ATOM     71  C   UNL     1     -16.094 -13.544   4.571  1.00  0.00    -0.055 C 
ATOM     72  C   UNL     1     -15.483 -14.663   5.012  1.00  0.00    -0.018 C 
ATOM     73  C   UNL     1     -17.193 -13.520   3.540  1.00  0.00     0.044 C 
BRANCH  72  74
ATOM     74  C   UNL     1     -15.720 -16.112   4.609  1.00  0.00     0.038 C 
ATOM     75  C   UNL     1     -15.980 -16.903   5.897  1.00  0.00     0.015 C 
BRANCH  74  76
ATOM     76  C   UNL     1     -14.502 -16.605   3.774  1.00  0.00     0.128 C 
BRANCH  76  77
ATOM     77  O   UNL     1     -13.921 -17.766   4.391  1.00  0.00    -0.381 OA
ATOM     78  C   UNL     1     -12.556 -17.599   4.751  1.00  0.00     0.195 C 
ENDBRANCH  76  77
BRANCH  76  79
ATOM     79  C   UNL     1     -14.814 -16.818   2.271  1.00  0.00     0.068 C 
BRANCH  79  80
ATOM     80  C   UNL     1     -15.190 -15.610   1.448  1.00  0.00    -0.045 A 
ATOM     81  C   UNL     1     -16.355 -15.600   0.670  1.00  0.00     0.004 A 
ATOM     82  C   UNL     1     -14.358 -14.480   1.430  1.00  0.00     0.004 A 
ATOM     83  C   UNL     1     -16.689 -14.483  -0.099  1.00  0.00     0.000 A 
ATOM     84  C   UNL     1     -14.692 -13.364   0.659  1.00  0.00     0.000 A 
ATOM     85  C   UNL     1     -15.858 -13.365  -0.103  1.00  0.00     0.000 A 
ENDBRANCH  79  80
ENDBRANCH  76  79
ENDBRANCH  74  76
ENDBRANCH  72  74
ENDBRANCH  70  71
ENDBRANCH   1  69
TORSDOF 17
ENDMDL
MODEL 4
REMARK VINA RESULT:    -6.580      1.700      2.790
REMARK INTER + INTRA:         -27.191
REMARK INTER:                 -20.301
REMARK INTRA:                  -6.891
REMARK UNBOUND:                -7.533
REMARK SMILES C=C1C(=O)N[C@H](C)C(=O)N[C@@H](CC(C)C)C(=O)N[C@@H](C(=O)O)[C@H](C)C(=O)N[C@@H](CCCN=C(N)N)C(=O)N[C@@H](/C=C/C(C)=C/[C@H](C)[C@H](Cc2ccccc2)OC)[C@H](C)C(=O)N[C@@H](C(=O)O)CCC(=O)N1C
REMARK SMILES IDX 39 1 38 2 37 3 36 4 28 6 27 7 25 8 26 9 23 11 24 12 19 13
REMARK SMILES IDX 18 14 16 15 17 16 11 18 10 19 8 20 9 21 12 24 13 25 14 26
REMARK SMILES IDX 15 27 20 28 21 29 22 30 29 32 30 33 31 34 32 35 33 36 34 37
REMARK SMILES IDX 35 38 57 43 58 44 59 45 60 46 61 47 62 49 66 50 67 51 68 52
REMARK SMILES IDX 69 53 70 54 71 55 2 56 1 57 3 58 4 59 5 60 6 62 7 63 63 65
REMARK SMILES IDX 64 66 65 67 40 69 41 70 42 71 44 72 43 73 45 74 46 75 47 76
REMARK SMILES IDX 55 77 56 78 48 79 49 80 50 81 54 82 51 83 53 84 52 85
REMARK H PARENT 38 5 27 10 18 17 10 22 22 31 34 39 34 40 35 41 35 42 61 48
REMARK H PARENT 5 61 65 68
REMARK Flexibility Score:  369.900
ROOT
ATOM      1  C   UNL     1     -12.801 -13.252   1.136  1.00  0.00     0.117 C 
ENDROOT
BRANCH   1   2
ATOM      2  N   UNL     1     -12.842 -14.477   1.935  1.00  0.00    -0.347 N 
ATOM      3  O   UNL     1     -13.589 -13.546   3.896  1.00  0.00    -0.273 OA
ATOM      4  C   UNL     1     -13.321 -14.540   3.229  1.00  0.00     0.243 C 
ATOM      5  H   UNL     1     -12.552 -15.349   1.519  1.00  0.00     0.164 HD
BRANCH   4   6
ATOM      6  C   UNL     1     -13.335 -15.973   3.820  1.00  0.00     0.171 C 
BRANCH   6   7
ATOM      7  N   UNL     1     -11.991 -16.349   4.289  1.00  0.00    -0.344 N 
ATOM      8  C   UNL     1     -11.297 -17.374   3.684  1.00  0.00     0.226 C 
ATOM      9  O   UNL     1     -11.760 -18.029   2.758  1.00  0.00    -0.275 OA
ATOM     10  H   UNL     1     -11.603 -15.875   5.095  1.00  0.00     0.164 HD
BRANCH   8  11
ATOM     11  C   UNL     1      -9.905 -17.603   4.246  1.00  0.00     0.109 C 
ATOM     12  C   UNL     1      -9.688 -19.091   4.522  1.00  0.00     0.021 C 
BRANCH  11  13
ATOM     13  C   UNL     1      -8.856 -16.955   3.321  1.00  0.00     0.204 C 
BRANCH  13  14
ATOM     14  N   UNL     1      -8.926 -15.491   3.348  1.00  0.00    -0.340 N 
ATOM     15  C   UNL     1      -9.390 -14.745   2.286  1.00  0.00     0.243 C 
ATOM     16  O   UNL     1      -9.836 -15.259   1.262  1.00  0.00    -0.273 OA
ATOM     17  H   UNL     1      -8.435 -15.000   4.100  1.00  0.00     0.164 HD
BRANCH  15  18
ATOM     18  C   UNL     1      -9.178 -13.221   2.461  1.00  0.00     0.171 C 
BRANCH  18  19
ATOM     19  N   UNL     1      -9.654 -12.883   3.801  1.00  0.00    -0.343 N 
ATOM     20  C   UNL     1     -10.608 -11.906   4.010  1.00  0.00     0.242 CG0
ATOM     21  O   UNL     1     -11.002 -11.185   3.096  1.00  0.00    -0.273 OA
ATOM     22  H   UNL     1      -9.272 -13.372   4.602  1.00  0.00     0.164 HD
ATOM     23  G   UNL     1     -11.042 -11.745   5.482  1.00  0.00     0.000 G0
ENDBRANCH  18  19
BRANCH  18  24
ATOM     24  C   UNL     1      -7.699 -12.857   2.281  1.00  0.00     0.038 C 
BRANCH  24  25
ATOM     25  C   UNL     1      -7.446 -11.423   1.770  1.00  0.00    -0.015 C 
ATOM     26  C   UNL     1      -7.330 -10.408   2.908  1.00  0.00     0.007 C 
ATOM     27  C   UNL     1      -8.574 -11.008   0.822  1.00  0.00     0.007 C 
ENDBRANCH  24  25
ENDBRANCH  18  24
ENDBRANCH  15  18
ENDBRANCH  13  14
BRANCH  13  28
ATOM     28  C   UNL     1      -7.417 -17.347   3.673  1.00  0.00     0.327 C 
ATOM     29  O   UNL     1      -6.682 -18.066   3.013  1.00  0.00    -0.250 OA
BRANCH  28  30
ATOM     30  O   UNL     1      -7.032 -16.908   4.888  1.00  0.00    -0.480 OA
ATOM     31  H   UNL     1      -6.396 -17.585   5.199  1.00  0.00     0.296 HD
ENDBRANCH  28  30
ENDBRANCH  13  28
ENDBRANCH  11  13
ENDBRANCH   8  11
ENDBRANCH   6   7
BRANCH   6  32
ATOM     32  C   UNL     1     -14.352 -16.036   4.965  1.00  0.00     0.037 C 
BRANCH  32  33
ATOM     33  C   UNL     1     -14.627 -17.477   5.416  1.00  0.00     0.026 C 
BRANCH  33  34
ATOM     34  C   UNL     1     -13.971 -17.805   6.758  1.00  0.00     0.146 C 
BRANCH  34  35
ATOM     35  N   UNL     1     -13.355 -16.596   7.288  1.00  0.00    -0.254 NA
ATOM     36  C   UNL     1     -12.337 -16.712   8.056  1.00  0.00     0.185 C 
ATOM     37  N   UNL     1     -11.759 -15.604   8.546  1.00  0.00    -0.370 N 
ATOM     38  N   UNL     1     -11.717 -17.829   8.475  1.00  0.00    -0.370 N 
ATOM     39  H   UNL     1     -12.163 -14.719   8.267  1.00  0.00     0.159 HD
ATOM     40  H   UNL     1     -10.865 -15.600   9.007  1.00  0.00     0.159 HD
ATOM     41  H   UNL     1     -11.010 -17.795   9.192  1.00  0.00     0.159 HD
ATOM     42  H   UNL     1     -12.054 -18.737   8.197  1.00  0.00     0.159 HD
ENDBRANCH  34  35
ENDBRANCH  33  34
ENDBRANCH  32  33
ENDBRANCH   6  32
ENDBRANCH   4   6
ENDBRANCH   1   2
BRANCH   1  43
ATOM     43  C   UNL     1     -14.251 -12.706   0.991  1.00  0.00     0.102 C 
ATOM     44  C   UNL     1     -15.082 -13.452  -0.067  1.00  0.00     0.020 C 
BRANCH  43  45
ATOM     45  C   UNL     1     -14.252 -11.184   0.823  1.00  0.00     0.225 C 
ATOM     46  O   UNL     1     -14.059 -10.628  -0.255  1.00  0.00    -0.275 OA
ATOM     47  N   UNL     1     -14.392 -10.460   1.984  1.00  0.00    -0.342 N 
ATOM     48  H   UNL     1     -14.699 -10.922   2.828  1.00  0.00     0.164 HD
BRANCH  47  49
ATOM     49  C   UNL     1     -14.446  -8.995   1.972  1.00  0.00     0.192 C 
BRANCH  49  50
ATOM     50  C   UNL     1     -14.283  -8.462   3.398  1.00  0.00     0.047 C 
BRANCH  50  51
ATOM     51  C   UNL     1     -15.381  -8.974   4.340  1.00  0.00     0.103 C 
BRANCH  51  52
ATOM     52  C   UNL     1     -15.220  -8.429   5.757  1.00  0.00     0.226 C 
ATOM     53  O   UNL     1     -15.561  -7.271   6.008  1.00  0.00    -0.275 OA
BRANCH  52  54
ATOM     54  N   UNL     1     -14.751  -9.334   6.727  1.00  0.00    -0.311 N 
ATOM     55  C   UNL     1     -14.432  -8.885   8.089  1.00  0.00     0.153 C 
BRANCH  54  56
ATOM     56  C   UNL     1     -14.574 -10.696   6.433  1.00  0.00     0.102 C 
ATOM     57  C   UNL     1     -15.528 -11.507   5.947  1.00  0.00     0.043 C 
BRANCH  56  58
ATOM     58  C   UNL     1     -13.228 -11.359   6.609  1.00  0.00     0.268 C 
ATOM     59  O   UNL     1     -12.947 -12.059   7.573  1.00  0.00    -0.268 OA
ATOM     60  N   UNL     1     -12.380 -11.150   5.548  1.00  0.00    -0.339 N 
ATOM     61  H   UNL     1     -12.685 -10.548   4.792  1.00  0.00     0.164 HD
BRANCH  60  62
ATOM     62  C   UNL     1     -11.049 -11.752   5.484  1.00  0.00     0.168 CG0
ATOM     63  C   UNL     1     -10.033 -10.918   6.255  1.00  0.00     0.041 C 
ATOM     64  G   UNL     1     -10.622 -11.907   4.010  1.00  0.00     0.000 G0
ENDBRANCH  60  62
ENDBRANCH  56  58
ENDBRANCH  54  56
ENDBRANCH  52  54
ENDBRANCH  51  52
ENDBRANCH  50  51
ENDBRANCH  49  50
BRANCH  49  65
ATOM     65  C   UNL     1     -15.771  -8.482   1.385  1.00  0.00     0.326 C 
ATOM     66  O   UNL     1     -16.015  -7.321   1.090  1.00  0.00    -0.250 OA
BRANCH  65  67
ATOM     67  O   UNL     1     -16.732  -9.423   1.256  1.00  0.00    -0.480 OA
ATOM     68  H   UNL     1     -17.325  -9.054   0.567  1.00  0.00     0.296 HD
ENDBRANCH  65  67
ENDBRANCH  49  65
ENDBRANCH  47  49
ENDBRANCH  43  45
ENDBRANCH   1  43
BRANCH   1  69
ATOM     69  C   UNL     1     -12.016 -13.590  -0.118  1.00  0.00    -0.001 C 
ATOM     70  C   UNL     1     -11.149 -12.801  -0.778  1.00  0.00     0.001 C 
BRANCH  70  71
ATOM     71  C   UNL     1     -10.381 -13.146  -1.975  1.00  0.00    -0.055 C 
ATOM     72  C   UNL     1      -9.799 -12.139  -2.660  1.00  0.00    -0.018 C 
ATOM     73  C   UNL     1     -10.288 -14.601  -2.355  1.00  0.00     0.044 C 
BRANCH  72  74
ATOM     74  C   UNL     1      -8.950 -12.196  -3.921  1.00  0.00     0.038 C 
ATOM     75  C   UNL     1      -8.493 -10.764  -4.225  1.00  0.00     0.015 C 
BRANCH  74  76
ATOM     76  C   UNL     1      -9.780 -12.870  -5.054  1.00  0.00     0.128 C 
BRANCH  76  77
ATOM     77  O   UNL     1     -10.412 -11.864  -5.864  1.00  0.00    -0.381 OA
ATOM     78  C   UNL     1     -11.578 -12.323  -6.536  1.00  0.00     0.195 C 
ENDBRANCH  76  77
BRANCH  76  79
ATOM     79  C   UNL     1      -8.981 -13.900  -5.891  1.00  0.00     0.068 C 
BRANCH  79  80
ATOM     80  C   UNL     1      -7.977 -14.769  -5.173  1.00  0.00    -0.045 A 
ATOM     81  C   UNL     1      -6.765 -14.240  -4.711  1.00  0.00     0.004 A 
ATOM     82  C   UNL     1      -8.233 -16.135  -4.982  1.00  0.00     0.004 A 
ATOM     83  C   UNL     1      -5.835 -15.053  -4.060  1.00  0.00     0.000 A 
ATOM     84  C   UNL     1      -7.301 -16.948  -4.332  1.00  0.00     0.000 A 
ATOM     85  C   UNL     1      -6.104 -16.406  -3.870  1.00  0.00     0.000 A 
ENDBRANCH  79  80
ENDBRANCH  76  79
ENDBRANCH  74  76
ENDBRANCH  72  74
ENDBRANCH  70  71
ENDBRANCH   1  69
TORSDOF 17
ENDMDL
MODEL 5
REMARK VINA RESULT:    -6.512      3.253      5.908
REMARK INTER + INTRA:         -26.988
REMARK INTER:                 -20.262
REMARK INTRA:                  -6.727
REMARK UNBOUND:                -7.533
REMARK SMILES C=C1C(=O)N[C@H](C)C(=O)N[C@@H](CC(C)C)C(=O)N[C@@H](C(=O)O)[C@H](C)C(=O)N[C@@H](CCCN=C(N)N)C(=O)N[C@@H](/C=C/C(C)=C/[C@H](C)[C@H](Cc2ccccc2)OC)[C@H](C)C(=O)N[C@@H](C(=O)O)CCC(=O)N1C
REMARK SMILES IDX 39 1 38 2 37 3 36 4 28 6 27 7 25 8 26 9 23 11 24 12 19 13
REMARK SMILES IDX 18 14 16 15 17 16 11 18 10 19 8 20 9 21 12 24 13 25 14 26
REMARK SMILES IDX 15 27 20 28 21 29 22 30 29 32 30 33 31 34 32 35 33 36 34 37
REMARK SMILES IDX 35 38 57 43 58 44 59 45 60 46 61 47 62 49 66 50 67 51 68 52
REMARK SMILES IDX 69 53 70 54 71 55 2 56 1 57 3 58 4 59 5 60 6 62 7 63 63 65
REMARK SMILES IDX 64 66 65 67 40 69 41 70 42 71 44 72 43 73 45 74 46 75 47 76
REMARK SMILES IDX 55 77 56 78 48 79 49 80 50 81 54 82 51 83 53 84 52 85
REMARK H PARENT 38 5 27 10 18 17 10 22 22 31 34 39 34 40 35 41 35 42 61 48
REMARK H PARENT 5 61 65 68
REMARK Flexibility Score:  369.900
ROOT
ATOM      1  C   UNL     1     -11.909 -11.638   0.311  1.00  0.00     0.117 C 
ENDROOT
BRANCH   1   2
ATOM      2  N   UNL     1     -11.661 -12.393   1.539  1.00  0.00    -0.347 N 
ATOM      3  O   UNL     1     -10.850 -10.662   2.811  1.00  0.00    -0.273 OA
ATOM      4  C   UNL     1     -11.235 -11.824   2.724  1.00  0.00     0.243 C 
ATOM      5  H   UNL     1     -11.852 -13.383   1.558  1.00  0.00     0.164 HD
BRANCH   4   6
ATOM      6  C   UNL     1     -11.132 -12.831   3.897  1.00  0.00     0.171 C 
BRANCH   6   7
ATOM      7  N   UNL     1     -12.018 -13.982   3.666  1.00  0.00    -0.344 N 
ATOM      8  C   UNL     1     -12.862 -14.430   4.660  1.00  0.00     0.226 C 
ATOM      9  O   UNL     1     -12.902 -13.919   5.772  1.00  0.00    -0.275 OA
ATOM     10  H   UNL     1     -11.965 -14.473   2.782  1.00  0.00     0.164 HD
BRANCH   8  11
ATOM     11  C   UNL     1     -13.751 -15.591   4.249  1.00  0.00     0.109 C 
ATOM     12  C   UNL     1     -13.617 -15.851   2.749  1.00  0.00     0.021 C 
BRANCH  11  13
ATOM     13  C   UNL     1     -13.465 -16.811   5.147  1.00  0.00     0.204 C 
BRANCH  13  14
ATOM     14  N   UNL     1     -12.142 -16.735   5.775  1.00  0.00    -0.340 N 
ATOM     15  C   UNL     1     -11.096 -17.559   5.420  1.00  0.00     0.243 C 
ATOM     16  O   UNL     1     -11.182 -18.378   4.506  1.00  0.00    -0.273 OA
ATOM     17  H   UNL     1     -12.049 -16.187   6.635  1.00  0.00     0.164 HD
BRANCH  15  18
ATOM     18  C   UNL     1      -9.869 -17.439   6.356  1.00  0.00     0.171 C 
BRANCH  18  19
ATOM     19  N   UNL     1      -9.317 -18.786   6.497  1.00  0.00    -0.343 N 
ATOM     20  C   UNL     1      -9.217 -19.408   7.726  1.00  0.00     0.242 CG0
ATOM     21  O   UNL     1      -9.463 -18.810   8.772  1.00  0.00    -0.273 OA
ATOM     22  H   UNL     1      -8.991 -19.278   5.673  1.00  0.00     0.164 HD
ATOM     23  G   UNL     1      -8.684 -20.854   7.667  1.00  0.00     0.000 G0
ENDBRANCH  18  19
BRANCH  18  24
ATOM     24  C   UNL     1      -8.836 -16.467   5.774  1.00  0.00     0.038 C 
BRANCH  24  25
ATOM     25  C   UNL     1      -7.386 -16.995   5.765  1.00  0.00    -0.015 C 
ATOM     26  C   UNL     1      -6.609 -16.593   7.019  1.00  0.00     0.007 C 
ATOM     27  C   UNL     1      -6.658 -16.480   4.521  1.00  0.00     0.007 C 
ENDBRANCH  24  25
ENDBRANCH  18  24
ENDBRANCH  15  18
ENDBRANCH  13  14
BRANCH  13  28
ATOM     28  C   UNL     1     -14.491 -16.988   6.270  1.00  0.00     0.327 C 
ATOM     29  O   UNL     1     -15.698 -16.820   6.180  1.00  0.00    -0.250 OA
BRANCH  28  30
ATOM     30  O   UNL     1     -13.926 -17.248   7.467  1.00  0.00    -0.480 OA
ATOM     31  H   UNL     1     -13.224 -17.901   7.265  1.00  0.00     0.296 HD
ENDBRANCH  28  30
ENDBRANCH  13  28
ENDBRANCH  11  13
ENDBRANCH   8  11
ENDBRANCH   6   7
BRANCH   6  32
ATOM     32  C   UNL     1      -9.675 -13.283   4.046  1.00  0.00     0.037 C 
BRANCH  32  33
ATOM     33  C   UNL     1      -9.205 -14.126   2.853  1.00  0.00     0.026 C 
BRANCH  33  34
ATOM     34  C   UNL     1      -7.939 -13.567   2.203  1.00  0.00     0.146 C 
BRANCH  34  35
ATOM     35  N   UNL     1      -8.294 -12.393   1.417  1.00  0.00    -0.254 NA
ATOM     36  C   UNL     1      -7.792 -11.260   1.743  1.00  0.00     0.185 C 
ATOM     37  N   UNL     1      -8.108 -10.173   1.023  1.00  0.00    -0.370 N 
ATOM     38  N   UNL     1      -6.949 -10.968   2.750  1.00  0.00    -0.370 N 
ATOM     39  H   UNL     1      -8.732 -10.314   0.238  1.00  0.00     0.159 HD
ATOM     40  H   UNL     1      -7.628  -9.293   1.104  1.00  0.00     0.159 HD
ATOM     41  H   UNL     1      -6.735 -10.014   2.989  1.00  0.00     0.159 HD
ATOM     42  H   UNL     1      -6.639 -11.688   3.384  1.00  0.00     0.159 HD
ENDBRANCH  34  35
ENDBRANCH  33  34
ENDBRANCH  32  33
ENDBRANCH   6  32
ENDBRANCH   4   6
ENDBRANCH   1   2
BRANCH   1  43
ATOM     43  C   UNL     1     -13.425 -11.291   0.241  1.00  0.00     0.102 C 
ATOM     44  C   UNL     1     -13.717  -9.965  -0.482  1.00  0.00     0.020 C 
BRANCH  43  45
ATOM     45  C   UNL     1     -14.079 -11.404   1.621  1.00  0.00     0.225 C 
ATOM     46  O   UNL     1     -14.488 -12.465   2.084  1.00  0.00    -0.275 OA
ATOM     47  N   UNL     1     -14.271 -10.214   2.285  1.00  0.00    -0.342 N 
ATOM     48  H   UNL     1     -13.798  -9.381   1.964  1.00  0.00     0.164 HD
BRANCH  47  49
ATOM     49  C   UNL     1     -14.853 -10.172   3.629  1.00  0.00     0.192 C 
BRANCH  49  50
ATOM     50  C   UNL     1     -16.025  -9.188   3.652  1.00  0.00     0.047 C 
BRANCH  50  51
ATOM     51  C   UNL     1     -16.108  -8.353   2.367  1.00  0.00     0.103 C 
BRANCH  51  52
ATOM     52  C   UNL     1     -16.181  -6.855   2.660  1.00  0.00     0.226 C 
ATOM     53  O   UNL     1     -15.730  -6.419   3.720  1.00  0.00    -0.275 OA
BRANCH  52  54
ATOM     54  N   UNL     1     -16.705  -6.042   1.638  1.00  0.00    -0.311 N 
ATOM     55  C   UNL     1     -16.358  -6.278   0.230  1.00  0.00     0.153 C 
BRANCH  54  56
ATOM     56  C   UNL     1     -17.580  -4.980   1.923  1.00  0.00     0.102 C 
ATOM     57  C   UNL     1     -18.874  -4.934   1.566  1.00  0.00     0.043 C 
BRANCH  56  58
ATOM     58  C   UNL     1     -17.115  -3.787   2.725  1.00  0.00     0.268 C 
ATOM     59  O   UNL     1     -16.353  -2.938   2.282  1.00  0.00    -0.268 OA
ATOM     60  N   UNL     1     -17.687  -3.719   3.973  1.00  0.00    -0.339 N 
ATOM     61  H   UNL     1     -18.301  -4.469   4.269  1.00  0.00     0.164 HD
BRANCH  60  62
ATOM     62  C   UNL     1     -17.425  -2.611   4.891  1.00  0.00     0.168 CG0
ATOM     63  C   UNL     1     -16.606  -3.076   6.089  1.00  0.00     0.041 C 
ATOM     64  G   UNL     1     -18.761  -1.993   5.350  1.00  0.00     0.000 G0
ENDBRANCH  60  62
ENDBRANCH  56  58
ENDBRANCH  54  56
ENDBRANCH  52  54
ENDBRANCH  51  52
ENDBRANCH  50  51
ENDBRANCH  49  50
BRANCH  49  65
ATOM     65  C   UNL     1     -13.816  -9.754   4.683  1.00  0.00     0.326 C 
ATOM     66  O   UNL     1     -13.133 -10.517   5.351  1.00  0.00    -0.250 OA
BRANCH  65  67
ATOM     67  O   UNL     1     -13.729  -8.421   4.891  1.00  0.00    -0.480 OA
ATOM     68  H   UNL     1     -13.220  -8.099   4.116  1.00  0.00     0.296 HD
ENDBRANCH  65  67
ENDBRANCH  49  65
ENDBRANCH  47  49
ENDBRANCH  43  45
ENDBRANCH   1  43
BRANCH   1  69
ATOM     69  C   UNL     1     -11.288 -12.444  -0.815  1.00  0.00    -0.001 C 
ATOM     70  C   UNL     1     -10.367 -12.031  -1.703  1.00  0.00     0.001 C 
BRANCH  70  71
ATOM     71  C   UNL     1      -9.759 -12.825  -2.773  1.00  0.00    -0.055 C 
ATOM     72  C   UNL     1      -9.100 -12.164  -3.749  1.00  0.00    -0.018 C 
ATOM     73  C   UNL     1      -9.903 -14.323  -2.705  1.00  0.00     0.044 C 
BRANCH  72  74
ATOM     74  C   UNL     1      -8.377 -12.717  -4.968  1.00  0.00     0.038 C 
ATOM     75  C   UNL     1      -6.877 -12.487  -4.748  1.00  0.00     0.015 C 
BRANCH  74  76
ATOM     76  C   UNL     1      -8.961 -12.044  -6.245  1.00  0.00     0.128 C 
BRANCH  76  77
ATOM     77  O   UNL     1      -7.902 -11.454  -7.017  1.00  0.00    -0.381 OA
ATOM     78  C   UNL     1      -7.743 -12.035  -8.305  1.00  0.00     0.195 C 
ENDBRANCH  76  77
BRANCH  76  79
ATOM     79  C   UNL     1      -9.871 -12.974  -7.087  1.00  0.00     0.068 C 
BRANCH  79  80
ATOM     80  C   UNL     1     -11.281 -12.517  -7.370  1.00  0.00    -0.045 A 
ATOM     81  C   UNL     1     -12.384 -13.272  -6.950  1.00  0.00     0.004 A 
ATOM     82  C   UNL     1     -11.510 -11.333  -8.089  1.00  0.00     0.004 A 
ATOM     83  C   UNL     1     -13.685 -12.849  -7.228  1.00  0.00     0.000 A 
ATOM     84  C   UNL     1     -12.812 -10.911  -8.367  1.00  0.00     0.000 A 
ATOM     85  C   UNL     1     -13.898 -11.668  -7.936  1.00  0.00     0.000 A 
ENDBRANCH  79  80
ENDBRANCH  76  79
ENDBRANCH  74  76
ENDBRANCH  72  74
ENDBRANCH  70  71
ENDBRANCH   1  69
TORSDOF 17
ENDMDL
MODEL 6
REMARK VINA RESULT:    -6.407      3.966      9.287
REMARK INTER + INTRA:         -26.674
REMARK INTER:                 -19.001
REMARK INTRA:                  -7.673
REMARK UNBOUND:                -7.533
REMARK SMILES C=C1C(=O)N[C@H](C)C(=O)N[C@@H](CC(C)C)C(=O)N[C@@H](C(=O)O)[C@H](C)C(=O)N[C@@H](CCCN=C(N)N)C(=O)N[C@@H](/C=C/C(C)=C/[C@H](C)[C@H](Cc2ccccc2)OC)[C@H](C)C(=O)N[C@@H](C(=O)O)CCC(=O)N1C
REMARK SMILES IDX 39 1 38 2 37 3 36 4 28 6 27 7 25 8 26 9 23 11 24 12 19 13
REMARK SMILES IDX 18 14 16 15 17 16 11 18 10 19 8 20 9 21 12 24 13 25 14 26
REMARK SMILES IDX 15 27 20 28 21 29 22 30 29 32 30 33 31 34 32 35 33 36 34 37
REMARK SMILES IDX 35 38 57 43 58 44 59 45 60 46 61 47 62 49 66 50 67 51 68 52
REMARK SMILES IDX 69 53 70 54 71 55 2 56 1 57 3 58 4 59 5 60 6 62 7 63 63 65
REMARK SMILES IDX 64 66 65 67 40 69 41 70 42 71 44 72 43 73 45 74 46 75 47 76
REMARK SMILES IDX 55 77 56 78 48 79 49 80 50 81 54 82 51 83 53 84 52 85
REMARK H PARENT 38 5 27 10 18 17 10 22 22 31 34 39 34 40 35 41 35 42 61 48
REMARK H PARENT 5 61 65 68
REMARK Flexibility Score:  369.900
ROOT
ATOM      1  C   UNL     1     -12.120 -12.416   7.066  1.00  0.00     0.117 C 
ENDROOT
BRANCH   1   2
ATOM      2  N   UNL     1     -11.777 -11.447   6.025  1.00  0.00    -0.347 N 
ATOM      3  O   UNL     1     -11.023 -12.936   4.448  1.00  0.00    -0.273 OA
ATOM      4  C   UNL     1     -11.341 -11.793   4.760  1.00  0.00     0.243 C 
ATOM      5  H   UNL     1     -11.908 -10.463   6.203  1.00  0.00     0.164 HD
BRANCH   4   6
ATOM      6  C   UNL     1     -11.130 -10.579   3.820  1.00  0.00     0.171 C 
BRANCH   6   7
ATOM      7  N   UNL     1     -10.355 -10.975   2.634  1.00  0.00    -0.344 N 
ATOM      8  C   UNL     1      -8.978 -10.910   2.640  1.00  0.00     0.226 C 
ATOM      9  O   UNL     1      -8.341 -10.506   3.606  1.00  0.00    -0.275 OA
ATOM     10  H   UNL     1     -10.848 -11.251   1.794  1.00  0.00     0.164 HD
BRANCH   8  11
ATOM     11  C   UNL     1      -8.322 -11.405   1.363  1.00  0.00     0.109 C 
ATOM     12  C   UNL     1      -6.817 -11.567   1.573  1.00  0.00     0.021 C 
BRANCH  11  13
ATOM     13  C   UNL     1      -9.047 -12.670   0.861  1.00  0.00     0.204 C 
BRANCH  13  14
ATOM     14  N   UNL     1      -8.687 -13.000  -0.522  1.00  0.00    -0.340 N 
ATOM     15  C   UNL     1      -9.437 -12.600  -1.606  1.00  0.00     0.243 C 
ATOM     16  O   UNL     1     -10.432 -11.885  -1.494  1.00  0.00    -0.273 OA
ATOM     17  H   UNL     1      -7.966 -13.711  -0.674  1.00  0.00     0.164 HD
BRANCH  15  18
ATOM     18  C   UNL     1      -8.982 -13.238  -2.942  1.00  0.00     0.171 C 
BRANCH  18  19
ATOM     19  N   UNL     1      -9.021 -12.177  -3.947  1.00  0.00    -0.343 N 
ATOM     20  C   UNL     1      -9.968 -12.161  -4.953  1.00  0.00     0.242 CG0
ATOM     21  O   UNL     1     -10.735 -13.105  -5.130  1.00  0.00    -0.273 OA
ATOM     22  H   UNL     1      -8.334 -11.433  -3.912  1.00  0.00     0.164 HD
ATOM     23  G   UNL     1      -9.900 -10.923  -5.871  1.00  0.00     0.000 G0
ENDBRANCH  18  19
BRANCH  18  24
ATOM     24  C   UNL     1      -7.575 -13.832  -2.807  1.00  0.00     0.038 C 
BRANCH  24  25
ATOM     25  C   UNL     1      -7.320 -15.086  -3.669  1.00  0.00    -0.015 C 
ATOM     26  C   UNL     1      -6.608 -14.758  -4.982  1.00  0.00     0.007 C 
ATOM     27  C   UNL     1      -8.648 -15.787  -3.965  1.00  0.00     0.007 C 
ENDBRANCH  24  25
ENDBRANCH  18  24
ENDBRANCH  15  18
ENDBRANCH  13  14
BRANCH  13  28
ATOM     28  C   UNL     1      -8.758 -13.909   1.713  1.00  0.00     0.327 C 
ATOM     29  O   UNL     1      -7.737 -14.580   1.690  1.00  0.00    -0.250 OA
BRANCH  28  30
ATOM     30  O   UNL     1      -9.814 -14.299   2.455  1.00  0.00    -0.480 OA
ATOM     31  H   UNL     1      -9.418 -14.820   3.184  1.00  0.00     0.296 HD
ENDBRANCH  28  30
ENDBRANCH  13  28
ENDBRANCH  11  13
ENDBRANCH   8  11
ENDBRANCH   6   7
BRANCH   6  32
ATOM     32  C   UNL     1     -12.496 -10.013   3.416  1.00  0.00     0.037 C 
BRANCH  32  33
ATOM     33  C   UNL     1     -13.104 -10.762   2.222  1.00  0.00     0.026 C 
BRANCH  33  34
ATOM     34  C   UNL     1     -13.354  -9.847   1.023  1.00  0.00     0.146 C 
BRANCH  34  35
ATOM     35  N   UNL     1     -14.277  -8.792   1.420  1.00  0.00    -0.254 NA
ATOM     36  C   UNL     1     -15.495  -8.863   1.031  1.00  0.00     0.185 C 
ATOM     37  N   UNL     1     -16.355  -7.900   1.395  1.00  0.00    -0.370 N 
ATOM     38  N   UNL     1     -16.086  -9.803   0.272  1.00  0.00    -0.370 N 
ATOM     39  H   UNL     1     -15.987  -7.159   1.979  1.00  0.00     0.159 HD
ATOM     40  H   UNL     1     -17.351  -7.971   1.280  1.00  0.00     0.159 HD
ATOM     41  H   UNL     1     -17.019  -9.675  -0.084  1.00  0.00     0.159 HD
ATOM     42  H   UNL     1     -15.554 -10.580  -0.088  1.00  0.00     0.159 HD
ENDBRANCH  34  35
ENDBRANCH  33  34
ENDBRANCH  32  33
ENDBRANCH   6  32
ENDBRANCH   4   6
ENDBRANCH   1   2
BRANCH   1  43
ATOM     43  C   UNL     1     -10.819 -12.806   7.826  1.00  0.00     0.102 C 
ATOM     44  C   UNL     1      -9.654 -11.832   7.585  1.00  0.00     0.020 C 
BRANCH  43  45
ATOM     45  C   UNL     1     -10.461 -14.275   7.586  1.00  0.00     0.225 C 
ATOM     46  O   UNL     1     -11.073 -15.208   8.099  1.00  0.00    -0.275 OA
ATOM     47  N   UNL     1      -9.338 -14.493   6.821  1.00  0.00    -0.342 N 
ATOM     48  H   UNL     1      -8.941 -13.733   6.287  1.00  0.00     0.164 HD
BRANCH  47  49
ATOM     49  C   UNL     1      -8.895 -15.849   6.479  1.00  0.00     0.192 C 
BRANCH  49  50
ATOM     50  C   UNL     1      -7.586 -16.162   7.208  1.00  0.00     0.047 C 
BRANCH  50  51
ATOM     51  C   UNL     1      -7.776 -16.262   8.727  1.00  0.00     0.103 C 
BRANCH  51  52
ATOM     52  C   UNL     1      -7.044 -15.147   9.471  1.00  0.00     0.226 C 
ATOM     53  O   UNL     1      -7.356 -13.972   9.270  1.00  0.00    -0.275 OA
BRANCH  52  54
ATOM     54  N   UNL     1      -6.086 -15.551  10.420  1.00  0.00    -0.311 N 
ATOM     55  C   UNL     1      -4.677 -15.727  10.043  1.00  0.00     0.153 C 
BRANCH  54  56
ATOM     56  C   UNL     1      -6.437 -15.794  11.758  1.00  0.00     0.102 C 
ATOM     57  C   UNL     1      -6.719 -17.003  12.271  1.00  0.00     0.043 C 
BRANCH  56  58
ATOM     58  C   UNL     1      -6.479 -14.669  12.765  1.00  0.00     0.268 C 
ATOM     59  O   UNL     1      -7.356 -13.816  12.780  1.00  0.00    -0.268 OA
ATOM     60  N   UNL     1      -5.471 -14.741  13.697  1.00  0.00    -0.339 N 
ATOM     61  H   UNL     1      -4.777 -15.472  13.609  1.00  0.00     0.164 HD
BRANCH  60  62
ATOM     62  C   UNL     1      -5.361 -13.786  14.800  1.00  0.00     0.168 CG0
ATOM     63  C   UNL     1      -4.000 -13.888  15.477  1.00  0.00     0.041 C 
ATOM     64  G   UNL     1      -6.495 -14.037  15.815  1.00  0.00     0.000 G0
ENDBRANCH  60  62
ENDBRANCH  56  58
ENDBRANCH  54  56
ENDBRANCH  52  54
ENDBRANCH  51  52
ENDBRANCH  50  51
ENDBRANCH  49  50
BRANCH  49  65
ATOM     65  C   UNL     1      -8.687 -16.011   4.965  1.00  0.00     0.326 C 
ATOM     66  O   UNL     1      -9.401 -16.660   4.215  1.00  0.00    -0.250 OA
BRANCH  65  67
ATOM     67  O   UNL     1      -7.576 -15.412   4.482  1.00  0.00    -0.480 OA
ATOM     68  H   UNL     1      -7.620 -14.506   4.856  1.00  0.00     0.296 HD
ENDBRANCH  65  67
ENDBRANCH  49  65
ENDBRANCH  47  49
ENDBRANCH  43  45
ENDBRANCH   1  43
BRANCH   1  69
ATOM     69  C   UNL     1     -12.925 -13.506   6.383  1.00  0.00    -0.001 C 
ATOM     70  C   UNL     1     -14.258 -13.678   6.414  1.00  0.00     0.001 C 
BRANCH  70  71
ATOM     71  C   UNL     1     -15.027 -14.722   5.733  1.00  0.00    -0.055 C 
ATOM     72  C   UNL     1     -14.610 -15.998   5.870  1.00  0.00    -0.018 C 
ATOM     73  C   UNL     1     -16.232 -14.299   4.934  1.00  0.00     0.044 C 
BRANCH  72  74
ATOM     74  C   UNL     1     -15.204 -17.273   5.288  1.00  0.00     0.038 C 
ATOM     75  C   UNL     1     -15.861 -18.035   6.446  1.00  0.00     0.015 C 
BRANCH  74  76
ATOM     76  C   UNL     1     -14.081 -18.055   4.545  1.00  0.00     0.128 C 
BRANCH  76  77
ATOM     77  O   UNL     1     -14.050 -19.419   5.000  1.00  0.00    -0.381 OA
ATOM     78  C   UNL     1     -12.748 -19.877   5.340  1.00  0.00     0.195 C 
ENDBRANCH  76  77
BRANCH  76  79
ATOM     79  C   UNL     1     -14.149 -17.939   3.002  1.00  0.00     0.068 C 
BRANCH  79  80
ATOM     80  C   UNL     1     -14.321 -16.564   2.403  1.00  0.00    -0.045 A 
ATOM     81  C   UNL     1     -13.302 -15.606   2.488  1.00  0.00     0.004 A 
ATOM     82  C   UNL     1     -15.525 -16.213   1.773  1.00  0.00     0.004 A 
ATOM     83  C   UNL     1     -13.474 -14.332   1.944  1.00  0.00     0.000 A 
ATOM     84  C   UNL     1     -15.696 -14.937   1.230  1.00  0.00     0.000 A 
ATOM     85  C   UNL     1     -14.671 -13.998   1.314  1.00  0.00     0.000 A 
ENDBRANCH  79  80
ENDBRANCH  76  79
ENDBRANCH  74  76
ENDBRANCH  72  74
ENDBRANCH  70  71
ENDBRANCH   1  69
TORSDOF 17
ENDMDL
MODEL 7
REMARK VINA RESULT:    -6.381      3.761      8.535
REMARK INTER + INTRA:         -26.597
REMARK INTER:                 -21.961
REMARK INTRA:                  -4.636
REMARK UNBOUND:                -7.533
REMARK SMILES C=C1C(=O)N[C@H](C)C(=O)N[C@@H](CC(C)C)C(=O)N[C@@H](C(=O)O)[C@H](C)C(=O)N[C@@H](CCCN=C(N)N)C(=O)N[C@@H](/C=C/C(C)=C/[C@H](C)[C@H](Cc2ccccc2)OC)[C@H](C)C(=O)N[C@@H](C(=O)O)CCC(=O)N1C
REMARK SMILES IDX 39 1 38 2 37 3 36 4 28 6 27 7 25 8 26 9 23 11 24 12 19 13
REMARK SMILES IDX 18 14 16 15 17 16 11 18 10 19 8 20 9 21 12 24 13 25 14 26
REMARK SMILES IDX 15 27 20 28 21 29 22 30 29 32 30 33 31 34 32 35 33 36 34 37
REMARK SMILES IDX 35 38 57 43 58 44 59 45 60 46 61 47 62 49 66 50 67 51 68 52
REMARK SMILES IDX 69 53 70 54 71 55 2 56 1 57 3 58 4 59 5 60 6 62 7 63 63 65
REMARK SMILES IDX 64 66 65 67 40 69 41 70 42 71 44 72 43 73 45 74 46 75 47 76
REMARK SMILES IDX 55 77 56 78 48 79 49 80 50 81 54 82 51 83 53 84 52 85
REMARK H PARENT 38 5 27 10 18 17 10 22 22 31 34 39 34 40 35 41 35 42 61 48
REMARK H PARENT 5 61 65 68
REMARK Flexibility Score:  369.900
ROOT
ATOM      1  C   UNL     1     -13.822 -10.793   6.246  1.00  0.00     0.117 C 
ENDROOT
BRANCH   1   2
ATOM      2  N   UNL     1     -13.150 -10.085   5.156  1.00  0.00    -0.347 N 
ATOM      3  O   UNL     1     -12.298 -11.918   4.069  1.00  0.00    -0.273 OA
ATOM      4  C   UNL     1     -12.517 -10.712   4.100  1.00  0.00     0.243 C 
ATOM      5  H   UNL     1     -13.182  -9.077   5.128  1.00  0.00     0.164 HD
BRANCH   4   6
ATOM      6  C   UNL     1     -11.961  -9.732   3.036  1.00  0.00     0.171 C 
BRANCH   6   7
ATOM      7  N   UNL     1     -10.785 -10.311   2.368  1.00  0.00    -0.344 N 
ATOM      8  C   UNL     1     -10.789 -10.536   1.008  1.00  0.00     0.226 C 
ATOM      9  O   UNL     1     -11.759 -10.291   0.302  1.00  0.00    -0.275 OA
ATOM     10  H   UNL     1      -9.989 -10.589   2.929  1.00  0.00     0.164 HD
BRANCH   8  11
ATOM     11  C   UNL     1      -9.483 -11.086   0.461  1.00  0.00     0.109 C 
ATOM     12  C   UNL     1      -8.310 -10.602   1.313  1.00  0.00     0.021 C 
BRANCH  11  13
ATOM     13  C   UNL     1      -9.586 -12.617   0.310  1.00  0.00     0.204 C 
BRANCH  13  14
ATOM     14  N   UNL     1      -9.092 -13.077  -0.992  1.00  0.00    -0.340 N 
ATOM     15  C   UNL     1      -9.867 -13.799  -1.873  1.00  0.00     0.243 C 
ATOM     16  O   UNL     1     -11.049 -14.057  -1.655  1.00  0.00    -0.273 OA
ATOM     17  H   UNL     1      -8.085 -13.030  -1.168  1.00  0.00     0.164 HD
BRANCH  15  18
ATOM     18  C   UNL     1      -9.075 -14.352  -3.084  1.00  0.00     0.171 C 
BRANCH  18  19
ATOM     19  N   UNL     1      -9.698 -13.793  -4.282  1.00  0.00    -0.343 N 
ATOM     20  C   UNL     1      -9.667 -12.440  -4.557  1.00  0.00     0.242 CG0
ATOM     21  O   UNL     1      -9.231 -11.628  -3.743  1.00  0.00    -0.273 OA
ATOM     22  H   UNL     1     -10.174 -14.412  -4.930  1.00  0.00     0.164 HD
ATOM     23  G   UNL     1     -10.308 -12.048  -5.904  1.00  0.00     0.000 G0
ENDBRANCH  18  19
BRANCH  18  24
ATOM     24  C   UNL     1      -7.595 -13.962  -2.986  1.00  0.00     0.038 C 
BRANCH  24  25
ATOM     25  C   UNL     1      -6.720 -14.456  -4.158  1.00  0.00    -0.015 C 
ATOM     26  C   UNL     1      -6.033 -15.788  -3.853  1.00  0.00     0.007 C 
ATOM     27  C   UNL     1      -5.667 -13.398  -4.496  1.00  0.00     0.007 C 
ENDBRANCH  24  25
ENDBRANCH  18  24
ENDBRANCH  15  18
ENDBRANCH  13  14
BRANCH  13  28
ATOM     28  C   UNL     1      -8.810 -13.383   1.386  1.00  0.00     0.327 C 
ATOM     29  O   UNL     1      -7.795 -14.042   1.215  1.00  0.00    -0.250 OA
BRANCH  28  30
ATOM     30  O   UNL     1      -9.422 -13.373   2.588  1.00  0.00    -0.480 OA
ATOM     31  H   UNL     1      -9.410 -14.310   2.872  1.00  0.00     0.296 HD
ENDBRANCH  28  30
ENDBRANCH  13  28
ENDBRANCH  11  13
ENDBRANCH   8  11
ENDBRANCH   6   7
BRANCH   6  32
ATOM     32  C   UNL     1     -13.064  -9.411   2.022  1.00  0.00     0.037 C 
BRANCH  32  33
ATOM     33  C   UNL     1     -14.466  -9.676   2.588  1.00  0.00     0.026 C 
BRANCH  33  34
ATOM     34  C   UNL     1     -15.278  -8.392   2.764  1.00  0.00     0.146 C 
BRANCH  34  35
ATOM     35  N   UNL     1     -14.601  -7.536   3.728  1.00  0.00    -0.254 NA
ATOM     36  C   UNL     1     -15.054  -7.482   4.925  1.00  0.00     0.185 C 
ATOM     37  N   UNL     1     -14.435  -6.701   5.824  1.00  0.00    -0.370 N 
ATOM     38  N   UNL     1     -16.110  -8.121   5.459  1.00  0.00    -0.370 N 
ATOM     39  H   UNL     1     -13.621  -6.193   5.500  1.00  0.00     0.159 HD
ATOM     40  H   UNL     1     -14.618  -6.737   6.812  1.00  0.00     0.159 HD
ATOM     41  H   UNL     1     -16.450  -7.888   6.378  1.00  0.00     0.159 HD
ATOM     42  H   UNL     1     -16.680  -8.731   4.893  1.00  0.00     0.159 HD
ENDBRANCH  34  35
ENDBRANCH  33  34
ENDBRANCH  32  33
ENDBRANCH   6  32
ENDBRANCH   4   6
ENDBRANCH   1   2
BRANCH   1  43
ATOM     43  C   UNL     1     -12.985 -10.613   7.545  1.00  0.00     0.102 C 
ATOM     44  C   UNL     1     -13.088  -9.201   8.147  1.00  0.00     0.020 C 
BRANCH  43  45
ATOM     45  C   UNL     1     -11.547 -11.100   7.344  1.00  0.00     0.225 C 
ATOM     46  O   UNL     1     -10.664 -10.402   6.853  1.00  0.00    -0.275 OA
ATOM     47  N   UNL     1     -11.318 -12.418   7.665  1.00  0.00    -0.342 N 
ATOM     48  H   UNL     1     -12.004 -12.928   8.204  1.00  0.00     0.164 HD
BRANCH  47  49
ATOM     49  C   UNL     1      -9.982 -13.012   7.558  1.00  0.00     0.192 C 
BRANCH  49  50
ATOM     50  C   UNL     1      -8.948 -12.065   8.172  1.00  0.00     0.047 C 
BRANCH  50  51
ATOM     51  C   UNL     1      -8.115 -12.744   9.269  1.00  0.00     0.103 C 
BRANCH  51  52
ATOM     52  C   UNL     1      -7.336 -11.732  10.107  1.00  0.00     0.226 C 
ATOM     53  O   UNL     1      -7.598 -10.531  10.012  1.00  0.00    -0.275 OA
BRANCH  52  54
ATOM     54  N   UNL     1      -6.396 -12.259  11.011  1.00  0.00    -0.311 N 
ATOM     55  C   UNL     1      -5.173 -12.916  10.533  1.00  0.00     0.153 C 
BRANCH  54  56
ATOM     56  C   UNL     1      -6.588 -12.171  12.400  1.00  0.00     0.102 C 
ATOM     57  C   UNL     1      -7.355 -13.003  13.124  1.00  0.00     0.043 C 
BRANCH  56  58
ATOM     58  C   UNL     1      -5.877 -11.117  13.216  1.00  0.00     0.268 C 
ATOM     59  O   UNL     1      -5.030 -11.380  14.059  1.00  0.00    -0.268 OA
ATOM     60  N   UNL     1      -6.230  -9.835  12.867  1.00  0.00    -0.339 N 
ATOM     61  H   UNL     1      -6.948  -9.701  12.165  1.00  0.00     0.164 HD
BRANCH  60  62
ATOM     62  C   UNL     1      -5.616  -8.662  13.488  1.00  0.00     0.168 CG0
ATOM     63  C   UNL     1      -4.498  -8.104  12.616  1.00  0.00     0.041 C 
ATOM     64  G   UNL     1      -5.084  -9.036  14.886  1.00  0.00     0.000 G0
ENDBRANCH  60  62
ENDBRANCH  56  58
ENDBRANCH  54  56
ENDBRANCH  52  54
ENDBRANCH  51  52
ENDBRANCH  50  51
ENDBRANCH  49  50
BRANCH  49  65
ATOM     65  C   UNL     1      -9.605 -13.299   6.097  1.00  0.00     0.326 C 
ATOM     66  O   UNL     1      -9.884 -14.315   5.477  1.00  0.00    -0.250 OA
BRANCH  65  67
ATOM     67  O   UNL     1      -8.855 -12.340   5.509  1.00  0.00    -0.480 OA
ATOM     68  H   UNL     1      -9.161 -12.346   4.576  1.00  0.00     0.296 HD
ENDBRANCH  65  67
ENDBRANCH  49  65
ENDBRANCH  47  49
ENDBRANCH  43  45
ENDBRANCH   1  43
BRANCH   1  69
ATOM     69  C   UNL     1     -14.092 -12.197   5.736  1.00  0.00    -0.001 C 
ATOM     70  C   UNL     1     -14.656 -13.216   6.408  1.00  0.00     0.001 C 
BRANCH  70  71
ATOM     71  C   UNL     1     -14.931 -14.561   5.898  1.00  0.00    -0.055 C 
ATOM     72  C   UNL     1     -13.894 -15.420   5.804  1.00  0.00    -0.018 C 
ATOM     73  C   UNL     1     -16.351 -14.894   5.522  1.00  0.00     0.044 C 
BRANCH  72  74
ATOM     74  C   UNL     1     -13.880 -16.863   5.320  1.00  0.00     0.038 C 
ATOM     75  C   UNL     1     -13.726 -17.755   6.558  1.00  0.00     0.015 C 
BRANCH  74  76
ATOM     76  C   UNL     1     -12.754 -17.023   4.256  1.00  0.00     0.128 C 
BRANCH  76  77
ATOM     77  O   UNL     1     -11.981 -18.203   4.533  1.00  0.00    -0.381 OA
ATOM     78  C   UNL     1     -10.577 -17.984   4.513  1.00  0.00     0.195 C 
ENDBRANCH  76  77
BRANCH  76  79
ATOM     79  C   UNL     1     -13.258 -16.967   2.792  1.00  0.00     0.068 C 
BRANCH  79  80
ATOM     80  C   UNL     1     -13.668 -15.624   2.237  1.00  0.00    -0.045 A 
ATOM     81  C   UNL     1     -15.019 -15.261   2.149  1.00  0.00     0.004 A 
ATOM     82  C   UNL     1     -12.697 -14.725   1.772  1.00  0.00     0.004 A 
ATOM     83  C   UNL     1     -15.390 -14.023   1.621  1.00  0.00     0.000 A 
ATOM     84  C   UNL     1     -13.070 -13.487   1.244  1.00  0.00     0.000 A 
ATOM     85  C   UNL     1     -14.415 -13.135   1.170  1.00  0.00     0.000 A 
ENDBRANCH  79  80
ENDBRANCH  76  79
ENDBRANCH  74  76
ENDBRANCH  72  74
ENDBRANCH  70  71
ENDBRANCH   1  69
TORSDOF 17
ENDMDL
MODEL 8
REMARK VINA RESULT:    -6.367     16.788     21.377
REMARK INTER + INTRA:         -26.555
REMARK INTER:                 -17.752
REMARK INTRA:                  -8.803
REMARK UNBOUND:                -7.533
REMARK SMILES C=C1C(=O)N[C@H](C)C(=O)N[C@@H](CC(C)C)C(=O)N[C@@H](C(=O)O)[C@H](C)C(=O)N[C@@H](CCCN=C(N)N)C(=O)N[C@@H](/C=C/C(C)=C/[C@H](C)[C@H](Cc2ccccc2)OC)[C@H](C)C(=O)N[C@@H](C(=O)O)CCC(=O)N1C
REMARK SMILES IDX 39 1 38 2 37 3 36 4 28 6 27 7 25 8 26 9 23 11 24 12 19 13
REMARK SMILES IDX 18 14 16 15 17 16 11 18 10 19 8 20 9 21 12 24 13 25 14 26
REMARK SMILES IDX 15 27 20 28 21 29 22 30 29 32 30 33 31 34 32 35 33 36 34 37
REMARK SMILES IDX 35 38 57 43 58 44 59 45 60 46 61 47 62 49 66 50 67 51 68 52
REMARK SMILES IDX 69 53 70 54 71 55 2 56 1 57 3 58 4 59 5 60 6 62 7 63 63 65
REMARK SMILES IDX 64 66 65 67 40 69 41 70 42 71 44 72 43 73 45 74 46 75 47 76
REMARK SMILES IDX 55 77 56 78 48 79 49 80 50 81 54 82 51 83 53 84 52 85
REMARK H PARENT 38 5 27 10 18 17 10 22 22 31 34 39 34 40 35 41 35 42 61 48
REMARK H PARENT 5 61 65 68
REMARK Flexibility Score:  369.900
ROOT
ATOM      1  C   UNL     1       3.437  -2.337  10.458  1.00  0.00     0.117 C 
ENDROOT
BRANCH   1   2
ATOM      2  N   UNL     1       3.550  -1.184  11.353  1.00  0.00    -0.347 N 
ATOM      3  O   UNL     1       2.385   0.322  10.070  1.00  0.00    -0.273 OA
ATOM      4  C   UNL     1       2.934   0.032  11.128  1.00  0.00     0.243 C 
ATOM      5  H   UNL     1       4.063  -1.276  12.216  1.00  0.00     0.164 HD
BRANCH   4   6
ATOM      6  C   UNL     1       3.143   1.057  12.271  1.00  0.00     0.171 C 
BRANCH   6   7
ATOM      7  N   UNL     1       2.988   2.431  11.766  1.00  0.00    -0.344 N 
ATOM      8  C   UNL     1       4.073   3.127  11.279  1.00  0.00     0.226 C 
ATOM      9  O   UNL     1       5.205   2.658  11.263  1.00  0.00    -0.275 OA
ATOM     10  H   UNL     1       2.081   2.876  11.825  1.00  0.00     0.164 HD
BRANCH   8  11
ATOM     11  C   UNL     1       3.741   4.509  10.745  1.00  0.00     0.109 C 
ATOM     12  C   UNL     1       4.814   5.510  11.173  1.00  0.00     0.021 C 
BRANCH  11  13
ATOM     13  C   UNL     1       3.494   4.434   9.225  1.00  0.00     0.204 C 
BRANCH  13  14
ATOM     14  N   UNL     1       4.195   3.305   8.606  1.00  0.00    -0.340 N 
ATOM     15  C   UNL     1       4.718   3.355   7.332  1.00  0.00     0.243 C 
ATOM     16  O   UNL     1       4.686   4.375   6.645  1.00  0.00    -0.273 OA
ATOM     17  H   UNL     1       4.123   2.389   9.059  1.00  0.00     0.164 HD
BRANCH  15  18
ATOM     18  C   UNL     1       5.224   1.986   6.817  1.00  0.00     0.171 C 
BRANCH  18  19
ATOM     19  N   UNL     1       6.678   2.092   6.703  1.00  0.00    -0.343 N 
ATOM     20  C   UNL     1       7.302   2.271   5.484  1.00  0.00     0.242 CG0
ATOM     21  O   UNL     1       6.678   2.215   4.427  1.00  0.00    -0.273 OA
ATOM     22  H   UNL     1       7.248   2.028   7.539  1.00  0.00     0.164 HD
ATOM     23  G   UNL     1       8.833   2.441   5.571  1.00  0.00     0.000 G0
ENDBRANCH  18  19
BRANCH  18  24
ATOM     24  C   UNL     1       4.817   0.861   7.777  1.00  0.00     0.038 C 
BRANCH  24  25
ATOM     25  C   UNL     1       4.016  -0.285   7.124  1.00  0.00    -0.015 C 
ATOM     26  C   UNL     1       4.897  -1.208   6.281  1.00  0.00     0.007 C 
ATOM     27  C   UNL     1       2.899   0.297   6.254  1.00  0.00     0.007 C 
ENDBRANCH  24  25
ENDBRANCH  18  24
ENDBRANCH  15  18
ENDBRANCH  13  14
BRANCH  13  28
ATOM     28  C   UNL     1       2.012   4.304   8.860  1.00  0.00     0.327 C 
ATOM     29  O   UNL     1       1.268   5.212   8.522  1.00  0.00    -0.250 OA
BRANCH  28  30
ATOM     30  O   UNL     1       1.527   3.061   9.056  1.00  0.00    -0.480 OA
ATOM     31  H   UNL     1       2.243   2.470   8.742  1.00  0.00     0.296 HD
ENDBRANCH  28  30
ENDBRANCH  13  28
ENDBRANCH  11  13
ENDBRANCH   8  11
ENDBRANCH   6   7
BRANCH   6  32
ATOM     32  C   UNL     1       2.138   0.771  13.393  1.00  0.00     0.037 C 
BRANCH  32  33
ATOM     33  C   UNL     1       2.553   1.419  14.722  1.00  0.00     0.026 C 
BRANCH  33  34
ATOM     34  C   UNL     1       1.462   2.320  15.300  1.00  0.00     0.146 C 
BRANCH  34  35
ATOM     35  N   UNL     1       1.427   3.562  14.539  1.00  0.00    -0.254 NA
ATOM     36  C   UNL     1       0.545   4.441  14.839  1.00  0.00     0.185 C 
ATOM     37  N   UNL     1       0.507   5.591  14.148  1.00  0.00    -0.370 N 
ATOM     38  N   UNL     1      -0.405   4.395  15.790  1.00  0.00    -0.370 N 
ATOM     39  H   UNL     1       1.199   5.706  13.419  1.00  0.00     0.159 HD
ATOM     40  H   UNL     1      -0.032   6.392  14.430  1.00  0.00     0.159 HD
ATOM     41  H   UNL     1      -1.130   5.092  15.837  1.00  0.00     0.159 HD
ATOM     42  H   UNL     1      -0.504   3.581  16.377  1.00  0.00     0.159 HD
ENDBRANCH  34  35
ENDBRANCH  33  34
ENDBRANCH  32  33
ENDBRANCH   6  32
ENDBRANCH   4   6
ENDBRANCH   1   2
BRANCH   1  43
ATOM     43  C   UNL     1       2.838  -3.528  11.260  1.00  0.00     0.102 C 
ATOM     44  C   UNL     1       3.363  -4.899  10.801  1.00  0.00     0.020 C 
BRANCH  43  45
ATOM     45  C   UNL     1       1.310  -3.437  11.321  1.00  0.00     0.225 C 
ATOM     46  O   UNL     1       0.715  -2.530  11.897  1.00  0.00    -0.275 OA
ATOM     47  N   UNL     1       0.630  -4.495  10.764  1.00  0.00    -0.342 N 
ATOM     48  H   UNL     1       1.121  -5.147  10.168  1.00  0.00     0.164 HD
BRANCH  47  49
ATOM     49  C   UNL     1      -0.835  -4.526  10.718  1.00  0.00     0.192 C 
BRANCH  49  50
ATOM     50  C   UNL     1      -1.348  -5.731  11.511  1.00  0.00     0.047 C 
BRANCH  50  51
ATOM     51  C   UNL     1      -2.797  -5.543  11.981  1.00  0.00     0.103 C 
BRANCH  51  52
ATOM     52  C   UNL     1      -2.875  -4.846  13.338  1.00  0.00     0.226 C 
ATOM     53  O   UNL     1      -2.476  -3.686  13.451  1.00  0.00    -0.275 OA
BRANCH  52  54
ATOM     54  N   UNL     1      -3.483  -5.570  14.380  1.00  0.00    -0.311 N 
ATOM     55  C   UNL     1      -4.437  -4.925  15.292  1.00  0.00     0.153 C 
BRANCH  54  56
ATOM     56  C   UNL     1      -3.207  -6.932  14.584  1.00  0.00     0.102 C 
ATOM     57  C   UNL     1      -2.002  -7.433  14.903  1.00  0.00     0.043 C 
BRANCH  56  58
ATOM     58  C   UNL     1      -4.304  -7.967  14.498  1.00  0.00     0.268 C 
ATOM     59  O   UNL     1      -4.950  -8.340  15.468  1.00  0.00    -0.268 OA
ATOM     60  N   UNL     1      -4.545  -8.394  13.214  1.00  0.00    -0.339 N 
ATOM     61  H   UNL     1      -3.959  -8.043  12.466  1.00  0.00     0.164 HD
BRANCH  60  62
ATOM     62  C   UNL     1      -5.607  -9.347  12.897  1.00  0.00     0.168 CG0
ATOM     63  C   UNL     1      -6.222  -9.048  11.535  1.00  0.00     0.041 C 
ATOM     64  G   UNL     1      -6.684  -9.309  14.001  1.00  0.00     0.000 G0
ENDBRANCH  60  62
ENDBRANCH  56  58
ENDBRANCH  54  56
ENDBRANCH  52  54
ENDBRANCH  51  52
ENDBRANCH  50  51
ENDBRANCH  49  50
BRANCH  49  65
ATOM     65  C   UNL     1      -1.355  -4.608   9.275  1.00  0.00     0.326 C 
ATOM     66  O   UNL     1      -1.478  -5.633   8.620  1.00  0.00    -0.250 OA
BRANCH  65  67
ATOM     67  O   UNL     1      -1.635  -3.414   8.708  1.00  0.00    -0.480 OA
ATOM     68  H   UNL     1      -0.868  -2.854   8.958  1.00  0.00     0.296 HD
ENDBRANCH  65  67
ENDBRANCH  49  65
ENDBRANCH  47  49
ENDBRANCH  43  45
ENDBRANCH   1  43
BRANCH   1  69
ATOM     69  C   UNL     1       4.798  -2.502   9.806  1.00  0.00    -0.001 C 
ATOM     70  C   UNL     1       5.978  -2.029  10.246  1.00  0.00     0.001 C 
BRANCH  70  71
ATOM     71  C   UNL     1       7.288  -2.213   9.619  1.00  0.00    -0.055 C 
ATOM     72  C   UNL     1       7.666  -1.320   8.681  1.00  0.00    -0.018 C 
ATOM     73  C   UNL     1       8.125  -3.381  10.071  1.00  0.00     0.044 C 
BRANCH  72  74
ATOM     74  C   UNL     1       8.955  -1.258   7.873  1.00  0.00     0.038 C 
ATOM     75  C   UNL     1       9.507   0.166   8.011  1.00  0.00     0.015 C 
BRANCH  74  76
ATOM     76  C   UNL     1       8.652  -1.703   6.412  1.00  0.00     0.128 C 
BRANCH  76  77
ATOM     77  O   UNL     1       9.156  -0.724   5.487  1.00  0.00    -0.381 OA
ATOM     78  C   UNL     1       9.872  -1.286   4.396  1.00  0.00     0.195 C 
ENDBRANCH  76  77
BRANCH  76  79
ATOM     79  C   UNL     1       9.127  -3.140   6.081  1.00  0.00     0.068 C 
BRANCH  79  80
ATOM     80  C   UNL     1       8.299  -4.294   6.595  1.00  0.00    -0.045 A 
ATOM     81  C   UNL     1       6.901  -4.212   6.647  1.00  0.00     0.004 A 
ATOM     82  C   UNL     1       8.924  -5.462   7.057  1.00  0.00     0.004 A 
ATOM     83  C   UNL     1       6.144  -5.278   7.137  1.00  0.00     0.000 A 
ATOM     84  C   UNL     1       8.165  -6.527   7.547  1.00  0.00     0.000 A 
ATOM     85  C   UNL     1       6.776  -6.436   7.585  1.00  0.00     0.000 A 
ENDBRANCH  79  80
ENDBRANCH  76  79
ENDBRANCH  74  76
ENDBRANCH  72  74
ENDBRANCH  70  71
ENDBRANCH   1  69
TORSDOF 17
ENDMDL
MODEL 9
REMARK VINA RESULT:    -6.367      2.499      5.743
REMARK INTER + INTRA:         -26.554
REMARK INTER:                 -19.745
REMARK INTRA:                  -6.809
REMARK UNBOUND:                -7.533
REMARK SMILES C=C1C(=O)N[C@H](C)C(=O)N[C@@H](CC(C)C)C(=O)N[C@@H](C(=O)O)[C@H](C)C(=O)N[C@@H](CCCN=C(N)N)C(=O)N[C@@H](/C=C/C(C)=C/[C@H](C)[C@H](Cc2ccccc2)OC)[C@H](C)C(=O)N[C@@H](C(=O)O)CCC(=O)N1C
REMARK SMILES IDX 39 1 38 2 37 3 36 4 28 6 27 7 25 8 26 9 23 11 24 12 19 13
REMARK SMILES IDX 18 14 16 15 17 16 11 18 10 19 8 20 9 21 12 24 13 25 14 26
REMARK SMILES IDX 15 27 20 28 21 29 22 30 29 32 30 33 31 34 32 35 33 36 34 37
REMARK SMILES IDX 35 38 57 43 58 44 59 45 60 46 61 47 62 49 66 50 67 51 68 52
REMARK SMILES IDX 69 53 70 54 71 55 2 56 1 57 3 58 4 59 5 60 6 62 7 63 63 65
REMARK SMILES IDX 64 66 65 67 40 69 41 70 42 71 44 72 43 73 45 74 46 75 47 76
REMARK SMILES IDX 55 77 56 78 48 79 49 80 50 81 54 82 51 83 53 84 52 85
REMARK H PARENT 38 5 27 10 18 17 10 22 22 31 34 39 34 40 35 41 35 42 61 48
REMARK H PARENT 5 61 65 68
REMARK Flexibility Score:  369.900
ROOT
ATOM      1  C   UNL     1     -11.741 -10.901   0.207  1.00  0.00     0.117 C 
ENDROOT
BRANCH   1   2
ATOM      2  N   UNL     1     -10.996 -11.643   1.224  1.00  0.00    -0.347 N 
ATOM      3  O   UNL     1      -9.139 -10.295   1.297  1.00  0.00    -0.273 OA
ATOM      4  C   UNL     1      -9.790 -11.228   1.755  1.00  0.00     0.243 C 
ATOM      5  H   UNL     1     -11.392 -12.487   1.610  1.00  0.00     0.164 HD
BRANCH   4   6
ATOM      6  C   UNL     1      -9.254 -12.151   2.879  1.00  0.00     0.171 C 
BRANCH   6   7
ATOM      7  N   UNL     1      -9.956 -11.882   4.144  1.00  0.00    -0.344 N 
ATOM      8  C   UNL     1      -9.264 -11.452   5.255  1.00  0.00     0.226 C 
ATOM      9  O   UNL     1      -8.049 -11.295   5.256  1.00  0.00    -0.275 OA
ATOM     10  H   UNL     1     -10.951 -12.065   4.202  1.00  0.00     0.164 HD
BRANCH   8  11
ATOM     11  C   UNL     1     -10.137 -11.167   6.465  1.00  0.00     0.109 C 
ATOM     12  C   UNL     1     -11.585 -10.946   6.028  1.00  0.00     0.021 C 
BRANCH  11  13
ATOM     13  C   UNL     1      -9.941 -12.272   7.522  1.00  0.00     0.204 C 
BRANCH  13  14
ATOM     14  N   UNL     1      -9.700 -13.583   6.911  1.00  0.00    -0.340 N 
ATOM     15  C   UNL     1     -10.606 -14.619   6.981  1.00  0.00     0.243 C 
ATOM     16  O   UNL     1     -11.709 -14.496   7.510  1.00  0.00    -0.273 OA
ATOM     17  H   UNL     1      -8.751 -13.798   6.593  1.00  0.00     0.164 HD
BRANCH  15  18
ATOM     18  C   UNL     1     -10.051 -15.963   6.449  1.00  0.00     0.171 C 
BRANCH  18  19
ATOM     19  N   UNL     1     -10.456 -16.058   5.048  1.00  0.00    -0.343 N 
ATOM     20  C   UNL     1     -11.693 -16.550   4.679  1.00  0.00     0.242 CG0
ATOM     21  O   UNL     1     -12.457 -17.053   5.500  1.00  0.00    -0.273 OA
ATOM     22  H   UNL     1      -9.812 -15.762   4.323  1.00  0.00     0.164 HD
ATOM     23  G   UNL     1     -11.972 -16.500   3.163  1.00  0.00     0.000 G0
ENDBRANCH  18  19
BRANCH  18  24
ATOM     24  C   UNL     1      -8.526 -16.016   6.598  1.00  0.00     0.038 C 
BRANCH  24  25
ATOM     25  C   UNL     1      -8.013 -17.062   7.612  1.00  0.00    -0.015 C 
ATOM     26  C   UNL     1      -6.789 -16.574   8.386  1.00  0.00     0.007 C 
ATOM     27  C   UNL     1      -7.676 -18.364   6.881  1.00  0.00     0.007 C 
ENDBRANCH  24  25
ENDBRANCH  18  24
ENDBRANCH  15  18
ENDBRANCH  13  14
BRANCH  13  28
ATOM     28  C   UNL     1      -8.775 -11.994   8.476  1.00  0.00     0.327 C 
ATOM     29  O   UNL     1      -8.256 -10.908   8.687  1.00  0.00    -0.250 OA
BRANCH  28  30
ATOM     30  O   UNL     1      -8.254 -13.115   9.015  1.00  0.00    -0.480 OA
ATOM     31  H   UNL     1      -7.373 -13.199   8.595  1.00  0.00     0.296 HD
ENDBRANCH  28  30
ENDBRANCH  13  28
ENDBRANCH  11  13
ENDBRANCH   8  11
ENDBRANCH   6   7
BRANCH   6  32
ATOM     32  C   UNL     1      -9.428 -13.613   2.456  1.00  0.00     0.037 C 
BRANCH  32  33
ATOM     33  C   UNL     1      -8.090 -14.277   2.101  1.00  0.00     0.026 C 
BRANCH  33  34
ATOM     34  C   UNL     1      -7.543 -15.137   3.242  1.00  0.00     0.146 C 
BRANCH  34  35
ATOM     35  N   UNL     1      -7.905 -16.526   2.998  1.00  0.00    -0.254 NA
ATOM     36  C   UNL     1      -7.047 -17.440   3.262  1.00  0.00     0.185 C 
ATOM     37  N   UNL     1      -7.371 -18.724   3.046  1.00  0.00    -0.370 N 
ATOM     38  N   UNL     1      -5.801 -17.313   3.751  1.00  0.00    -0.370 N 
ATOM     39  H   UNL     1      -8.300 -18.904   2.686  1.00  0.00     0.159 HD
ATOM     40  H   UNL     1      -6.829 -19.500   3.386  1.00  0.00     0.159 HD
ATOM     41  H   UNL     1      -5.172 -18.098   3.785  1.00  0.00     0.159 HD
ATOM     42  H   UNL     1      -5.417 -16.401   3.947  1.00  0.00     0.159 HD
ENDBRANCH  34  35
ENDBRANCH  33  34
ENDBRANCH  32  33
ENDBRANCH   6  32
ENDBRANCH   4   6
ENDBRANCH   1   2
BRANCH   1  43
ATOM     43  C   UNL     1     -13.202 -10.706   0.707  1.00  0.00     0.102 C 
ATOM     44  C   UNL     1     -14.102  -9.976  -0.304  1.00  0.00     0.020 C 
BRANCH  43  45
ATOM     45  C   UNL     1     -13.225 -10.098   2.112  1.00  0.00     0.225 C 
ATOM     46  O   UNL     1     -12.342  -9.358   2.538  1.00  0.00    -0.275 OA
ATOM     47  N   UNL     1     -14.263 -10.508   2.918  1.00  0.00    -0.342 N 
ATOM     48  H   UNL     1     -15.053 -10.988   2.511  1.00  0.00     0.164 HD
BRANCH  47  49
ATOM     49  C   UNL     1     -14.432  -9.981   4.276  1.00  0.00     0.192 C 
BRANCH  49  50
ATOM     50  C   UNL     1     -15.404 -10.872   5.055  1.00  0.00     0.047 C 
BRANCH  50  51
ATOM     51  C   UNL     1     -16.353 -11.646   4.130  1.00  0.00     0.103 C 
BRANCH  51  52
ATOM     52  C   UNL     1     -15.923 -13.101   3.956  1.00  0.00     0.226 C 
ATOM     53  O   UNL     1     -15.670 -13.786   4.949  1.00  0.00    -0.275 OA
BRANCH  52  54
ATOM     54  N   UNL     1     -15.915 -13.600   2.640  1.00  0.00    -0.311 N 
ATOM     55  C   UNL     1     -16.568 -12.864   1.549  1.00  0.00     0.153 C 
BRANCH  54  56
ATOM     56  C   UNL     1     -15.282 -14.812   2.319  1.00  0.00     0.102 C 
ATOM     57  C   UNL     1     -15.909 -15.912   1.873  1.00  0.00     0.043 C 
BRANCH  56  58
ATOM     58  C   UNL     1     -13.780 -14.951   2.416  1.00  0.00     0.268 C 
ATOM     59  O   UNL     1     -13.004 -14.052   2.121  1.00  0.00    -0.268 OA
ATOM     60  N   UNL     1     -13.382 -16.161   2.930  1.00  0.00    -0.339 N 
ATOM     61  H   UNL     1     -14.088 -16.857   3.140  1.00  0.00     0.164 HD
BRANCH  60  62
ATOM     62  C   UNL     1     -11.975 -16.482   3.168  1.00  0.00     0.168 CG0
ATOM     63  C   UNL     1     -11.598 -17.806   2.513  1.00  0.00     0.041 C 
ATOM     64  G   UNL     1     -11.704 -16.527   4.685  1.00  0.00     0.000 G0
ENDBRANCH  60  62
ENDBRANCH  56  58
ENDBRANCH  54  56
ENDBRANCH  52  54
ENDBRANCH  51  52
ENDBRANCH  50  51
ENDBRANCH  49  50
BRANCH  49  65
ATOM     65  C   UNL     1     -14.963  -8.539   4.262  1.00  0.00     0.326 C 
ATOM     66  O   UNL     1     -16.138  -8.215   4.172  1.00  0.00    -0.250 OA
BRANCH  65  67
ATOM     67  O   UNL     1     -14.006  -7.586   4.299  1.00  0.00    -0.480 OA
ATOM     68  H   UNL     1     -13.343  -7.898   3.647  1.00  0.00     0.296 HD
ENDBRANCH  65  67
ENDBRANCH  49  65
ENDBRANCH  47  49
ENDBRANCH  43  45
ENDBRANCH   1  43
BRANCH   1  69
ATOM     69  C   UNL     1     -11.506 -11.628  -1.105  1.00  0.00    -0.001 C 
ATOM     70  C   UNL     1     -10.338 -12.089  -1.586  1.00  0.00     0.001 C 
BRANCH  70  71
ATOM     71  C   UNL     1     -10.127 -12.808  -2.844  1.00  0.00    -0.055 C 
ATOM     72  C   UNL     1     -10.081 -12.082  -3.981  1.00  0.00    -0.018 C 
ATOM     73  C   UNL     1      -9.968 -14.304  -2.780  1.00  0.00     0.044 C 
BRANCH  72  74
ATOM     74  C   UNL     1      -9.875 -12.550  -5.415  1.00  0.00     0.038 C 
ATOM     75  C   UNL     1     -10.948 -11.870  -6.272  1.00  0.00     0.015 C 
BRANCH  74  76
ATOM     76  C   UNL     1      -9.906 -14.107  -5.443  1.00  0.00     0.128 C 
BRANCH  76  77
ATOM     77  O   UNL     1     -11.059 -14.562  -6.171  1.00  0.00    -0.381 OA
ATOM     78  C   UNL     1     -11.121 -15.974  -6.318  1.00  0.00     0.195 C 
ENDBRANCH  76  77
BRANCH  76  79
ATOM     79  C   UNL     1      -8.589 -14.754  -5.940  1.00  0.00     0.068 C 
BRANCH  79  80
ATOM     80  C   UNL     1      -7.355 -14.594  -5.085  1.00  0.00    -0.045 A 
ATOM     81  C   UNL     1      -6.601 -13.414  -5.120  1.00  0.00     0.004 A 
ATOM     82  C   UNL     1      -6.928 -15.643  -4.257  1.00  0.00     0.004 A 
ATOM     83  C   UNL     1      -5.453 -13.279  -4.337  1.00  0.00     0.000 A 
ATOM     84  C   UNL     1      -5.779 -15.507  -3.474  1.00  0.00     0.000 A 
ATOM     85  C   UNL     1      -5.043 -14.326  -3.513  1.00  0.00     0.000 A 
ENDBRANCH  79  80
ENDBRANCH  76  79
ENDBRANCH  74  76
ENDBRANCH  72  74
ENDBRANCH  70  71
ENDBRANCH   1  69
TORSDOF 17
ENDMDL
MODEL 10
REMARK VINA RESULT:    -6.264      3.197      6.978
REMARK INTER + INTRA:         -26.247
REMARK INTER:                 -18.881
REMARK INTRA:                  -7.366
REMARK UNBOUND:                -7.533
REMARK SMILES C=C1C(=O)N[C@H](C)C(=O)N[C@@H](CC(C)C)C(=O)N[C@@H](C(=O)O)[C@H](C)C(=O)N[C@@H](CCCN=C(N)N)C(=O)N[C@@H](/C=C/C(C)=C/[C@H](C)[C@H](Cc2ccccc2)OC)[C@H](C)C(=O)N[C@@H](C(=O)O)CCC(=O)N1C
REMARK SMILES IDX 39 1 38 2 37 3 36 4 28 6 27 7 25 8 26 9 23 11 24 12 19 13
REMARK SMILES IDX 18 14 16 15 17 16 11 18 10 19 8 20 9 21 12 24 13 25 14 26
REMARK SMILES IDX 15 27 20 28 21 29 22 30 29 32 30 33 31 34 32 35 33 36 34 37
REMARK SMILES IDX 35 38 57 43 58 44 59 45 60 46 61 47 62 49 66 50 67 51 68 52
REMARK SMILES IDX 69 53 70 54 71 55 2 56 1 57 3 58 4 59 5 60 6 62 7 63 63 65
REMARK SMILES IDX 64 66 65 67 40 69 41 70 42 71 44 72 43 73 45 74 46 75 47 76
REMARK SMILES IDX 55 77 56 78 48 79 49 80 50 81 54 82 51 83 53 84 52 85
REMARK H PARENT 38 5 27 10 18 17 10 22 22 31 34 39 34 40 35 41 35 42 61 48
REMARK H PARENT 5 61 65 68
REMARK Flexibility Score:  369.900
ROOT
ATOM      1  C   UNL     1     -13.025 -10.507   1.547  1.00  0.00     0.117 C 
ENDROOT
BRANCH   1   2
ATOM      2  N   UNL     1     -13.741 -10.519   2.823  1.00  0.00    -0.347 N 
ATOM      3  O   UNL     1     -13.536  -8.287   3.318  1.00  0.00    -0.273 OA
ATOM      4  C   UNL     1     -14.019  -9.387   3.565  1.00  0.00     0.243 C 
ATOM      5  H   UNL     1     -14.105 -11.390   3.178  1.00  0.00     0.164 HD
BRANCH   4   6
ATOM      6  C   UNL     1     -14.865  -9.665   4.833  1.00  0.00     0.171 C 
BRANCH   6   7
ATOM      7  N   UNL     1     -14.293 -10.785   5.597  1.00  0.00    -0.344 N 
ATOM      8  C   UNL     1     -13.701 -10.569   6.823  1.00  0.00     0.226 C 
ATOM      9  O   UNL     1     -13.601  -9.454   7.321  1.00  0.00    -0.275 OA
ATOM     10  H   UNL     1     -14.297 -11.711   5.188  1.00  0.00     0.164 HD
BRANCH   8  11
ATOM     11  C   UNL     1     -13.209 -11.831   7.511  1.00  0.00     0.109 C 
ATOM     12  C   UNL     1     -14.134 -13.003   7.184  1.00  0.00     0.021 C 
BRANCH  11  13
ATOM     13  C   UNL     1     -11.723 -12.064   7.172  1.00  0.00     0.204 C 
BRANCH  13  14
ATOM     14  N   UNL     1     -11.337 -13.470   7.320  1.00  0.00    -0.340 N 
ATOM     15  C   UNL     1     -10.098 -13.862   7.779  1.00  0.00     0.243 C 
ATOM     16  O   UNL     1      -9.248 -13.056   8.154  1.00  0.00    -0.273 OA
ATOM     17  H   UNL     1     -11.934 -14.181   6.888  1.00  0.00     0.164 HD
BRANCH  15  18
ATOM     18  C   UNL     1      -9.845 -15.384   7.654  1.00  0.00     0.171 C 
BRANCH  18  19
ATOM     19  N   UNL     1     -11.112 -15.987   7.245  1.00  0.00    -0.343 N 
ATOM     20  C   UNL     1     -11.418 -17.304   7.529  1.00  0.00     0.242 CG0
ATOM     21  O   UNL     1     -10.589 -18.066   8.021  1.00  0.00    -0.273 OA
ATOM     22  H   UNL     1     -11.785 -15.429   6.732  1.00  0.00     0.164 HD
ATOM     23  G   UNL     1     -12.831 -17.739   7.088  1.00  0.00     0.000 G0
ENDBRANCH  18  19
BRANCH  18  24
ATOM     24  C   UNL     1      -8.733 -15.667   6.636  1.00  0.00     0.038 C 
BRANCH  24  25
ATOM     25  C   UNL     1      -7.491 -16.375   7.218  1.00  0.00    -0.015 C 
ATOM     26  C   UNL     1      -7.366 -17.822   6.743  1.00  0.00     0.007 C 
ATOM     27  C   UNL     1      -7.547 -16.338   8.748  1.00  0.00     0.007 C 
ENDBRANCH  24  25
ENDBRANCH  18  24
ENDBRANCH  15  18
ENDBRANCH  13  14
BRANCH  13  28
ATOM     28  C   UNL     1     -11.356 -11.641   5.746  1.00  0.00     0.327 C 
ATOM     29  O   UNL     1     -10.864 -10.573   5.413  1.00  0.00    -0.250 OA
BRANCH  28  30
ATOM     30  O   UNL     1     -11.738 -12.537   4.813  1.00  0.00    -0.480 OA
ATOM     31  H   UNL     1     -12.482 -12.100   4.350  1.00  0.00     0.296 HD
ENDBRANCH  28  30
ENDBRANCH  13  28
ENDBRANCH  11  13
ENDBRANCH   8  11
ENDBRANCH   6   7
BRANCH   6  32
ATOM     32  C   UNL     1     -14.924  -8.393   5.687  1.00  0.00     0.037 C 
BRANCH  32  33
ATOM     33  C   UNL     1     -15.754  -7.287   5.021  1.00  0.00     0.026 C 
BRANCH  33  34
ATOM     34  C   UNL     1     -15.959  -6.078   5.936  1.00  0.00     0.146 C 
BRANCH  34  35
ATOM     35  N   UNL     1     -14.901  -6.062   6.937  1.00  0.00    -0.254 NA
ATOM     36  C   UNL     1     -14.480  -4.932   7.367  1.00  0.00     0.185 C 
ATOM     37  N   UNL     1     -13.509  -4.905   8.293  1.00  0.00    -0.370 N 
ATOM     38  N   UNL     1     -14.878  -3.694   7.022  1.00  0.00    -0.370 N 
ATOM     39  H   UNL     1     -13.162  -5.800   8.614  1.00  0.00     0.159 HD
ATOM     40  H   UNL     1     -13.249  -4.078   8.803  1.00  0.00     0.159 HD
ATOM     41  H   UNL     1     -14.373  -2.880   7.329  1.00  0.00     0.159 HD
ATOM     42  H   UNL     1     -15.592  -3.562   6.322  1.00  0.00     0.159 HD
ENDBRANCH  34  35
ENDBRANCH  33  34
ENDBRANCH  32  33
ENDBRANCH   6  32
ENDBRANCH   4   6
ENDBRANCH   1   2
BRANCH   1  43
ATOM     43  C   UNL     1     -14.061 -10.326   0.400  1.00  0.00     0.102 C 
ATOM     44  C   UNL     1     -14.234  -8.863  -0.043  1.00  0.00     0.020 C 
BRANCH  43  45
ATOM     45  C   UNL     1     -15.377 -11.035   0.731  1.00  0.00     0.225 C 
ATOM     46  O   UNL     1     -16.241 -10.545   1.453  1.00  0.00    -0.275 OA
ATOM     47  N   UNL     1     -15.501 -12.315   0.240  1.00  0.00    -0.342 N 
ATOM     48  H   UNL     1     -14.860 -12.642  -0.469  1.00  0.00     0.164 HD
BRANCH  47  49
ATOM     49  C   UNL     1     -16.720 -13.101   0.448  1.00  0.00     0.192 C 
BRANCH  49  50
ATOM     50  C   UNL     1     -16.473 -14.158   1.527  1.00  0.00     0.047 C 
BRANCH  50  51
ATOM     51  C   UNL     1     -16.485 -13.561   2.941  1.00  0.00     0.103 C 
BRANCH  51  52
ATOM     52  C   UNL     1     -15.256 -13.975   3.748  1.00  0.00     0.226 C 
ATOM     53  O   UNL     1     -14.300 -13.202   3.843  1.00  0.00    -0.275 OA
BRANCH  52  54
ATOM     54  N   UNL     1     -15.329 -15.215   4.410  1.00  0.00    -0.311 N 
ATOM     55  C   UNL     1     -16.279 -15.430   5.509  1.00  0.00     0.153 C 
BRANCH  54  56
ATOM     56  C   UNL     1     -14.504 -16.291   4.042  1.00  0.00     0.102 C 
ATOM     57  C   UNL     1     -13.953 -16.457   2.829  1.00  0.00     0.043 C 
BRANCH  56  58
ATOM     58  C   UNL     1     -14.129 -17.357   5.044  1.00  0.00     0.268 C 
ATOM     59  O   UNL     1     -14.456 -18.530   4.928  1.00  0.00    -0.268 OA
ATOM     60  N   UNL     1     -13.331 -16.887   6.060  1.00  0.00    -0.339 N 
ATOM     61  H   UNL     1     -13.113 -15.898   6.091  1.00  0.00     0.164 HD
BRANCH  60  62
ATOM     62  C   UNL     1     -12.801 -17.764   7.103  1.00  0.00     0.168 CG0
ATOM     63  C   UNL     1     -13.736 -17.810   8.306  1.00  0.00     0.041 C 
ATOM     64  G   UNL     1     -11.397 -17.279   7.522  1.00  0.00     0.000 G0
ENDBRANCH  60  62
ENDBRANCH  56  58
ENDBRANCH  54  56
ENDBRANCH  52  54
ENDBRANCH  51  52
ENDBRANCH  50  51
ENDBRANCH  49  50
BRANCH  49  65
ATOM     65  C   UNL     1     -17.177 -13.792  -0.847  1.00  0.00     0.326 C 
ATOM     66  O   UNL     1     -18.264 -13.644  -1.386  1.00  0.00    -0.250 OA
BRANCH  65  67
ATOM     67  O   UNL     1     -16.286 -14.668  -1.363  1.00  0.00    -0.480 OA
ATOM     68  H   UNL     1     -16.421 -14.591  -2.332  1.00  0.00     0.296 HD
ENDBRANCH  65  67
ENDBRANCH  49  65
ENDBRANCH  47  49
ENDBRANCH  43  45
ENDBRANCH   1  43
BRANCH   1  69
ATOM     69  C   UNL     1     -12.138 -11.739   1.547  1.00  0.00    -0.001 C 
ATOM     70  C   UNL     1     -12.069 -12.696   0.604  1.00  0.00     0.001 C 
BRANCH  70  71
ATOM     71  C   UNL     1     -11.193 -13.869   0.605  1.00  0.00    -0.055 C 
ATOM     72  C   UNL     1     -10.849 -14.394   1.799  1.00  0.00    -0.018 C 
ATOM     73  C   UNL     1     -10.746 -14.412  -0.727  1.00  0.00     0.044 C 
BRANCH  72  74
ATOM     74  C   UNL     1      -9.967 -15.597   2.104  1.00  0.00     0.038 C 
ATOM     75  C   UNL     1     -10.655 -16.391   3.221  1.00  0.00     0.015 C 
BRANCH  74  76
ATOM     76  C   UNL     1      -8.534 -15.093   2.449  1.00  0.00     0.128 C 
BRANCH  76  77
ATOM     77  O   UNL     1      -7.628 -16.207   2.528  1.00  0.00    -0.381 OA
ATOM     78  C   UNL     1      -6.677 -16.095   3.578  1.00  0.00     0.195 C 
ENDBRANCH  76  77
BRANCH  76  79
ATOM     79  C   UNL     1      -8.021 -13.968   1.515  1.00  0.00     0.068 C 
BRANCH  79  80
ATOM     80  C   UNL     1      -7.656 -12.643   2.138  1.00  0.00    -0.045 A 
ATOM     81  C   UNL     1      -8.021 -12.341   3.457  1.00  0.00     0.004 A 
ATOM     82  C   UNL     1      -6.964 -11.677   1.392  1.00  0.00     0.004 A 
ATOM     83  C   UNL     1      -7.692 -11.107   4.022  1.00  0.00     0.000 A 
ATOM     84  C   UNL     1      -6.635 -10.443   1.958  1.00  0.00     0.000 A 
ATOM     85  C   UNL     1      -6.997 -10.159   3.273  1.00  0.00     0.000 A 
ENDBRANCH  79  80
ENDBRANCH  76  79
ENDBRANCH  74  76
ENDBRANCH  72  74
ENDBRANCH  70  71
ENDBRANCH   1  69
TORSDOF 17
ENDMDL
MODEL 11
REMARK VINA RESULT:    -6.203      1.563      2.062
REMARK INTER + INTRA:         -26.065
REMARK INTER:                 -20.476
REMARK INTRA:                  -5.589
REMARK UNBOUND:                -7.533
REMARK SMILES C=C1C(=O)N[C@H](C)C(=O)N[C@@H](CC(C)C)C(=O)N[C@@H](C(=O)O)[C@H](C)C(=O)N[C@@H](CCCN=C(N)N)C(=O)N[C@@H](/C=C/C(C)=C/[C@H](C)[C@H](Cc2ccccc2)OC)[C@H](C)C(=O)N[C@@H](C(=O)O)CCC(=O)N1C
REMARK SMILES IDX 39 1 38 2 37 3 36 4 28 6 27 7 25 8 26 9 23 11 24 12 19 13
REMARK SMILES IDX 18 14 16 15 17 16 11 18 10 19 8 20 9 21 12 24 13 25 14 26
REMARK SMILES IDX 15 27 20 28 21 29 22 30 29 32 30 33 31 34 32 35 33 36 34 37
REMARK SMILES IDX 35 38 57 43 58 44 59 45 60 46 61 47 62 49 66 50 67 51 68 52
REMARK SMILES IDX 69 53 70 54 71 55 2 56 1 57 3 58 4 59 5 60 6 62 7 63 63 65
REMARK SMILES IDX 64 66 65 67 40 69 41 70 42 71 44 72 43 73 45 74 46 75 47 76
REMARK SMILES IDX 55 77 56 78 48 79 49 80 50 81 54 82 51 83 53 84 52 85
REMARK H PARENT 38 5 27 10 18 17 10 22 22 31 34 39 34 40 35 41 35 42 61 48
REMARK H PARENT 5 61 65 68
REMARK Flexibility Score:  369.900
ROOT
ATOM      1  C   UNL     1     -12.548 -12.788   1.746  1.00  0.00     0.117 C 
ENDROOT
BRANCH   1   2
ATOM      2  N   UNL     1     -12.505 -14.201   2.122  1.00  0.00    -0.347 N 
ATOM      3  O   UNL     1     -12.508 -13.919   4.401  1.00  0.00    -0.273 OA
ATOM      4  C   UNL     1     -12.581 -14.657   3.424  1.00  0.00     0.243 C 
ATOM      5  H   UNL     1     -12.468 -14.904   1.400  1.00  0.00     0.164 HD
BRANCH   4   6
ATOM      6  C   UNL     1     -12.602 -16.202   3.543  1.00  0.00     0.171 C 
BRANCH   6   7
ATOM      7  N   UNL     1     -11.261 -16.755   3.293  1.00  0.00    -0.344 N 
ATOM      8  C   UNL     1     -10.269 -16.650   4.244  1.00  0.00     0.226 C 
ATOM      9  O   UNL     1     -10.440 -16.083   5.317  1.00  0.00    -0.275 OA
ATOM     10  H   UNL     1     -11.062 -17.172   2.392  1.00  0.00     0.164 HD
BRANCH   8  11
ATOM     11  C   UNL     1      -8.960 -17.318   3.860  1.00  0.00     0.109 C 
ATOM     12  C   UNL     1      -9.095 -17.991   2.494  1.00  0.00     0.021 C 
BRANCH  11  13
ATOM     13  C   UNL     1      -7.805 -16.303   3.972  1.00  0.00     0.204 C 
BRANCH  13  14
ATOM     14  N   UNL     1      -8.289 -14.920   4.031  1.00  0.00    -0.340 N 
ATOM     15  C   UNL     1      -8.510 -14.156   2.906  1.00  0.00     0.243 C 
ATOM     16  O   UNL     1      -8.375 -14.602   1.768  1.00  0.00    -0.273 OA
ATOM     17  H   UNL     1      -8.276 -14.445   4.937  1.00  0.00     0.164 HD
BRANCH  15  18
ATOM     18  C   UNL     1      -8.816 -12.670   3.217  1.00  0.00     0.171 C 
BRANCH  18  19
ATOM     19  N   UNL     1      -9.515 -12.647   4.501  1.00  0.00    -0.343 N 
ATOM     20  C   UNL     1     -10.366 -11.616   4.849  1.00  0.00     0.242 CG0
ATOM     21  O   UNL     1     -10.473 -10.608   4.155  1.00  0.00    -0.273 OA
ATOM     22  H   UNL     1      -9.369 -13.403   5.160  1.00  0.00     0.164 HD
ATOM     23  G   UNL     1     -11.072 -11.805   6.208  1.00  0.00     0.000 G0
ENDBRANCH  18  19
BRANCH  18  24
ATOM     24  C   UNL     1      -7.522 -11.850   3.267  1.00  0.00     0.038 C 
BRANCH  24  25
ATOM     25  C   UNL     1      -7.612 -10.463   2.594  1.00  0.00    -0.015 C 
ATOM     26  C   UNL     1      -8.119 -10.543   1.154  1.00  0.00     0.007 C 
ATOM     27  C   UNL     1      -6.238  -9.789   2.620  1.00  0.00     0.007 C 
ENDBRANCH  24  25
ENDBRANCH  18  24
ENDBRANCH  15  18
ENDBRANCH  13  14
BRANCH  13  28
ATOM     28  C   UNL     1      -6.922 -16.528   5.203  1.00  0.00     0.327 C 
ATOM     29  O   UNL     1      -5.883 -17.169   5.240  1.00  0.00    -0.250 OA
BRANCH  28  30
ATOM     30  O   UNL     1      -7.459 -16.033   6.337  1.00  0.00    -0.480 OA
ATOM     31  H   UNL     1      -6.730 -15.522   6.745  1.00  0.00     0.296 HD
ENDBRANCH  28  30
ENDBRANCH  13  28
ENDBRANCH  11  13
ENDBRANCH   8  11
ENDBRANCH   6   7
BRANCH   6  32
ATOM     32  C   UNL     1     -13.104 -16.594   4.937  1.00  0.00     0.037 C 
BRANCH  32  33
ATOM     33  C   UNL     1     -13.274 -18.112   5.087  1.00  0.00     0.026 C 
BRANCH  33  34
ATOM     34  C   UNL     1     -12.606 -18.654   6.350  1.00  0.00     0.146 C 
BRANCH  34  35
ATOM     35  N   UNL     1     -12.841 -17.721   7.444  1.00  0.00    -0.254 NA
ATOM     36  C   UNL     1     -11.844 -17.341   8.152  1.00  0.00     0.185 C 
ATOM     37  N   UNL     1     -12.049 -16.477   9.159  1.00  0.00    -0.370 N 
ATOM     38  N   UNL     1     -10.549 -17.687   8.043  1.00  0.00    -0.370 N 
ATOM     39  H   UNL     1     -12.999 -16.160   9.299  1.00  0.00     0.159 HD
ATOM     40  H   UNL     1     -11.307 -16.002   9.643  1.00  0.00     0.159 HD
ATOM     41  H   UNL     1      -9.879 -17.428   8.749  1.00  0.00     0.159 HD
ATOM     42  H   UNL     1     -10.251 -18.343   7.338  1.00  0.00     0.159 HD
ENDBRANCH  34  35
ENDBRANCH  33  34
ENDBRANCH  32  33
ENDBRANCH   6  32
ENDBRANCH   4   6
ENDBRANCH   1   2
BRANCH   1  43
ATOM     43  C   UNL     1     -14.035 -12.371   1.554  1.00  0.00     0.102 C 
ATOM     44  C   UNL     1     -14.801 -13.274   0.572  1.00  0.00     0.020 C 
BRANCH  43  45
ATOM     45  C   UNL     1     -14.151 -10.876   1.242  1.00  0.00     0.225 C 
ATOM     46  O   UNL     1     -13.669 -10.360   0.238  1.00  0.00    -0.275 OA
ATOM     47  N   UNL     1     -14.758 -10.114   2.215  1.00  0.00    -0.342 N 
ATOM     48  H   UNL     1     -15.279 -10.567   2.953  1.00  0.00     0.164 HD
BRANCH  47  49
ATOM     49  C   UNL     1     -14.971  -8.674   2.038  1.00  0.00     0.192 C 
BRANCH  49  50
ATOM     50  C   UNL     1     -15.345  -8.041   3.381  1.00  0.00     0.047 C 
BRANCH  50  51
ATOM     51  C   UNL     1     -15.564  -9.091   4.479  1.00  0.00     0.103 C 
BRANCH  51  52
ATOM     52  C   UNL     1     -15.064  -8.611   5.839  1.00  0.00     0.226 C 
ATOM     53  O   UNL     1     -14.914  -7.405   6.043  1.00  0.00    -0.275 OA
BRANCH  52  54
ATOM     54  N   UNL     1     -14.873  -9.600   6.822  1.00  0.00    -0.311 N 
ATOM     55  C   UNL     1     -14.797  -9.247   8.246  1.00  0.00     0.153 C 
BRANCH  54  56
ATOM     56  C   UNL     1     -14.754 -10.958   6.481  1.00  0.00     0.102 C 
ATOM     57  C   UNL     1     -15.704 -11.682   5.868  1.00  0.00     0.043 C 
BRANCH  56  58
ATOM     58  C   UNL     1     -13.475 -11.715   6.752  1.00  0.00     0.268 C 
ATOM     59  O   UNL     1     -13.435 -12.746   7.410  1.00  0.00    -0.268 OA
ATOM     60  N   UNL     1     -12.379 -11.166   6.131  1.00  0.00    -0.339 N 
ATOM     61  H   UNL     1     -12.495 -10.304   5.612  1.00  0.00     0.164 HD
BRANCH  60  62
ATOM     62  C   UNL     1     -11.052 -11.775   6.210  1.00  0.00     0.168 CG0
ATOM     63  C   UNL     1     -10.225 -11.142   7.322  1.00  0.00     0.041 C 
ATOM     64  G   UNL     1     -10.338 -11.635   4.850  1.00  0.00     0.000 G0
ENDBRANCH  60  62
ENDBRANCH  56  58
ENDBRANCH  54  56
ENDBRANCH  52  54
ENDBRANCH  51  52
ENDBRANCH  50  51
ENDBRANCH  49  50
BRANCH  49  65
ATOM     65  C   UNL     1     -16.079  -8.387   1.013  1.00  0.00     0.326 C 
ATOM     66  O   UNL     1     -16.438  -7.277   0.647  1.00  0.00    -0.250 OA
BRANCH  65  67
ATOM     67  O   UNL     1     -16.717  -9.484   0.549  1.00  0.00    -0.480 OA
ATOM     68  H   UNL     1     -16.108 -10.220   0.779  1.00  0.00     0.296 HD
ENDBRANCH  65  67
ENDBRANCH  49  65
ENDBRANCH  47  49
ENDBRANCH  43  45
ENDBRANCH   1  43
BRANCH   1  69
ATOM     69  C   UNL     1     -11.586 -12.629   0.583  1.00  0.00    -0.001 C 
ATOM     70  C   UNL     1     -11.177 -13.581  -0.274  1.00  0.00     0.001 C 
BRANCH  70  71
ATOM     71  C   UNL     1     -10.264 -13.411  -1.407  1.00  0.00    -0.055 C 
ATOM     72  C   UNL     1     -10.280 -14.354  -2.372  1.00  0.00    -0.018 C 
ATOM     73  C   UNL     1      -9.377 -12.193  -1.418  1.00  0.00     0.044 C 
BRANCH  72  74
ATOM     74  C   UNL     1      -9.456 -14.439  -3.649  1.00  0.00     0.038 C 
ATOM     75  C   UNL     1     -10.164 -15.431  -4.580  1.00  0.00     0.015 C 
BRANCH  74  76
ATOM     76  C   UNL     1      -7.993 -14.823  -3.277  1.00  0.00     0.128 C 
BRANCH  76  77
ATOM     77  O   UNL     1      -7.738 -16.191  -3.638  1.00  0.00    -0.381 OA
ATOM     78  C   UNL     1      -6.464 -16.396  -4.235  1.00  0.00     0.195 C 
ENDBRANCH  76  77
BRANCH  76  79
ATOM     79  C   UNL     1      -6.926 -13.847  -3.832  1.00  0.00     0.068 C 
BRANCH  79  80
ATOM     80  C   UNL     1      -7.330 -12.918  -4.952  1.00  0.00    -0.045 A 
ATOM     81  C   UNL     1      -8.092 -11.770  -4.697  1.00  0.00     0.004 A 
ATOM     82  C   UNL     1      -6.971 -13.209  -6.277  1.00  0.00     0.004 A 
ATOM     83  C   UNL     1      -8.474 -10.924  -5.740  1.00  0.00     0.000 A 
ATOM     84  C   UNL     1      -7.355 -12.362  -7.319  1.00  0.00     0.000 A 
ATOM     85  C   UNL     1      -8.105 -11.219  -7.050  1.00  0.00     0.000 A 
ENDBRANCH  79  80
ENDBRANCH  76  79
ENDBRANCH  74  76
ENDBRANCH  72  74
ENDBRANCH  70  71
ENDBRANCH   1  69
TORSDOF 17
ENDMDL
MODEL 12
REMARK VINA RESULT:    -6.195      2.564      5.671
REMARK INTER + INTRA:         -26.041
REMARK INTER:                 -19.549
REMARK INTRA:                  -6.491
REMARK UNBOUND:                -7.533
REMARK SMILES C=C1C(=O)N[C@H](C)C(=O)N[C@@H](CC(C)C)C(=O)N[C@@H](C(=O)O)[C@H](C)C(=O)N[C@@H](CCCN=C(N)N)C(=O)N[C@@H](/C=C/C(C)=C/[C@H](C)[C@H](Cc2ccccc2)OC)[C@H](C)C(=O)N[C@@H](C(=O)O)CCC(=O)N1C
REMARK SMILES IDX 39 1 38 2 37 3 36 4 28 6 27 7 25 8 26 9 23 11 24 12 19 13
REMARK SMILES IDX 18 14 16 15 17 16 11 18 10 19 8 20 9 21 12 24 13 25 14 26
REMARK SMILES IDX 15 27 20 28 21 29 22 30 29 32 30 33 31 34 32 35 33 36 34 37
REMARK SMILES IDX 35 38 57 43 58 44 59 45 60 46 61 47 62 49 66 50 67 51 68 52
REMARK SMILES IDX 69 53 70 54 71 55 2 56 1 57 3 58 4 59 5 60 6 62 7 63 63 65
REMARK SMILES IDX 64 66 65 67 40 69 41 70 42 71 44 72 43 73 45 74 46 75 47 76
REMARK SMILES IDX 55 77 56 78 48 79 49 80 50 81 54 82 51 83 53 84 52 85
REMARK H PARENT 38 5 27 10 18 17 10 22 22 31 34 39 34 40 35 41 35 42 61 48
REMARK H PARENT 5 61 65 68
REMARK Flexibility Score:  369.900
ROOT
ATOM      1  C   UNL     1     -11.668 -11.337  -0.179  1.00  0.00     0.117 C 
ENDROOT
BRANCH   1   2
ATOM      2  N   UNL     1     -11.017 -11.935   0.988  1.00  0.00    -0.347 N 
ATOM      3  O   UNL     1      -9.195 -10.542   1.079  1.00  0.00    -0.273 OA
ATOM      4  C   UNL     1      -9.876 -11.431   1.580  1.00  0.00     0.243 C 
ATOM      5  H   UNL     1     -11.439 -12.737   1.432  1.00  0.00     0.164 HD
BRANCH   4   6
ATOM      6  C   UNL     1      -9.442 -12.201   2.853  1.00  0.00     0.171 C 
BRANCH   6   7
ATOM      7  N   UNL     1     -10.153 -11.685   4.034  1.00  0.00    -0.344 N 
ATOM      8  C   UNL     1      -9.455 -11.254   5.141  1.00  0.00     0.226 C 
ATOM      9  O   UNL     1      -8.232 -11.296   5.209  1.00  0.00    -0.275 OA
ATOM     10  H   UNL     1     -11.165 -11.697   4.042  1.00  0.00     0.164 HD
BRANCH   8  11
ATOM     11  C   UNL     1     -10.327 -10.700   6.254  1.00  0.00     0.109 C 
ATOM     12  C   UNL     1     -11.788 -10.660   5.806  1.00  0.00     0.021 C 
BRANCH  11  13
ATOM     13  C   UNL     1     -10.070 -11.482   7.557  1.00  0.00     0.204 C 
BRANCH  13  14
ATOM     14  N   UNL     1      -9.857 -12.911   7.310  1.00  0.00    -0.340 N 
ATOM     15  C   UNL     1     -10.832 -13.861   7.523  1.00  0.00     0.243 C 
ATOM     16  O   UNL     1     -11.972 -13.568   7.880  1.00  0.00    -0.273 OA
ATOM     17  H   UNL     1      -8.898 -13.235   7.161  1.00  0.00     0.164 HD
BRANCH  15  18
ATOM     18  C   UNL     1     -10.318 -15.316   7.395  1.00  0.00     0.171 C 
BRANCH  18  19
ATOM     19  N   UNL     1     -10.915 -15.865   6.179  1.00  0.00    -0.343 N 
ATOM     20  C   UNL     1     -11.402 -17.158   6.126  1.00  0.00     0.242 CG0
ATOM     21  O   UNL     1     -11.235 -17.946   7.054  1.00  0.00    -0.273 OA
ATOM     22  H   UNL     1     -10.971 -15.288   5.348  1.00  0.00     0.164 HD
ATOM     23  G   UNL     1     -12.066 -17.533   4.786  1.00  0.00     0.000 G0
ENDBRANCH  18  19
BRANCH  18  24
ATOM     24  C   UNL     1      -8.786 -15.345   7.331  1.00  0.00     0.038 C 
BRANCH  24  25
ATOM     25  C   UNL     1      -8.105 -16.067   8.513  1.00  0.00    -0.015 C 
ATOM     26  C   UNL     1      -6.768 -15.431   8.895  1.00  0.00     0.007 C 
ATOM     27  C   UNL     1      -7.892 -17.542   8.161  1.00  0.00     0.007 C 
ENDBRANCH  24  25
ENDBRANCH  18  24
ENDBRANCH  15  18
ENDBRANCH  13  14
BRANCH  13  28
ATOM     28  C   UNL     1      -8.855 -10.971   8.338  1.00  0.00     0.327 C 
ATOM     29  O   UNL     1      -8.773  -9.906   8.931  1.00  0.00    -0.250 OA
BRANCH  28  30
ATOM     30  O   UNL     1      -7.778 -11.774   8.226  1.00  0.00    -0.480 OA
ATOM     31  H   UNL     1      -8.058 -12.465   7.590  1.00  0.00     0.296 HD
ENDBRANCH  28  30
ENDBRANCH  13  28
ENDBRANCH  11  13
ENDBRANCH   8  11
ENDBRANCH   6   7
BRANCH   6  32
ATOM     32  C   UNL     1      -9.720 -13.696   2.656  1.00  0.00     0.037 C 
BRANCH  32  33
ATOM     33  C   UNL     1      -8.843 -14.572   3.560  1.00  0.00     0.026 C 
BRANCH  33  34
ATOM     34  C   UNL     1      -8.485 -15.909   2.910  1.00  0.00     0.146 C 
BRANCH  34  35
ATOM     35  N   UNL     1      -7.056 -15.930   2.633  1.00  0.00    -0.254 NA
ATOM     36  C   UNL     1      -6.246 -16.164   3.597  1.00  0.00     0.185 C 
ATOM     37  N   UNL     1      -4.927 -16.190   3.352  1.00  0.00    -0.370 N 
ATOM     38  N   UNL     1      -6.521 -16.403   4.892  1.00  0.00    -0.370 N 
ATOM     39  H   UNL     1      -4.639 -16.029   2.395  1.00  0.00     0.159 HD
ATOM     40  H   UNL     1      -4.246 -16.534   4.007  1.00  0.00     0.159 HD
ATOM     41  H   UNL     1      -5.788 -16.435   5.582  1.00  0.00     0.159 HD
ATOM     42  H   UNL     1      -7.473 -16.398   5.223  1.00  0.00     0.159 HD
ENDBRANCH  34  35
ENDBRANCH  33  34
ENDBRANCH  32  33
ENDBRANCH   6  32
ENDBRANCH   4   6
ENDBRANCH   1   2
BRANCH   1  43
ATOM     43  C   UNL     1     -13.199 -11.265   0.091  1.00  0.00     0.102 C 
ATOM     44  C   UNL     1     -13.889 -10.083  -0.611  1.00  0.00     0.020 C 
BRANCH  43  45
ATOM     45  C   UNL     1     -13.498 -11.358   1.590  1.00  0.00     0.225 C 
ATOM     46  O   UNL     1     -12.961 -12.175   2.332  1.00  0.00    -0.275 OA
ATOM     47  N   UNL     1     -14.490 -10.522   2.049  1.00  0.00    -0.342 N 
ATOM     48  H   UNL     1     -14.811  -9.760   1.467  1.00  0.00     0.164 HD
BRANCH  47  49
ATOM     49  C   UNL     1     -14.859 -10.477   3.467  1.00  0.00     0.192 C 
BRANCH  49  50
ATOM     50  C   UNL     1     -16.361 -10.732   3.616  1.00  0.00     0.047 C 
BRANCH  50  51
ATOM     51  C   UNL     1     -16.749 -12.165   3.226  1.00  0.00     0.103 C 
BRANCH  51  52
ATOM     52  C   UNL     1     -16.196 -13.196   4.208  1.00  0.00     0.226 C 
ATOM     53  O   UNL     1     -16.132 -12.923   5.408  1.00  0.00    -0.275 OA
BRANCH  52  54
ATOM     54  N   UNL     1     -15.855 -14.452   3.672  1.00  0.00    -0.311 N 
ATOM     55  C   UNL     1     -16.118 -14.769   2.262  1.00  0.00     0.153 C 
BRANCH  54  56
ATOM     56  C   UNL     1     -15.249 -15.445   4.459  1.00  0.00     0.102 C 
ATOM     57  C   UNL     1     -15.886 -16.200   5.369  1.00  0.00     0.043 C 
BRANCH  56  58
ATOM     58  C   UNL     1     -13.783 -15.774   4.298  1.00  0.00     0.268 C 
ATOM     59  O   UNL     1     -12.967 -14.988   3.835  1.00  0.00    -0.268 OA
ATOM     60  N   UNL     1     -13.452 -17.017   4.784  1.00  0.00    -0.339 N 
ATOM     61  H   UNL     1     -14.190 -17.612   5.142  1.00  0.00     0.164 HD
BRANCH  60  62
ATOM     62  C   UNL     1     -12.076 -17.512   4.784  1.00  0.00     0.168 CG0
ATOM     63  C   UNL     1     -12.036 -19.015   4.539  1.00  0.00     0.041 C 
ATOM     64  G   UNL     1     -11.400 -17.158   6.125  1.00  0.00     0.000 G0
ENDBRANCH  60  62
ENDBRANCH  56  58
ENDBRANCH  54  56
ENDBRANCH  52  54
ENDBRANCH  51  52
ENDBRANCH  50  51
ENDBRANCH  49  50
BRANCH  49  65
ATOM     65  C   UNL     1     -14.508  -9.122   4.101  1.00  0.00     0.326 C 
ATOM     66  O   UNL     1     -13.835  -8.246   3.578  1.00  0.00    -0.250 OA
BRANCH  65  67
ATOM     67  O   UNL     1     -14.959  -8.957   5.364  1.00  0.00    -0.480 OA
ATOM     68  H   UNL     1     -15.900  -8.705   5.243  1.00  0.00     0.296 HD
ENDBRANCH  65  67
ENDBRANCH  49  65
ENDBRANCH  47  49
ENDBRANCH  43  45
ENDBRANCH   1  43
BRANCH   1  69
ATOM     69  C   UNL     1     -11.171 -12.111  -1.385  1.00  0.00    -0.001 C 
ATOM     70  C   UNL     1      -9.902 -12.228  -1.816  1.00  0.00     0.001 C 
BRANCH  70  71
ATOM     71  C   UNL     1      -9.432 -12.996  -2.970  1.00  0.00    -0.055 C 
ATOM     72  C   UNL     1      -8.531 -12.412  -3.788  1.00  0.00    -0.018 C 
ATOM     73  C   UNL     1      -9.980 -14.387  -3.158  1.00  0.00     0.044 C 
BRANCH  72  74
ATOM     74  C   UNL     1      -7.872 -12.963  -5.044  1.00  0.00     0.038 C 
ATOM     75  C   UNL     1      -6.442 -13.367  -4.665  1.00  0.00     0.015 C 
BRANCH  74  76
ATOM     76  C   UNL     1      -7.971 -11.894  -6.172  1.00  0.00     0.128 C 
BRANCH  76  77
ATOM     77  O   UNL     1      -7.911 -12.531  -7.459  1.00  0.00    -0.381 OA
ATOM     78  C   UNL     1      -8.432 -13.854  -7.467  1.00  0.00     0.195 C 
ENDBRANCH  76  77
BRANCH  76  79
ATOM     79  C   UNL     1      -9.185 -10.941  -6.031  1.00  0.00     0.068 C 
BRANCH  79  80
ATOM     80  C   UNL     1     -10.460 -11.310  -6.748  1.00  0.00    -0.045 A 
ATOM     81  C   UNL     1     -10.685 -10.912  -8.073  1.00  0.00     0.004 A 
ATOM     82  C   UNL     1     -11.459 -12.039  -6.085  1.00  0.00     0.004 A 
ATOM     83  C   UNL     1     -11.874 -11.246  -8.725  1.00  0.00     0.000 A 
ATOM     84  C   UNL     1     -12.648 -12.372  -6.738  1.00  0.00     0.000 A 
ATOM     85  C   UNL     1     -12.855 -11.976  -8.057  1.00  0.00     0.000 A 
ENDBRANCH  79  80
ENDBRANCH  76  79
ENDBRANCH  74  76
ENDBRANCH  72  74
ENDBRANCH  70  71
ENDBRANCH   1  69
TORSDOF 17
ENDMDL
MODEL 13
REMARK VINA RESULT:    -6.177      7.784     13.373
REMARK INTER + INTRA:         -25.988
REMARK INTER:                 -19.444
REMARK INTRA:                  -6.545
REMARK UNBOUND:                -7.533
REMARK SMILES C=C1C(=O)N[C@H](C)C(=O)N[C@@H](CC(C)C)C(=O)N[C@@H](C(=O)O)[C@H](C)C(=O)N[C@@H](CCCN=C(N)N)C(=O)N[C@@H](/C=C/C(C)=C/[C@H](C)[C@H](Cc2ccccc2)OC)[C@H](C)C(=O)N[C@@H](C(=O)O)CCC(=O)N1C
REMARK SMILES IDX 39 1 38 2 37 3 36 4 28 6 27 7 25 8 26 9 23 11 24 12 19 13
REMARK SMILES IDX 18 14 16 15 17 16 11 18 10 19 8 20 9 21 12 24 13 25 14 26
REMARK SMILES IDX 15 27 20 28 21 29 22 30 29 32 30 33 31 34 32 35 33 36 34 37
REMARK SMILES IDX 35 38 57 43 58 44 59 45 60 46 61 47 62 49 66 50 67 51 68 52
REMARK SMILES IDX 69 53 70 54 71 55 2 56 1 57 3 58 4 59 5 60 6 62 7 63 63 65
REMARK SMILES IDX 64 66 65 67 40 69 41 70 42 71 44 72 43 73 45 74 46 75 47 76
REMARK SMILES IDX 55 77 56 78 48 79 49 80 50 81 54 82 51 83 53 84 52 85
REMARK H PARENT 38 5 27 10 18 17 10 22 22 31 34 39 34 40 35 41 35 42 61 48
REMARK H PARENT 5 61 65 68
REMARK Flexibility Score:  369.900
ROOT
ATOM      1  C   UNL     1      -7.047 -11.698  11.833  1.00  0.00     0.117 C 
ENDROOT
BRANCH   1   2
ATOM      2  N   UNL     1      -7.784 -12.410  10.788  1.00  0.00    -0.347 N 
ATOM      3  O   UNL     1      -8.080 -10.643   9.354  1.00  0.00    -0.273 OA
ATOM      4  C   UNL     1      -8.163 -11.844   9.586  1.00  0.00     0.243 C 
ATOM      5  H   UNL     1      -7.995 -13.389  10.912  1.00  0.00     0.164 HD
BRANCH   4   6
ATOM      6  C   UNL     1      -8.855 -12.838   8.620  1.00  0.00     0.171 C 
BRANCH   6   7
ATOM      7  N   UNL     1      -9.026 -12.230   7.291  1.00  0.00    -0.344 N 
ATOM      8  C   UNL     1     -10.169 -11.525   6.983  1.00  0.00     0.226 C 
ATOM      9  O   UNL     1     -11.095 -11.389   7.774  1.00  0.00    -0.275 OA
ATOM     10  H   UNL     1      -8.312 -12.377   6.588  1.00  0.00     0.164 HD
BRANCH   8  11
ATOM     11  C   UNL     1     -10.170 -10.912   5.593  1.00  0.00     0.109 C 
ATOM     12  C   UNL     1      -9.073 -11.546   4.738  1.00  0.00     0.021 C 
BRANCH  11  13
ATOM     13  C   UNL     1     -11.588 -10.989   4.991  1.00  0.00     0.204 C 
BRANCH  13  14
ATOM     14  N   UNL     1     -12.508 -10.039   5.623  1.00  0.00    -0.340 N 
ATOM     15  C   UNL     1     -13.734 -10.410   6.131  1.00  0.00     0.243 C 
ATOM     16  O   UNL     1     -14.117 -11.578   6.144  1.00  0.00    -0.273 OA
ATOM     17  H   UNL     1     -12.320  -9.040   5.508  1.00  0.00     0.164 HD
BRANCH  15  18
ATOM     18  C   UNL     1     -14.616  -9.210   6.557  1.00  0.00     0.171 C 
BRANCH  18  19
ATOM     19  N   UNL     1     -15.960  -9.479   6.052  1.00  0.00    -0.343 N 
ATOM     20  C   UNL     1     -16.341  -9.129   4.771  1.00  0.00     0.242 CG0
ATOM     21  O   UNL     1     -15.612  -8.458   4.044  1.00  0.00    -0.273 OA
ATOM     22  H   UNL     1     -16.638  -9.929   6.657  1.00  0.00     0.164 HD
ATOM     23  G   UNL     1     -17.772  -9.563   4.391  1.00  0.00     0.000 G0
ENDBRANCH  18  19
BRANCH  18  24
ATOM     24  C   UNL     1     -14.610  -9.050   8.082  1.00  0.00     0.038 C 
BRANCH  24  25
ATOM     25  C   UNL     1     -14.700  -7.590   8.577  1.00  0.00    -0.015 C 
ATOM     26  C   UNL     1     -13.355  -6.866   8.511  1.00  0.00     0.007 C 
ATOM     27  C   UNL     1     -15.229  -7.565  10.013  1.00  0.00     0.007 C 
ENDBRANCH  24  25
ENDBRANCH  18  24
ENDBRANCH  15  18
ENDBRANCH  13  14
BRANCH  13  28
ATOM     28  C   UNL     1     -11.619 -10.717   3.483  1.00  0.00     0.327 C 
ATOM     29  O   UNL     1     -11.655 -11.558   2.598  1.00  0.00    -0.250 OA
BRANCH  28  30
ATOM     30  O   UNL     1     -11.481  -9.411   3.179  1.00  0.00    -0.480 OA
ATOM     31  H   UNL     1     -12.230  -8.976   3.638  1.00  0.00     0.296 HD
ENDBRANCH  28  30
ENDBRANCH  13  28
ENDBRANCH  11  13
ENDBRANCH   8  11
ENDBRANCH   6   7
BRANCH   6  32
ATOM     32  C   UNL     1      -8.019 -14.120   8.532  1.00  0.00     0.037 C 
BRANCH  32  33
ATOM     33  C   UNL     1      -8.764 -15.249   7.807  1.00  0.00     0.026 C 
BRANCH  33  34
ATOM     34  C   UNL     1     -10.283 -15.115   7.921  1.00  0.00     0.146 C 
BRANCH  34  35
ATOM     35  N   UNL     1     -10.846 -14.996   6.583  1.00  0.00    -0.254 NA
ATOM     36  C   UNL     1     -12.007 -14.471   6.449  1.00  0.00     0.185 C 
ATOM     37  N   UNL     1     -12.532 -14.352   5.220  1.00  0.00    -0.370 N 
ATOM     38  N   UNL     1     -12.831 -13.992   7.397  1.00  0.00    -0.370 N 
ATOM     39  H   UNL     1     -11.965 -14.682   4.449  1.00  0.00     0.159 HD
ATOM     40  H   UNL     1     -13.349 -13.801   5.016  1.00  0.00     0.159 HD
ATOM     41  H   UNL     1     -13.779 -13.731   7.179  1.00  0.00     0.159 HD
ATOM     42  H   UNL     1     -12.572 -14.032   8.370  1.00  0.00     0.159 HD
ENDBRANCH  34  35
ENDBRANCH  33  34
ENDBRANCH  32  33
ENDBRANCH   6  32
ENDBRANCH   4   6
ENDBRANCH   1   2
BRANCH   1  43
ATOM     43  C   UNL     1      -5.855 -10.947  11.173  1.00  0.00     0.102 C 
ATOM     44  C   UNL     1      -4.537 -11.739  11.210  1.00  0.00     0.020 C 
BRANCH  43  45
ATOM     45  C   UNL     1      -5.737  -9.519  11.715  1.00  0.00     0.225 C 
ATOM     46  O   UNL     1      -6.505  -8.616  11.397  1.00  0.00    -0.275 OA
ATOM     47  N   UNL     1      -4.647  -9.279  12.520  1.00  0.00    -0.342 N 
ATOM     48  H   UNL     1      -4.119 -10.056  12.891  1.00  0.00     0.164 HD
BRANCH  47  49
ATOM     49  C   UNL     1      -4.426  -7.968  13.138  1.00  0.00     0.192 C 
BRANCH  49  50
ATOM     50  C   UNL     1      -2.957  -7.566  12.979  1.00  0.00     0.047 C 
BRANCH  50  51
ATOM     51  C   UNL     1      -2.496  -7.615  11.516  1.00  0.00     0.103 C 
BRANCH  51  52
ATOM     52  C   UNL     1      -3.044  -6.444  10.703  1.00  0.00     0.226 C 
ATOM     53  O   UNL     1      -4.238  -6.419  10.396  1.00  0.00    -0.275 OA
BRANCH  52  54
ATOM     54  N   UNL     1      -2.141  -5.404  10.413  1.00  0.00    -0.311 N 
ATOM     55  C   UNL     1      -1.828  -5.039   9.025  1.00  0.00     0.153 C 
BRANCH  54  56
ATOM     56  C   UNL     1      -1.510  -4.676  11.435  1.00  0.00     0.102 C 
ATOM     57  C   UNL     1      -2.132  -3.824  12.267  1.00  0.00     0.043 C 
BRANCH  56  58
ATOM     58  C   UNL     1      -0.034  -4.842  11.709  1.00  0.00     0.268 C 
ATOM     59  O   UNL     1       0.566  -5.893  11.526  1.00  0.00    -0.268 OA
ATOM     60  N   UNL     1       0.574  -3.680  12.119  1.00  0.00    -0.339 N 
ATOM     61  H   UNL     1       0.004  -2.854  12.256  1.00  0.00     0.164 HD
BRANCH  60  62
ATOM     62  C   UNL     1       2.011  -3.602  12.378  1.00  0.00     0.168 CG0
ATOM     63  C   UNL     1       2.763  -3.110  11.148  1.00  0.00     0.041 C 
ATOM     64  G   UNL     1       2.532  -4.985  12.820  1.00  0.00     0.000 G0
ENDBRANCH  60  62
ENDBRANCH  56  58
ENDBRANCH  54  56
ENDBRANCH  52  54
ENDBRANCH  51  52
ENDBRANCH  50  51
ENDBRANCH  49  50
BRANCH  49  65
ATOM     65  C   UNL     1      -4.792  -7.977  14.631  1.00  0.00     0.326 C 
ATOM     66  O   UNL     1      -5.109  -8.963  15.279  1.00  0.00    -0.250 OA
BRANCH  65  67
ATOM     67  O   UNL     1      -4.801  -6.759  15.216  1.00  0.00    -0.480 OA
ATOM     68  H   UNL     1      -3.892  -6.422  15.065  1.00  0.00     0.296 HD
ENDBRANCH  65  67
ENDBRANCH  49  65
ENDBRANCH  47  49
ENDBRANCH  43  45
ENDBRANCH   1  43
BRANCH   1  69
ATOM     69  C   UNL     1      -6.760 -12.718  12.920  1.00  0.00    -0.001 C 
ATOM     70  C   UNL     1      -6.269 -12.485  14.150  1.00  0.00     0.001 C 
BRANCH  70  71
ATOM     71  C   UNL     1      -6.017 -13.476  15.198  1.00  0.00    -0.055 C 
ATOM     72  C   UNL     1      -4.932 -14.268  15.065  1.00  0.00    -0.018 C 
ATOM     73  C   UNL     1      -6.980 -13.536  16.355  1.00  0.00     0.044 C 
BRANCH  72  74
ATOM     74  C   UNL     1      -4.424 -15.368  15.986  1.00  0.00     0.038 C 
ATOM     75  C   UNL     1      -3.494 -14.708  17.011  1.00  0.00     0.015 C 
BRANCH  74  76
ATOM     76  C   UNL     1      -3.757 -16.478  15.120  1.00  0.00     0.128 C 
BRANCH  76  77
ATOM     77  O   UNL     1      -3.093 -17.430  15.968  1.00  0.00    -0.381 OA
ATOM     78  C   UNL     1      -1.904 -17.965  15.404  1.00  0.00     0.195 C 
ENDBRANCH  76  77
BRANCH  76  79
ATOM     79  C   UNL     1      -4.719 -17.147  14.105  1.00  0.00     0.068 C 
BRANCH  79  80
ATOM     80  C   UNL     1      -4.852 -16.521  12.738  1.00  0.00    -0.045 A 
ATOM     81  C   UNL     1      -3.728 -16.049  12.048  1.00  0.00     0.004 A 
ATOM     82  C   UNL     1      -6.116 -16.375  12.148  1.00  0.00     0.004 A 
ATOM     83  C   UNL     1      -3.861 -15.458  10.790  1.00  0.00     0.000 A 
ATOM     84  C   UNL     1      -6.249 -15.783  10.890  1.00  0.00     0.000 A 
ATOM     85  C   UNL     1      -5.122 -15.326  10.210  1.00  0.00     0.000 A 
ENDBRANCH  79  80
ENDBRANCH  76  79
ENDBRANCH  74  76
ENDBRANCH  72  74
ENDBRANCH  70  71
ENDBRANCH   1  69
TORSDOF 17
ENDMDL
MODEL 14
REMARK VINA RESULT:    -6.112     20.117     24.729
REMARK INTER + INTRA:         -25.793
REMARK INTER:                 -17.791
REMARK INTRA:                  -8.002
REMARK UNBOUND:                -7.533
REMARK SMILES C=C1C(=O)N[C@H](C)C(=O)N[C@@H](CC(C)C)C(=O)N[C@@H](C(=O)O)[C@H](C)C(=O)N[C@@H](CCCN=C(N)N)C(=O)N[C@@H](/C=C/C(C)=C/[C@H](C)[C@H](Cc2ccccc2)OC)[C@H](C)C(=O)N[C@@H](C(=O)O)CCC(=O)N1C
REMARK SMILES IDX 39 1 38 2 37 3 36 4 28 6 27 7 25 8 26 9 23 11 24 12 19 13
REMARK SMILES IDX 18 14 16 15 17 16 11 18 10 19 8 20 9 21 12 24 13 25 14 26
REMARK SMILES IDX 15 27 20 28 21 29 22 30 29 32 30 33 31 34 32 35 33 36 34 37
REMARK SMILES IDX 35 38 57 43 58 44 59 45 60 46 61 47 62 49 66 50 67 51 68 52
REMARK SMILES IDX 69 53 70 54 71 55 2 56 1 57 3 58 4 59 5 60 6 62 7 63 63 65
REMARK SMILES IDX 64 66 65 67 40 69 41 70 42 71 44 72 43 73 45 74 46 75 47 76
REMARK SMILES IDX 55 77 56 78 48 79 49 80 50 81 54 82 51 83 53 84 52 85
REMARK H PARENT 38 5 27 10 18 17 10 22 22 31 34 39 34 40 35 41 35 42 61 48
REMARK H PARENT 5 61 65 68
REMARK Flexibility Score:  369.900
ROOT
ATOM      1  C   UNL     1       3.630  -0.191   7.828  1.00  0.00     0.117 C 
ENDROOT
BRANCH   1   2
ATOM      2  N   UNL     1       4.920   0.485   7.970  1.00  0.00    -0.347 N 
ATOM      3  O   UNL     1       6.176  -0.970   6.714  1.00  0.00    -0.273 OA
ATOM      4  C   UNL     1       6.076   0.090   7.324  1.00  0.00     0.243 C 
ATOM      5  H   UNL     1       4.981   1.321   8.531  1.00  0.00     0.164 HD
BRANCH   4   6
ATOM      6  C   UNL     1       7.283   1.027   7.577  1.00  0.00     0.171 C 
BRANCH   6   7
ATOM      7  N   UNL     1       7.058   2.338   6.948  1.00  0.00    -0.344 N 
ATOM      8  C   UNL     1       7.530   2.600   5.680  1.00  0.00     0.226 C 
ATOM      9  O   UNL     1       8.170   1.780   5.032  1.00  0.00    -0.275 OA
ATOM     10  H   UNL     1       6.592   3.064   7.478  1.00  0.00     0.164 HD
BRANCH   8  11
ATOM     11  C   UNL     1       7.169   3.976   5.149  1.00  0.00     0.109 C 
ATOM     12  C   UNL     1       6.595   4.839   6.273  1.00  0.00     0.021 C 
BRANCH  11  13
ATOM     13  C   UNL     1       8.381   4.587   4.418  1.00  0.00     0.204 C 
BRANCH  13  14
ATOM     14  N   UNL     1       7.994   5.253   3.170  1.00  0.00    -0.340 N 
ATOM     15  C   UNL     1       8.343   4.773   1.926  1.00  0.00     0.243 C 
ATOM     16  O   UNL     1       8.954   3.716   1.774  1.00  0.00    -0.273 OA
ATOM     17  H   UNL     1       7.622   6.204   3.229  1.00  0.00     0.164 HD
BRANCH  15  18
ATOM     18  C   UNL     1       8.006   5.746   0.770  1.00  0.00     0.171 C 
BRANCH  18  19
ATOM     19  N   UNL     1       9.280   6.255   0.267  1.00  0.00    -0.343 N 
ATOM     20  C   UNL     1       9.596   7.599   0.309  1.00  0.00     0.242 CG0
ATOM     21  O   UNL     1       8.771   8.444   0.648  1.00  0.00    -0.273 OA
ATOM     22  H   UNL     1       9.952   5.608  -0.131  1.00  0.00     0.164 HD
ATOM     23  G   UNL     1      11.015   7.936  -0.195  1.00  0.00     0.000 G0
ENDBRANCH  18  19
BRANCH  18  24
ATOM     24  C   UNL     1       7.214   5.028  -0.329  1.00  0.00     0.038 C 
BRANCH  24  25
ATOM     25  C   UNL     1       5.992   4.231   0.174  1.00  0.00    -0.015 C 
ATOM     26  C   UNL     1       5.388   3.339  -0.911  1.00  0.00     0.007 C 
ATOM     27  C   UNL     1       4.927   5.197   0.699  1.00  0.00     0.007 C 
ENDBRANCH  24  25
ENDBRANCH  18  24
ENDBRANCH  15  18
ENDBRANCH  13  14
BRANCH  13  28
ATOM     28  C   UNL     1       9.142   5.614   5.263  1.00  0.00     0.327 C 
ATOM     29  O   UNL     1       9.694   5.403   6.332  1.00  0.00    -0.250 OA
BRANCH  28  30
ATOM     30  O   UNL     1       9.060   6.867   4.772  1.00  0.00    -0.480 OA
ATOM     31  H   UNL     1       8.102   7.072   4.794  1.00  0.00     0.296 HD
ENDBRANCH  28  30
ENDBRANCH  13  28
ENDBRANCH  11  13
ENDBRANCH   8  11
ENDBRANCH   6   7
BRANCH   6  32
ATOM     32  C   UNL     1       7.497   1.175   9.088  1.00  0.00     0.037 C 
BRANCH  32  33
ATOM     33  C   UNL     1       8.480   2.305   9.426  1.00  0.00     0.026 C 
BRANCH  33  34
ATOM     34  C   UNL     1       8.518   2.620  10.922  1.00  0.00     0.146 C 
BRANCH  34  35
ATOM     35  N   UNL     1       7.371   3.452  11.256  1.00  0.00    -0.254 NA
ATOM     36  C   UNL     1       7.538   4.436  12.059  1.00  0.00     0.185 C 
ATOM     37  N   UNL     1       6.489   5.213  12.370  1.00  0.00    -0.370 N 
ATOM     38  N   UNL     1       8.663   4.841  12.675  1.00  0.00    -0.370 N 
ATOM     39  H   UNL     1       5.605   4.977  11.936  1.00  0.00     0.159 HD
ATOM     40  H   UNL     1       6.571   6.095  12.846  1.00  0.00     0.159 HD
ATOM     41  H   UNL     1       8.638   5.547  13.393  1.00  0.00     0.159 HD
ATOM     42  H   UNL     1       9.528   4.340  12.545  1.00  0.00     0.159 HD
ENDBRANCH  34  35
ENDBRANCH  33  34
ENDBRANCH  32  33
ENDBRANCH   6  32
ENDBRANCH   4   6
ENDBRANCH   1   2
BRANCH   1  43
ATOM     43  C   UNL     1       2.719   0.670   6.907  1.00  0.00     0.102 C 
ATOM     44  C   UNL     1       2.476   0.041   5.525  1.00  0.00     0.020 C 
BRANCH  43  45
ATOM     45  C   UNL     1       3.206   2.121   6.852  1.00  0.00     0.225 C 
ATOM     46  O   UNL     1       3.975   2.538   5.991  1.00  0.00    -0.275 OA
ATOM     47  N   UNL     1       2.800   2.922   7.895  1.00  0.00    -0.342 N 
ATOM     48  H   UNL     1       2.056   2.612   8.503  1.00  0.00     0.164 HD
BRANCH  47  49
ATOM     49  C   UNL     1       3.161   4.342   7.955  1.00  0.00     0.192 C 
BRANCH  49  50
ATOM     50  C   UNL     1       4.152   4.573   9.099  1.00  0.00     0.047 C 
BRANCH  50  51
ATOM     51  C   UNL     1       4.061   3.483  10.176  1.00  0.00     0.103 C 
BRANCH  51  52
ATOM     52  C   UNL     1       3.302   3.959  11.412  1.00  0.00     0.226 C 
ATOM     53  O   UNL     1       2.821   5.094  11.433  1.00  0.00    -0.275 OA
BRANCH  52  54
ATOM     54  N   UNL     1       3.131   3.018  12.445  1.00  0.00    -0.311 N 
ATOM     55  C   UNL     1       4.280   2.528  13.218  1.00  0.00     0.153 C 
BRANCH  54  56
ATOM     56  C   UNL     1       1.862   2.519  12.778  1.00  0.00     0.102 C 
ATOM     57  C   UNL     1       1.273   1.464  12.191  1.00  0.00     0.043 C 
BRANCH  56  58
ATOM     58  C   UNL     1       1.057   3.133  13.899  1.00  0.00     0.268 C 
ATOM     59  O   UNL     1       0.518   4.228  13.815  1.00  0.00    -0.268 OA
ATOM     60  N   UNL     1       0.938   2.309  14.993  1.00  0.00    -0.339 N 
ATOM     61  H   UNL     1       1.424   1.420  14.989  1.00  0.00     0.164 HD
BRANCH  60  62
ATOM     62  C   UNL     1       0.149   2.681  16.167  1.00  0.00     0.168 CG0
ATOM     63  C   UNL     1       1.033   3.278  17.254  1.00  0.00     0.041 C 
ATOM     64  G   UNL     1      -0.607   1.445  16.695  1.00  0.00     0.000 G0
ENDBRANCH  60  62
ENDBRANCH  56  58
ENDBRANCH  54  56
ENDBRANCH  52  54
ENDBRANCH  51  52
ENDBRANCH  50  51
ENDBRANCH  49  50
BRANCH  49  65
ATOM     65  C   UNL     1       1.926   5.232   8.164  1.00  0.00     0.326 C 
ATOM     66  O   UNL     1       1.805   6.383   7.772  1.00  0.00    -0.250 OA
BRANCH  65  67
ATOM     67  O   UNL     1       0.941   4.666   8.897  1.00  0.00    -0.480 OA
ATOM     68  H   UNL     1       0.189   5.288   8.793  1.00  0.00     0.296 HD
ENDBRANCH  65  67
ENDBRANCH  49  65
ENDBRANCH  47  49
ENDBRANCH  43  45
ENDBRANCH   1  43
BRANCH   1  69
ATOM     69  C   UNL     1       3.160  -0.508   9.236  1.00  0.00    -0.001 C 
ATOM     70  C   UNL     1       3.542  -1.537  10.013  1.00  0.00     0.001 C 
BRANCH  70  71
ATOM     71  C   UNL     1       3.097  -1.821  11.379  1.00  0.00    -0.055 C 
ATOM     72  C   UNL     1       4.011  -1.730  12.368  1.00  0.00    -0.018 C 
ATOM     73  C   UNL     1       1.651  -2.187  11.584  1.00  0.00     0.044 C 
BRANCH  72  74
ATOM     74  C   UNL     1       3.839  -1.961  13.862  1.00  0.00     0.038 C 
ATOM     75  C   UNL     1       3.517  -0.603  14.497  1.00  0.00     0.015 C 
BRANCH  74  76
ATOM     76  C   UNL     1       5.122  -2.651  14.413  1.00  0.00     0.128 C 
BRANCH  76  77
ATOM     77  O   UNL     1       5.330  -2.276  15.785  1.00  0.00    -0.381 OA
ATOM     78  C   UNL     1       4.637  -3.100  16.714  1.00  0.00     0.195 C 
ENDBRANCH  76  77
BRANCH  76  79
ATOM     79  C   UNL     1       5.152  -4.186  14.200  1.00  0.00     0.068 C 
BRANCH  79  80
ATOM     80  C   UNL     1       4.038  -4.809  13.394  1.00  0.00    -0.045 A 
ATOM     81  C   UNL     1       4.241  -5.200  12.063  1.00  0.00     0.004 A 
ATOM     82  C   UNL     1       2.767  -4.983  13.961  1.00  0.00     0.004 A 
ATOM     83  C   UNL     1       3.202  -5.763  11.320  1.00  0.00     0.000 A 
ATOM     84  C   UNL     1       1.728  -5.546  13.216  1.00  0.00     0.000 A 
ATOM     85  C   UNL     1       1.946  -5.937  11.897  1.00  0.00     0.000 A 
ENDBRANCH  79  80
ENDBRANCH  76  79
ENDBRANCH  74  76
ENDBRANCH  72  74
ENDBRANCH  70  71
ENDBRANCH   1  69
TORSDOF 17
ENDMDL
MODEL 15
REMARK VINA RESULT:    -6.052      7.722     13.899
REMARK INTER + INTRA:         -25.615
REMARK INTER:                 -19.221
REMARK INTRA:                  -6.394
REMARK UNBOUND:                -7.533
REMARK SMILES C=C1C(=O)N[C@H](C)C(=O)N[C@@H](CC(C)C)C(=O)N[C@@H](C(=O)O)[C@H](C)C(=O)N[C@@H](CCCN=C(N)N)C(=O)N[C@@H](/C=C/C(C)=C/[C@H](C)[C@H](Cc2ccccc2)OC)[C@H](C)C(=O)N[C@@H](C(=O)O)CCC(=O)N1C
REMARK SMILES IDX 39 1 38 2 37 3 36 4 28 6 27 7 25 8 26 9 23 11 24 12 19 13
REMARK SMILES IDX 18 14 16 15 17 16 11 18 10 19 8 20 9 21 12 24 13 25 14 26
REMARK SMILES IDX 15 27 20 28 21 29 22 30 29 32 30 33 31 34 32 35 33 36 34 37
REMARK SMILES IDX 35 38 57 43 58 44 59 45 60 46 61 47 62 49 66 50 67 51 68 52
REMARK SMILES IDX 69 53 70 54 71 55 2 56 1 57 3 58 4 59 5 60 6 62 7 63 63 65
REMARK SMILES IDX 64 66 65 67 40 69 41 70 42 71 44 72 43 73 45 74 46 75 47 76
REMARK SMILES IDX 55 77 56 78 48 79 49 80 50 81 54 82 51 83 53 84 52 85
REMARK H PARENT 38 5 27 10 18 17 10 22 22 31 34 39 34 40 35 41 35 42 61 48
REMARK H PARENT 5 61 65 68
REMARK Flexibility Score:  369.900
ROOT
ATOM      1  C   UNL     1      -5.201 -12.303  10.151  1.00  0.00     0.117 C 
ENDROOT
BRANCH   1   2
ATOM      2  N   UNL     1      -6.500 -12.735   9.634  1.00  0.00    -0.347 N 
ATOM      3  O   UNL     1      -7.533 -10.685   9.631  1.00  0.00    -0.273 OA
ATOM      4  C   UNL     1      -7.536 -11.874   9.328  1.00  0.00     0.243 C 
ATOM      5  H   UNL     1      -6.652 -13.712   9.435  1.00  0.00     0.164 HD
BRANCH   4   6
ATOM      6  C   UNL     1      -8.772 -12.579   8.715  1.00  0.00     0.171 C 
BRANCH   6   7
ATOM      7  N   UNL     1      -9.083 -12.014   7.392  1.00  0.00    -0.344 N 
ATOM      8  C   UNL     1     -10.375 -11.669   7.061  1.00  0.00     0.226 C 
ATOM      9  O   UNL     1     -11.318 -11.832   7.826  1.00  0.00    -0.275 OA
ATOM     10  H   UNL     1      -8.341 -11.928   6.709  1.00  0.00     0.164 HD
BRANCH   8  11
ATOM     11  C   UNL     1     -10.524 -11.050   5.682  1.00  0.00     0.109 C 
ATOM     12  C   UNL     1      -9.678 -11.818   4.666  1.00  0.00     0.021 C 
BRANCH  11  13
ATOM     13  C   UNL     1     -12.018 -10.929   5.323  1.00  0.00     0.204 C 
BRANCH  13  14
ATOM     14  N   UNL     1     -12.654  -9.786   5.985  1.00  0.00    -0.340 N 
ATOM     15  C   UNL     1     -13.904  -9.854   6.561  1.00  0.00     0.243 C 
ATOM     16  O   UNL     1     -14.550 -10.899   6.614  1.00  0.00    -0.273 OA
ATOM     17  H   UNL     1     -12.242  -8.859   5.844  1.00  0.00     0.164 HD
BRANCH  15  18
ATOM     18  C   UNL     1     -14.454  -8.479   7.011  1.00  0.00     0.171 C 
BRANCH  18  19
ATOM     19  N   UNL     1     -15.645  -8.219   6.203  1.00  0.00    -0.343 N 
ATOM     20  C   UNL     1     -15.557  -7.824   4.882  1.00  0.00     0.242 CG0
ATOM     21  O   UNL     1     -14.478  -7.544   4.364  1.00  0.00    -0.273 OA
ATOM     22  H   UNL     1     -16.562  -8.325   6.621  1.00  0.00     0.164 HD
ATOM     23  G   UNL     1     -16.917  -7.675   4.170  1.00  0.00     0.000 G0
ENDBRANCH  18  19
BRANCH  18  24
ATOM     24  C   UNL     1     -14.784  -8.491   8.508  1.00  0.00     0.038 C 
BRANCH  24  25
ATOM     25  C   UNL     1     -13.986  -7.474   9.352  1.00  0.00    -0.015 C 
ATOM     26  C   UNL     1     -14.851  -6.779  10.403  1.00  0.00     0.007 C 
ATOM     27  C   UNL     1     -13.351  -6.428   8.432  1.00  0.00     0.007 C 
ENDBRANCH  24  25
ENDBRANCH  18  24
ENDBRANCH  15  18
ENDBRANCH  13  14
BRANCH  13  28
ATOM     28  C   UNL     1     -12.267 -10.780   3.819  1.00  0.00     0.327 C 
ATOM     29  O   UNL     1     -12.047  -9.785   3.145  1.00  0.00    -0.250 OA
BRANCH  28  30
ATOM     30  O   UNL     1     -12.888 -11.847   3.277  1.00  0.00    -0.480 OA
ATOM     31  H   UNL     1     -12.866 -11.675   2.313  1.00  0.00     0.296 HD
ENDBRANCH  28  30
ENDBRANCH  13  28
ENDBRANCH  11  13
ENDBRANCH   8  11
ENDBRANCH   6   7
BRANCH   6  32
ATOM     32  C   UNL     1      -8.496 -14.083   8.617  1.00  0.00     0.037 C 
BRANCH  32  33
ATOM     33  C   UNL     1      -9.552 -14.812   7.773  1.00  0.00     0.026 C 
BRANCH  33  34
ATOM     34  C   UNL     1      -8.932 -15.815   6.799  1.00  0.00     0.146 C 
BRANCH  34  35
ATOM     35  N   UNL     1      -9.228 -15.392   5.438  1.00  0.00    -0.254 NA
ATOM     36  C   UNL     1      -8.287 -15.416   4.569  1.00  0.00     0.185 C 
ATOM     37  N   UNL     1      -8.549 -15.033   3.310  1.00  0.00    -0.370 N 
ATOM     38  N   UNL     1      -7.003 -15.787   4.723  1.00  0.00    -0.370 N 
ATOM     39  H   UNL     1      -9.500 -14.748   3.110  1.00  0.00     0.159 HD
ATOM     40  H   UNL     1      -7.922 -15.187   2.539  1.00  0.00     0.159 HD
ATOM     41  H   UNL     1      -6.325 -15.630   3.997  1.00  0.00     0.159 HD
ATOM     42  H   UNL     1      -6.661 -16.085   5.624  1.00  0.00     0.159 HD
ENDBRANCH  34  35
ENDBRANCH  33  34
ENDBRANCH  32  33
ENDBRANCH   6  32
ENDBRANCH   4   6
ENDBRANCH   1   2
BRANCH   1  43
ATOM     43  C   UNL     1      -4.200 -13.487  10.027  1.00  0.00     0.102 C 
ATOM     44  C   UNL     1      -4.251 -14.459  11.219  1.00  0.00     0.020 C 
BRANCH  43  45
ATOM     45  C   UNL     1      -2.791 -12.985   9.695  1.00  0.00     0.225 C 
ATOM     46  O   UNL     1      -1.775 -13.629   9.939  1.00  0.00    -0.275 OA
ATOM     47  N   UNL     1      -2.723 -11.709   9.184  1.00  0.00    -0.342 N 
ATOM     48  H   UNL     1      -3.563 -11.258   8.850  1.00  0.00     0.164 HD
BRANCH  47  49
ATOM     49  C   UNL     1      -1.445 -11.111   8.787  1.00  0.00     0.192 C 
BRANCH  49  50
ATOM     50  C   UNL     1      -1.594  -9.590   8.698  1.00  0.00     0.047 C 
BRANCH  50  51
ATOM     51  C   UNL     1      -1.214  -8.890  10.010  1.00  0.00     0.103 C 
BRANCH  51  52
ATOM     52  C   UNL     1       0.232  -9.171  10.412  1.00  0.00     0.226 C 
ATOM     53  O   UNL     1       1.149  -8.856   9.650  1.00  0.00    -0.275 OA
BRANCH  52  54
ATOM     54  N   UNL     1       0.433  -9.717  11.693  1.00  0.00    -0.311 N 
ATOM     55  C   UNL     1       0.880  -8.876  12.812  1.00  0.00     0.153 C 
BRANCH  54  56
ATOM     56  C   UNL     1       0.209 -11.079  11.952  1.00  0.00     0.102 C 
ATOM     57  C   UNL     1      -0.875 -11.576  12.570  1.00  0.00     0.043 C 
BRANCH  56  58
ATOM     58  C   UNL     1       1.195 -12.128  11.492  1.00  0.00     0.268 C 
ATOM     59  O   UNL     1       1.215 -12.574  10.353  1.00  0.00    -0.268 OA
ATOM     60  N   UNL     1       2.103 -12.477  12.463  1.00  0.00    -0.339 N 
ATOM     61  H   UNL     1       2.012 -12.069  13.385  1.00  0.00     0.164 HD
BRANCH  60  62
ATOM     62  C   UNL     1       3.184 -13.429  12.211  1.00  0.00     0.168 CG0
ATOM     63  C   UNL     1       4.451 -12.712  11.762  1.00  0.00     0.041 C 
ATOM     64  G   UNL     1       2.733 -14.455  11.151  1.00  0.00     0.000 G0
ENDBRANCH  60  62
ENDBRANCH  56  58
ENDBRANCH  54  56
ENDBRANCH  52  54
ENDBRANCH  51  52
ENDBRANCH  50  51
ENDBRANCH  49  50
BRANCH  49  65
ATOM     65  C   UNL     1      -0.961 -11.654   7.433  1.00  0.00     0.326 C 
ATOM     66  O   UNL     1      -1.356 -11.285   6.337  1.00  0.00    -0.250 OA
BRANCH  65  67
ATOM     67  O   UNL     1      -0.063 -12.661   7.518  1.00  0.00    -0.480 OA
ATOM     68  H   UNL     1       0.652 -12.286   8.076  1.00  0.00     0.296 HD
ENDBRANCH  65  67
ENDBRANCH  49  65
ENDBRANCH  47  49
ENDBRANCH  43  45
ENDBRANCH   1  43
BRANCH   1  69
ATOM     69  C   UNL     1      -5.467 -11.707  11.521  1.00  0.00    -0.001 C 
ATOM     70  C   UNL     1      -4.640 -10.939  12.253  1.00  0.00     0.001 C 
BRANCH  70  71
ATOM     71  C   UNL     1      -4.916 -10.352  13.566  1.00  0.00    -0.055 C 
ATOM     72  C   UNL     1      -4.654  -9.039  13.734  1.00  0.00    -0.018 C 
ATOM     73  C   UNL     1      -5.481 -11.253  14.633  1.00  0.00     0.044 C 
BRANCH  72  74
ATOM     74  C   UNL     1      -4.841  -8.170  14.969  1.00  0.00     0.038 C 
ATOM     75  C   UNL     1      -6.235  -7.537  14.871  1.00  0.00     0.015 C 
BRANCH  74  76
ATOM     76  C   UNL     1      -3.666  -7.152  15.048  1.00  0.00     0.128 C 
BRANCH  76  77
ATOM     77  O   UNL     1      -2.463  -7.750  14.536  1.00  0.00    -0.381 OA
ATOM     78  C   UNL     1      -1.374  -7.713  15.448  1.00  0.00     0.195 C 
ENDBRANCH  76  77
BRANCH  76  79
ATOM     79  C   UNL     1      -3.977  -5.780  14.399  1.00  0.00     0.068 C 
BRANCH  79  80
ATOM     80  C   UNL     1      -3.162  -5.366  13.197  1.00  0.00    -0.045 A 
ATOM     81  C   UNL     1      -2.349  -4.225  13.234  1.00  0.00     0.004 A 
ATOM     82  C   UNL     1      -3.230  -6.107  12.007  1.00  0.00     0.004 A 
ATOM     83  C   UNL     1      -1.610  -3.841  12.113  1.00  0.00     0.000 A 
ATOM     84  C   UNL     1      -2.491  -5.721  10.887  1.00  0.00     0.000 A 
ATOM     85  C   UNL     1      -1.680  -4.590  10.941  1.00  0.00     0.000 A 
ENDBRANCH  79  80
ENDBRANCH  76  79
ENDBRANCH  74  76
ENDBRANCH  72  74
ENDBRANCH  70  71
ENDBRANCH   1  69
TORSDOF 17
ENDMDL
MODEL 16
REMARK VINA RESULT:    -5.977      7.335     12.625
REMARK INTER + INTRA:         -25.390
REMARK INTER:                 -19.017
REMARK INTRA:                  -6.372
REMARK UNBOUND:                -7.533
REMARK SMILES C=C1C(=O)N[C@H](C)C(=O)N[C@@H](CC(C)C)C(=O)N[C@@H](C(=O)O)[C@H](C)C(=O)N[C@@H](CCCN=C(N)N)C(=O)N[C@@H](/C=C/C(C)=C/[C@H](C)[C@H](Cc2ccccc2)OC)[C@H](C)C(=O)N[C@@H](C(=O)O)CCC(=O)N1C
REMARK SMILES IDX 39 1 38 2 37 3 36 4 28 6 27 7 25 8 26 9 23 11 24 12 19 13
REMARK SMILES IDX 18 14 16 15 17 16 11 18 10 19 8 20 9 21 12 24 13 25 14 26
REMARK SMILES IDX 15 27 20 28 21 29 22 30 29 32 30 33 31 34 32 35 33 36 34 37
REMARK SMILES IDX 35 38 57 43 58 44 59 45 60 46 61 47 62 49 66 50 67 51 68 52
REMARK SMILES IDX 69 53 70 54 71 55 2 56 1 57 3 58 4 59 5 60 6 62 7 63 63 65
REMARK SMILES IDX 64 66 65 67 40 69 41 70 42 71 44 72 43 73 45 74 46 75 47 76
REMARK SMILES IDX 55 77 56 78 48 79 49 80 50 81 54 82 51 83 53 84 52 85
REMARK H PARENT 38 5 27 10 18 17 10 22 22 31 34 39 34 40 35 41 35 42 61 48
REMARK H PARENT 5 61 65 68
REMARK Flexibility Score:  369.900
ROOT
ATOM      1  C   UNL     1      -6.481 -13.482  10.949  1.00  0.00     0.117 C 
ENDROOT
BRANCH   1   2
ATOM      2  N   UNL     1      -7.269 -13.929   9.800  1.00  0.00    -0.347 N 
ATOM      3  O   UNL     1      -6.546 -16.107   9.753  1.00  0.00    -0.273 OA
ATOM      4  C   UNL     1      -7.308 -15.234   9.350  1.00  0.00     0.243 C 
ATOM      5  H   UNL     1      -7.867 -13.270   9.324  1.00  0.00     0.164 HD
BRANCH   4   6
ATOM      6  C   UNL     1      -8.288 -15.458   8.171  1.00  0.00     0.171 C 
BRANCH   6   7
ATOM      7  N   UNL     1      -8.857 -14.176   7.725  1.00  0.00    -0.344 N 
ATOM      8  C   UNL     1     -10.221 -13.975   7.724  1.00  0.00     0.226 C 
ATOM      9  O   UNL     1     -11.016 -14.842   8.066  1.00  0.00    -0.275 OA
ATOM     10  H   UNL     1      -8.236 -13.460   7.371  1.00  0.00     0.164 HD
BRANCH   8  11
ATOM     11  C   UNL     1     -10.647 -12.584   7.289  1.00  0.00     0.109 C 
ATOM     12  C   UNL     1      -9.634 -11.547   7.774  1.00  0.00     0.021 C 
BRANCH  11  13
ATOM     13  C   UNL     1     -10.912 -12.571   5.770  1.00  0.00     0.204 C 
BRANCH  13  14
ATOM     14  N   UNL     1     -12.050 -11.717   5.416  1.00  0.00    -0.340 N 
ATOM     15  C   UNL     1     -13.310 -12.215   5.167  1.00  0.00     0.243 C 
ATOM     16  O   UNL     1     -13.584 -13.409   5.284  1.00  0.00    -0.273 OA
ATOM     17  H   UNL     1     -11.859 -10.746   5.155  1.00  0.00     0.164 HD
BRANCH  15  18
ATOM     18  C   UNL     1     -14.295 -11.158   4.611  1.00  0.00     0.171 C 
BRANCH  18  19
ATOM     19  N   UNL     1     -15.554 -11.338   5.330  1.00  0.00    -0.343 N 
ATOM     20  C   UNL     1     -16.761 -11.462   4.669  1.00  0.00     0.242 CG0
ATOM     21  O   UNL     1     -16.849 -11.293   3.455  1.00  0.00    -0.273 OA
ATOM     22  H   UNL     1     -15.548 -11.369   6.344  1.00  0.00     0.164 HD
ATOM     23  G   UNL     1     -17.969 -11.725   5.592  1.00  0.00     0.000 G0
ENDBRANCH  18  19
BRANCH  18  24
ATOM     24  C   UNL     1     -13.736  -9.743   4.803  1.00  0.00     0.038 C 
BRANCH  24  25
ATOM     25  C   UNL     1     -13.984  -8.785   3.619  1.00  0.00    -0.015 C 
ATOM     26  C   UNL     1     -15.313  -8.037   3.740  1.00  0.00     0.007 C 
ATOM     27  C   UNL     1     -13.954  -9.571   2.306  1.00  0.00     0.007 C 
ENDBRANCH  24  25
ENDBRANCH  18  24
ENDBRANCH  15  18
ENDBRANCH  13  14
BRANCH  13  28
ATOM     28  C   UNL     1      -9.710 -12.088   4.952  1.00  0.00     0.327 C 
ATOM     29  O   UNL     1      -9.590 -10.994   4.421  1.00  0.00    -0.250 OA
BRANCH  28  30
ATOM     30  O   UNL     1      -8.786 -13.049   4.753  1.00  0.00    -0.480 OA
ATOM     31  H   UNL     1      -8.196 -12.677   4.064  1.00  0.00     0.296 HD
ENDBRANCH  28  30
ENDBRANCH  13  28
ENDBRANCH  11  13
ENDBRANCH   8  11
ENDBRANCH   6   7
BRANCH   6  32
ATOM     32  C   UNL     1      -7.547 -16.156   7.025  1.00  0.00     0.037 C 
BRANCH  32  33
ATOM     33  C   UNL     1      -8.401 -17.244   6.360  1.00  0.00     0.026 C 
BRANCH  33  34
ATOM     34  C   UNL     1      -8.086 -17.409   4.873  1.00  0.00     0.146 C 
BRANCH  34  35
ATOM     35  N   UNL     1      -8.078 -16.094   4.246  1.00  0.00    -0.254 NA
ATOM     36  C   UNL     1      -6.997 -15.681   3.698  1.00  0.00     0.185 C 
ATOM     37  N   UNL     1      -6.980 -14.473   3.114  1.00  0.00    -0.370 N 
ATOM     38  N   UNL     1      -5.806 -16.299   3.608  1.00  0.00    -0.370 N 
ATOM     39  H   UNL     1      -7.845 -13.948   3.131  1.00  0.00     0.159 HD
ATOM     40  H   UNL     1      -6.235 -14.153   2.518  1.00  0.00     0.159 HD
ATOM     41  H   UNL     1      -4.990 -15.812   3.274  1.00  0.00     0.159 HD
ATOM     42  H   UNL     1      -5.668 -17.209   4.019  1.00  0.00     0.159 HD
ENDBRANCH  34  35
ENDBRANCH  33  34
ENDBRANCH  32  33
ENDBRANCH   6  32
ENDBRANCH   4   6
ENDBRANCH   1   2
BRANCH   1  43
ATOM     43  C   UNL     1      -7.373 -12.566  11.836  1.00  0.00     0.102 C 
ATOM     44  C   UNL     1      -7.123 -11.065  11.611  1.00  0.00     0.020 C 
BRANCH  43  45
ATOM     45  C   UNL     1      -7.311 -12.993  13.305  1.00  0.00     0.225 C 
ATOM     46  O   UNL     1      -8.246 -13.535  13.887  1.00  0.00    -0.275 OA
ATOM     47  N   UNL     1      -6.160 -12.644  13.975  1.00  0.00    -0.342 N 
ATOM     48  H   UNL     1      -5.350 -12.340  13.453  1.00  0.00     0.164 HD
BRANCH  47  49
ATOM     49  C   UNL     1      -5.946 -13.018  15.376  1.00  0.00     0.192 C 
BRANCH  49  50
ATOM     50  C   UNL     1      -5.102 -11.947  16.072  1.00  0.00     0.047 C 
BRANCH  50  51
ATOM     51  C   UNL     1      -4.328 -11.076  15.073  1.00  0.00     0.103 C 
BRANCH  51  52
ATOM     52  C   UNL     1      -4.226  -9.625  15.536  1.00  0.00     0.226 C 
ATOM     53  O   UNL     1      -3.901  -9.377  16.699  1.00  0.00    -0.275 OA
BRANCH  52  54
ATOM     54  N   UNL     1      -4.442  -8.637  14.557  1.00  0.00    -0.311 N 
ATOM     55  C   UNL     1      -4.443  -8.977  13.128  1.00  0.00     0.153 C 
BRANCH  54  56
ATOM     56  C   UNL     1      -4.671  -7.296  14.907  1.00  0.00     0.102 C 
ATOM     57  C   UNL     1      -5.860  -6.790  15.274  1.00  0.00     0.043 C 
BRANCH  56  58
ATOM     58  C   UNL     1      -3.537  -6.299  14.940  1.00  0.00     0.268 C 
ATOM     59  O   UNL     1      -3.672  -5.122  14.635  1.00  0.00    -0.268 OA
ATOM     60  N   UNL     1      -2.360  -6.835  15.407  1.00  0.00    -0.339 N 
ATOM     61  H   UNL     1      -2.329  -7.823  15.628  1.00  0.00     0.164 HD
BRANCH  60  62
ATOM     62  C   UNL     1      -1.152  -6.029  15.579  1.00  0.00     0.168 CG0
ATOM     63  C   UNL     1      -0.206  -6.203  14.397  1.00  0.00     0.041 C 
ATOM     64  G   UNL     1      -0.454  -6.419  16.898  1.00  0.00     0.000 G0
ENDBRANCH  60  62
ENDBRANCH  56  58
ENDBRANCH  54  56
ENDBRANCH  52  54
ENDBRANCH  51  52
ENDBRANCH  50  51
ENDBRANCH  49  50
BRANCH  49  65
ATOM     65  C   UNL     1      -5.242 -14.379  15.498  1.00  0.00     0.326 C 
ATOM     66  O   UNL     1      -4.683 -14.974  14.588  1.00  0.00    -0.250 OA
BRANCH  65  67
ATOM     67  O   UNL     1      -5.324 -14.949  16.720  1.00  0.00    -0.480 OA
ATOM     68  H   UNL     1      -5.795 -15.794  16.551  1.00  0.00     0.296 HD
ENDBRANCH  65  67
ENDBRANCH  49  65
ENDBRANCH  47  49
ENDBRANCH  43  45
ENDBRANCH   1  43
BRANCH   1  69
ATOM     69  C   UNL     1      -5.189 -12.922  10.384  1.00  0.00    -0.001 C 
ATOM     70  C   UNL     1      -4.008 -12.796  11.016  1.00  0.00     0.001 C 
BRANCH  70  71
ATOM     71  C   UNL     1      -2.761 -12.273  10.453  1.00  0.00    -0.055 C 
ATOM     72  C   UNL     1      -2.588 -10.935  10.445  1.00  0.00    -0.018 C 
ATOM     73  C   UNL     1      -1.756 -13.266   9.930  1.00  0.00     0.044 C 
BRANCH  72  74
ATOM     74  C   UNL     1      -1.410 -10.118   9.935  1.00  0.00     0.038 C 
ATOM     75  C   UNL     1      -0.612  -9.659  11.161  1.00  0.00     0.015 C 
BRANCH  74  76
ATOM     76  C   UNL     1      -1.950  -8.966   9.037  1.00  0.00     0.128 C 
BRANCH  76  77
ATOM     77  O   UNL     1      -2.479  -9.503   7.814  1.00  0.00    -0.381 OA
ATOM     78  C   UNL     1      -1.730 -10.596   7.299  1.00  0.00     0.195 C 
ENDBRANCH  76  77
BRANCH  76  79
ATOM     79  C   UNL     1      -2.945  -8.021   9.757  1.00  0.00     0.068 C 
BRANCH  79  80
ATOM     80  C   UNL     1      -2.527  -6.587   9.975  1.00  0.00    -0.045 A 
ATOM     81  C   UNL     1      -2.123  -5.782   8.902  1.00  0.00     0.004 A 
ATOM     82  C   UNL     1      -2.511  -6.044  11.268  1.00  0.00     0.004 A 
ATOM     83  C   UNL     1      -1.724  -4.461   9.113  1.00  0.00     0.000 A 
ATOM     84  C   UNL     1      -2.112  -4.722  11.479  1.00  0.00     0.000 A 
ATOM     85  C   UNL     1      -1.720  -3.931  10.402  1.00  0.00     0.000 A 
ENDBRANCH  79  80
ENDBRANCH  76  79
ENDBRANCH  74  76
ENDBRANCH  72  74
ENDBRANCH  70  71
ENDBRANCH   1  69
TORSDOF 17
ENDMDL
MODEL 17
REMARK VINA RESULT:    -5.945     12.375     16.681
REMARK INTER + INTRA:         -25.294
REMARK INTER:                 -17.000
REMARK INTRA:                  -8.295
REMARK UNBOUND:                -7.533
REMARK SMILES C=C1C(=O)N[C@H](C)C(=O)N[C@@H](CC(C)C)C(=O)N[C@@H](C(=O)O)[C@H](C)C(=O)N[C@@H](CCCN=C(N)N)C(=O)N[C@@H](/C=C/C(C)=C/[C@H](C)[C@H](Cc2ccccc2)OC)[C@H](C)C(=O)N[C@@H](C(=O)O)CCC(=O)N1C
REMARK SMILES IDX 39 1 38 2 37 3 36 4 28 6 27 7 25 8 26 9 23 11 24 12 19 13
REMARK SMILES IDX 18 14 16 15 17 16 11 18 10 19 8 20 9 21 12 24 13 25 14 26
REMARK SMILES IDX 15 27 20 28 21 29 22 30 29 32 30 33 31 34 32 35 33 36 34 37
REMARK SMILES IDX 35 38 57 43 58 44 59 45 60 46 61 47 62 49 66 50 67 51 68 52
REMARK SMILES IDX 69 53 70 54 71 55 2 56 1 57 3 58 4 59 5 60 6 62 7 63 63 65
REMARK SMILES IDX 64 66 65 67 40 69 41 70 42 71 44 72 43 73 45 74 46 75 47 76
REMARK SMILES IDX 55 77 56 78 48 79 49 80 50 81 54 82 51 83 53 84 52 85
REMARK H PARENT 38 5 27 10 18 17 10 22 22 31 34 39 34 40 35 41 35 42 61 48
REMARK H PARENT 5 61 65 68
REMARK Flexibility Score:  369.900
ROOT
ATOM      1  C   UNL     1       0.384  -8.578  11.329  1.00  0.00     0.117 C 
ENDROOT
BRANCH   1   2
ATOM      2  N   UNL     1      -0.861  -7.809  11.304  1.00  0.00    -0.347 N 
ATOM      3  O   UNL     1      -1.534  -8.234  13.458  1.00  0.00    -0.273 OA
ATOM      4  C   UNL     1      -1.677  -7.624  12.404  1.00  0.00     0.243 C 
ATOM      5  H   UNL     1      -1.134  -7.337  10.456  1.00  0.00     0.164 HD
BRANCH   4   6
ATOM      6  C   UNL     1      -2.889  -6.697  12.131  1.00  0.00     0.171 C 
BRANCH   6   7
ATOM      7  N   UNL     1      -4.142  -7.358  12.528  1.00  0.00    -0.344 N 
ATOM      8  C   UNL     1      -4.735  -8.292  11.705  1.00  0.00     0.226 C 
ATOM      9  O   UNL     1      -4.272  -8.598  10.613  1.00  0.00    -0.275 OA
ATOM     10  H   UNL     1      -4.590  -7.083  13.392  1.00  0.00     0.164 HD
BRANCH   8  11
ATOM     11  C   UNL     1      -5.991  -8.923  12.279  1.00  0.00     0.109 C 
ATOM     12  C   UNL     1      -6.900  -9.406  11.149  1.00  0.00     0.021 C 
BRANCH  11  13
ATOM     13  C   UNL     1      -5.607 -10.004  13.309  1.00  0.00     0.204 C 
BRANCH  13  14
ATOM     14  N   UNL     1      -4.669 -10.985  12.756  1.00  0.00    -0.340 N 
ATOM     15  C   UNL     1      -5.041 -12.267  12.414  1.00  0.00     0.243 C 
ATOM     16  O   UNL     1      -6.203 -12.661  12.492  1.00  0.00    -0.273 OA
ATOM     17  H   UNL     1      -3.668 -10.775  12.807  1.00  0.00     0.164 HD
BRANCH  15  18
ATOM     18  C   UNL     1      -3.846 -13.182  12.050  1.00  0.00     0.171 C 
BRANCH  18  19
ATOM     19  N   UNL     1      -4.077 -13.648  10.684  1.00  0.00    -0.343 N 
ATOM     20  C   UNL     1      -4.383 -14.967  10.405  1.00  0.00     0.242 CG0
ATOM     21  O   UNL     1      -4.346 -15.833  11.275  1.00  0.00    -0.273 OA
ATOM     22  H   UNL     1      -4.005 -12.991   9.915  1.00  0.00     0.164 HD
ATOM     23  G   UNL     1      -4.670 -15.253   8.917  1.00  0.00     0.000 G0
ENDBRANCH  18  19
BRANCH  18  24
ATOM     24  C   UNL     1      -2.522 -12.417  12.166  1.00  0.00     0.038 C 
BRANCH  24  25
ATOM     25  C   UNL     1      -1.610 -12.880  13.322  1.00  0.00    -0.015 C 
ATOM     26  C   UNL     1      -0.131 -12.603  13.046  1.00  0.00     0.007 C 
ATOM     27  C   UNL     1      -1.816 -14.376  13.572  1.00  0.00     0.007 C 
ENDBRANCH  24  25
ENDBRANCH  18  24
ENDBRANCH  15  18
ENDBRANCH  13  14
BRANCH  13  28
ATOM     28  C   UNL     1      -4.968  -9.430  14.577  1.00  0.00     0.327 C 
ATOM     29  O   UNL     1      -5.479  -8.628  15.345  1.00  0.00    -0.250 OA
BRANCH  28  30
ATOM     30  O   UNL     1      -3.683  -9.807  14.739  1.00  0.00    -0.480 OA
ATOM     31  H   UNL     1      -3.173  -8.977  14.630  1.00  0.00     0.296 HD
ENDBRANCH  28  30
ENDBRANCH  13  28
ENDBRANCH  11  13
ENDBRANCH   8  11
ENDBRANCH   6   7
BRANCH   6  32
ATOM     32  C   UNL     1      -2.699  -5.382  12.895  1.00  0.00     0.037 C 
BRANCH  32  33
ATOM     33  C   UNL     1      -1.289  -4.803  12.710  1.00  0.00     0.026 C 
BRANCH  33  34
ATOM     34  C   UNL     1      -1.179  -3.917  11.468  1.00  0.00     0.146 C 
BRANCH  34  35
ATOM     35  N   UNL     1      -0.937  -4.762  10.308  1.00  0.00    -0.254 NA
ATOM     36  C   UNL     1      -1.574  -4.516   9.224  1.00  0.00     0.185 C 
ATOM     37  N   UNL     1      -1.355  -5.286   8.147  1.00  0.00    -0.370 N 
ATOM     38  N   UNL     1      -2.479  -3.552   8.977  1.00  0.00    -0.370 N 
ATOM     39  H   UNL     1      -0.676  -6.029   8.250  1.00  0.00     0.159 HD
ATOM     40  H   UNL     1      -1.678  -5.054   7.223  1.00  0.00     0.159 HD
ATOM     41  H   UNL     1      -3.015  -3.547   8.124  1.00  0.00     0.159 HD
ATOM     42  H   UNL     1      -2.754  -2.909   9.703  1.00  0.00     0.159 HD
ENDBRANCH  34  35
ENDBRANCH  33  34
ENDBRANCH  32  33
ENDBRANCH   6  32
ENDBRANCH   4   6
ENDBRANCH   1   2
BRANCH   1  43
ATOM     43  C   UNL     1       1.531  -7.679  10.784  1.00  0.00     0.102 C 
ATOM     44  C   UNL     1       2.772  -8.473  10.341  1.00  0.00     0.020 C 
BRANCH  43  45
ATOM     45  C   UNL     1       1.840  -6.534  11.754  1.00  0.00     0.225 C 
ATOM     46  O   UNL     1       1.593  -6.587  12.955  1.00  0.00    -0.275 OA
ATOM     47  N   UNL     1       2.334  -5.387  11.177  1.00  0.00    -0.342 N 
ATOM     48  H   UNL     1       2.672  -5.411  10.225  1.00  0.00     0.164 HD
BRANCH  47  49
ATOM     49  C   UNL     1       2.709  -4.223  11.985  1.00  0.00     0.192 C 
BRANCH  49  50
ATOM     50  C   UNL     1       2.512  -2.944  11.167  1.00  0.00     0.047 C 
BRANCH  50  51
ATOM     51  C   UNL     1       1.639  -1.914  11.898  1.00  0.00     0.103 C 
BRANCH  51  52
ATOM     52  C   UNL     1       2.478  -0.875  12.640  1.00  0.00     0.226 C 
ATOM     53  O   UNL     1       2.770  -1.060  13.823  1.00  0.00    -0.275 OA
BRANCH  52  54
ATOM     54  N   UNL     1       2.937   0.218  11.882  1.00  0.00    -0.311 N 
ATOM     55  C   UNL     1       4.323   0.273  11.398  1.00  0.00     0.153 C 
BRANCH  54  56
ATOM     56  C   UNL     1       2.090   1.290  11.556  1.00  0.00     0.102 C 
ATOM     57  C   UNL     1       1.268   1.910  12.418  1.00  0.00     0.043 C 
BRANCH  56  58
ATOM     58  C   UNL     1       2.079   1.872  10.162  1.00  0.00     0.268 C 
ATOM     59  O   UNL     1       2.021   1.186   9.150  1.00  0.00    -0.268 OA
ATOM     60  N   UNL     1       2.074   3.246  10.150  1.00  0.00    -0.339 N 
ATOM     61  H   UNL     1       2.134   3.741  11.032  1.00  0.00     0.164 HD
BRANCH  60  62
ATOM     62  C   UNL     1       2.001   4.015   8.908  1.00  0.00     0.168 CG0
ATOM     63  C   UNL     1       3.197   4.949   8.772  1.00  0.00     0.041 C 
ATOM     64  G   UNL     1       0.680   4.810   8.869  1.00  0.00     0.000 G0
ENDBRANCH  60  62
ENDBRANCH  56  58
ENDBRANCH  54  56
ENDBRANCH  52  54
ENDBRANCH  51  52
ENDBRANCH  50  51
ENDBRANCH  49  50
BRANCH  49  65
ATOM     65  C   UNL     1       4.169  -4.306  12.456  1.00  0.00     0.326 C 
ATOM     66  O   UNL     1       4.909  -5.268  12.311  1.00  0.00    -0.250 OA
BRANCH  65  67
ATOM     67  O   UNL     1       4.607  -3.219  13.130  1.00  0.00    -0.480 OA
ATOM     68  H   UNL     1       3.997  -3.162  13.897  1.00  0.00     0.296 HD
ENDBRANCH  65  67
ENDBRANCH  49  65
ENDBRANCH  47  49
ENDBRANCH  43  45
ENDBRANCH   1  43
BRANCH   1  69
ATOM     69  C   UNL     1       0.085  -9.891  10.628  1.00  0.00    -0.001 C 
ATOM     70  C   UNL     1      -0.323 -10.065   9.359  1.00  0.00     0.001 C 
BRANCH  70  71
ATOM     71  C   UNL     1      -0.588 -11.339   8.687  1.00  0.00    -0.055 C 
ATOM     72  C   UNL     1      -0.128 -12.465   9.273  1.00  0.00    -0.018 C 
ATOM     73  C   UNL     1      -1.360 -11.304   7.394  1.00  0.00     0.044 C 
BRANCH  72  74
ATOM     74  C   UNL     1      -0.254 -13.910   8.813  1.00  0.00     0.038 C 
ATOM     75  C   UNL     1      -0.606 -14.749  10.048  1.00  0.00     0.015 C 
BRANCH  74  76
ATOM     76  C   UNL     1       1.064 -14.324   8.096  1.00  0.00     0.128 C 
BRANCH  76  77
ATOM     77  O   UNL     1       1.690 -15.408   8.805  1.00  0.00    -0.381 OA
ATOM     78  C   UNL     1       2.068 -16.494   7.970  1.00  0.00     0.195 C 
ENDBRANCH  76  77
BRANCH  76  79
ATOM     79  C   UNL     1       0.893 -14.617   6.584  1.00  0.00     0.068 C 
BRANCH  79  80
ATOM     80  C   UNL     1       1.591 -13.705   5.604  1.00  0.00    -0.045 A 
ATOM     81  C   UNL     1       0.893 -12.685   4.944  1.00  0.00     0.004 A 
ATOM     82  C   UNL     1       2.952 -13.885   5.315  1.00  0.00     0.004 A 
ATOM     83  C   UNL     1       1.542 -11.854   4.029  1.00  0.00     0.000 A 
ATOM     84  C   UNL     1       3.600 -13.055   4.399  1.00  0.00     0.000 A 
ATOM     85  C   UNL     1       2.896 -12.039   3.757  1.00  0.00     0.000 A 
ENDBRANCH  79  80
ENDBRANCH  76  79
ENDBRANCH  74  76
ENDBRANCH  72  74
ENDBRANCH  70  71
ENDBRANCH   1  69
TORSDOF 17
ENDMDL
MODEL 18
REMARK VINA RESULT:    -5.936      9.790     15.210
REMARK INTER + INTRA:         -25.268
REMARK INTER:                 -18.685
REMARK INTRA:                  -6.583
REMARK UNBOUND:                -7.533
REMARK SMILES C=C1C(=O)N[C@H](C)C(=O)N[C@@H](CC(C)C)C(=O)N[C@@H](C(=O)O)[C@H](C)C(=O)N[C@@H](CCCN=C(N)N)C(=O)N[C@@H](/C=C/C(C)=C/[C@H](C)[C@H](Cc2ccccc2)OC)[C@H](C)C(=O)N[C@@H](C(=O)O)CCC(=O)N1C
REMARK SMILES IDX 39 1 38 2 37 3 36 4 28 6 27 7 25 8 26 9 23 11 24 12 19 13
REMARK SMILES IDX 18 14 16 15 17 16 11 18 10 19 8 20 9 21 12 24 13 25 14 26
REMARK SMILES IDX 15 27 20 28 21 29 22 30 29 32 30 33 31 34 32 35 33 36 34 37
REMARK SMILES IDX 35 38 57 43 58 44 59 45 60 46 61 47 62 49 66 50 67 51 68 52
REMARK SMILES IDX 69 53 70 54 71 55 2 56 1 57 3 58 4 59 5 60 6 62 7 63 63 65
REMARK SMILES IDX 64 66 65 67 40 69 41 70 42 71 44 72 43 73 45 74 46 75 47 76
REMARK SMILES IDX 55 77 56 78 48 79 49 80 50 81 54 82 51 83 53 84 52 85
REMARK H PARENT 38 5 27 10 18 17 10 22 22 31 34 39 34 40 35 41 35 42 61 48
REMARK H PARENT 5 61 65 68
REMARK Flexibility Score:  369.900
ROOT
ATOM      1  C   UNL     1      -3.021 -13.114  12.226  1.00  0.00     0.117 C 
ENDROOT
BRANCH   1   2
ATOM      2  N   UNL     1      -2.226 -12.282  11.322  1.00  0.00    -0.347 N 
ATOM      3  O   UNL     1      -0.382 -13.643  11.186  1.00  0.00    -0.273 OA
ATOM      4  C   UNL     1      -1.004 -12.658  10.800  1.00  0.00     0.243 C 
ATOM      5  H   UNL     1      -2.598 -11.398  11.008  1.00  0.00     0.164 HD
BRANCH   4   6
ATOM      6  C   UNL     1      -0.412 -11.634   9.799  1.00  0.00     0.171 C 
BRANCH   6   7
ATOM      7  N   UNL     1       0.050 -12.314   8.578  1.00  0.00    -0.344 N 
ATOM      8  C   UNL     1       1.295 -12.046   8.053  1.00  0.00     0.226 C 
ATOM      9  O   UNL     1       2.060 -11.228   8.550  1.00  0.00    -0.275 OA
ATOM     10  H   UNL     1      -0.580 -12.946   8.101  1.00  0.00     0.164 HD
BRANCH   8  11
ATOM     11  C   UNL     1       1.645 -12.868   6.825  1.00  0.00     0.109 C 
ATOM     12  C   UNL     1       0.374 -13.247   6.065  1.00  0.00     0.021 C 
BRANCH  11  13
ATOM     13  C   UNL     1       2.705 -12.126   5.986  1.00  0.00     0.204 C 
BRANCH  13  14
ATOM     14  N   UNL     1       4.065 -12.367   6.477  1.00  0.00    -0.340 N 
ATOM     15  C   UNL     1       4.935 -11.348   6.801  1.00  0.00     0.243 C 
ATOM     16  O   UNL     1       4.610 -10.163   6.757  1.00  0.00    -0.273 OA
ATOM     17  H   UNL     1       4.446 -13.313   6.392  1.00  0.00     0.164 HD
BRANCH  15  18
ATOM     18  C   UNL     1       6.376 -11.835   7.095  1.00  0.00     0.171 C 
BRANCH  18  19
ATOM     19  N   UNL     1       6.294 -13.278   7.308  1.00  0.00    -0.343 N 
ATOM     20  C   UNL     1       6.430 -13.838   8.564  1.00  0.00     0.242 CG0
ATOM     21  O   UNL     1       6.757 -13.163   9.538  1.00  0.00    -0.273 OA
ATOM     22  H   UNL     1       6.140 -13.890   6.515  1.00  0.00     0.164 HD
ATOM     23  G   UNL     1       6.236 -15.368   8.604  1.00  0.00     0.000 G0
ENDBRANCH  18  19
BRANCH  18  24
ATOM     24  C   UNL     1       7.312 -11.490   5.930  1.00  0.00     0.038 C 
BRANCH  24  25
ATOM     25  C   UNL     1       8.390 -10.436   6.259  1.00  0.00    -0.015 C 
ATOM     26  C   UNL     1       9.799 -10.909   5.904  1.00  0.00     0.007 C 
ATOM     27  C   UNL     1       8.325 -10.081   7.747  1.00  0.00     0.007 C 
ENDBRANCH  24  25
ENDBRANCH  18  24
ENDBRANCH  15  18
ENDBRANCH  13  14
BRANCH  13  28
ATOM     28  C   UNL     1       2.682 -12.514   4.504  1.00  0.00     0.327 C 
ATOM     29  O   UNL     1       3.124 -13.545   4.021  1.00  0.00    -0.250 OA
BRANCH  28  30
ATOM     30  O   UNL     1       2.214 -11.532   3.707  1.00  0.00    -0.480 OA
ATOM     31  H   UNL     1       2.598 -10.713   4.083  1.00  0.00     0.296 HD
ENDBRANCH  28  30
ENDBRANCH  13  28
ENDBRANCH  11  13
ENDBRANCH   8  11
ENDBRANCH   6   7
BRANCH   6  32
ATOM     32  C   UNL     1      -1.475 -10.580   9.470  1.00  0.00     0.037 C 
BRANCH  32  33
ATOM     33  C   UNL     1      -0.921  -9.151   9.557  1.00  0.00     0.026 C 
BRANCH  33  34
ATOM     34  C   UNL     1      -1.988  -8.092   9.277  1.00  0.00     0.146 C 
BRANCH  34  35
ATOM     35  N   UNL     1      -3.081  -8.264  10.223  1.00  0.00    -0.254 NA
ATOM     36  C   UNL     1      -3.932  -7.315  10.359  1.00  0.00     0.185 C 
ATOM     37  N   UNL     1      -4.946  -7.466  11.225  1.00  0.00    -0.370 N 
ATOM     38  N   UNL     1      -3.975  -6.124   9.736  1.00  0.00    -0.370 N 
ATOM     39  H   UNL     1      -4.988  -8.343  11.727  1.00  0.00     0.159 HD
ATOM     40  H   UNL     1      -5.741  -6.852  11.261  1.00  0.00     0.159 HD
ATOM     41  H   UNL     1      -4.616  -5.406  10.031  1.00  0.00     0.159 HD
ATOM     42  H   UNL     1      -3.264  -5.869   9.069  1.00  0.00     0.159 HD
ENDBRANCH  34  35
ENDBRANCH  33  34
ENDBRANCH  32  33
ENDBRANCH   6  32
ENDBRANCH   4   6
ENDBRANCH   1   2
BRANCH   1  43
ATOM     43  C   UNL     1      -4.202 -13.732  11.423  1.00  0.00     0.102 C 
ATOM     44  C   UNL     1      -3.758 -14.796  10.405  1.00  0.00     0.020 C 
BRANCH  43  45
ATOM     45  C   UNL     1      -5.095 -12.638  10.829  1.00  0.00     0.225 C 
ATOM     46  O   UNL     1      -4.687 -11.799  10.030  1.00  0.00    -0.275 OA
ATOM     47  N   UNL     1      -6.379 -12.591  11.320  1.00  0.00    -0.342 N 
ATOM     48  H   UNL     1      -6.740 -13.370  11.853  1.00  0.00     0.164 HD
BRANCH  47  49
ATOM     49  C   UNL     1      -7.356 -11.620  10.818  1.00  0.00     0.192 C 
BRANCH  49  50
ATOM     50  C   UNL     1      -7.385 -11.663   9.288  1.00  0.00     0.047 C 
BRANCH  50  51
ATOM     51  C   UNL     1      -8.640 -12.361   8.748  1.00  0.00     0.103 C 
BRANCH  51  52
ATOM     52  C   UNL     1      -9.590 -11.383   8.060  1.00  0.00     0.226 C 
ATOM     53  O   UNL     1      -9.406 -10.170   8.177  1.00  0.00    -0.275 OA
BRANCH  52  54
ATOM     54  N   UNL     1     -10.595 -11.948   7.253  1.00  0.00    -0.311 N 
ATOM     55  C   UNL     1     -10.929 -13.375   7.350  1.00  0.00     0.153 C 
BRANCH  54  56
ATOM     56  C   UNL     1     -11.317 -11.171   6.332  1.00  0.00     0.102 C 
ATOM     57  C   UNL     1     -10.928 -10.913   5.073  1.00  0.00     0.043 C 
BRANCH  56  58
ATOM     58  C   UNL     1     -12.661 -10.586   6.697  1.00  0.00     0.268 C 
ATOM     59  O   UNL     1     -13.723 -11.139   6.444  1.00  0.00    -0.268 OA
ATOM     60  N   UNL     1     -12.564  -9.408   7.398  1.00  0.00    -0.339 N 
ATOM     61  H   UNL     1     -11.647  -9.010   7.558  1.00  0.00     0.164 HD
BRANCH  60  62
ATOM     62  C   UNL     1     -13.742  -8.704   7.904  1.00  0.00     0.168 CG0
ATOM     63  C   UNL     1     -13.354  -7.373   8.536  1.00  0.00     0.041 C 
ATOM     64  G   UNL     1     -14.480  -9.597   8.923  1.00  0.00     0.000 G0
ENDBRANCH  60  62
ENDBRANCH  56  58
ENDBRANCH  54  56
ENDBRANCH  52  54
ENDBRANCH  51  52
ENDBRANCH  50  51
ENDBRANCH  49  50
BRANCH  49  65
ATOM     65  C   UNL     1      -7.026 -10.193  11.281  1.00  0.00     0.326 C 
ATOM     66  O   UNL     1      -6.553  -9.889  12.367  1.00  0.00    -0.250 OA
BRANCH  65  67
ATOM     67  O   UNL     1      -7.356  -9.223  10.399  1.00  0.00    -0.480 OA
ATOM     68  H   UNL     1      -6.488  -8.872  10.106  1.00  0.00     0.296 HD
ENDBRANCH  65  67
ENDBRANCH  49  65
ENDBRANCH  47  49
ENDBRANCH  43  45
ENDBRANCH   1  43
BRANCH   1  69
ATOM     69  C   UNL     1      -3.330 -12.249  13.435  1.00  0.00    -0.001 C 
ATOM     70  C   UNL     1      -3.421 -10.908  13.479  1.00  0.00     0.001 C 
BRANCH  70  71
ATOM     71  C   UNL     1      -3.741 -10.086  14.647  1.00  0.00    -0.055 C 
ATOM     72  C   UNL     1      -4.058  -8.791  14.436  1.00  0.00    -0.018 C 
ATOM     73  C   UNL     1      -3.701 -10.745  16.002  1.00  0.00     0.044 C 
BRANCH  72  74
ATOM     74  C   UNL     1      -4.433  -7.714  15.444  1.00  0.00     0.038 C 
ATOM     75  C   UNL     1      -5.896  -7.339  15.182  1.00  0.00     0.015 C 
BRANCH  74  76
ATOM     76  C   UNL     1      -3.423  -6.536  15.316  1.00  0.00     0.128 C 
BRANCH  76  77
ATOM     77  O   UNL     1      -2.951  -6.151  16.619  1.00  0.00    -0.381 OA
ATOM     78  C   UNL     1      -2.711  -7.250  17.487  1.00  0.00     0.195 C 
ENDBRANCH  76  77
BRANCH  76  79
ATOM     79  C   UNL     1      -2.271  -6.800  14.315  1.00  0.00     0.068 C 
BRANCH  79  80
ATOM     80  C   UNL     1      -2.014  -5.767  13.244  1.00  0.00    -0.045 A 
ATOM     81  C   UNL     1      -1.050  -5.982  12.250  1.00  0.00     0.004 A 
ATOM     82  C   UNL     1      -2.723  -4.556  13.245  1.00  0.00     0.004 A 
ATOM     83  C   UNL     1      -0.809  -5.016  11.271  1.00  0.00     0.000 A 
ATOM     84  C   UNL     1      -2.480  -3.591  12.266  1.00  0.00     0.000 A 
ATOM     85  C   UNL     1      -1.525  -3.821  11.279  1.00  0.00     0.000 A 
ENDBRANCH  79  80
ENDBRANCH  76  79
ENDBRANCH  74  76
ENDBRANCH  72  74
ENDBRANCH  70  71
ENDBRANCH   1  69
TORSDOF 17
ENDMDL
MODEL 19
REMARK VINA RESULT:    -5.934      4.193     11.617
REMARK INTER + INTRA:         -25.260
REMARK INTER:                 -19.316
REMARK INTRA:                  -5.944
REMARK UNBOUND:                -7.533
REMARK SMILES C=C1C(=O)N[C@H](C)C(=O)N[C@@H](CC(C)C)C(=O)N[C@@H](C(=O)O)[C@H](C)C(=O)N[C@@H](CCCN=C(N)N)C(=O)N[C@@H](/C=C/C(C)=C/[C@H](C)[C@H](Cc2ccccc2)OC)[C@H](C)C(=O)N[C@@H](C(=O)O)CCC(=O)N1C
REMARK SMILES IDX 39 1 38 2 37 3 36 4 28 6 27 7 25 8 26 9 23 11 24 12 19 13
REMARK SMILES IDX 18 14 16 15 17 16 11 18 10 19 8 20 9 21 12 24 13 25 14 26
REMARK SMILES IDX 15 27 20 28 21 29 22 30 29 32 30 33 31 34 32 35 33 36 34 37
REMARK SMILES IDX 35 38 57 43 58 44 59 45 60 46 61 47 62 49 66 50 67 51 68 52
REMARK SMILES IDX 69 53 70 54 71 55 2 56 1 57 3 58 4 59 5 60 6 62 7 63 63 65
REMARK SMILES IDX 64 66 65 67 40 69 41 70 42 71 44 72 43 73 45 74 46 75 47 76
REMARK SMILES IDX 55 77 56 78 48 79 49 80 50 81 54 82 51 83 53 84 52 85
REMARK H PARENT 38 5 27 10 18 17 10 22 22 31 34 39 34 40 35 41 35 42 61 48
REMARK H PARENT 5 61 65 68
REMARK Flexibility Score:  369.900
ROOT
ATOM      1  C   UNL     1      -9.729 -12.393   7.410  1.00  0.00     0.117 C 
ENDROOT
BRANCH   1   2
ATOM      2  N   UNL     1     -10.799 -11.404   7.538  1.00  0.00    -0.347 N 
ATOM      3  O   UNL     1     -10.692 -10.551   5.410  1.00  0.00    -0.273 OA
ATOM      4  C   UNL     1     -11.258 -10.622   6.495  1.00  0.00     0.243 C 
ATOM      5  H   UNL     1     -11.278 -11.305   8.420  1.00  0.00     0.164 HD
BRANCH   4   6
ATOM      6  C   UNL     1     -12.458  -9.718   6.876  1.00  0.00     0.171 C 
BRANCH   6   7
ATOM      7  N   UNL     1     -13.555  -9.886   5.910  1.00  0.00    -0.344 N 
ATOM      8  C   UNL     1     -14.166 -11.111   5.748  1.00  0.00     0.226 C 
ATOM      9  O   UNL     1     -13.821 -12.109   6.369  1.00  0.00    -0.275 OA
ATOM     10  H   UNL     1     -13.824  -9.101   5.330  1.00  0.00     0.164 HD
BRANCH   8  11
ATOM     11  C   UNL     1     -15.316 -11.109   4.755  1.00  0.00     0.109 C 
ATOM     12  C   UNL     1     -16.362 -10.071   5.164  1.00  0.00     0.021 C 
BRANCH  11  13
ATOM     13  C   UNL     1     -14.769 -10.949   3.323  1.00  0.00     0.204 C 
BRANCH  13  14
ATOM     14  N   UNL     1     -14.749 -12.222   2.595  1.00  0.00    -0.340 N 
ATOM     15  C   UNL     1     -13.582 -12.869   2.251  1.00  0.00     0.243 C 
ATOM     16  O   UNL     1     -12.474 -12.455   2.585  1.00  0.00    -0.273 OA
ATOM     17  H   UNL     1     -15.619 -12.539   2.159  1.00  0.00     0.164 HD
BRANCH  15  18
ATOM     18  C   UNL     1     -13.800 -14.079   1.309  1.00  0.00     0.171 C 
BRANCH  18  19
ATOM     19  N   UNL     1     -13.748 -15.276   2.147  1.00  0.00    -0.343 N 
ATOM     20  C   UNL     1     -12.569 -15.961   2.366  1.00  0.00     0.242 CG0
ATOM     21  O   UNL     1     -11.537 -15.676   1.763  1.00  0.00    -0.273 OA
ATOM     22  H   UNL     1     -14.600 -15.620   2.576  1.00  0.00     0.164 HD
ATOM     23  G   UNL     1     -12.696 -17.151   3.340  1.00  0.00     0.000 G0
ENDBRANCH  18  19
BRANCH  18  24
ATOM     24  C   UNL     1     -15.144 -13.962   0.580  1.00  0.00     0.038 C 
BRANCH  24  25
ATOM     25  C   UNL     1     -16.245 -14.910   1.100  1.00  0.00    -0.015 C 
ATOM     26  C   UNL     1     -16.678 -15.936   0.053  1.00  0.00     0.007 C 
ATOM     27  C   UNL     1     -17.458 -14.091   1.551  1.00  0.00     0.007 C 
ENDBRANCH  24  25
ENDBRANCH  18  24
ENDBRANCH  15  18
ENDBRANCH  13  14
BRANCH  13  28
ATOM     28  C   UNL     1     -15.570  -9.955   2.478  1.00  0.00     0.327 C 
ATOM     29  O   UNL     1     -15.416  -8.743   2.447  1.00  0.00    -0.250 OA
BRANCH  28  30
ATOM     30  O   UNL     1     -16.594 -10.530   1.815  1.00  0.00    -0.480 OA
ATOM     31  H   UNL     1     -17.099  -9.774   1.449  1.00  0.00     0.296 HD
ENDBRANCH  28  30
ENDBRANCH  13  28
ENDBRANCH  11  13
ENDBRANCH   8  11
ENDBRANCH   6   7
BRANCH   6  32
ATOM     32  C   UNL     1     -12.919 -10.064   8.295  1.00  0.00     0.037 C 
BRANCH  32  33
ATOM     33  C   UNL     1     -13.843  -8.988   8.883  1.00  0.00     0.026 C 
BRANCH  33  34
ATOM     34  C   UNL     1     -13.566  -7.600   8.305  1.00  0.00     0.146 C 
BRANCH  34  35
ATOM     35  N   UNL     1     -14.836  -6.926   8.073  1.00  0.00    -0.254 NA
ATOM     36  C   UNL     1     -15.152  -6.607   6.873  1.00  0.00     0.185 C 
ATOM     37  N   UNL     1     -16.322  -5.990   6.647  1.00  0.00    -0.370 N 
ATOM     38  N   UNL     1     -14.459  -6.802   5.737  1.00  0.00    -0.370 N 
ATOM     39  H   UNL     1     -16.907  -5.816   7.454  1.00  0.00     0.159 HD
ATOM     40  H   UNL     1     -16.717  -5.865   5.731  1.00  0.00     0.159 HD
ATOM     41  H   UNL     1     -14.751  -6.380   4.870  1.00  0.00     0.159 HD
ATOM     42  H   UNL     1     -13.552  -7.242   5.758  1.00  0.00     0.159 HD
ENDBRANCH  34  35
ENDBRANCH  33  34
ENDBRANCH  32  33
ENDBRANCH   6  32
ENDBRANCH   4   6
ENDBRANCH   1   2
BRANCH   1  43
ATOM     43  C   UNL     1     -10.352 -13.739   6.938  1.00  0.00     0.102 C 
ATOM     44  C   UNL     1      -9.896 -14.949   7.770  1.00  0.00     0.020 C 
BRANCH  43  45
ATOM     45  C   UNL     1     -10.181 -13.923   5.427  1.00  0.00     0.225 C 
ATOM     46  O   UNL     1     -10.968 -14.565   4.737  1.00  0.00    -0.275 OA
ATOM     47  N   UNL     1      -9.027 -13.398   4.892  1.00  0.00    -0.342 N 
ATOM     48  H   UNL     1      -8.474 -12.750   5.436  1.00  0.00     0.164 HD
BRANCH  47  49
ATOM     49  C   UNL     1      -8.748 -13.468   3.455  1.00  0.00     0.192 C 
BRANCH  49  50
ATOM     50  C   UNL     1      -7.646 -14.498   3.195  1.00  0.00     0.047 C 
BRANCH  50  51
ATOM     51  C   UNL     1      -8.214 -15.889   2.880  1.00  0.00     0.103 C 
BRANCH  51  52
ATOM     52  C   UNL     1      -8.096 -16.840   4.069  1.00  0.00     0.226 C 
ATOM     53  O   UNL     1      -7.785 -16.396   5.176  1.00  0.00    -0.275 OA
BRANCH  52  54
ATOM     54  N   UNL     1      -8.432 -18.186   3.832  1.00  0.00    -0.311 N 
ATOM     55  C   UNL     1      -7.697 -18.986   2.843  1.00  0.00     0.153 C 
BRANCH  54  56
ATOM     56  C   UNL     1      -9.475 -18.814   4.533  1.00  0.00     0.102 C 
ATOM     57  C   UNL     1      -9.373 -19.993   5.168  1.00  0.00     0.043 C 
BRANCH  56  58
ATOM     58  C   UNL     1     -10.828 -18.156   4.663  1.00  0.00     0.268 C 
ATOM     59  O   UNL     1     -11.336 -17.875   5.740  1.00  0.00    -0.268 OA
ATOM     60  N   UNL     1     -11.397 -17.847   3.450  1.00  0.00    -0.339 N 
ATOM     61  H   UNL     1     -10.917 -18.123   2.602  1.00  0.00     0.164 HD
BRANCH  60  62
ATOM     62  C   UNL     1     -12.678 -17.149   3.346  1.00  0.00     0.168 CG0
ATOM     63  C   UNL     1     -13.782 -18.097   2.895  1.00  0.00     0.041 C 
ATOM     64  G   UNL     1     -12.543 -15.963   2.369  1.00  0.00     0.000 G0
ENDBRANCH  60  62
ENDBRANCH  56  58
ENDBRANCH  54  56
ENDBRANCH  52  54
ENDBRANCH  51  52
ENDBRANCH  50  51
ENDBRANCH  49  50
BRANCH  49  65
ATOM     65  C   UNL     1      -8.312 -12.105   2.896  1.00  0.00     0.326 C 
ATOM     66  O   UNL     1      -8.988 -11.086   2.897  1.00  0.00    -0.250 OA
BRANCH  65  67
ATOM     67  O   UNL     1      -7.092 -12.098   2.314  1.00  0.00    -0.480 OA
ATOM     68  H   UNL     1      -6.478 -11.957   3.067  1.00  0.00     0.296 HD
ENDBRANCH  65  67
ENDBRANCH  49  65
ENDBRANCH  47  49
ENDBRANCH  43  45
ENDBRANCH   1  43
BRANCH   1  69
ATOM     69  C   UNL     1      -8.962 -12.360   8.720  1.00  0.00    -0.001 C 
ATOM     70  C   UNL     1      -7.802 -11.728   8.972  1.00  0.00     0.001 C 
BRANCH  70  71
ATOM     71  C   UNL     1      -7.083 -11.685  10.246  1.00  0.00    -0.055 C 
ATOM     72  C   UNL     1      -6.345 -12.762  10.587  1.00  0.00    -0.018 C 
ATOM     73  C   UNL     1      -7.210 -10.438  11.083  1.00  0.00     0.044 C 
BRANCH  72  74
ATOM     74  C   UNL     1      -5.500 -12.997  11.831  1.00  0.00     0.038 C 
ATOM     75  C   UNL     1      -4.038 -13.088  11.375  1.00  0.00     0.015 C 
BRANCH  74  76
ATOM     76  C   UNL     1      -6.034 -14.260  12.568  1.00  0.00     0.128 C 
BRANCH  76  77
ATOM     77  O   UNL     1      -6.383 -15.275  11.613  1.00  0.00    -0.381 OA
ATOM     78  C   UNL     1      -5.525 -16.408  11.644  1.00  0.00     0.195 C 
ENDBRANCH  76  77
BRANCH  76  79
ATOM     79  C   UNL     1      -5.093 -14.783  13.683  1.00  0.00     0.068 C 
BRANCH  79  80
ATOM     80  C   UNL     1      -5.479 -14.516  15.117  1.00  0.00    -0.045 A 
ATOM     81  C   UNL     1      -6.266 -13.409  15.459  1.00  0.00     0.004 A 
ATOM     82  C   UNL     1      -5.029 -15.365  16.140  1.00  0.00     0.004 A 
ATOM     83  C   UNL     1      -6.607 -13.161  16.791  1.00  0.00     0.000 A 
ATOM     84  C   UNL     1      -5.370 -15.116  17.471  1.00  0.00     0.000 A 
ATOM     85  C   UNL     1      -6.160 -14.015  17.796  1.00  0.00     0.000 A 
ENDBRANCH  79  80
ENDBRANCH  76  79
ENDBRANCH  74  76
ENDBRANCH  72  74
ENDBRANCH  70  71
ENDBRANCH   1  69
TORSDOF 17
ENDMDL
MODEL 20
REMARK VINA RESULT:    -5.889      7.761     14.231
REMARK INTER + INTRA:         -25.128
REMARK INTER:                 -20.161
REMARK INTRA:                  -4.967
REMARK UNBOUND:                -7.533
REMARK SMILES C=C1C(=O)N[C@H](C)C(=O)N[C@@H](CC(C)C)C(=O)N[C@@H](C(=O)O)[C@H](C)C(=O)N[C@@H](CCCN=C(N)N)C(=O)N[C@@H](/C=C/C(C)=C/[C@H](C)[C@H](Cc2ccccc2)OC)[C@H](C)C(=O)N[C@@H](C(=O)O)CCC(=O)N1C
REMARK SMILES IDX 39 1 38 2 37 3 36 4 28 6 27 7 25 8 26 9 23 11 24 12 19 13
REMARK SMILES IDX 18 14 16 15 17 16 11 18 10 19 8 20 9 21 12 24 13 25 14 26
REMARK SMILES IDX 15 27 20 28 21 29 22 30 29 32 30 33 31 34 32 35 33 36 34 37
REMARK SMILES IDX 35 38 57 43 58 44 59 45 60 46 61 47 62 49 66 50 67 51 68 52
REMARK SMILES IDX 69 53 70 54 71 55 2 56 1 57 3 58 4 59 5 60 6 62 7 63 63 65
REMARK SMILES IDX 64 66 65 67 40 69 41 70 42 71 44 72 43 73 45 74 46 75 47 76
REMARK SMILES IDX 55 77 56 78 48 79 49 80 50 81 54 82 51 83 53 84 52 85
REMARK H PARENT 38 5 27 10 18 17 10 22 22 31 34 39 34 40 35 41 35 42 61 48
REMARK H PARENT 5 61 65 68
REMARK Flexibility Score:  369.900
ROOT
ATOM      1  C   UNL     1      -5.017 -11.958  10.159  1.00  0.00     0.117 C 
ENDROOT
BRANCH   1   2
ATOM      2  N   UNL     1      -6.290 -12.502   9.684  1.00  0.00    -0.347 N 
ATOM      3  O   UNL     1      -7.476 -10.536   9.648  1.00  0.00    -0.273 OA
ATOM      4  C   UNL     1      -7.395 -11.730   9.379  1.00  0.00     0.243 C 
ATOM      5  H   UNL     1      -6.372 -13.493   9.516  1.00  0.00     0.164 HD
BRANCH   4   6
ATOM      6  C   UNL     1      -8.587 -12.544   8.814  1.00  0.00     0.171 C 
BRANCH   6   7
ATOM      7  N   UNL     1      -8.857 -12.160   7.419  1.00  0.00    -0.344 N 
ATOM      8  C   UNL     1      -9.841 -11.243   7.121  1.00  0.00     0.226 C 
ATOM      9  O   UNL     1     -10.545 -10.726   7.981  1.00  0.00    -0.275 OA
ATOM     10  H   UNL     1      -8.342 -12.615   6.676  1.00  0.00     0.164 HD
BRANCH   8  11
ATOM     11  C   UNL     1      -9.961 -10.911   5.644  1.00  0.00     0.109 C 
ATOM     12  C   UNL     1      -8.903 -11.674   4.846  1.00  0.00     0.021 C 
BRANCH  11  13
ATOM     13  C   UNL     1     -11.412 -11.134   5.175  1.00  0.00     0.204 C 
BRANCH  13  14
ATOM     14  N   UNL     1     -12.327 -10.123   5.713  1.00  0.00    -0.340 N 
ATOM     15  C   UNL     1     -13.536 -10.440   6.293  1.00  0.00     0.243 C 
ATOM     16  O   UNL     1     -13.905 -11.602   6.457  1.00  0.00    -0.273 OA
ATOM     17  H   UNL     1     -12.153  -9.142   5.475  1.00  0.00     0.164 HD
BRANCH  15  18
ATOM     18  C   UNL     1     -14.420  -9.206   6.597  1.00  0.00     0.171 C 
BRANCH  18  19
ATOM     19  N   UNL     1     -15.692  -9.423   5.910  1.00  0.00    -0.343 N 
ATOM     20  C   UNL     1     -15.980  -8.818   4.701  1.00  0.00     0.242 CG0
ATOM     21  O   UNL     1     -15.239  -7.968   4.215  1.00  0.00    -0.273 OA
ATOM     22  H   UNL     1     -16.387 -10.029   6.330  1.00  0.00     0.164 HD
ATOM     23  G   UNL     1     -17.336  -9.228   4.091  1.00  0.00     0.000 G0
ENDBRANCH  18  19
BRANCH  18  24
ATOM     24  C   UNL     1     -14.619  -9.040   8.108  1.00  0.00     0.038 C 
BRANCH  24  25
ATOM     25  C   UNL     1     -14.700  -7.577   8.591  1.00  0.00    -0.015 C 
ATOM     26  C   UNL     1     -13.351  -6.862   8.521  1.00  0.00     0.007 C 
ATOM     27  C   UNL     1     -15.231  -7.537  10.026  1.00  0.00     0.007 C 
ENDBRANCH  24  25
ENDBRANCH  18  24
ENDBRANCH  15  18
ENDBRANCH  13  14
BRANCH  13  28
ATOM     28  C   UNL     1     -11.563 -11.118   3.651  1.00  0.00     0.327 C 
ATOM     29  O   UNL     1     -11.336 -10.172   2.912  1.00  0.00    -0.250 OA
BRANCH  28  30
ATOM     30  O   UNL     1     -12.103 -12.253   3.161  1.00  0.00    -0.480 OA
ATOM     31  H   UNL     1     -11.435 -12.583   2.525  1.00  0.00     0.296 HD
ENDBRANCH  28  30
ENDBRANCH  13  28
ENDBRANCH  11  13
ENDBRANCH   8  11
ENDBRANCH   6   7
BRANCH   6  32
ATOM     32  C   UNL     1      -8.269 -14.040   8.917  1.00  0.00     0.037 C 
BRANCH  32  33
ATOM     33  C   UNL     1      -8.865 -14.841   7.752  1.00  0.00     0.026 C 
BRANCH  33  34
ATOM     34  C   UNL     1     -10.387 -14.958   7.841  1.00  0.00     0.146 C 
BRANCH  34  35
ATOM     35  N   UNL     1     -10.956 -14.705   6.524  1.00  0.00    -0.254 NA
ATOM     36  C   UNL     1     -12.218 -14.509   6.427  1.00  0.00     0.185 C 
ATOM     37  N   UNL     1     -12.751 -14.270   5.219  1.00  0.00    -0.370 N 
ATOM     38  N   UNL     1     -13.149 -14.503   7.397  1.00  0.00    -0.370 N 
ATOM     39  H   UNL     1     -12.111 -14.248   4.435  1.00  0.00     0.159 HD
ATOM     40  H   UNL     1     -13.690 -13.938   5.081  1.00  0.00     0.159 HD
ATOM     41  H   UNL     1     -14.131 -14.475   7.177  1.00  0.00     0.159 HD
ATOM     42  H   UNL     1     -12.892 -14.684   8.355  1.00  0.00     0.159 HD
ENDBRANCH  34  35
ENDBRANCH  33  34
ENDBRANCH  32  33
ENDBRANCH   6  32
ENDBRANCH   4   6
ENDBRANCH   1   2
BRANCH   1  43
ATOM     43  C   UNL     1      -3.915 -13.040   9.970  1.00  0.00     0.102 C 
ATOM     44  C   UNL     1      -3.891 -14.091  11.093  1.00  0.00     0.020 C 
BRANCH  43  45
ATOM     45  C   UNL     1      -2.554 -12.397   9.691  1.00  0.00     0.225 C 
ATOM     46  O   UNL     1      -1.593 -12.506  10.447  1.00  0.00    -0.275 OA
ATOM     47  N   UNL     1      -2.495 -11.598   8.572  1.00  0.00    -0.342 N 
ATOM     48  H   UNL     1      -3.236 -11.640   7.888  1.00  0.00     0.164 HD
BRANCH  47  49
ATOM     49  C   UNL     1      -1.247 -10.946   8.162  1.00  0.00     0.192 C 
BRANCH  49  50
ATOM     50  C   UNL     1      -0.196 -12.008   7.831  1.00  0.00     0.047 C 
BRANCH  50  51
ATOM     51  C   UNL     1      -0.220 -12.409   6.349  1.00  0.00     0.103 C 
BRANCH  51  52
ATOM     52  C   UNL     1       0.760 -13.540   6.045  1.00  0.00     0.226 C 
ATOM     53  O   UNL     1       0.534 -14.674   6.472  1.00  0.00    -0.275 OA
BRANCH  52  54
ATOM     54  N   UNL     1       1.848 -13.221   5.212  1.00  0.00    -0.311 N 
ATOM     55  C   UNL     1       1.666 -12.378   4.022  1.00  0.00     0.153 C 
BRANCH  54  56
ATOM     56  C   UNL     1       3.144 -13.687   5.488  1.00  0.00     0.102 C 
ATOM     57  C   UNL     1       3.794 -14.618   4.770  1.00  0.00     0.043 C 
BRANCH  56  58
ATOM     58  C   UNL     1       3.946 -13.116   6.633  1.00  0.00     0.268 C 
ATOM     59  O   UNL     1       4.583 -13.809   7.415  1.00  0.00    -0.268 OA
ATOM     60  N   UNL     1       3.938 -11.742   6.666  1.00  0.00    -0.339 N 
ATOM     61  H   UNL     1       3.376 -11.242   5.988  1.00  0.00     0.164 HD
BRANCH  60  62
ATOM     62  C   UNL     1       4.701 -10.982   7.655  1.00  0.00     0.168 CG0
ATOM     63  C   UNL     1       6.138 -10.773   7.195  1.00  0.00     0.041 C 
ATOM     64  G   UNL     1       4.663 -11.716   9.012  1.00  0.00     0.000 G0
ENDBRANCH  60  62
ENDBRANCH  56  58
ENDBRANCH  54  56
ENDBRANCH  52  54
ENDBRANCH  51  52
ENDBRANCH  50  51
ENDBRANCH  49  50
BRANCH  49  65
ATOM     65  C   UNL     1      -0.705 -10.018   9.260  1.00  0.00     0.326 C 
ATOM     66  O   UNL     1      -1.222  -8.973   9.627  1.00  0.00    -0.250 OA
BRANCH  65  67
ATOM     67  O   UNL     1       0.474 -10.406   9.795  1.00  0.00    -0.480 OA
ATOM     68  H   UNL     1       0.479 -11.379   9.661  1.00  0.00     0.296 HD
ENDBRANCH  65  67
ENDBRANCH  49  65
ENDBRANCH  47  49
ENDBRANCH  43  45
ENDBRANCH   1  43
BRANCH   1  69
ATOM     69  C   UNL     1      -5.281 -11.415  11.551  1.00  0.00    -0.001 C 
ATOM     70  C   UNL     1      -4.495 -10.595  12.271  1.00  0.00     0.001 C 
BRANCH  70  71
ATOM     71  C   UNL     1      -4.770 -10.061  13.606  1.00  0.00    -0.055 C 
ATOM     72  C   UNL     1      -4.624  -8.732  13.792  1.00  0.00    -0.018 C 
ATOM     73  C   UNL     1      -5.205 -11.029  14.675  1.00  0.00     0.044 C 
BRANCH  72  74
ATOM     74  C   UNL     1      -4.840  -7.906  15.053  1.00  0.00     0.038 C 
ATOM     75  C   UNL     1      -6.230  -7.267  14.943  1.00  0.00     0.015 C 
BRANCH  74  76
ATOM     76  C   UNL     1      -3.666  -6.895  15.196  1.00  0.00     0.128 C 
BRANCH  76  77
ATOM     77  O   UNL     1      -2.442  -7.495  14.739  1.00  0.00    -0.381 OA
ATOM     78  C   UNL     1      -1.389  -7.442  15.692  1.00  0.00     0.195 C 
ENDBRANCH  76  77
BRANCH  76  79
ATOM     79  C   UNL     1      -3.938  -5.516  14.543  1.00  0.00     0.068 C 
BRANCH  79  80
ATOM     80  C   UNL     1      -3.186  -5.172  13.280  1.00  0.00    -0.045 A 
ATOM     81  C   UNL     1      -2.457  -3.980  13.176  1.00  0.00     0.004 A 
ATOM     82  C   UNL     1      -3.230  -6.034  12.173  1.00  0.00     0.004 A 
ATOM     83  C   UNL     1      -1.776  -3.662  12.000  1.00  0.00     0.000 A 
ATOM     84  C   UNL     1      -2.548  -5.714  10.997  1.00  0.00     0.000 A 
ATOM     85  C   UNL     1      -1.820  -4.529  10.911  1.00  0.00     0.000 A 
ENDBRANCH  79  80
ENDBRANCH  76  79
ENDBRANCH  74  76
ENDBRANCH  72  74
ENDBRANCH  70  71
ENDBRANCH   1  69
TORSDOF 17
ENDMDL
MODEL 21
REMARK VINA RESULT:    -5.889     16.303     21.024
REMARK INTER + INTRA:         -25.126
REMARK INTER:                 -18.237
REMARK INTRA:                  -6.889
REMARK UNBOUND:                -7.533
REMARK SMILES C=C1C(=O)N[C@H](C)C(=O)N[C@@H](CC(C)C)C(=O)N[C@@H](C(=O)O)[C@H](C)C(=O)N[C@@H](CCCN=C(N)N)C(=O)N[C@@H](/C=C/C(C)=C/[C@H](C)[C@H](Cc2ccccc2)OC)[C@H](C)C(=O)N[C@@H](C(=O)O)CCC(=O)N1C
REMARK SMILES IDX 39 1 38 2 37 3 36 4 28 6 27 7 25 8 26 9 23 11 24 12 19 13
REMARK SMILES IDX 18 14 16 15 17 16 11 18 10 19 8 20 9 21 12 24 13 25 14 26
REMARK SMILES IDX 15 27 20 28 21 29 22 30 29 32 30 33 31 34 32 35 33 36 34 37
REMARK SMILES IDX 35 38 57 43 58 44 59 45 60 46 61 47 62 49 66 50 67 51 68 52
REMARK SMILES IDX 69 53 70 54 71 55 2 56 1 57 3 58 4 59 5 60 6 62 7 63 63 65
REMARK SMILES IDX 64 66 65 67 40 69 41 70 42 71 44 72 43 73 45 74 46 75 47 76
REMARK SMILES IDX 55 77 56 78 48 79 49 80 50 81 54 82 51 83 53 84 52 85
REMARK H PARENT 38 5 27 10 18 17 10 22 22 31 34 39 34 40 35 41 35 42 61 48
REMARK H PARENT 5 61 65 68
REMARK Flexibility Score:  369.900
ROOT
ATOM      1  C   UNL     1       2.230  -2.294  11.172  1.00  0.00     0.117 C 
ENDROOT
BRANCH   1   2
ATOM      2  N   UNL     1       2.611  -1.103  11.931  1.00  0.00    -0.347 N 
ATOM      3  O   UNL     1       2.386   0.431  10.238  1.00  0.00    -0.273 OA
ATOM      4  C   UNL     1       2.570   0.182  11.425  1.00  0.00     0.243 C 
ATOM      5  H   UNL     1       2.876  -1.197  12.899  1.00  0.00     0.164 HD
BRANCH   4   6
ATOM      6  C   UNL     1       2.942   1.272  12.462  1.00  0.00     0.171 C 
BRANCH   6   7
ATOM      7  N   UNL     1       2.741   2.614  11.892  1.00  0.00    -0.344 N 
ATOM      8  C   UNL     1       3.818   3.428  11.615  1.00  0.00     0.226 C 
ATOM      9  O   UNL     1       4.974   3.095  11.846  1.00  0.00    -0.275 OA
ATOM     10  H   UNL     1       1.797   2.951  11.750  1.00  0.00     0.164 HD
BRANCH   8  11
ATOM     11  C   UNL     1       3.450   4.758  10.980  1.00  0.00     0.109 C 
ATOM     12  C   UNL     1       4.378   5.860  11.492  1.00  0.00     0.021 C 
BRANCH  11  13
ATOM     13  C   UNL     1       3.405   4.609   9.446  1.00  0.00     0.204 C 
BRANCH  13  14
ATOM     14  N   UNL     1       4.382   3.630   8.959  1.00  0.00    -0.340 N 
ATOM     15  C   UNL     1       4.975   3.719   7.717  1.00  0.00     0.243 C 
ATOM     16  O   UNL     1       4.770   4.661   6.954  1.00  0.00    -0.273 OA
ATOM     17  H   UNL     1       4.481   2.752   9.474  1.00  0.00     0.164 HD
BRANCH  15  18
ATOM     18  C   UNL     1       5.808   2.470   7.339  1.00  0.00     0.171 C 
BRANCH  18  19
ATOM     19  N   UNL     1       7.206   2.805   7.600  1.00  0.00    -0.343 N 
ATOM     20  C   UNL     1       8.041   3.275   6.605  1.00  0.00     0.242 CG0
ATOM     21  O   UNL     1       7.686   3.308   5.429  1.00  0.00    -0.273 OA
ATOM     22  H   UNL     1       7.580   2.685   8.534  1.00  0.00     0.164 HD
ATOM     23  G   UNL     1       9.458   3.649   7.086  1.00  0.00     0.000 G0
ENDBRANCH  18  19
BRANCH  18  24
ATOM     24  C   UNL     1       5.360   1.252   8.156  1.00  0.00     0.038 C 
BRANCH  24  25
ATOM     25  C   UNL     1       5.363  -0.082   7.379  1.00  0.00    -0.015 C 
ATOM     26  C   UNL     1       6.309  -0.057   6.178  1.00  0.00     0.007 C 
ATOM     27  C   UNL     1       3.943  -0.408   6.910  1.00  0.00     0.007 C 
ENDBRANCH  24  25
ENDBRANCH  18  24
ENDBRANCH  15  18
ENDBRANCH  13  14
BRANCH  13  28
ATOM     28  C   UNL     1       2.032   4.179   8.922  1.00  0.00     0.327 C 
ATOM     29  O   UNL     1       1.646   3.031   8.761  1.00  0.00    -0.250 OA
BRANCH  28  30
ATOM     30  O   UNL     1       1.271   5.217   8.519  1.00  0.00    -0.480 OA
ATOM     31  H   UNL     1       1.091   5.717   9.342  1.00  0.00     0.296 HD
ENDBRANCH  28  30
ENDBRANCH  13  28
ENDBRANCH  11  13
ENDBRANCH   8  11
ENDBRANCH   6   7
BRANCH   6  32
ATOM     32  C   UNL     1       2.090   1.080  13.721  1.00  0.00     0.037 C 
BRANCH  32  33
ATOM     33  C   UNL     1       1.200   2.297  14.010  1.00  0.00     0.026 C 
BRANCH  33  34
ATOM     34  C   UNL     1       1.073   2.586  15.507  1.00  0.00     0.146 C 
BRANCH  34  35
ATOM     35  N   UNL     1      -0.229   3.189  15.759  1.00  0.00    -0.254 NA
ATOM     36  C   UNL     1      -0.905   2.789  16.772  1.00  0.00     0.185 C 
ATOM     37  N   UNL     1      -2.103   3.341  17.017  1.00  0.00    -0.370 N 
ATOM     38  N   UNL     1      -0.588   1.852  17.682  1.00  0.00    -0.370 N 
ATOM     39  H   UNL     1      -2.409   4.065  16.379  1.00  0.00     0.159 HD
ATOM     40  H   UNL     1      -2.610   3.211  17.875  1.00  0.00     0.159 HD
ATOM     41  H   UNL     1      -1.265   1.528  18.354  1.00  0.00     0.159 HD
ATOM     42  H   UNL     1       0.279   1.342  17.613  1.00  0.00     0.159 HD
ENDBRANCH  34  35
ENDBRANCH  33  34
ENDBRANCH  32  33
ENDBRANCH   6  32
ENDBRANCH   4   6
ENDBRANCH   1   2
BRANCH   1  43
ATOM     43  C   UNL     1       1.240  -3.133  12.031  1.00  0.00     0.102 C 
ATOM     44  C   UNL     1       1.939  -4.042  13.057  1.00  0.00     0.020 C 
BRANCH  43  45
ATOM     45  C   UNL     1       0.224  -3.861  11.146  1.00  0.00     0.225 C 
ATOM     46  O   UNL     1       0.038  -3.579   9.966  1.00  0.00    -0.275 OA
ATOM     47  N   UNL     1      -0.549  -4.804  11.784  1.00  0.00    -0.342 N 
ATOM     48  H   UNL     1      -0.284  -5.129  12.704  1.00  0.00     0.164 HD
BRANCH  47  49
ATOM     49  C   UNL     1      -1.538  -5.604  11.056  1.00  0.00     0.192 C 
BRANCH  49  50
ATOM     50  C   UNL     1      -2.863  -5.609  11.824  1.00  0.00     0.047 C 
BRANCH  50  51
ATOM     51  C   UNL     1      -2.750  -4.901  13.182  1.00  0.00     0.103 C 
BRANCH  51  52
ATOM     52  C   UNL     1      -2.631  -5.893  14.337  1.00  0.00     0.226 C 
ATOM     53  O   UNL     1      -1.549  -6.438  14.564  1.00  0.00    -0.275 OA
BRANCH  52  54
ATOM     54  N   UNL     1      -3.777  -6.068  15.134  1.00  0.00    -0.311 N 
ATOM     55  C   UNL     1      -4.510  -4.912  15.669  1.00  0.00     0.153 C 
BRANCH  54  56
ATOM     56  C   UNL     1      -4.266  -7.348  15.444  1.00  0.00     0.102 C 
ATOM     57  C   UNL     1      -3.774  -8.147  16.405  1.00  0.00     0.043 C 
BRANCH  56  58
ATOM     58  C   UNL     1      -5.459  -7.919  14.714  1.00  0.00     0.268 C 
ATOM     59  O   UNL     1      -6.605  -7.532  14.899  1.00  0.00    -0.268 OA
ATOM     60  N   UNL     1      -5.117  -8.867  13.779  1.00  0.00    -0.339 N 
ATOM     61  H   UNL     1      -4.146  -9.140  13.695  1.00  0.00     0.164 HD
BRANCH  60  62
ATOM     62  C   UNL     1      -6.112  -9.504  12.917  1.00  0.00     0.168 CG0
ATOM     63  C   UNL     1      -6.162  -8.831  11.550  1.00  0.00     0.041 C 
ATOM     64  G   UNL     1      -7.494  -9.456  13.599  1.00  0.00     0.000 G0
ENDBRANCH  60  62
ENDBRANCH  56  58
ENDBRANCH  54  56
ENDBRANCH  52  54
ENDBRANCH  51  52
ENDBRANCH  50  51
ENDBRANCH  49  50
BRANCH  49  65
ATOM     65  C   UNL     1      -1.061  -7.051  10.857  1.00  0.00     0.326 C 
ATOM     66  O   UNL     1      -1.059  -7.659   9.796  1.00  0.00    -0.250 OA
BRANCH  65  67
ATOM     67  O   UNL     1      -0.672  -7.678  11.989  1.00  0.00    -0.480 OA
ATOM     68  H   UNL     1      -0.707  -6.971  12.669  1.00  0.00     0.296 HD
ENDBRANCH  65  67
ENDBRANCH  49  65
ENDBRANCH  47  49
ENDBRANCH  43  45
ENDBRANCH   1  43
BRANCH   1  69
ATOM     69  C   UNL     1       3.525  -2.936  10.710  1.00  0.00    -0.001 C 
ATOM     70  C   UNL     1       4.581  -2.327  10.141  1.00  0.00     0.001 C 
BRANCH  70  71
ATOM     71  C   UNL     1       5.835  -2.954   9.719  1.00  0.00    -0.055 C 
ATOM     72  C   UNL     1       5.842  -3.615   8.543  1.00  0.00    -0.018 C 
ATOM     73  C   UNL     1       7.032  -2.809  10.623  1.00  0.00     0.044 C 
BRANCH  72  74
ATOM     74  C   UNL     1       6.985  -4.351   7.858  1.00  0.00     0.038 C 
ATOM     75  C   UNL     1       7.405  -3.508   6.648  1.00  0.00     0.015 C 
BRANCH  74  76
ATOM     76  C   UNL     1       6.516  -5.796   7.516  1.00  0.00     0.128 C 
BRANCH  76  77
ATOM     77  O   UNL     1       7.029  -6.187   6.231  1.00  0.00    -0.381 OA
ATOM     78  C   UNL     1       8.019  -7.205   6.296  1.00  0.00     0.195 C 
ENDBRANCH  76  77
BRANCH  76  79
ATOM     79  C   UNL     1       6.821  -6.836   8.624  1.00  0.00     0.068 C 
BRANCH  79  80
ATOM     80  C   UNL     1       5.666  -7.344   9.452  1.00  0.00    -0.045 A 
ATOM     81  C   UNL     1       4.728  -6.461  10.003  1.00  0.00     0.004 A 
ATOM     82  C   UNL     1       5.530  -8.717   9.708  1.00  0.00     0.004 A 
ATOM     83  C   UNL     1       3.670  -6.939  10.780  1.00  0.00     0.000 A 
ATOM     84  C   UNL     1       4.472  -9.194  10.486  1.00  0.00     0.000 A 
ATOM     85  C   UNL     1       3.542  -8.305  11.020  1.00  0.00     0.000 A 
ENDBRANCH  79  80
ENDBRANCH  76  79
ENDBRANCH  74  76
ENDBRANCH  72  74
ENDBRANCH  70  71
ENDBRANCH   1  69
TORSDOF 17
ENDMDL
MODEL 22
REMARK VINA RESULT:    -5.882      2.261      5.292
REMARK INTER + INTRA:         -25.105
REMARK INTER:                 -18.814
REMARK INTRA:                  -6.291
REMARK UNBOUND:                -7.533
REMARK SMILES C=C1C(=O)N[C@H](C)C(=O)N[C@@H](CC(C)C)C(=O)N[C@@H](C(=O)O)[C@H](C)C(=O)N[C@@H](CCCN=C(N)N)C(=O)N[C@@H](/C=C/C(C)=C/[C@H](C)[C@H](Cc2ccccc2)OC)[C@H](C)C(=O)N[C@@H](C(=O)O)CCC(=O)N1C
REMARK SMILES IDX 39 1 38 2 37 3 36 4 28 6 27 7 25 8 26 9 23 11 24 12 19 13
REMARK SMILES IDX 18 14 16 15 17 16 11 18 10 19 8 20 9 21 12 24 13 25 14 26
REMARK SMILES IDX 15 27 20 28 21 29 22 30 29 32 30 33 31 34 32 35 33 36 34 37
REMARK SMILES IDX 35 38 57 43 58 44 59 45 60 46 61 47 62 49 66 50 67 51 68 52
REMARK SMILES IDX 69 53 70 54 71 55 2 56 1 57 3 58 4 59 5 60 6 62 7 63 63 65
REMARK SMILES IDX 64 66 65 67 40 69 41 70 42 71 44 72 43 73 45 74 46 75 47 76
REMARK SMILES IDX 55 77 56 78 48 79 49 80 50 81 54 82 51 83 53 84 52 85
REMARK H PARENT 38 5 27 10 18 17 10 22 22 31 34 39 34 40 35 41 35 42 61 48
REMARK H PARENT 5 61 65 68
REMARK Flexibility Score:  369.900
ROOT
ATOM      1  C   UNL     1     -11.208 -10.877   0.487  1.00  0.00     0.117 C 
ENDROOT
BRANCH   1   2
ATOM      2  N   UNL     1     -10.581 -11.744   1.485  1.00  0.00    -0.347 N 
ATOM      3  O   UNL     1      -8.598 -10.605   1.689  1.00  0.00    -0.273 OA
ATOM      4  C   UNL     1      -9.359 -11.487   2.075  1.00  0.00     0.243 C 
ATOM      5  H   UNL     1     -11.076 -12.560   1.812  1.00  0.00     0.164 HD
BRANCH   4   6
ATOM      6  C   UNL     1      -8.963 -12.517   3.163  1.00  0.00     0.171 C 
BRANCH   6   7
ATOM      7  N   UNL     1      -9.734 -12.287   4.395  1.00  0.00    -0.344 N 
ATOM      8  C   UNL     1      -9.242 -11.472   5.391  1.00  0.00     0.226 C 
ATOM      9  O   UNL     1      -8.148 -10.925   5.316  1.00  0.00    -0.275 OA
ATOM     10  H   UNL     1     -10.612 -12.775   4.522  1.00  0.00     0.164 HD
BRANCH   8  11
ATOM     11  C   UNL     1     -10.179 -11.292   6.572  1.00  0.00     0.109 C 
ATOM     12  C   UNL     1     -11.614 -11.101   6.081  1.00  0.00     0.021 C 
BRANCH  11  13
ATOM     13  C   UNL     1      -9.984 -12.448   7.573  1.00  0.00     0.204 C 
BRANCH  13  14
ATOM     14  N   UNL     1      -9.712 -13.721   6.899  1.00  0.00    -0.340 N 
ATOM     15  C   UNL     1     -10.312 -14.906   7.268  1.00  0.00     0.243 C 
ATOM     16  O   UNL     1     -11.166 -14.967   8.150  1.00  0.00    -0.273 OA
ATOM     17  H   UNL     1      -8.908 -13.767   6.267  1.00  0.00     0.164 HD
BRANCH  15  18
ATOM     18  C   UNL     1      -9.718 -16.147   6.557  1.00  0.00     0.171 C 
BRANCH  18  19
ATOM     19  N   UNL     1     -10.226 -16.128   5.187  1.00  0.00    -0.343 N 
ATOM     20  C   UNL     1     -11.406 -16.757   4.839  1.00  0.00     0.242 CG0
ATOM     21  O   UNL     1     -12.013 -17.472   5.634  1.00  0.00    -0.273 OA
ATOM     22  H   UNL     1      -9.699 -15.647   4.467  1.00  0.00     0.164 HD
ATOM     23  G   UNL     1     -11.821 -16.563   3.366  1.00  0.00     0.000 G0
ENDBRANCH  18  19
BRANCH  18  24
ATOM     24  C   UNL     1      -8.185 -16.106   6.588  1.00  0.00     0.038 C 
BRANCH  24  25
ATOM     25  C   UNL     1      -7.527 -17.231   7.416  1.00  0.00    -0.015 C 
ATOM     26  C   UNL     1      -8.266 -18.563   7.283  1.00  0.00     0.007 C 
ATOM     27  C   UNL     1      -7.468 -16.819   8.889  1.00  0.00     0.007 C 
ENDBRANCH  24  25
ENDBRANCH  18  24
ENDBRANCH  15  18
ENDBRANCH  13  14
BRANCH  13  28
ATOM     28  C   UNL     1      -8.840 -12.204   8.562  1.00  0.00     0.327 C 
ATOM     29  O   UNL     1      -8.186 -11.178   8.671  1.00  0.00    -0.250 OA
BRANCH  28  30
ATOM     30  O   UNL     1      -8.510 -13.302   9.270  1.00  0.00    -0.480 OA
ATOM     31  H   UNL     1      -9.337 -13.826   9.302  1.00  0.00     0.296 HD
ENDBRANCH  28  30
ENDBRANCH  13  28
ENDBRANCH  11  13
ENDBRANCH   8  11
ENDBRANCH   6   7
BRANCH   6  32
ATOM     32  C   UNL     1      -9.199 -13.933   2.625  1.00  0.00     0.037 C 
BRANCH  32  33
ATOM     33  C   UNL     1      -7.902 -14.590   2.133  1.00  0.00     0.026 C 
BRANCH  33  34
ATOM     34  C   UNL     1      -7.404 -15.683   3.079  1.00  0.00     0.146 C 
BRANCH  34  35
ATOM     35  N   UNL     1      -8.203 -16.883   2.871  1.00  0.00    -0.254 NA
ATOM     36  C   UNL     1      -7.618 -18.023   2.903  1.00  0.00     0.185 C 
ATOM     37  N   UNL     1      -8.345 -19.135   2.717  1.00  0.00    -0.370 N 
ATOM     38  N   UNL     1      -6.318 -18.300   3.104  1.00  0.00    -0.370 N 
ATOM     39  H   UNL     1      -9.339 -19.010   2.569  1.00  0.00     0.159 HD
ATOM     40  H   UNL     1      -8.000 -20.062   2.898  1.00  0.00     0.159 HD
ATOM     41  H   UNL     1      -5.957 -19.230   2.966  1.00  0.00     0.159 HD
ATOM     42  H   UNL     1      -5.651 -17.557   3.242  1.00  0.00     0.159 HD
ENDBRANCH  34  35
ENDBRANCH  33  34
ENDBRANCH  32  33
ENDBRANCH   6  32
ENDBRANCH   4   6
ENDBRANCH   1   2
BRANCH   1  43
ATOM     43  C   UNL     1     -12.734 -10.810   0.778  1.00  0.00     0.102 C 
ATOM     44  C   UNL     1     -13.573 -10.402  -0.445  1.00  0.00     0.020 C 
BRANCH  43  45
ATOM     45  C   UNL     1     -13.019  -9.978   2.032  1.00  0.00     0.225 C 
ATOM     46  O   UNL     1     -12.173  -9.750   2.892  1.00  0.00    -0.275 OA
ATOM     47  N   UNL     1     -14.324  -9.571   2.190  1.00  0.00    -0.342 N 
ATOM     48  H   UNL     1     -14.965  -9.633   1.411  1.00  0.00     0.164 HD
BRANCH  47  49
ATOM     49  C   UNL     1     -14.736  -8.738   3.324  1.00  0.00     0.192 C 
BRANCH  49  50
ATOM     50  C   UNL     1     -15.513  -9.589   4.331  1.00  0.00     0.047 C 
BRANCH  50  51
ATOM     51  C   UNL     1     -16.168 -10.813   3.676  1.00  0.00     0.103 C 
BRANCH  51  52
ATOM     52  C   UNL     1     -15.385 -12.096   3.947  1.00  0.00     0.226 C 
ATOM     53  O   UNL     1     -14.857 -12.268   5.048  1.00  0.00    -0.275 OA
BRANCH  52  54
ATOM     54  N   UNL     1     -15.382 -13.058   2.920  1.00  0.00    -0.311 N 
ATOM     55  C   UNL     1     -15.848 -12.721   1.568  1.00  0.00     0.153 C 
BRANCH  54  56
ATOM     56  C   UNL     1     -14.931 -14.369   3.145  1.00  0.00     0.102 C 
ATOM     57  C   UNL     1     -15.724 -15.417   3.424  1.00  0.00     0.043 C 
BRANCH  56  58
ATOM     58  C   UNL     1     -13.464 -14.712   3.040  1.00  0.00     0.268 C 
ATOM     59  O   UNL     1     -12.602 -13.889   2.764  1.00  0.00    -0.268 OA
ATOM     60  N   UNL     1     -13.193 -16.024   3.349  1.00  0.00    -0.339 N 
ATOM     61  H   UNL     1     -13.965 -16.645   3.558  1.00  0.00     0.164 HD
BRANCH  60  62
ATOM     62  C   UNL     1     -11.830 -16.553   3.372  1.00  0.00     0.168 CG0
ATOM     63  C   UNL     1     -11.739 -17.863   2.598  1.00  0.00     0.041 C 
ATOM     64  G   UNL     1     -11.375 -16.749   4.833  1.00  0.00     0.000 G0
ENDBRANCH  60  62
ENDBRANCH  56  58
ENDBRANCH  54  56
ENDBRANCH  52  54
ENDBRANCH  51  52
ENDBRANCH  50  51
ENDBRANCH  49  50
BRANCH  49  65
ATOM     65  C   UNL     1     -15.610  -7.558   2.873  1.00  0.00     0.326 C 
ATOM     66  O   UNL     1     -15.920  -6.598   3.564  1.00  0.00    -0.250 OA
BRANCH  65  67
ATOM     67  O   UNL     1     -16.096  -7.664   1.617  1.00  0.00    -0.480 OA
ATOM     68  H   UNL     1     -15.294  -7.813   1.070  1.00  0.00     0.296 HD
ENDBRANCH  65  67
ENDBRANCH  49  65
ENDBRANCH  47  49
ENDBRANCH  43  45
ENDBRANCH   1  43
BRANCH   1  69
ATOM     69  C   UNL     1     -10.741 -11.381  -0.867  1.00  0.00    -0.001 C 
ATOM     70  C   UNL     1     -10.349 -12.628  -1.183  1.00  0.00     0.001 C 
BRANCH  70  71
ATOM     71  C   UNL     1      -9.921 -13.108  -2.499  1.00  0.00    -0.055 C 
ATOM     72  C   UNL     1      -8.917 -14.009  -2.542  1.00  0.00    -0.018 C 
ATOM     73  C   UNL     1     -10.636 -12.569  -3.710  1.00  0.00     0.044 C 
BRANCH  72  74
ATOM     74  C   UNL     1      -8.273 -14.677  -3.748  1.00  0.00     0.038 C 
ATOM     75  C   UNL     1      -8.746 -16.136  -3.763  1.00  0.00     0.015 C 
BRANCH  74  76
ATOM     76  C   UNL     1      -6.730 -14.492  -3.660  1.00  0.00     0.128 C 
BRANCH  76  77
ATOM     77  O   UNL     1      -6.069 -15.740  -3.928  1.00  0.00    -0.381 OA
ATOM     78  C   UNL     1      -6.667 -16.488  -4.978  1.00  0.00     0.195 C 
ENDBRANCH  76  77
BRANCH  76  79
ATOM     79  C   UNL     1      -6.185 -13.327  -4.525  1.00  0.00     0.068 C 
BRANCH  79  80
ATOM     80  C   UNL     1      -7.089 -12.754  -5.589  1.00  0.00    -0.045 A 
ATOM     81  C   UNL     1      -7.364 -13.468  -6.764  1.00  0.00     0.004 A 
ATOM     82  C   UNL     1      -7.649 -11.478  -5.430  1.00  0.00     0.004 A 
ATOM     83  C   UNL     1      -8.190 -12.925  -7.750  1.00  0.00     0.000 A 
ATOM     84  C   UNL     1      -8.475 -10.936  -6.418  1.00  0.00     0.000 A 
ATOM     85  C   UNL     1      -8.746 -11.660  -7.576  1.00  0.00     0.000 A 
ENDBRANCH  79  80
ENDBRANCH  76  79
ENDBRANCH  74  76
ENDBRANCH  72  74
ENDBRANCH  70  71
ENDBRANCH   1  69
TORSDOF 17
ENDMDL
MODEL 23
REMARK VINA RESULT:    -5.834     12.508     16.975
REMARK INTER + INTRA:         -24.962
REMARK INTER:                 -18.284
REMARK INTRA:                  -6.677
REMARK UNBOUND:                -7.533
REMARK SMILES C=C1C(=O)N[C@H](C)C(=O)N[C@@H](CC(C)C)C(=O)N[C@@H](C(=O)O)[C@H](C)C(=O)N[C@@H](CCCN=C(N)N)C(=O)N[C@@H](/C=C/C(C)=C/[C@H](C)[C@H](Cc2ccccc2)OC)[C@H](C)C(=O)N[C@@H](C(=O)O)CCC(=O)N1C
REMARK SMILES IDX 39 1 38 2 37 3 36 4 28 6 27 7 25 8 26 9 23 11 24 12 19 13
REMARK SMILES IDX 18 14 16 15 17 16 11 18 10 19 8 20 9 21 12 24 13 25 14 26
REMARK SMILES IDX 15 27 20 28 21 29 22 30 29 32 30 33 31 34 32 35 33 36 34 37
REMARK SMILES IDX 35 38 57 43 58 44 59 45 60 46 61 47 62 49 66 50 67 51 68 52
REMARK SMILES IDX 69 53 70 54 71 55 2 56 1 57 3 58 4 59 5 60 6 62 7 63 63 65
REMARK SMILES IDX 64 66 65 67 40 69 41 70 42 71 44 72 43 73 45 74 46 75 47 76
REMARK SMILES IDX 55 77 56 78 48 79 49 80 50 81 54 82 51 83 53 84 52 85
REMARK H PARENT 38 5 27 10 18 17 10 22 22 31 34 39 34 40 35 41 35 42 61 48
REMARK H PARENT 5 61 65 68
REMARK Flexibility Score:  369.900
ROOT
ATOM      1  C   UNL     1      -1.620  -6.937   9.376  1.00  0.00     0.117 C 
ENDROOT
BRANCH   1   2
ATOM      2  N   UNL     1      -1.204  -6.213  10.578  1.00  0.00    -0.347 N 
ATOM      3  O   UNL     1      -0.796  -4.180   9.594  1.00  0.00    -0.273 OA
ATOM      4  C   UNL     1      -0.912  -4.863  10.606  1.00  0.00     0.243 C 
ATOM      5  H   UNL     1      -1.169  -6.700  11.461  1.00  0.00     0.164 HD
BRANCH   4   6
ATOM      6  C   UNL     1      -0.581  -4.326  12.021  1.00  0.00     0.171 C 
BRANCH   6   7
ATOM      7  N   UNL     1       0.092  -3.021  11.932  1.00  0.00    -0.344 N 
ATOM      8  C   UNL     1       1.465  -2.942  11.851  1.00  0.00     0.226 C 
ATOM      9  O   UNL     1       2.186  -3.933  11.872  1.00  0.00    -0.275 OA
ATOM     10  H   UNL     1      -0.465  -2.177  11.980  1.00  0.00     0.164 HD
BRANCH   8  11
ATOM     11  C   UNL     1       2.004  -1.529  11.710  1.00  0.00     0.109 C 
ATOM     12  C   UNL     1       2.770  -1.129  12.970  1.00  0.00     0.021 C 
BRANCH  11  13
ATOM     13  C   UNL     1       2.804  -1.405  10.398  1.00  0.00     0.204 C 
BRANCH  13  14
ATOM     14  N   UNL     1       2.686  -0.070   9.803  1.00  0.00    -0.340 N 
ATOM     15  C   UNL     1       2.999   0.194   8.488  1.00  0.00     0.243 C 
ATOM     16  O   UNL     1       3.344  -0.687   7.701  1.00  0.00    -0.273 OA
ATOM     17  H   UNL     1       2.553   0.726  10.433  1.00  0.00     0.164 HD
BRANCH  15  18
ATOM     18  C   UNL     1       2.997   1.703   8.142  1.00  0.00     0.171 C 
BRANCH  18  19
ATOM     19  N   UNL     1       2.619   1.810   6.734  1.00  0.00    -0.343 N 
ATOM     20  C   UNL     1       3.518   2.215   5.767  1.00  0.00     0.242 CG0
ATOM     21  O   UNL     1       4.636   2.632   6.061  1.00  0.00    -0.273 OA
ATOM     22  H   UNL     1       1.670   1.587   6.456  1.00  0.00     0.164 HD
ATOM     23  G   UNL     1       2.960   2.190   4.329  1.00  0.00     0.000 G0
ENDBRANCH  18  19
BRANCH  18  24
ATOM     24  C   UNL     1       2.020   2.464   9.046  1.00  0.00     0.038 C 
BRANCH  24  25
ATOM     25  C   UNL     1       2.621   3.701   9.747  1.00  0.00    -0.015 C 
ATOM     26  C   UNL     1       4.089   3.924   9.385  1.00  0.00     0.007 C 
ATOM     27  C   UNL     1       2.482   3.550  11.264  1.00  0.00     0.007 C 
ENDBRANCH  24  25
ENDBRANCH  18  24
ENDBRANCH  15  18
ENDBRANCH  13  14
BRANCH  13  28
ATOM     28  C   UNL     1       4.298  -1.693  10.573  1.00  0.00     0.327 C 
ATOM     29  O   UNL     1       5.178  -0.865  10.749  1.00  0.00    -0.250 OA
BRANCH  28  30
ATOM     30  O   UNL     1       4.610  -2.993  10.396  1.00  0.00    -0.480 OA
ATOM     31  H   UNL     1       5.572  -3.037  10.577  1.00  0.00     0.296 HD
ENDBRANCH  28  30
ENDBRANCH  13  28
ENDBRANCH  11  13
ENDBRANCH   8  11
ENDBRANCH   6   7
BRANCH   6  32
ATOM     32  C   UNL     1      -1.876  -4.220  12.835  1.00  0.00     0.037 C 
BRANCH  32  33
ATOM     33  C   UNL     1      -1.907  -5.212  14.006  1.00  0.00     0.026 C 
BRANCH  33  34
ATOM     34  C   UNL     1      -2.855  -4.770  15.121  1.00  0.00     0.146 C 
BRANCH  34  35
ATOM     35  N   UNL     1      -4.169  -5.349  14.878  1.00  0.00    -0.254 NA
ATOM     36  C   UNL     1      -4.798  -5.881  15.859  1.00  0.00     0.185 C 
ATOM     37  N   UNL     1      -6.011  -6.413  15.647  1.00  0.00    -0.370 N 
ATOM     38  N   UNL     1      -4.416  -5.998  17.143  1.00  0.00    -0.370 N 
ATOM     39  H   UNL     1      -6.374  -6.355  14.704  1.00  0.00     0.159 HD
ATOM     40  H   UNL     1      -6.635  -6.689  16.386  1.00  0.00     0.159 HD
ATOM     41  H   UNL     1      -4.939  -6.562  17.793  1.00  0.00     0.159 HD
ATOM     42  H   UNL     1      -3.516  -5.656  17.444  1.00  0.00     0.159 HD
ENDBRANCH  34  35
ENDBRANCH  33  34
ENDBRANCH  32  33
ENDBRANCH   6  32
ENDBRANCH   4   6
ENDBRANCH   1   2
BRANCH   1  43
ATOM     43  C   UNL     1      -3.175  -6.924   9.304  1.00  0.00     0.102 C 
ATOM     44  C   UNL     1      -3.746  -5.660   8.639  1.00  0.00     0.020 C 
BRANCH  43  45
ATOM     45  C   UNL     1      -3.791  -7.240  10.670  1.00  0.00     0.225 C 
ATOM     46  O   UNL     1      -3.930  -6.400  11.554  1.00  0.00    -0.275 OA
ATOM     47  N   UNL     1      -4.101  -8.563  10.888  1.00  0.00    -0.342 N 
ATOM     48  H   UNL     1      -4.124  -9.206  10.109  1.00  0.00     0.164 HD
BRANCH  47  49
ATOM     49  C   UNL     1      -4.730  -9.007  12.135  1.00  0.00     0.192 C 
BRANCH  49  50
ATOM     50  C   UNL     1      -4.416 -10.487  12.371  1.00  0.00     0.047 C 
BRANCH  50  51
ATOM     51  C   UNL     1      -3.798 -11.155  11.136  1.00  0.00     0.103 C 
BRANCH  51  52
ATOM     52  C   UNL     1      -2.862 -12.302  11.512  1.00  0.00     0.226 C 
ATOM     53  O   UNL     1      -1.874 -12.078  12.214  1.00  0.00    -0.275 OA
BRANCH  52  54
ATOM     54  N   UNL     1      -3.242 -13.587  11.083  1.00  0.00    -0.311 N 
ATOM     55  C   UNL     1      -2.286 -14.469  10.400  1.00  0.00     0.153 C 
BRANCH  54  56
ATOM     56  C   UNL     1      -4.541 -14.076  11.296  1.00  0.00     0.102 C 
ATOM     57  C   UNL     1      -5.433 -14.335  10.325  1.00  0.00     0.043 C 
BRANCH  56  58
ATOM     58  C   UNL     1      -5.029 -14.400  12.688  1.00  0.00     0.268 C 
ATOM     59  O   UNL     1      -4.660 -15.384  13.315  1.00  0.00    -0.268 OA
ATOM     60  N   UNL     1      -5.876 -13.445  13.200  1.00  0.00    -0.339 N 
ATOM     61  H   UNL     1      -6.142 -12.664  12.612  1.00  0.00     0.164 HD
BRANCH  60  62
ATOM     62  C   UNL     1      -6.416 -13.529  14.556  1.00  0.00     0.168 CG0
ATOM     63  C   UNL     1      -5.854 -12.421  15.438  1.00  0.00     0.041 C 
ATOM     64  G   UNL     1      -6.099 -14.916  15.153  1.00  0.00     0.000 G0
ENDBRANCH  60  62
ENDBRANCH  56  58
ENDBRANCH  54  56
ENDBRANCH  52  54
ENDBRANCH  51  52
ENDBRANCH  50  51
ENDBRANCH  49  50
BRANCH  49  65
ATOM     65  C   UNL     1      -6.254  -8.809  12.103  1.00  0.00     0.326 C 
ATOM     66  O   UNL     1      -6.980  -9.036  11.147  1.00  0.00    -0.250 OA
BRANCH  65  67
ATOM     67  O   UNL     1      -6.778  -8.287  13.234  1.00  0.00    -0.480 OA
ATOM     68  H   UNL     1      -6.506  -8.922  13.931  1.00  0.00     0.296 HD
ENDBRANCH  65  67
ENDBRANCH  49  65
ENDBRANCH  47  49
ENDBRANCH  43  45
ENDBRANCH   1  43
BRANCH   1  69
ATOM     69  C   UNL     1      -0.899  -8.272   9.413  1.00  0.00    -0.001 C 
ATOM     70  C   UNL     1      -1.319  -9.442   8.901  1.00  0.00     0.001 C 
BRANCH  70  71
ATOM     71  C   UNL     1      -0.604 -10.720   8.924  1.00  0.00    -0.055 C 
ATOM     72  C   UNL     1       0.533 -10.789   9.648  1.00  0.00    -0.018 C 
ATOM     73  C   UNL     1      -1.192 -11.868   8.147  1.00  0.00     0.044 C 
BRANCH  72  74
ATOM     74  C   UNL     1       1.472 -11.969   9.856  1.00  0.00     0.038 C 
ATOM     75  C   UNL     1       1.432 -12.322  11.347  1.00  0.00     0.015 C 
BRANCH  74  76
ATOM     76  C   UNL     1       2.881 -11.590   9.312  1.00  0.00     0.128 C 
BRANCH  76  77
ATOM     77  O   UNL     1       3.802 -11.432  10.404  1.00  0.00    -0.381 OA
ATOM     78  C   UNL     1       5.028 -12.128  10.223  1.00  0.00     0.195 C 
ENDBRANCH  76  77
BRANCH  76  79
ATOM     79  C   UNL     1       3.411 -12.548   8.215  1.00  0.00     0.068 C 
BRANCH  79  80
ATOM     80  C   UNL     1       2.409 -13.158   7.264  1.00  0.00    -0.045 A 
ATOM     81  C   UNL     1       1.869 -12.411   6.208  1.00  0.00     0.004 A 
ATOM     82  C   UNL     1       1.979 -14.481   7.442  1.00  0.00     0.004 A 
ATOM     83  C   UNL     1       0.932 -12.978   5.342  1.00  0.00     0.000 A 
ATOM     84  C   UNL     1       1.041 -15.047   6.575  1.00  0.00     0.000 A 
ATOM     85  C   UNL     1       0.519 -14.296   5.525  1.00  0.00     0.000 A 
ENDBRANCH  79  80
ENDBRANCH  76  79
ENDBRANCH  74  76
ENDBRANCH  72  74
ENDBRANCH  70  71
ENDBRANCH   1  69
TORSDOF 17
ENDMDL
MODEL 24
REMARK VINA RESULT:    -5.833      9.050     14.480
REMARK INTER + INTRA:         -24.961
REMARK INTER:                 -15.289
REMARK INTRA:                  -9.672
REMARK UNBOUND:                -7.533
REMARK SMILES C=C1C(=O)N[C@H](C)C(=O)N[C@@H](CC(C)C)C(=O)N[C@@H](C(=O)O)[C@H](C)C(=O)N[C@@H](CCCN=C(N)N)C(=O)N[C@@H](/C=C/C(C)=C/[C@H](C)[C@H](Cc2ccccc2)OC)[C@H](C)C(=O)N[C@@H](C(=O)O)CCC(=O)N1C
REMARK SMILES IDX 39 1 38 2 37 3 36 4 28 6 27 7 25 8 26 9 23 11 24 12 19 13
REMARK SMILES IDX 18 14 16 15 17 16 11 18 10 19 8 20 9 21 12 24 13 25 14 26
REMARK SMILES IDX 15 27 20 28 21 29 22 30 29 32 30 33 31 34 32 35 33 36 34 37
REMARK SMILES IDX 35 38 57 43 58 44 59 45 60 46 61 47 62 49 66 50 67 51 68 52
REMARK SMILES IDX 69 53 70 54 71 55 2 56 1 57 3 58 4 59 5 60 6 62 7 63 63 65
REMARK SMILES IDX 64 66 65 67 40 69 41 70 42 71 44 72 43 73 45 74 46 75 47 76
REMARK SMILES IDX 55 77 56 78 48 79 49 80 50 81 54 82 51 83 53 84 52 85
REMARK H PARENT 38 5 27 10 18 17 10 22 22 31 34 39 34 40 35 41 35 42 61 48
REMARK H PARENT 5 61 65 68
REMARK Flexibility Score:  369.900
ROOT
ATOM      1  C   UNL     1      -6.396 -11.310  12.390  1.00  0.00     0.117 C 
ENDROOT
BRANCH   1   2
ATOM      2  N   UNL     1      -6.005 -12.688  12.690  1.00  0.00    -0.347 N 
ATOM      3  O   UNL     1      -8.046 -13.442  13.421  1.00  0.00    -0.273 OA
ATOM      4  C   UNL     1      -6.886 -13.672  13.096  1.00  0.00     0.243 C 
ATOM      5  H   UNL     1      -5.047 -12.971  12.551  1.00  0.00     0.164 HD
BRANCH   4   6
ATOM      6  C   UNL     1      -6.230 -15.066  13.263  1.00  0.00     0.171 C 
BRANCH   6   7
ATOM      7  N   UNL     1      -5.830 -15.606  11.954  1.00  0.00    -0.344 N 
ATOM      8  C   UNL     1      -6.609 -16.546  11.314  1.00  0.00     0.226 C 
ATOM      9  O   UNL     1      -7.643 -16.989  11.801  1.00  0.00    -0.275 OA
ATOM     10  H   UNL     1      -4.948 -15.315  11.552  1.00  0.00     0.164 HD
BRANCH   8  11
ATOM     11  C   UNL     1      -6.091 -16.963   9.949  1.00  0.00     0.109 C 
ATOM     12  C   UNL     1      -4.667 -17.507  10.071  1.00  0.00     0.021 C 
BRANCH  11  13
ATOM     13  C   UNL     1      -7.096 -17.922   9.280  1.00  0.00     0.204 C 
BRANCH  13  14
ATOM     14  N   UNL     1      -8.360 -17.255   8.953  1.00  0.00    -0.340 N 
ATOM     15  C   UNL     1      -9.582 -17.886   9.035  1.00  0.00     0.243 C 
ATOM     16  O   UNL     1      -9.705 -19.037   9.449  1.00  0.00    -0.273 OA
ATOM     17  H   UNL     1      -8.317 -16.358   8.462  1.00  0.00     0.164 HD
BRANCH  15  18
ATOM     18  C   UNL     1     -10.748 -17.056   8.443  1.00  0.00     0.171 C 
BRANCH  18  19
ATOM     19  N   UNL     1     -11.560 -16.610   9.573  1.00  0.00    -0.343 N 
ATOM     20  C   UNL     1     -12.678 -17.308   9.988  1.00  0.00     0.242 CG0
ATOM     21  O   UNL     1     -13.117 -18.260   9.347  1.00  0.00    -0.273 OA
ATOM     22  H   UNL     1     -11.304 -15.762  10.066  1.00  0.00     0.164 HD
ATOM     23  G   UNL     1     -13.360 -16.729  11.245  1.00  0.00     0.000 G0
ENDBRANCH  18  19
BRANCH  18  24
ATOM     24  C   UNL     1     -10.211 -15.870   7.633  1.00  0.00     0.038 C 
BRANCH  24  25
ATOM     25  C   UNL     1     -10.969 -14.543   7.855  1.00  0.00    -0.015 C 
ATOM     26  C   UNL     1     -12.095 -14.336   6.842  1.00  0.00     0.007 C 
ATOM     27  C   UNL     1      -9.987 -13.371   7.781  1.00  0.00     0.007 C 
ENDBRANCH  24  25
ENDBRANCH  18  24
ENDBRANCH  15  18
ENDBRANCH  13  14
BRANCH  13  28
ATOM     28  C   UNL     1      -6.564 -18.548   7.988  1.00  0.00     0.327 C 
ATOM     29  O   UNL     1      -6.257 -19.719   7.825  1.00  0.00    -0.250 OA
BRANCH  28  30
ATOM     30  O   UNL     1      -6.340 -17.642   7.015  1.00  0.00    -0.480 OA
ATOM     31  H   UNL     1      -6.465 -16.777   7.457  1.00  0.00     0.296 HD
ENDBRANCH  28  30
ENDBRANCH  13  28
ENDBRANCH  11  13
ENDBRANCH   8  11
ENDBRANCH   6   7
BRANCH   6  32
ATOM     32  C   UNL     1      -5.021 -14.945  14.198  1.00  0.00     0.037 C 
BRANCH  32  33
ATOM     33  C   UNL     1      -3.720 -15.400  13.523  1.00  0.00     0.026 C 
BRANCH  33  34
ATOM     34  C   UNL     1      -2.813 -14.227  13.149  1.00  0.00     0.146 C 
BRANCH  34  35
ATOM     35  N   UNL     1      -3.176 -13.074  13.963  1.00  0.00    -0.254 NA
ATOM     36  C   UNL     1      -2.301 -12.585  14.759  1.00  0.00     0.185 C 
ATOM     37  N   UNL     1      -2.623 -11.520  15.510  1.00  0.00    -0.370 N 
ATOM     38  N   UNL     1      -1.037 -12.989  14.977  1.00  0.00    -0.370 N 
ATOM     39  H   UNL     1      -3.557 -11.149  15.395  1.00  0.00     0.159 HD
ATOM     40  H   UNL     1      -1.950 -10.977  16.023  1.00  0.00     0.159 HD
ATOM     41  H   UNL     1      -0.491 -12.608  15.733  1.00  0.00     0.159 HD
ATOM     42  H   UNL     1      -0.664 -13.790  14.492  1.00  0.00     0.159 HD
ENDBRANCH  34  35
ENDBRANCH  33  34
ENDBRANCH  32  33
ENDBRANCH   6  32
ENDBRANCH   4   6
ENDBRANCH   1   2
BRANCH   1  43
ATOM     43  C   UNL     1      -6.187 -11.056  10.870  1.00  0.00     0.102 C 
ATOM     44  C   UNL     1      -7.445 -11.325  10.026  1.00  0.00     0.020 C 
BRANCH  43  45
ATOM     45  C   UNL     1      -4.932 -11.771  10.360  1.00  0.00     0.225 C 
ATOM     46  O   UNL     1      -4.922 -12.952  10.026  1.00  0.00    -0.275 OA
ATOM     47  N   UNL     1      -3.775 -11.026  10.384  1.00  0.00    -0.342 N 
ATOM     48  H   UNL     1      -3.827 -10.025  10.513  1.00  0.00     0.164 HD
BRANCH  47  49
ATOM     49  C   UNL     1      -2.505 -11.568   9.893  1.00  0.00     0.192 C 
BRANCH  49  50
ATOM     50  C   UNL     1      -1.445 -11.472  10.993  1.00  0.00     0.047 C 
BRANCH  50  51
ATOM     51  C   UNL     1      -1.693 -10.289  11.939  1.00  0.00     0.103 C 
BRANCH  51  52
ATOM     52  C   UNL     1      -0.456  -9.947  12.766  1.00  0.00     0.226 C 
ATOM     53  O   UNL     1      -0.532  -9.925  13.996  1.00  0.00    -0.275 OA
BRANCH  52  54
ATOM     54  N   UNL     1       0.740  -9.748  12.052  1.00  0.00    -0.311 N 
ATOM     55  C   UNL     1       1.821 -10.742  12.095  1.00  0.00     0.153 C 
BRANCH  54  56
ATOM     56  C   UNL     1       0.943  -8.599  11.270  1.00  0.00     0.102 C 
ATOM     57  C   UNL     1       0.479  -8.427  10.022  1.00  0.00     0.043 C 
BRANCH  56  58
ATOM     58  C   UNL     1       1.693  -7.409  11.821  1.00  0.00     0.268 C 
ATOM     59  O   UNL     1       1.719  -7.126  13.011  1.00  0.00    -0.268 OA
ATOM     60  N   UNL     1       2.393  -6.719  10.860  1.00  0.00    -0.339 N 
ATOM     61  H   UNL     1       2.311  -7.011   9.894  1.00  0.00     0.164 HD
BRANCH  60  62
ATOM     62  C   UNL     1       3.237  -5.570  11.185  1.00  0.00     0.168 CG0
ATOM     63  C   UNL     1       2.432  -4.277  11.164  1.00  0.00     0.041 C 
ATOM     64  G   UNL     1       4.415  -5.497  10.192  1.00  0.00     0.000 G0
ENDBRANCH  60  62
ENDBRANCH  56  58
ENDBRANCH  54  56
ENDBRANCH  52  54
ENDBRANCH  51  52
ENDBRANCH  50  51
ENDBRANCH  49  50
BRANCH  49  65
ATOM     65  C   UNL     1      -2.014 -10.817   8.645  1.00  0.00     0.326 C 
ATOM     66  O   UNL     1      -1.214 -11.246   7.826  1.00  0.00    -0.250 OA
BRANCH  65  67
ATOM     67  O   UNL     1      -2.493  -9.560   8.519  1.00  0.00    -0.480 OA
ATOM     68  H   UNL     1      -3.208  -9.516   9.189  1.00  0.00     0.296 HD
ENDBRANCH  65  67
ENDBRANCH  49  65
ENDBRANCH  47  49
ENDBRANCH  43  45
ENDBRANCH   1  43
BRANCH   1  69
ATOM     69  C   UNL     1      -5.661 -10.434  13.388  1.00  0.00    -0.001 C 
ATOM     70  C   UNL     1      -5.380  -9.124  13.273  1.00  0.00     0.001 C 
BRANCH  70  71
ATOM     71  C   UNL     1      -4.689  -8.284  14.253  1.00  0.00    -0.055 C 
ATOM     72  C   UNL     1      -4.070  -7.173  13.801  1.00  0.00    -0.018 C 
ATOM     73  C   UNL     1      -4.724  -8.714  15.697  1.00  0.00     0.044 C 
BRANCH  72  74
ATOM     74  C   UNL     1      -3.286  -6.124  14.577  1.00  0.00     0.038 C 
ATOM     75  C   UNL     1      -4.255  -4.978  14.895  1.00  0.00     0.015 C 
BRANCH  74  76
ATOM     76  C   UNL     1      -2.038  -5.711  13.742  1.00  0.00     0.128 C 
BRANCH  76  77
ATOM     77  O   UNL     1      -0.877  -5.657  14.588  1.00  0.00    -0.381 OA
ATOM     78  C   UNL     1      -0.934  -6.547  15.694  1.00  0.00     0.195 C 
ENDBRANCH  76  77
BRANCH  76  79
ATOM     79  C   UNL     1      -1.817  -6.574  12.474  1.00  0.00     0.068 C 
BRANCH  79  80
ATOM     80  C   UNL     1      -2.036  -5.923  11.129  1.00  0.00    -0.045 A 
ATOM     81  C   UNL     1      -3.034  -6.382  10.260  1.00  0.00     0.004 A 
ATOM     82  C   UNL     1      -1.218  -4.861  10.716  1.00  0.00     0.004 A 
ATOM     83  C   UNL     1      -3.221  -5.784   9.012  1.00  0.00     0.000 A 
ATOM     84  C   UNL     1      -1.405  -4.264   9.467  1.00  0.00     0.000 A 
ATOM     85  C   UNL     1      -2.407  -4.724   8.616  1.00  0.00     0.000 A 
ENDBRANCH  79  80
ENDBRANCH  76  79
ENDBRANCH  74  76
ENDBRANCH  72  74
ENDBRANCH  70  71
ENDBRANCH   1  69
TORSDOF 17
ENDMDL
MODEL 25
REMARK VINA RESULT:    -5.829      7.631     13.087
REMARK INTER + INTRA:         -24.947
REMARK INTER:                 -17.553
REMARK INTRA:                  -7.394
REMARK UNBOUND:                -7.533
REMARK SMILES C=C1C(=O)N[C@H](C)C(=O)N[C@@H](CC(C)C)C(=O)N[C@@H](C(=O)O)[C@H](C)C(=O)N[C@@H](CCCN=C(N)N)C(=O)N[C@@H](/C=C/C(C)=C/[C@H](C)[C@H](Cc2ccccc2)OC)[C@H](C)C(=O)N[C@@H](C(=O)O)CCC(=O)N1C
REMARK SMILES IDX 39 1 38 2 37 3 36 4 28 6 27 7 25 8 26 9 23 11 24 12 19 13
REMARK SMILES IDX 18 14 16 15 17 16 11 18 10 19 8 20 9 21 12 24 13 25 14 26
REMARK SMILES IDX 15 27 20 28 21 29 22 30 29 32 30 33 31 34 32 35 33 36 34 37
REMARK SMILES IDX 35 38 57 43 58 44 59 45 60 46 61 47 62 49 66 50 67 51 68 52
REMARK SMILES IDX 69 53 70 54 71 55 2 56 1 57 3 58 4 59 5 60 6 62 7 63 63 65
REMARK SMILES IDX 64 66 65 67 40 69 41 70 42 71 44 72 43 73 45 74 46 75 47 76
REMARK SMILES IDX 55 77 56 78 48 79 49 80 50 81 54 82 51 83 53 84 52 85
REMARK H PARENT 38 5 27 10 18 17 10 22 22 31 34 39 34 40 35 41 35 42 61 48
REMARK H PARENT 5 61 65 68
REMARK Flexibility Score:  369.900
ROOT
ATOM      1  C   UNL     1      -6.182 -12.108  10.950  1.00  0.00     0.117 C 
ENDROOT
BRANCH   1   2
ATOM      2  N   UNL     1      -7.265 -12.577  10.084  1.00  0.00    -0.347 N 
ATOM      3  O   UNL     1      -7.971 -10.528   9.327  1.00  0.00    -0.273 OA
ATOM      4  C   UNL     1      -8.016 -11.752   9.269  1.00  0.00     0.243 C 
ATOM      5  H   UNL     1      -7.459 -13.565  10.027  1.00  0.00     0.164 HD
BRANCH   4   6
ATOM      6  C   UNL     1      -9.041 -12.512   8.388  1.00  0.00     0.171 C 
BRANCH   6   7
ATOM      7  N   UNL     1      -8.992 -12.019   7.002  1.00  0.00    -0.344 N 
ATOM      8  C   UNL     1     -10.117 -11.495   6.403  1.00  0.00     0.226 C 
ATOM      9  O   UNL     1     -11.200 -11.434   6.972  1.00  0.00    -0.275 OA
ATOM     10  H   UNL     1      -8.132 -12.116   6.477  1.00  0.00     0.164 HD
BRANCH   8  11
ATOM     11  C   UNL     1      -9.892 -10.981   4.992  1.00  0.00     0.109 C 
ATOM     12  C   UNL     1      -8.463 -11.285   4.543  1.00  0.00     0.021 C 
BRANCH  11  13
ATOM     13  C   UNL     1     -10.994 -11.522   4.058  1.00  0.00     0.204 C 
BRANCH  13  14
ATOM     14  N   UNL     1     -12.266 -10.815   4.239  1.00  0.00    -0.340 N 
ATOM     15  C   UNL     1     -13.490 -11.438   4.127  1.00  0.00     0.243 C 
ATOM     16  O   UNL     1     -13.601 -12.646   3.927  1.00  0.00    -0.273 OA
ATOM     17  H   UNL     1     -12.249  -9.792   4.256  1.00  0.00     0.164 HD
BRANCH  15  18
ATOM     18  C   UNL     1     -14.688 -10.457   4.150  1.00  0.00     0.171 C 
BRANCH  18  19
ATOM     19  N   UNL     1     -15.725 -11.081   4.970  1.00  0.00    -0.343 N 
ATOM     20  C   UNL     1     -16.853 -11.648   4.410  1.00  0.00     0.242 CG0
ATOM     21  O   UNL     1     -17.102 -11.537   3.212  1.00  0.00    -0.273 OA
ATOM     22  H   UNL     1     -15.620 -11.096   5.978  1.00  0.00     0.164 HD
ATOM     23  G   UNL     1     -17.795 -12.328   5.425  1.00  0.00     0.000 G0
ENDBRANCH  18  19
BRANCH  18  24
ATOM     24  C   UNL     1     -14.263  -9.098   4.721  1.00  0.00     0.038 C 
BRANCH  24  25
ATOM     25  C   UNL     1     -15.201  -8.535   5.810  1.00  0.00    -0.015 C 
ATOM     26  C   UNL     1     -15.615  -7.089   5.536  1.00  0.00     0.007 C 
ATOM     27  C   UNL     1     -14.514  -8.624   7.176  1.00  0.00     0.007 C 
ENDBRANCH  24  25
ENDBRANCH  18  24
ENDBRANCH  15  18
ENDBRANCH  13  14
BRANCH  13  28
ATOM     28  C   UNL     1     -10.628 -11.425   2.574  1.00  0.00     0.327 C 
ATOM     29  O   UNL     1     -10.224 -12.336   1.868  1.00  0.00    -0.250 OA
BRANCH  28  30
ATOM     30  O   UNL     1     -10.678 -10.164   2.098  1.00  0.00    -0.480 OA
ATOM     31  H   UNL     1      -9.914  -9.717   2.518  1.00  0.00     0.296 HD
ENDBRANCH  28  30
ENDBRANCH  13  28
ENDBRANCH  11  13
ENDBRANCH   8  11
ENDBRANCH   6   7
BRANCH   6  32
ATOM     32  C   UNL     1      -8.739 -14.013   8.447  1.00  0.00     0.037 C 
BRANCH  32  33
ATOM     33  C   UNL     1      -9.653 -14.824   7.516  1.00  0.00     0.026 C 
BRANCH  33  34
ATOM     34  C   UNL     1     -11.083 -14.930   8.047  1.00  0.00     0.146 C 
BRANCH  34  35
ATOM     35  N   UNL     1     -11.938 -15.453   6.991  1.00  0.00    -0.254 NA
ATOM     36  C   UNL     1     -12.941 -14.754   6.609  1.00  0.00     0.185 C 
ATOM     37  N   UNL     1     -13.733 -15.224   5.634  1.00  0.00    -0.370 N 
ATOM     38  N   UNL     1     -13.351 -13.552   7.054  1.00  0.00    -0.370 N 
ATOM     39  H   UNL     1     -13.483 -16.122   5.239  1.00  0.00     0.159 HD
ATOM     40  H   UNL     1     -14.426 -14.668   5.163  1.00  0.00     0.159 HD
ATOM     41  H   UNL     1     -14.237 -13.167   6.770  1.00  0.00     0.159 HD
ATOM     42  H   UNL     1     -12.858 -13.086   7.799  1.00  0.00     0.159 HD
ENDBRANCH  34  35
ENDBRANCH  33  34
ENDBRANCH  32  33
ENDBRANCH   6  32
ENDBRANCH   4   6
ENDBRANCH   1   2
BRANCH   1  43
ATOM     43  C   UNL     1      -4.912 -11.889  10.079  1.00  0.00     0.102 C 
ATOM     44  C   UNL     1      -3.987 -13.117  10.026  1.00  0.00     0.020 C 
BRANCH  43  45
ATOM     45  C   UNL     1      -4.198 -10.590  10.464  1.00  0.00     0.225 C 
ATOM     46  O   UNL     1      -4.704  -9.736  11.187  1.00  0.00    -0.275 OA
ATOM     47  N   UNL     1      -2.974 -10.387   9.869  1.00  0.00    -0.342 N 
ATOM     48  H   UNL     1      -2.510 -11.156   9.405  1.00  0.00     0.164 HD
BRANCH  47  49
ATOM     49  C   UNL     1      -2.161  -9.205  10.171  1.00  0.00     0.192 C 
BRANCH  49  50
ATOM     50  C   UNL     1      -2.514  -8.076   9.200  1.00  0.00     0.047 C 
BRANCH  50  51
ATOM     51  C   UNL     1      -3.237  -6.915   9.895  1.00  0.00     0.103 C 
BRANCH  51  52
ATOM     52  C   UNL     1      -2.440  -5.614   9.817  1.00  0.00     0.226 C 
ATOM     53  O   UNL     1      -2.426  -4.969   8.767  1.00  0.00    -0.275 OA
BRANCH  52  54
ATOM     54  N   UNL     1      -1.818  -5.188  11.005  1.00  0.00    -0.311 N 
ATOM     55  C   UNL     1      -2.613  -4.772  12.168  1.00  0.00     0.153 C 
BRANCH  54  56
ATOM     56  C   UNL     1      -0.419  -5.151  11.127  1.00  0.00     0.102 C 
ATOM     57  C   UNL     1       0.354  -4.104  10.794  1.00  0.00     0.043 C 
BRANCH  56  58
ATOM     58  C   UNL     1       0.340  -6.321  11.707  1.00  0.00     0.268 C 
ATOM     59  O   UNL     1      -0.130  -7.072  12.551  1.00  0.00    -0.268 OA
ATOM     60  N   UNL     1       1.582  -6.492  11.143  1.00  0.00    -0.339 N 
ATOM     61  H   UNL     1       1.903  -5.820  10.457  1.00  0.00     0.164 HD
BRANCH  60  62
ATOM     62  C   UNL     1       2.460  -7.602  11.514  1.00  0.00     0.168 CG0
ATOM     63  C   UNL     1       3.465  -7.173  12.576  1.00  0.00     0.041 C 
ATOM     64  G   UNL     1       3.184  -8.130  10.259  1.00  0.00     0.000 G0
ENDBRANCH  60  62
ENDBRANCH  56  58
ENDBRANCH  54  56
ENDBRANCH  52  54
ENDBRANCH  51  52
ENDBRANCH  50  51
ENDBRANCH  49  50
BRANCH  49  65
ATOM     65  C   UNL     1      -0.658  -9.510  10.073  1.00  0.00     0.326 C 
ATOM     66  O   UNL     1      -0.071 -10.392  10.682  1.00  0.00    -0.250 OA
BRANCH  65  67
ATOM     67  O   UNL     1       0.037  -8.670   9.275  1.00  0.00    -0.480 OA
ATOM     68  H   UNL     1       0.200  -7.890   9.847  1.00  0.00     0.296 HD
ENDBRANCH  65  67
ENDBRANCH  49  65
ENDBRANCH  47  49
ENDBRANCH  43  45
ENDBRANCH   1  43
BRANCH   1  69
ATOM     69  C   UNL     1      -6.116 -13.082  12.111  1.00  0.00    -0.001 C 
ATOM     70  C   UNL     1      -5.558 -12.879  13.318  1.00  0.00     0.001 C 
BRANCH  70  71
ATOM     71  C   UNL     1      -5.519 -13.819  14.439  1.00  0.00    -0.055 C 
ATOM     72  C   UNL     1      -4.674 -14.868  14.350  1.00  0.00    -0.018 C 
ATOM     73  C   UNL     1      -6.419 -13.546  15.616  1.00  0.00     0.044 C 
BRANCH  72  74
ATOM     74  C   UNL     1      -4.421 -15.989  15.348  1.00  0.00     0.038 C 
ATOM     75  C   UNL     1      -3.399 -15.467  16.365  1.00  0.00     0.015 C 
BRANCH  74  76
ATOM     76  C   UNL     1      -3.976 -17.262  14.569  1.00  0.00     0.128 C 
BRANCH  76  77
ATOM     77  O   UNL     1      -3.324 -18.180  15.462  1.00  0.00    -0.381 OA
ATOM     78  C   UNL     1      -2.168 -18.793  14.907  1.00  0.00     0.195 C 
ENDBRANCH  76  77
BRANCH  76  79
ATOM     79  C   UNL     1      -5.110 -17.926  13.749  1.00  0.00     0.068 C 
BRANCH  79  80
ATOM     80  C   UNL     1      -5.399 -17.380  12.372  1.00  0.00    -0.045 A 
ATOM     81  C   UNL     1      -4.375 -17.217  11.429  1.00  0.00     0.004 A 
ATOM     82  C   UNL     1      -6.704 -16.998  12.022  1.00  0.00     0.004 A 
ATOM     83  C   UNL     1      -4.649 -16.698  10.162  1.00  0.00     0.000 A 
ATOM     84  C   UNL     1      -6.976 -16.479  10.755  1.00  0.00     0.000 A 
ATOM     85  C   UNL     1      -5.950 -16.330   9.825  1.00  0.00     0.000 A 
ENDBRANCH  79  80
ENDBRANCH  76  79
ENDBRANCH  74  76
ENDBRANCH  72  74
ENDBRANCH  70  71
ENDBRANCH   1  69
TORSDOF 17
ENDMDL
MODEL 26
REMARK VINA RESULT:    -5.819     20.934     24.856
REMARK INTER + INTRA:         -24.919
REMARK INTER:                 -18.422
REMARK INTRA:                  -6.496
REMARK UNBOUND:                -7.533
REMARK SMILES C=C1C(=O)N[C@H](C)C(=O)N[C@@H](CC(C)C)C(=O)N[C@@H](C(=O)O)[C@H](C)C(=O)N[C@@H](CCCN=C(N)N)C(=O)N[C@@H](/C=C/C(C)=C/[C@H](C)[C@H](Cc2ccccc2)OC)[C@H](C)C(=O)N[C@@H](C(=O)O)CCC(=O)N1C
REMARK SMILES IDX 39 1 38 2 37 3 36 4 28 6 27 7 25 8 26 9 23 11 24 12 19 13
REMARK SMILES IDX 18 14 16 15 17 16 11 18 10 19 8 20 9 21 12 24 13 25 14 26
REMARK SMILES IDX 15 27 20 28 21 29 22 30 29 32 30 33 31 34 32 35 33 36 34 37
REMARK SMILES IDX 35 38 57 43 58 44 59 45 60 46 61 47 62 49 66 50 67 51 68 52
REMARK SMILES IDX 69 53 70 54 71 55 2 56 1 57 3 58 4 59 5 60 6 62 7 63 63 65
REMARK SMILES IDX 64 66 65 67 40 69 41 70 42 71 44 72 43 73 45 74 46 75 47 76
REMARK SMILES IDX 55 77 56 78 48 79 49 80 50 81 54 82 51 83 53 84 52 85
REMARK H PARENT 38 5 27 10 18 17 10 22 22 31 34 39 34 40 35 41 35 42 61 48
REMARK H PARENT 5 61 65 68
REMARK Flexibility Score:  369.900
ROOT
ATOM      1  C   UNL     1       3.361   2.813   7.499  1.00  0.00     0.117 C 
ENDROOT
BRANCH   1   2
ATOM      2  N   UNL     1       4.752   2.927   7.058  1.00  0.00    -0.347 N 
ATOM      3  O   UNL     1       4.357   3.029   4.799  1.00  0.00    -0.273 OA
ATOM      4  C   UNL     1       5.133   3.118   5.744  1.00  0.00     0.243 C 
ATOM      5  H   UNL     1       5.491   2.916   7.744  1.00  0.00     0.164 HD
BRANCH   4   6
ATOM      6  C   UNL     1       6.662   3.293   5.558  1.00  0.00     0.171 C 
BRANCH   6   7
ATOM      7  N   UNL     1       6.949   4.485   4.744  1.00  0.00    -0.344 N 
ATOM      8  C   UNL     1       7.624   4.374   3.548  1.00  0.00     0.226 C 
ATOM      9  O   UNL     1       8.033   3.303   3.118  1.00  0.00    -0.275 OA
ATOM     10  H   UNL     1       6.686   5.396   5.099  1.00  0.00     0.164 HD
BRANCH   8  11
ATOM     11  C   UNL     1       7.793   5.686   2.801  1.00  0.00     0.109 C 
ATOM     12  C   UNL     1       8.599   6.672   3.647  1.00  0.00     0.021 C 
BRANCH  11  13
ATOM     13  C   UNL     1       8.368   5.416   1.396  1.00  0.00     0.204 C 
BRANCH  13  14
ATOM     14  N   UNL     1       7.335   4.978   0.453  1.00  0.00    -0.340 N 
ATOM     15  C   UNL     1       7.410   3.789  -0.241  1.00  0.00     0.243 C 
ATOM     16  O   UNL     1       8.321   2.981  -0.070  1.00  0.00    -0.273 OA
ATOM     17  H   UNL     1       6.636   5.663   0.154  1.00  0.00     0.164 HD
BRANCH  15  18
ATOM     18  C   UNL     1       6.318   3.637  -1.328  1.00  0.00     0.171 C 
BRANCH  18  19
ATOM     19  N   UNL     1       6.537   2.339  -1.963  1.00  0.00    -0.343 N 
ATOM     20  C   UNL     1       6.691   2.213  -3.330  1.00  0.00     0.242 CG0
ATOM     21  O   UNL     1       6.520   3.165  -4.087  1.00  0.00    -0.273 OA
ATOM     22  H   UNL     1       6.571   1.504  -1.389  1.00  0.00     0.164 HD
ATOM     23  G   UNL     1       6.992   0.777  -3.807  1.00  0.00     0.000 G0
ENDBRANCH  18  19
BRANCH  18  24
ATOM     24  C   UNL     1       4.919   3.731  -0.708  1.00  0.00     0.038 C 
BRANCH  24  25
ATOM     25  C   UNL     1       4.901   3.809   0.834  1.00  0.00    -0.015 C 
ATOM     26  C   UNL     1       4.238   2.589   1.474  1.00  0.00     0.007 C 
ATOM     27  C   UNL     1       4.175   5.082   1.277  1.00  0.00     0.007 C 
ENDBRANCH  24  25
ENDBRANCH  18  24
ENDBRANCH  15  18
ENDBRANCH  13  14
BRANCH  13  28
ATOM     28  C   UNL     1       9.057   6.637   0.781  1.00  0.00     0.327 C 
ATOM     29  O   UNL     1      10.251   6.755   0.553  1.00  0.00    -0.250 OA
BRANCH  28  30
ATOM     30  O   UNL     1       8.221   7.680   0.599  1.00  0.00    -0.480 OA
ATOM     31  H   UNL     1       8.813   8.459   0.553  1.00  0.00     0.296 HD
ENDBRANCH  28  30
ENDBRANCH  13  28
ENDBRANCH  11  13
ENDBRANCH   8  11
ENDBRANCH   6   7
BRANCH   6  32
ATOM     32  C   UNL     1       7.328   3.396   6.934  1.00  0.00     0.037 C 
BRANCH  32  33
ATOM     33  C   UNL     1       7.851   4.811   7.220  1.00  0.00     0.026 C 
BRANCH  33  34
ATOM     34  C   UNL     1       8.856   4.842   8.372  1.00  0.00     0.146 C 
BRANCH  34  35
ATOM     35  N   UNL     1       8.170   5.270   9.583  1.00  0.00    -0.254 NA
ATOM     36  C   UNL     1       7.911   4.397  10.483  1.00  0.00     0.185 C 
ATOM     37  N   UNL     1       7.283   4.781  11.606  1.00  0.00    -0.370 N 
ATOM     38  N   UNL     1       8.184   3.080  10.487  1.00  0.00    -0.370 N 
ATOM     39  H   UNL     1       7.052   5.763  11.683  1.00  0.00     0.159 HD
ATOM     40  H   UNL     1       7.201   4.201  12.423  1.00  0.00     0.159 HD
ATOM     41  H   UNL     1       7.805   2.471  11.193  1.00  0.00     0.159 HD
ATOM     42  H   UNL     1       8.640   2.649   9.698  1.00  0.00     0.159 HD
ENDBRANCH  34  35
ENDBRANCH  33  34
ENDBRANCH  32  33
ENDBRANCH   6  32
ENDBRANCH   4   6
ENDBRANCH   1   2
BRANCH   1  43
ATOM     43  C   UNL     1       3.015   4.055   8.370  1.00  0.00     0.102 C 
ATOM     44  C   UNL     1       3.546   5.377   7.790  1.00  0.00     0.020 C 
BRANCH  43  45
ATOM     45  C   UNL     1       3.397   3.822   9.835  1.00  0.00     0.225 C 
ATOM     46  O   UNL     1       4.554   3.873  10.244  1.00  0.00    -0.275 OA
ATOM     47  N   UNL     1       2.363   3.454  10.665  1.00  0.00    -0.342 N 
ATOM     48  H   UNL     1       1.408   3.564  10.354  1.00  0.00     0.164 HD
BRANCH  47  49
ATOM     49  C   UNL     1       2.573   3.233  12.099  1.00  0.00     0.192 C 
BRANCH  49  50
ATOM     50  C   UNL     1       2.719   1.734  12.373  1.00  0.00     0.047 C 
BRANCH  50  51
ATOM     51  C   UNL     1       3.957   1.416  13.222  1.00  0.00     0.103 C 
BRANCH  51  52
ATOM     52  C   UNL     1       3.726   1.705  14.704  1.00  0.00     0.226 C 
ATOM     53  O   UNL     1       2.887   1.054  15.329  1.00  0.00    -0.275 OA
BRANCH  52  54
ATOM     54  N   UNL     1       4.563   2.672  15.292  1.00  0.00    -0.311 N 
ATOM     55  C   UNL     1       5.915   2.324  15.749  1.00  0.00     0.153 C 
BRANCH  54  56
ATOM     56  C   UNL     1       4.141   4.001  15.459  1.00  0.00     0.102 C 
ATOM     57  C   UNL     1       4.562   5.040  14.718  1.00  0.00     0.043 C 
BRANCH  56  58
ATOM     58  C   UNL     1       3.105   4.362  16.498  1.00  0.00     0.268 C 
ATOM     59  O   UNL     1       3.390   4.821  17.596  1.00  0.00    -0.268 OA
ATOM     60  N   UNL     1       1.815   4.183  16.059  1.00  0.00    -0.339 N 
ATOM     61  H   UNL     1       1.663   3.788  15.139  1.00  0.00     0.164 HD
BRANCH  60  62
ATOM     62  C   UNL     1       0.658   4.530  16.883  1.00  0.00     0.168 CG0
ATOM     63  C   UNL     1       0.083   3.295  17.566  1.00  0.00     0.041 C 
ATOM     64  G   UNL     1      -0.412   5.217  16.009  1.00  0.00     0.000 G0
ENDBRANCH  60  62
ENDBRANCH  56  58
ENDBRANCH  54  56
ENDBRANCH  52  54
ENDBRANCH  51  52
ENDBRANCH  50  51
ENDBRANCH  49  50
BRANCH  49  65
ATOM     65  C   UNL     1       1.410   3.792  12.935  1.00  0.00     0.326 C 
ATOM     66  O   UNL     1       0.527   3.127  13.457  1.00  0.00    -0.250 OA
BRANCH  65  67
ATOM     67  O   UNL     1       1.377   5.139  13.024  1.00  0.00    -0.480 OA
ATOM     68  H   UNL     1       0.423   5.354  12.932  1.00  0.00     0.296 HD
ENDBRANCH  65  67
ENDBRANCH  49  65
ENDBRANCH  47  49
ENDBRANCH  43  45
ENDBRANCH   1  43
BRANCH   1  69
ATOM     69  C   UNL     1       3.221   1.429   8.105  1.00  0.00    -0.001 C 
ATOM     70  C   UNL     1       4.201   0.643   8.584  1.00  0.00     0.001 C 
BRANCH  70  71
ATOM     71  C   UNL     1       4.050  -0.682   9.187  1.00  0.00    -0.055 C 
ATOM     72  C   UNL     1       5.153  -1.455   9.289  1.00  0.00    -0.018 C 
ATOM     73  C   UNL     1       2.678  -1.088   9.659  1.00  0.00     0.044 C 
BRANCH  72  74
ATOM     74  C   UNL     1       5.297  -2.856   9.865  1.00  0.00     0.038 C 
ATOM     75  C   UNL     1       5.630  -2.700  11.354  1.00  0.00     0.015 C 
BRANCH  74  76
ATOM     76  C   UNL     1       6.363  -3.631   9.036  1.00  0.00     0.128 C 
BRANCH  76  77
ATOM     77  O   UNL     1       6.469  -4.983   9.515  1.00  0.00    -0.381 OA
ATOM     78  C   UNL     1       6.041  -5.957   8.573  1.00  0.00     0.195 C 
ENDBRANCH  76  77
BRANCH  76  79
ATOM     79  C   UNL     1       6.147  -3.553   7.504  1.00  0.00     0.068 C 
BRANCH  79  80
ATOM     80  C   UNL     1       7.235  -2.925   6.667  1.00  0.00    -0.045 A 
ATOM     81  C   UNL     1       8.363  -3.661   6.279  1.00  0.00     0.004 A 
ATOM     82  C   UNL     1       7.146  -1.578   6.287  1.00  0.00     0.004 A 
ATOM     83  C   UNL     1       9.372  -3.069   5.518  1.00  0.00     0.000 A 
ATOM     84  C   UNL     1       8.157  -0.986   5.525  1.00  0.00     0.000 A 
ATOM     85  C   UNL     1       9.268  -1.732   5.140  1.00  0.00     0.000 A 
ENDBRANCH  79  80
ENDBRANCH  76  79
ENDBRANCH  74  76
ENDBRANCH  72  74
ENDBRANCH  70  71
ENDBRANCH   1  69
TORSDOF 17
ENDMDL
MODEL 27
REMARK VINA RESULT:    -5.810      2.639      6.377
REMARK INTER + INTRA:         -24.889
REMARK INTER:                 -19.406
REMARK INTRA:                  -5.484
REMARK UNBOUND:                -7.533
REMARK SMILES C=C1C(=O)N[C@H](C)C(=O)N[C@@H](CC(C)C)C(=O)N[C@@H](C(=O)O)[C@H](C)C(=O)N[C@@H](CCCN=C(N)N)C(=O)N[C@@H](/C=C/C(C)=C/[C@H](C)[C@H](Cc2ccccc2)OC)[C@H](C)C(=O)N[C@@H](C(=O)O)CCC(=O)N1C
REMARK SMILES IDX 39 1 38 2 37 3 36 4 28 6 27 7 25 8 26 9 23 11 24 12 19 13
REMARK SMILES IDX 18 14 16 15 17 16 11 18 10 19 8 20 9 21 12 24 13 25 14 26
REMARK SMILES IDX 15 27 20 28 21 29 22 30 29 32 30 33 31 34 32 35 33 36 34 37
REMARK SMILES IDX 35 38 57 43 58 44 59 45 60 46 61 47 62 49 66 50 67 51 68 52
REMARK SMILES IDX 69 53 70 54 71 55 2 56 1 57 3 58 4 59 5 60 6 62 7 63 63 65
REMARK SMILES IDX 64 66 65 67 40 69 41 70 42 71 44 72 43 73 45 74 46 75 47 76
REMARK SMILES IDX 55 77 56 78 48 79 49 80 50 81 54 82 51 83 53 84 52 85
REMARK H PARENT 38 5 27 10 18 17 10 22 22 31 34 39 34 40 35 41 35 42 61 48
REMARK H PARENT 5 61 65 68
REMARK Flexibility Score:  369.900
ROOT
ATOM      1  C   UNL     1     -14.090  -9.813   1.505  1.00  0.00     0.117 C 
ENDROOT
BRANCH   1   2
ATOM      2  N   UNL     1     -14.326 -10.111   2.918  1.00  0.00    -0.347 N 
ATOM      3  O   UNL     1     -13.774  -8.051   3.768  1.00  0.00    -0.273 OA
ATOM      4  C   UNL     1     -14.236  -9.176   3.931  1.00  0.00     0.243 C 
ATOM      5  H   UNL     1     -14.620 -11.038   3.185  1.00  0.00     0.164 HD
BRANCH   4   6
ATOM      6  C   UNL     1     -14.620  -9.730   5.326  1.00  0.00     0.171 C 
BRANCH   6   7
ATOM      7  N   UNL     1     -13.868 -10.961   5.615  1.00  0.00    -0.344 N 
ATOM      8  C   UNL     1     -12.837 -10.957   6.530  1.00  0.00     0.226 C 
ATOM      9  O   UNL     1     -12.484  -9.944   7.122  1.00  0.00    -0.275 OA
ATOM     10  H   UNL     1     -14.086 -11.803   5.096  1.00  0.00     0.164 HD
BRANCH   8  11
ATOM     11  C   UNL     1     -12.196 -12.315   6.757  1.00  0.00     0.109 C 
ATOM     12  C   UNL     1     -13.212 -13.426   6.494  1.00  0.00     0.021 C 
BRANCH  11  13
ATOM     13  C   UNL     1     -10.894 -12.421   5.938  1.00  0.00     0.204 C 
BRANCH  13  14
ATOM     14  N   UNL     1     -10.524 -13.813   5.668  1.00  0.00    -0.340 N 
ATOM     15  C   UNL     1      -9.700 -14.543   6.497  1.00  0.00     0.243 C 
ATOM     16  O   UNL     1      -9.264 -14.096   7.556  1.00  0.00    -0.273 OA
ATOM     17  H   UNL     1     -10.724 -14.192   4.738  1.00  0.00     0.164 HD
BRANCH  15  18
ATOM     18  C   UNL     1      -9.282 -15.912   5.905  1.00  0.00     0.171 C 
BRANCH  18  19
ATOM     19  N   UNL     1     -10.495 -16.725   5.835  1.00  0.00    -0.343 N 
ATOM     20  C   UNL     1     -10.833 -17.618   6.833  1.00  0.00     0.242 CG0
ATOM     21  O   UNL     1     -10.066 -17.867   7.760  1.00  0.00    -0.273 OA
ATOM     22  H   UNL     1     -11.105 -16.639   5.030  1.00  0.00     0.164 HD
ATOM     23  G   UNL     1     -12.187 -18.327   6.622  1.00  0.00     0.000 G0
ENDBRANCH  18  19
BRANCH  18  24
ATOM     24  C   UNL     1      -8.645 -15.733   4.522  1.00  0.00     0.038 C 
BRANCH  24  25
ATOM     25  C   UNL     1      -7.194 -16.246   4.410  1.00  0.00    -0.015 C 
ATOM     26  C   UNL     1      -7.016 -17.257   3.277  1.00  0.00     0.007 C 
ATOM     27  C   UNL     1      -6.767 -16.879   5.737  1.00  0.00     0.007 C 
ENDBRANCH  24  25
ENDBRANCH  18  24
ENDBRANCH  15  18
ENDBRANCH  13  14
BRANCH  13  28
ATOM     28  C   UNL     1     -10.969 -11.701   4.589  1.00  0.00     0.327 C 
ATOM     29  O   UNL     1     -10.900 -10.495   4.408  1.00  0.00    -0.250 OA
BRANCH  28  30
ATOM     30  O   UNL     1     -11.244 -12.530   3.562  1.00  0.00    -0.480 OA
ATOM     31  H   UNL     1     -11.082 -13.426   3.925  1.00  0.00     0.296 HD
ENDBRANCH  28  30
ENDBRANCH  13  28
ENDBRANCH  11  13
ENDBRANCH   8  11
ENDBRANCH   6   7
BRANCH   6  32
ATOM     32  C   UNL     1     -14.343  -8.658   6.387  1.00  0.00     0.037 C 
BRANCH  32  33
ATOM     33  C   UNL     1     -15.455  -7.601   6.446  1.00  0.00     0.026 C 
BRANCH  33  34
ATOM     34  C   UNL     1     -14.920  -6.179   6.273  1.00  0.00     0.146 C 
BRANCH  34  35
ATOM     35  N   UNL     1     -15.927  -5.378   5.592  1.00  0.00    -0.254 NA
ATOM     36  C   UNL     1     -16.145  -4.185   6.004  1.00  0.00     0.185 C 
ATOM     37  N   UNL     1     -17.068  -3.436   5.381  1.00  0.00    -0.370 N 
ATOM     38  N   UNL     1     -15.564  -3.522   7.020  1.00  0.00    -0.370 N 
ATOM     39  H   UNL     1     -17.544  -3.862   4.596  1.00  0.00     0.159 HD
ATOM     40  H   UNL     1     -17.173  -2.446   5.528  1.00  0.00     0.159 HD
ATOM     41  H   UNL     1     -15.920  -2.635   7.335  1.00  0.00     0.159 HD
ATOM     42  H   UNL     1     -14.861  -3.970   7.588  1.00  0.00     0.159 HD
ENDBRANCH  34  35
ENDBRANCH  33  34
ENDBRANCH  32  33
ENDBRANCH   6  32
ENDBRANCH   4   6
ENDBRANCH   1   2
BRANCH   1  43
ATOM     43  C   UNL     1     -15.424 -10.009   0.728  1.00  0.00     0.102 C 
ATOM     44  C   UNL     1     -16.320  -8.759   0.727  1.00  0.00     0.020 C 
BRANCH  43  45
ATOM     45  C   UNL     1     -16.139 -11.286   1.177  1.00  0.00     0.225 C 
ATOM     46  O   UNL     1     -17.097 -11.284   1.944  1.00  0.00    -0.275 OA
ATOM     47  N   UNL     1     -15.579 -12.464   0.737  1.00  0.00    -0.342 N 
ATOM     48  H   UNL     1     -14.895 -12.446  -0.006  1.00  0.00     0.164 HD
BRANCH  47  49
ATOM     49  C   UNL     1     -16.178 -13.764   1.059  1.00  0.00     0.192 C 
BRANCH  49  50
ATOM     50  C   UNL     1     -15.072 -14.800   1.274  1.00  0.00     0.047 C 
BRANCH  50  51
ATOM     51  C   UNL     1     -13.913 -14.249   2.116  1.00  0.00     0.103 C 
BRANCH  51  52
ATOM     52  C   UNL     1     -13.428 -15.258   3.155  1.00  0.00     0.226 C 
ATOM     53  O   UNL     1     -12.268 -15.200   3.566  1.00  0.00    -0.275 OA
BRANCH  52  54
ATOM     54  N   UNL     1     -14.387 -16.166   3.642  1.00  0.00    -0.311 N 
ATOM     55  C   UNL     1     -15.602 -15.692   4.317  1.00  0.00     0.153 C 
BRANCH  54  56
ATOM     56  C   UNL     1     -14.222 -17.553   3.497  1.00  0.00     0.102 C 
ATOM     57  C   UNL     1     -14.480 -18.245   2.375  1.00  0.00     0.043 C 
BRANCH  56  58
ATOM     58  C   UNL     1     -13.676 -18.391   4.629  1.00  0.00     0.268 C 
ATOM     59  O   UNL     1     -13.883 -19.593   4.733  1.00  0.00    -0.268 OA
ATOM     60  N   UNL     1     -12.873 -17.681   5.489  1.00  0.00    -0.339 N 
ATOM     61  H   UNL     1     -12.760 -16.685   5.340  1.00  0.00     0.164 HD
BRANCH  60  62
ATOM     62  C   UNL     1     -12.191 -18.311   6.619  1.00  0.00     0.168 CG0
ATOM     63  C   UNL     1     -13.039 -18.232   7.882  1.00  0.00     0.041 C 
ATOM     64  G   UNL     1     -10.821 -17.637   6.838  1.00  0.00     0.000 G0
ENDBRANCH  60  62
ENDBRANCH  56  58
ENDBRANCH  54  56
ENDBRANCH  52  54
ENDBRANCH  51  52
ENDBRANCH  50  51
ENDBRANCH  49  50
BRANCH  49  65
ATOM     65  C   UNL     1     -17.118 -14.246  -0.057  1.00  0.00     0.326 C 
ATOM     66  O   UNL     1     -18.334 -14.333   0.027  1.00  0.00    -0.250 OA
BRANCH  65  67
ATOM     67  O   UNL     1     -16.493 -14.649  -1.186  1.00  0.00    -0.480 OA
ATOM     68  H   UNL     1     -16.241 -13.807  -1.623  1.00  0.00     0.296 HD
ENDBRANCH  65  67
ENDBRANCH  49  65
ENDBRANCH  47  49
ENDBRANCH  43  45
ENDBRANCH   1  43
BRANCH   1  69
ATOM     69  C   UNL     1     -12.877 -10.628   1.096  1.00  0.00    -0.001 C 
ATOM     70  C   UNL     1     -11.711 -10.170   0.606  1.00  0.00     0.001 C 
BRANCH  70  71
ATOM     71  C   UNL     1     -10.539 -10.965   0.235  1.00  0.00    -0.055 C 
ATOM     72  C   UNL     1     -10.711 -12.292   0.060  1.00  0.00    -0.018 C 
ATOM     73  C   UNL     1      -9.227 -10.245   0.067  1.00  0.00     0.044 C 
BRANCH  72  74
ATOM     74  C   UNL     1      -9.690 -13.353  -0.324  1.00  0.00     0.038 C 
ATOM     75  C   UNL     1      -8.591 -13.333   0.745  1.00  0.00     0.015 C 
BRANCH  74  76
ATOM     76  C   UNL     1      -9.196 -13.071  -1.774  1.00  0.00     0.128 C 
BRANCH  76  77
ATOM     77  O   UNL     1      -8.475 -14.209  -2.277  1.00  0.00    -0.381 OA
ATOM     78  C   UNL     1      -7.142 -13.911  -2.672  1.00  0.00     0.195 C 
ENDBRANCH  76  77
BRANCH  76  79
ATOM     79  C   UNL     1     -10.311 -12.594  -2.737  1.00  0.00     0.068 C 
BRANCH  79  80
ATOM     80  C   UNL     1      -9.933 -12.309  -4.171  1.00  0.00    -0.045 A 
ATOM     81  C   UNL     1     -10.306 -13.180  -5.203  1.00  0.00     0.004 A 
ATOM     82  C   UNL     1      -9.172 -11.174  -4.489  1.00  0.00     0.004 A 
ATOM     83  C   UNL     1      -9.940 -12.917  -6.524  1.00  0.00     0.000 A 
ATOM     84  C   UNL     1      -8.806 -10.911  -5.811  1.00  0.00     0.000 A 
ATOM     85  C   UNL     1      -9.191 -11.782  -6.828  1.00  0.00     0.000 A 
ENDBRANCH  79  80
ENDBRANCH  76  79
ENDBRANCH  74  76
ENDBRANCH  72  74
ENDBRANCH  70  71
ENDBRANCH   1  69
TORSDOF 17
ENDMDL
MODEL 28
REMARK VINA RESULT:    -5.797     15.306     20.886
REMARK INTER + INTRA:         -24.852
REMARK INTER:                 -18.519
REMARK INTRA:                  -6.333
REMARK UNBOUND:                -7.533
REMARK SMILES C=C1C(=O)N[C@H](C)C(=O)N[C@@H](CC(C)C)C(=O)N[C@@H](C(=O)O)[C@H](C)C(=O)N[C@@H](CCCN=C(N)N)C(=O)N[C@@H](/C=C/C(C)=C/[C@H](C)[C@H](Cc2ccccc2)OC)[C@H](C)C(=O)N[C@@H](C(=O)O)CCC(=O)N1C
REMARK SMILES IDX 39 1 38 2 37 3 36 4 28 6 27 7 25 8 26 9 23 11 24 12 19 13
REMARK SMILES IDX 18 14 16 15 17 16 11 18 10 19 8 20 9 21 12 24 13 25 14 26
REMARK SMILES IDX 15 27 20 28 21 29 22 30 29 32 30 33 31 34 32 35 33 36 34 37
REMARK SMILES IDX 35 38 57 43 58 44 59 45 60 46 61 47 62 49 66 50 67 51 68 52
REMARK SMILES IDX 69 53 70 54 71 55 2 56 1 57 3 58 4 59 5 60 6 62 7 63 63 65
REMARK SMILES IDX 64 66 65 67 40 69 41 70 42 71 44 72 43 73 45 74 46 75 47 76
REMARK SMILES IDX 55 77 56 78 48 79 49 80 50 81 54 82 51 83 53 84 52 85
REMARK H PARENT 38 5 27 10 18 17 10 22 22 31 34 39 34 40 35 41 35 42 61 48
REMARK H PARENT 5 61 65 68
REMARK Flexibility Score:  369.900
ROOT
ATOM      1  C   UNL     1       1.516  -3.104  12.201  1.00  0.00     0.117 C 
ENDROOT
BRANCH   1   2
ATOM      2  N   UNL     1       2.289  -2.618  11.058  1.00  0.00    -0.347 N 
ATOM      3  O   UNL     1       2.101  -0.370  11.485  1.00  0.00    -0.273 OA
ATOM      4  C   UNL     1       2.598  -1.288  10.842  1.00  0.00     0.243 C 
ATOM      5  H   UNL     1       2.672  -3.281  10.402  1.00  0.00     0.164 HD
BRANCH   4   6
ATOM      6  C   UNL     1       3.501  -1.051   9.605  1.00  0.00     0.171 C 
BRANCH   6   7
ATOM      7  N   UNL     1       3.827   0.378   9.472  1.00  0.00    -0.344 N 
ATOM      8  C   UNL     1       3.629   1.035   8.277  1.00  0.00     0.226 C 
ATOM      9  O   UNL     1       3.203   0.471   7.276  1.00  0.00    -0.275 OA
ATOM     10  H   UNL     1       4.244   0.861  10.258  1.00  0.00     0.164 HD
BRANCH   8  11
ATOM     11  C   UNL     1       3.960   2.516   8.316  1.00  0.00     0.109 C 
ATOM     12  C   UNL     1       3.872   3.112   6.911  1.00  0.00     0.021 C 
BRANCH  11  13
ATOM     13  C   UNL     1       3.086   3.219   9.374  1.00  0.00     0.204 C 
BRANCH  13  14
ATOM     14  N   UNL     1       3.810   3.439  10.629  1.00  0.00    -0.340 N 
ATOM     15  C   UNL     1       3.202   3.378  11.865  1.00  0.00     0.243 C 
ATOM     16  O   UNL     1       2.019   3.073  12.004  1.00  0.00    -0.273 OA
ATOM     17  H   UNL     1       4.750   3.842  10.578  1.00  0.00     0.164 HD
BRANCH  15  18
ATOM     18  C   UNL     1       4.112   3.848  13.026  1.00  0.00     0.171 C 
BRANCH  18  19
ATOM     19  N   UNL     1       3.844   5.273  13.217  1.00  0.00    -0.343 N 
ATOM     20  C   UNL     1       4.516   6.243  12.498  1.00  0.00     0.242 CG0
ATOM     21  O   UNL     1       5.460   5.962  11.764  1.00  0.00    -0.273 OA
ATOM     22  H   UNL     1       3.152   5.562  13.898  1.00  0.00     0.164 HD
ATOM     23  G   UNL     1       4.043   7.684  12.779  1.00  0.00     0.000 G0
ENDBRANCH  18  19
BRANCH  18  24
ATOM     24  C   UNL     1       3.821   3.046  14.300  1.00  0.00     0.038 C 
BRANCH  24  25
ATOM     25  C   UNL     1       4.291   1.577  14.258  1.00  0.00    -0.015 C 
ATOM     26  C   UNL     1       3.154   0.591  14.529  1.00  0.00     0.007 C 
ATOM     27  C   UNL     1       5.411   1.365  15.279  1.00  0.00     0.007 C 
ENDBRANCH  24  25
ENDBRANCH  18  24
ENDBRANCH  15  18
ENDBRANCH  13  14
BRANCH  13  28
ATOM     28  C   UNL     1       2.555   4.579   8.911  1.00  0.00     0.327 C 
ATOM     29  O   UNL     1       3.151   5.644   8.964  1.00  0.00    -0.250 OA
BRANCH  28  30
ATOM     30  O   UNL     1       1.264   4.538   8.522  1.00  0.00    -0.480 OA
ATOM     31  H   UNL     1       1.262   3.921   7.760  1.00  0.00     0.296 HD
ENDBRANCH  28  30
ENDBRANCH  13  28
ENDBRANCH  11  13
ENDBRANCH   8  11
ENDBRANCH   6   7
BRANCH   6  32
ATOM     32  C   UNL     1       4.776  -1.892   9.745  1.00  0.00     0.037 C 
BRANCH  32  33
ATOM     33  C   UNL     1       5.428  -2.185   8.386  1.00  0.00     0.026 C 
BRANCH  33  34
ATOM     34  C   UNL     1       6.738  -2.962   8.522  1.00  0.00     0.146 C 
BRANCH  34  35
ATOM     35  N   UNL     1       6.672  -4.145   7.674  1.00  0.00    -0.254 NA
ATOM     36  C   UNL     1       6.216  -5.233   8.172  1.00  0.00     0.185 C 
ATOM     37  N   UNL     1       6.146  -6.327   7.398  1.00  0.00    -0.370 N 
ATOM     38  N   UNL     1       5.767  -5.469   9.417  1.00  0.00    -0.370 N 
ATOM     39  H   UNL     1       6.457  -6.227   6.440  1.00  0.00     0.159 HD
ATOM     40  H   UNL     1       5.646  -7.160   7.657  1.00  0.00     0.159 HD
ATOM     41  H   UNL     1       5.563  -6.405   9.729  1.00  0.00     0.159 HD
ATOM     42  H   UNL     1       5.776  -4.739  10.113  1.00  0.00     0.159 HD
ENDBRANCH  34  35
ENDBRANCH  33  34
ENDBRANCH  32  33
ENDBRANCH   6  32
ENDBRANCH   4   6
ENDBRANCH   1   2
BRANCH   1  43
ATOM     43  C   UNL     1       2.412  -4.068  13.031  1.00  0.00     0.102 C 
ATOM     44  C   UNL     1       3.679  -3.398  13.590  1.00  0.00     0.020 C 
BRANCH  43  45
ATOM     45  C   UNL     1       2.682  -5.365  12.263  1.00  0.00     0.225 C 
ATOM     46  O   UNL     1       3.290  -5.399  11.196  1.00  0.00    -0.275 OA
ATOM     47  N   UNL     1       2.116  -6.499  12.798  1.00  0.00    -0.342 N 
ATOM     48  H   UNL     1       1.755  -6.481  13.741  1.00  0.00     0.164 HD
BRANCH  47  49
ATOM     49  C   UNL     1       2.320  -7.818  12.190  1.00  0.00     0.192 C 
BRANCH  49  50
ATOM     50  C   UNL     1       0.964  -8.465  11.897  1.00  0.00     0.047 C 
BRANCH  50  51
ATOM     51  C   UNL     1       0.698  -8.602  10.392  1.00  0.00     0.103 C 
BRANCH  51  52
ATOM     52  C   UNL     1       0.982 -10.015   9.886  1.00  0.00     0.226 C 
ATOM     53  O   UNL     1       2.147 -10.376   9.707  1.00  0.00    -0.275 OA
BRANCH  52  54
ATOM     54  N   UNL     1      -0.132 -10.859   9.723  1.00  0.00    -0.311 N 
ATOM     55  C   UNL     1      -0.620 -11.689  10.833  1.00  0.00     0.153 C 
BRANCH  54  56
ATOM     56  C   UNL     1      -0.821 -10.935   8.501  1.00  0.00     0.102 C 
ATOM     57  C   UNL     1      -1.885 -10.184   8.171  1.00  0.00     0.043 C 
BRANCH  56  58
ATOM     58  C   UNL     1      -0.365 -11.877   7.412  1.00  0.00     0.268 C 
ATOM     59  O   UNL     1      -0.981 -12.040   6.367  1.00  0.00    -0.268 OA
ATOM     60  N   UNL     1       0.841 -12.477   7.687  1.00  0.00    -0.339 N 
ATOM     61  H   UNL     1       1.282 -12.297   8.580  1.00  0.00     0.164 HD
BRANCH  60  62
ATOM     62  C   UNL     1       1.496 -13.378   6.739  1.00  0.00     0.168 CG0
ATOM     63  C   UNL     1       1.143 -14.831   7.033  1.00  0.00     0.041 C 
ATOM     64  G   UNL     1       3.023 -13.165   6.795  1.00  0.00     0.000 G0
ENDBRANCH  60  62
ENDBRANCH  56  58
ENDBRANCH  54  56
ENDBRANCH  52  54
ENDBRANCH  51  52
ENDBRANCH  50  51
ENDBRANCH  49  50
BRANCH  49  65
ATOM     65  C   UNL     1       3.139  -8.743  13.104  1.00  0.00     0.326 C 
ATOM     66  O   UNL     1       3.166  -9.963  13.039  1.00  0.00    -0.250 OA
BRANCH  65  67
ATOM     67  O   UNL     1       3.826  -8.108  14.079  1.00  0.00    -0.480 OA
ATOM     68  H   UNL     1       3.124  -7.677  14.614  1.00  0.00     0.296 HD
ENDBRANCH  65  67
ENDBRANCH  49  65
ENDBRANCH  47  49
ENDBRANCH  43  45
ENDBRANCH   1  43
BRANCH   1  69
ATOM     69  C   UNL     1       0.206  -3.622  11.637  1.00  0.00    -0.001 C 
ATOM     70  C   UNL     1      -0.031  -4.053  10.386  1.00  0.00     0.001 C 
BRANCH  70  71
ATOM     71  C   UNL     1      -1.295  -4.572   9.859  1.00  0.00    -0.055 C 
ATOM     72  C   UNL     1      -1.513  -5.901   9.946  1.00  0.00    -0.018 C 
ATOM     73  C   UNL     1      -2.266  -3.586   9.265  1.00  0.00     0.044 C 
BRANCH  72  74
ATOM     74  C   UNL     1      -2.718  -6.712   9.491  1.00  0.00     0.038 C 
ATOM     75  C   UNL     1      -3.564  -5.800   8.594  1.00  0.00     0.015 C 
BRANCH  74  76
ATOM     76  C   UNL     1      -3.457  -7.259  10.748  1.00  0.00     0.128 C 
BRANCH  76  77
ATOM     77  O   UNL     1      -3.984  -8.568  10.477  1.00  0.00    -0.381 OA
ATOM     78  C   UNL     1      -5.060  -8.939  11.329  1.00  0.00     0.195 C 
ENDBRANCH  76  77
BRANCH  76  79
ATOM     79  C   UNL     1      -2.611  -7.211  12.046  1.00  0.00     0.068 C 
BRANCH  79  80
ATOM     80  C   UNL     1      -3.107  -6.350  13.182  1.00  0.00    -0.045 A 
ATOM     81  C   UNL     1      -3.932  -6.880  14.182  1.00  0.00     0.004 A 
ATOM     82  C   UNL     1      -2.770  -4.989  13.238  1.00  0.00     0.004 A 
ATOM     83  C   UNL     1      -4.399  -6.074  15.223  1.00  0.00     0.000 A 
ATOM     84  C   UNL     1      -3.238  -4.183  14.278  1.00  0.00     0.000 A 
ATOM     85  C   UNL     1      -4.051  -4.726  15.271  1.00  0.00     0.000 A 
ENDBRANCH  79  80
ENDBRANCH  76  79
ENDBRANCH  74  76
ENDBRANCH  72  74
ENDBRANCH  70  71
ENDBRANCH   1  69
TORSDOF 17
ENDMDL
MODEL 29
REMARK VINA RESULT:    -5.789     12.321     16.727
REMARK INTER + INTRA:         -24.829
REMARK INTER:                 -17.491
REMARK INTRA:                  -7.337
REMARK UNBOUND:                -7.533
REMARK SMILES C=C1C(=O)N[C@H](C)C(=O)N[C@@H](CC(C)C)C(=O)N[C@@H](C(=O)O)[C@H](C)C(=O)N[C@@H](CCCN=C(N)N)C(=O)N[C@@H](/C=C/C(C)=C/[C@H](C)[C@H](Cc2ccccc2)OC)[C@H](C)C(=O)N[C@@H](C(=O)O)CCC(=O)N1C
REMARK SMILES IDX 39 1 38 2 37 3 36 4 28 6 27 7 25 8 26 9 23 11 24 12 19 13
REMARK SMILES IDX 18 14 16 15 17 16 11 18 10 19 8 20 9 21 12 24 13 25 14 26
REMARK SMILES IDX 15 27 20 28 21 29 22 30 29 32 30 33 31 34 32 35 33 36 34 37
REMARK SMILES IDX 35 38 57 43 58 44 59 45 60 46 61 47 62 49 66 50 67 51 68 52
REMARK SMILES IDX 69 53 70 54 71 55 2 56 1 57 3 58 4 59 5 60 6 62 7 63 63 65
REMARK SMILES IDX 64 66 65 67 40 69 41 70 42 71 44 72 43 73 45 74 46 75 47 76
REMARK SMILES IDX 55 77 56 78 48 79 49 80 50 81 54 82 51 83 53 84 52 85
REMARK H PARENT 38 5 27 10 18 17 10 22 22 31 34 39 34 40 35 41 35 42 61 48
REMARK H PARENT 5 61 65 68
REMARK Flexibility Score:  369.900
ROOT
ATOM      1  C   UNL     1      -1.443  -7.112   9.433  1.00  0.00     0.117 C 
ENDROOT
BRANCH   1   2
ATOM      2  N   UNL     1      -1.176  -6.266  10.596  1.00  0.00    -0.347 N 
ATOM      3  O   UNL     1      -0.945  -4.270   9.486  1.00  0.00    -0.273 OA
ATOM      4  C   UNL     1      -1.038  -4.893  10.539  1.00  0.00     0.243 C 
ATOM      5  H   UNL     1      -1.134  -6.685  11.513  1.00  0.00     0.164 HD
BRANCH   4   6
ATOM      6  C   UNL     1      -0.846  -4.226  11.925  1.00  0.00     0.171 C 
BRANCH   6   7
ATOM      7  N   UNL     1       0.354  -3.374  11.924  1.00  0.00    -0.344 N 
ATOM      8  C   UNL     1       1.552  -3.847  12.414  1.00  0.00     0.226 C 
ATOM      9  O   UNL     1       1.674  -4.970  12.887  1.00  0.00    -0.275 OA
ATOM     10  H   UNL     1       0.276  -2.417  11.603  1.00  0.00     0.164 HD
BRANCH   8  11
ATOM     11  C   UNL     1       2.707  -2.868  12.293  1.00  0.00     0.109 C 
ATOM     12  C   UNL     1       3.678  -3.054  13.459  1.00  0.00     0.021 C 
BRANCH  11  13
ATOM     13  C   UNL     1       3.344  -2.983  10.894  1.00  0.00     0.204 C 
BRANCH  13  14
ATOM     14  N   UNL     1       4.072  -1.768  10.518  1.00  0.00    -0.340 N 
ATOM     15  C   UNL     1       3.518  -0.772   9.744  1.00  0.00     0.243 C 
ATOM     16  O   UNL     1       2.349  -0.805   9.363  1.00  0.00    -0.273 OA
ATOM     17  H   UNL     1       5.084  -1.747  10.671  1.00  0.00     0.164 HD
BRANCH  15  18
ATOM     18  C   UNL     1       4.535   0.309   9.303  1.00  0.00     0.171 C 
BRANCH  18  19
ATOM     19  N   UNL     1       4.682   0.180   7.855  1.00  0.00    -0.343 N 
ATOM     20  C   UNL     1       5.390  -0.860   7.284  1.00  0.00     0.242 CG0
ATOM     21  O   UNL     1       6.039  -1.648   7.967  1.00  0.00    -0.273 OA
ATOM     22  H   UNL     1       4.260   0.874   7.248  1.00  0.00     0.164 HD
ATOM     23  G   UNL     1       5.369  -0.873   5.741  1.00  0.00     0.000 G0
ENDBRANCH  18  19
BRANCH  18  24
ATOM     24  C   UNL     1       4.044   1.708   9.696  1.00  0.00     0.038 C 
BRANCH  24  25
ATOM     25  C   UNL     1       3.549   2.572   8.517  1.00  0.00    -0.015 C 
ATOM     26  C   UNL     1       4.141   3.981   8.536  1.00  0.00     0.007 C 
ATOM     27  C   UNL     1       2.021   2.654   8.544  1.00  0.00     0.007 C 
ENDBRANCH  24  25
ENDBRANCH  18  24
ENDBRANCH  15  18
ENDBRANCH  13  14
BRANCH  13  28
ATOM     28  C   UNL     1       4.323  -4.155  10.771  1.00  0.00     0.327 C 
ATOM     29  O   UNL     1       5.533  -4.074  10.631  1.00  0.00    -0.250 OA
BRANCH  28  30
ATOM     30  O   UNL     1       3.707  -5.354  10.712  1.00  0.00    -0.480 OA
ATOM     31  H   UNL     1       4.386  -5.955  10.341  1.00  0.00     0.296 HD
ENDBRANCH  28  30
ENDBRANCH  13  28
ENDBRANCH  11  13
ENDBRANCH   8  11
ENDBRANCH   6   7
BRANCH   6  32
ATOM     32  C   UNL     1      -2.097  -3.410  12.269  1.00  0.00     0.037 C 
BRANCH  32  33
ATOM     33  C   UNL     1      -2.856  -3.992  13.470  1.00  0.00     0.026 C 
BRANCH  33  34
ATOM     34  C   UNL     1      -2.157  -5.213  14.068  1.00  0.00     0.146 C 
BRANCH  34  35
ATOM     35  N   UNL     1      -3.137  -6.005  14.798  1.00  0.00    -0.254 NA
ATOM     36  C   UNL     1      -3.111  -7.280  14.678  1.00  0.00     0.185 C 
ATOM     37  N   UNL     1      -4.006  -8.019  15.350  1.00  0.00    -0.370 N 
ATOM     38  N   UNL     1      -2.281  -8.041  13.943  1.00  0.00    -0.370 N 
ATOM     39  H   UNL     1      -4.662  -7.517  15.935  1.00  0.00     0.159 HD
ATOM     40  H   UNL     1      -3.943  -9.018  15.446  1.00  0.00     0.159 HD
ATOM     41  H   UNL     1      -2.449  -9.027  13.821  1.00  0.00     0.159 HD
ATOM     42  H   UNL     1      -1.566  -7.618  13.373  1.00  0.00     0.159 HD
ENDBRANCH  34  35
ENDBRANCH  33  34
ENDBRANCH  32  33
ENDBRANCH   6  32
ENDBRANCH   4   6
ENDBRANCH   1   2
BRANCH   1  43
ATOM     43  C   UNL     1      -2.984  -7.217   9.241  1.00  0.00     0.102 C 
ATOM     44  C   UNL     1      -3.602  -5.981   8.565  1.00  0.00     0.020 C 
BRANCH  43  45
ATOM     45  C   UNL     1      -3.675  -7.622  10.547  1.00  0.00     0.225 C 
ATOM     46  O   UNL     1      -3.848  -6.846  11.483  1.00  0.00    -0.275 OA
ATOM     47  N   UNL     1      -4.014  -8.952  10.650  1.00  0.00    -0.342 N 
ATOM     48  H   UNL     1      -4.005  -9.535   9.825  1.00  0.00     0.164 HD
BRANCH  47  49
ATOM     49  C   UNL     1      -4.712  -9.475  11.827  1.00  0.00     0.192 C 
BRANCH  49  50
ATOM     50  C   UNL     1      -4.425 -10.972  11.973  1.00  0.00     0.047 C 
BRANCH  50  51
ATOM     51  C   UNL     1      -3.932 -11.335  13.380  1.00  0.00     0.103 C 
BRANCH  51  52
ATOM     52  C   UNL     1      -5.088 -11.556  14.354  1.00  0.00     0.226 C 
ATOM     53  O   UNL     1      -5.593 -10.590  14.930  1.00  0.00    -0.275 OA
BRANCH  52  54
ATOM     54  N   UNL     1      -5.562 -12.875  14.476  1.00  0.00    -0.311 N 
ATOM     55  C   UNL     1      -5.180 -13.713  15.620  1.00  0.00     0.153 C 
BRANCH  54  56
ATOM     56  C   UNL     1      -6.419 -13.437  13.515  1.00  0.00     0.102 C 
ATOM     57  C   UNL     1      -7.729 -13.162  13.399  1.00  0.00     0.043 C 
BRANCH  56  58
ATOM     58  C   UNL     1      -5.894 -14.396  12.474  1.00  0.00     0.268 C 
ATOM     59  O   UNL     1      -4.701 -14.570  12.265  1.00  0.00    -0.268 OA
ATOM     60  N   UNL     1      -6.888 -15.099  11.836  1.00  0.00    -0.339 N 
ATOM     61  H   UNL     1      -7.853 -14.889  12.059  1.00  0.00     0.164 HD
BRANCH  60  62
ATOM     62  C   UNL     1      -6.597 -16.125  10.835  1.00  0.00     0.168 CG0
ATOM     63  C   UNL     1      -6.614 -15.539   9.429  1.00  0.00     0.041 C 
ATOM     64  G   UNL     1      -7.621 -17.273  10.961  1.00  0.00     0.000 G0
ENDBRANCH  60  62
ENDBRANCH  56  58
ENDBRANCH  54  56
ENDBRANCH  52  54
ENDBRANCH  51  52
ENDBRANCH  50  51
ENDBRANCH  49  50
BRANCH  49  65
ATOM     65  C   UNL     1      -6.230  -9.255  11.730  1.00  0.00     0.326 C 
ATOM     66  O   UNL     1      -6.931  -9.551  10.773  1.00  0.00    -0.250 OA
BRANCH  65  67
ATOM     67  O   UNL     1      -6.779  -8.630  12.795  1.00  0.00    -0.480 OA
ATOM     68  H   UNL     1      -7.245  -9.350  13.271  1.00  0.00     0.296 HD
ENDBRANCH  65  67
ENDBRANCH  49  65
ENDBRANCH  47  49
ENDBRANCH  43  45
ENDBRANCH   1  43
BRANCH   1  69
ATOM     69  C   UNL     1      -0.642  -8.384   9.641  1.00  0.00    -0.001 C 
ATOM     70  C   UNL     1      -0.871  -9.592   9.096  1.00  0.00     0.001 C 
BRANCH  70  71
ATOM     71  C   UNL     1      -0.078 -10.808   9.287  1.00  0.00    -0.055 C 
ATOM     72  C   UNL     1       1.203 -10.665   9.686  1.00  0.00    -0.018 C 
ATOM     73  C   UNL     1      -0.750 -12.132   9.033  1.00  0.00     0.044 C 
BRANCH  72  74
ATOM     74  C   UNL     1       2.251 -11.734   9.965  1.00  0.00     0.038 C 
ATOM     75  C   UNL     1       2.512 -11.729  11.475  1.00  0.00     0.015 C 
BRANCH  74  76
ATOM     76  C   UNL     1       3.503 -11.450   9.084  1.00  0.00     0.128 C 
BRANCH  76  77
ATOM     77  O   UNL     1       4.657 -11.256   9.919  1.00  0.00    -0.381 OA
ATOM     78  C   UNL     1       5.471 -10.161   9.523  1.00  0.00     0.195 C 
ENDBRANCH  76  77
BRANCH  76  79
ATOM     79  C   UNL     1       3.739 -12.499   7.969  1.00  0.00     0.068 C 
BRANCH  79  80
ATOM     80  C   UNL     1       2.529 -13.109   7.304  1.00  0.00    -0.045 A 
ATOM     81  C   UNL     1       2.081 -14.389   7.655  1.00  0.00     0.004 A 
ATOM     82  C   UNL     1       1.848 -12.409   6.296  1.00  0.00     0.004 A 
ATOM     83  C   UNL     1       0.969 -14.952   7.025  1.00  0.00     0.000 A 
ATOM     84  C   UNL     1       0.737 -12.974   5.666  1.00  0.00     0.000 A 
ATOM     85  C   UNL     1       0.296 -14.244   6.032  1.00  0.00     0.000 A 
ENDBRANCH  79  80
ENDBRANCH  76  79
ENDBRANCH  74  76
ENDBRANCH  72  74
ENDBRANCH  70  71
ENDBRANCH   1  69
TORSDOF 17
ENDMDL
MODEL 30
REMARK VINA RESULT:    -5.780     18.172     23.683
REMARK INTER + INTRA:         -24.800
REMARK INTER:                 -18.993
REMARK INTRA:                  -5.808
REMARK UNBOUND:                -7.533
REMARK SMILES C=C1C(=O)N[C@H](C)C(=O)N[C@@H](CC(C)C)C(=O)N[C@@H](C(=O)O)[C@H](C)C(=O)N[C@@H](CCCN=C(N)N)C(=O)N[C@@H](/C=C/C(C)=C/[C@H](C)[C@H](Cc2ccccc2)OC)[C@H](C)C(=O)N[C@@H](C(=O)O)CCC(=O)N1C
REMARK SMILES IDX 39 1 38 2 37 3 36 4 28 6 27 7 25 8 26 9 23 11 24 12 19 13
REMARK SMILES IDX 18 14 16 15 17 16 11 18 10 19 8 20 9 21 12 24 13 25 14 26
REMARK SMILES IDX 15 27 20 28 21 29 22 30 29 32 30 33 31 34 32 35 33 36 34 37
REMARK SMILES IDX 35 38 57 43 58 44 59 45 60 46 61 47 62 49 66 50 67 51 68 52
REMARK SMILES IDX 69 53 70 54 71 55 2 56 1 57 3 58 4 59 5 60 6 62 7 63 63 65
REMARK SMILES IDX 64 66 65 67 40 69 41 70 42 71 44 72 43 73 45 74 46 75 47 76
REMARK SMILES IDX 55 77 56 78 48 79 49 80 50 81 54 82 51 83 53 84 52 85
REMARK H PARENT 38 5 27 10 18 17 10 22 22 31 34 39 34 40 35 41 35 42 61 48
REMARK H PARENT 5 61 65 68
REMARK Flexibility Score:  369.900
ROOT
ATOM      1  C   UNL     1       6.099  -0.033   7.297  1.00  0.00     0.117 C 
ENDROOT
BRANCH   1   2
ATOM      2  N   UNL     1       5.762   1.272   6.726  1.00  0.00    -0.347 N 
ATOM      3  O   UNL     1       7.575   2.436   7.518  1.00  0.00    -0.273 OA
ATOM      4  C   UNL     1       6.577   2.384   6.807  1.00  0.00     0.243 C 
ATOM      5  H   UNL     1       4.910   1.375   6.196  1.00  0.00     0.164 HD
BRANCH   4   6
ATOM      6  C   UNL     1       6.026   3.617   6.045  1.00  0.00     0.171 C 
BRANCH   6   7
ATOM      7  N   UNL     1       5.319   4.518   6.968  1.00  0.00    -0.344 N 
ATOM      8  C   UNL     1       4.102   4.159   7.506  1.00  0.00     0.226 C 
ATOM      9  O   UNL     1       3.545   3.103   7.232  1.00  0.00    -0.275 OA
ATOM     10  H   UNL     1       5.716   5.428   7.165  1.00  0.00     0.164 HD
BRANCH   8  11
ATOM     11  C   UNL     1       3.527   5.171   8.482  1.00  0.00     0.109 C 
ATOM     12  C   UNL     1       2.010   5.009   8.574  1.00  0.00     0.021 C 
BRANCH  11  13
ATOM     13  C   UNL     1       4.272   5.079   9.828  1.00  0.00     0.204 C 
BRANCH  13  14
ATOM     14  N   UNL     1       3.444   4.477  10.877  1.00  0.00    -0.340 N 
ATOM     15  C   UNL     1       3.276   5.050  12.119  1.00  0.00     0.243 C 
ATOM     16  O   UNL     1       3.761   6.141  12.414  1.00  0.00    -0.273 OA
ATOM     17  H   UNL     1       3.140   3.507  10.752  1.00  0.00     0.164 HD
BRANCH  15  18
ATOM     18  C   UNL     1       2.534   4.137  13.126  1.00  0.00     0.171 C 
BRANCH  18  19
ATOM     19  N   UNL     1       1.114   4.464  13.021  1.00  0.00    -0.343 N 
ATOM     20  C   UNL     1       0.422   5.053  14.062  1.00  0.00     0.242 CG0
ATOM     21  O   UNL     1       0.933   5.206  15.168  1.00  0.00    -0.273 OA
ATOM     22  H   UNL     1       0.616   4.250  12.164  1.00  0.00     0.164 HD
ATOM     23  G   UNL     1      -1.047   5.395  13.737  1.00  0.00     0.000 G0
ENDBRANCH  18  19
BRANCH  18  24
ATOM     24  C   UNL     1       2.796   2.659  12.812  1.00  0.00     0.038 C 
BRANCH  24  25
ATOM     25  C   UNL     1       3.992   2.042  13.566  1.00  0.00    -0.015 C 
ATOM     26  C   UNL     1       4.925   1.257  12.643  1.00  0.00     0.007 C 
ATOM     27  C   UNL     1       3.480   1.126  14.681  1.00  0.00     0.007 C 
ENDBRANCH  24  25
ENDBRANCH  18  24
ENDBRANCH  15  18
ENDBRANCH  13  14
BRANCH  13  28
ATOM     28  C   UNL     1       5.566   4.263   9.747  1.00  0.00     0.327 C 
ATOM     29  O   UNL     1       6.698   4.711   9.648  1.00  0.00    -0.250 OA
BRANCH  28  30
ATOM     30  O   UNL     1       5.350   2.934   9.676  1.00  0.00    -0.480 OA
ATOM     31  H   UNL     1       5.289   2.649  10.611  1.00  0.00     0.296 HD
ENDBRANCH  28  30
ENDBRANCH  13  28
ENDBRANCH  11  13
ENDBRANCH   8  11
ENDBRANCH   6   7
BRANCH   6  32
ATOM     32  C   UNL     1       7.187   4.341   5.354  1.00  0.00     0.037 C 
BRANCH  32  33
ATOM     33  C   UNL     1       7.280   3.995   3.861  1.00  0.00     0.026 C 
BRANCH  33  34
ATOM     34  C   UNL     1       6.008   3.328   3.335  1.00  0.00     0.146 C 
BRANCH  34  35
ATOM     35  N   UNL     1       5.918   3.556   1.900  1.00  0.00    -0.254 NA
ATOM     36  C   UNL     1       4.877   3.144   1.276  1.00  0.00     0.185 C 
ATOM     37  N   UNL     1       4.781   3.353  -0.046  1.00  0.00    -0.370 N 
ATOM     38  N   UNL     1       3.802   2.499   1.762  1.00  0.00    -0.370 N 
ATOM     39  H   UNL     1       5.549   3.844  -0.485  1.00  0.00     0.159 HD
ATOM     40  H   UNL     1       3.933   3.219  -0.570  1.00  0.00     0.159 HD
ATOM     41  H   UNL     1       3.110   2.102   1.147  1.00  0.00     0.159 HD
ATOM     42  H   UNL     1       3.745   2.260   2.740  1.00  0.00     0.159 HD
ENDBRANCH  34  35
ENDBRANCH  33  34
ENDBRANCH  32  33
ENDBRANCH   6  32
ENDBRANCH   4   6
ENDBRANCH   1   2
BRANCH   1  43
ATOM     43  C   UNL     1       6.182  -1.072   6.141  1.00  0.00     0.102 C 
ATOM     44  C   UNL     1       5.161  -2.215   6.270  1.00  0.00     0.020 C 
BRANCH  43  45
ATOM     45  C   UNL     1       7.623  -1.547   5.931  1.00  0.00     0.225 C 
ATOM     46  O   UNL     1       8.527  -0.804   5.558  1.00  0.00    -0.275 OA
ATOM     47  N   UNL     1       7.833  -2.896   6.099  1.00  0.00    -0.342 N 
ATOM     48  H   UNL     1       7.125  -3.460   6.549  1.00  0.00     0.164 HD
BRANCH  47  49
ATOM     49  C   UNL     1       9.168  -3.487   5.966  1.00  0.00     0.192 C 
BRANCH  49  50
ATOM     50  C   UNL     1       9.051  -4.895   5.377  1.00  0.00     0.047 C 
BRANCH  50  51
ATOM     51  C   UNL     1       7.635  -5.470   5.519  1.00  0.00     0.103 C 
BRANCH  51  52
ATOM     52  C   UNL     1       7.649  -6.977   5.765  1.00  0.00     0.226 C 
ATOM     53  O   UNL     1       7.447  -7.750   4.827  1.00  0.00    -0.275 OA
BRANCH  52  54
ATOM     54  N   UNL     1       7.975  -7.396   7.069  1.00  0.00    -0.311 N 
ATOM     55  C   UNL     1       7.293  -6.828   8.239  1.00  0.00     0.153 C 
BRANCH  54  56
ATOM     56  C   UNL     1       8.957  -8.374   7.299  1.00  0.00     0.102 C 
ATOM     57  C   UNL     1      10.270  -8.128   7.434  1.00  0.00     0.043 C 
BRANCH  56  58
ATOM     58  C   UNL     1       8.579  -9.828   7.463  1.00  0.00     0.268 C 
ATOM     59  O   UNL     1       8.660 -10.425   8.528  1.00  0.00    -0.268 OA
ATOM     60  N   UNL     1       8.075 -10.388   6.313  1.00  0.00    -0.339 N 
ATOM     61  H   UNL     1       8.051  -9.829   5.469  1.00  0.00     0.164 HD
BRANCH  60  62
ATOM     62  C   UNL     1       7.591 -11.767   6.266  1.00  0.00     0.168 CG0
ATOM     63  C   UNL     1       6.101 -11.834   6.582  1.00  0.00     0.041 C 
ATOM     64  G   UNL     1       8.398 -12.633   7.256  1.00  0.00     0.000 G0
ENDBRANCH  60  62
ENDBRANCH  56  58
ENDBRANCH  54  56
ENDBRANCH  52  54
ENDBRANCH  51  52
ENDBRANCH  50  51
ENDBRANCH  49  50
BRANCH  49  65
ATOM     65  C   UNL     1       9.893  -3.560   7.319  1.00  0.00     0.326 C 
ATOM     66  O   UNL     1      10.142  -4.584   7.938  1.00  0.00    -0.250 OA
BRANCH  65  67
ATOM     67  O   UNL     1      10.211  -2.360   7.853  1.00  0.00    -0.480 OA
ATOM     68  H   UNL     1       9.548  -1.750   7.464  1.00  0.00     0.296 HD
ENDBRANCH  65  67
ENDBRANCH  49  65
ENDBRANCH  47  49
ENDBRANCH  43  45
ENDBRANCH   1  43
BRANCH   1  69
ATOM     69  C   UNL     1       5.112  -0.270   8.425  1.00  0.00    -0.001 C 
ATOM     70  C   UNL     1       3.827   0.122   8.483  1.00  0.00     0.001 C 
BRANCH  70  71
ATOM     71  C   UNL     1       2.878  -0.131   9.569  1.00  0.00    -0.055 C 
ATOM     72  C   UNL     1       2.835  -1.376  10.088  1.00  0.00    -0.018 C 
ATOM     73  C   UNL     1       2.022   1.017  10.036  1.00  0.00     0.044 C 
BRANCH  72  74
ATOM     74  C   UNL     1       1.964  -1.923  11.209  1.00  0.00     0.038 C 
ATOM     75  C   UNL     1       2.695  -1.644  12.528  1.00  0.00     0.015 C 
BRANCH  74  76
ATOM     76  C   UNL     1       1.673  -3.427  10.930  1.00  0.00     0.128 C 
BRANCH  76  77
ATOM     77  O   UNL     1       2.874  -4.199  11.099  1.00  0.00    -0.381 OA
ATOM     78  C   UNL     1       2.637  -5.544  11.495  1.00  0.00     0.195 C 
ENDBRANCH  76  77
BRANCH  76  79
ATOM     79  C   UNL     1       0.476  -3.997  11.733  1.00  0.00     0.068 C 
BRANCH  79  80
ATOM     80  C   UNL     1      -0.692  -4.559  10.959  1.00  0.00    -0.045 A 
ATOM     81  C   UNL     1      -1.554  -5.501  11.535  1.00  0.00     0.004 A 
ATOM     82  C   UNL     1      -0.915  -4.164   9.631  1.00  0.00     0.004 A 
ATOM     83  C   UNL     1      -2.623  -6.026  10.808  1.00  0.00     0.000 A 
ATOM     84  C   UNL     1      -1.985  -4.691   8.904  1.00  0.00     0.000 A 
ATOM     85  C   UNL     1      -2.839  -5.620   9.493  1.00  0.00     0.000 A 
ENDBRANCH  79  80
ENDBRANCH  76  79
ENDBRANCH  74  76
ENDBRANCH  72  74
ENDBRANCH  70  71
ENDBRANCH   1  69
TORSDOF 17
ENDMDL
MODEL 31
REMARK VINA RESULT:    -5.747     14.416     19.609
REMARK INTER + INTRA:         -24.703
REMARK INTER:                 -15.949
REMARK INTRA:                  -8.754
REMARK UNBOUND:                -7.533
REMARK SMILES C=C1C(=O)N[C@H](C)C(=O)N[C@@H](CC(C)C)C(=O)N[C@@H](C(=O)O)[C@H](C)C(=O)N[C@@H](CCCN=C(N)N)C(=O)N[C@@H](/C=C/C(C)=C/[C@H](C)[C@H](Cc2ccccc2)OC)[C@H](C)C(=O)N[C@@H](C(=O)O)CCC(=O)N1C
REMARK SMILES IDX 39 1 38 2 37 3 36 4 28 6 27 7 25 8 26 9 23 11 24 12 19 13
REMARK SMILES IDX 18 14 16 15 17 16 11 18 10 19 8 20 9 21 12 24 13 25 14 26
REMARK SMILES IDX 15 27 20 28 21 29 22 30 29 32 30 33 31 34 32 35 33 36 34 37
REMARK SMILES IDX 35 38 57 43 58 44 59 45 60 46 61 47 62 49 66 50 67 51 68 52
REMARK SMILES IDX 69 53 70 54 71 55 2 56 1 57 3 58 4 59 5 60 6 62 7 63 63 65
REMARK SMILES IDX 64 66 65 67 40 69 41 70 42 71 44 72 43 73 45 74 46 75 47 76
REMARK SMILES IDX 55 77 56 78 48 79 49 80 50 81 54 82 51 83 53 84 52 85
REMARK H PARENT 38 5 27 10 18 17 10 22 22 31 34 39 34 40 35 41 35 42 61 48
REMARK H PARENT 5 61 65 68
REMARK Flexibility Score:  369.900
ROOT
ATOM      1  C   UNL     1       3.523  -6.988  10.765  1.00  0.00     0.117 C 
ENDROOT
BRANCH   1   2
ATOM      2  N   UNL     1       4.401  -8.153  10.879  1.00  0.00    -0.347 N 
ATOM      3  O   UNL     1       4.304  -8.833   8.689  1.00  0.00    -0.273 OA
ATOM      4  C   UNL     1       4.795  -8.932   9.808  1.00  0.00     0.243 C 
ATOM      5  H   UNL     1       4.793  -8.391  11.778  1.00  0.00     0.164 HD
BRANCH   4   6
ATOM      6  C   UNL     1       5.796 -10.052  10.187  1.00  0.00     0.171 C 
BRANCH   6   7
ATOM      7  N   UNL     1       6.251 -10.765   8.983  1.00  0.00    -0.344 N 
ATOM      8  C   UNL     1       6.130 -12.134   8.889  1.00  0.00     0.226 C 
ATOM      9  O   UNL     1       5.667 -12.820   9.793  1.00  0.00    -0.275 OA
ATOM     10  H   UNL     1       6.701 -10.240   8.243  1.00  0.00     0.164 HD
BRANCH   8  11
ATOM     11  C   UNL     1       6.593 -12.714   7.564  1.00  0.00     0.109 C 
ATOM     12  C   UNL     1       7.152 -14.121   7.772  1.00  0.00     0.021 C 
BRANCH  11  13
ATOM     13  C   UNL     1       5.458 -12.614   6.525  1.00  0.00     0.204 C 
BRANCH  13  14
ATOM     14  N   UNL     1       4.150 -12.932   7.105  1.00  0.00    -0.340 N 
ATOM     15  C   UNL     1       3.226 -13.735   6.472  1.00  0.00     0.243 C 
ATOM     16  O   UNL     1       3.459 -14.291   5.400  1.00  0.00    -0.273 OA
ATOM     17  H   UNL     1       3.837 -12.387   7.913  1.00  0.00     0.164 HD
BRANCH  15  18
ATOM     18  C   UNL     1       1.845 -13.760   7.172  1.00  0.00     0.171 C 
BRANCH  18  19
ATOM     19  N   UNL     1       1.950 -14.720   8.269  1.00  0.00    -0.343 N 
ATOM     20  C   UNL     1       1.710 -16.068   8.083  1.00  0.00     0.242 CG0
ATOM     21  O   UNL     1       1.269 -16.503   7.022  1.00  0.00    -0.273 OA
ATOM     22  H   UNL     1       2.199 -14.392   9.195  1.00  0.00     0.164 HD
ATOM     23  G   UNL     1       1.946 -16.936   9.337  1.00  0.00     0.000 G0
ENDBRANCH  18  19
BRANCH  18  24
ATOM     24  C   UNL     1       1.471 -12.363   7.682  1.00  0.00     0.038 C 
BRANCH  24  25
ATOM     25  C   UNL     1       0.260 -12.329   8.638  1.00  0.00    -0.015 C 
ATOM     26  C   UNL     1      -0.845 -11.393   8.149  1.00  0.00     0.007 C 
ATOM     27  C   UNL     1       0.718 -11.900  10.034  1.00  0.00     0.007 C 
ENDBRANCH  24  25
ENDBRANCH  18  24
ENDBRANCH  15  18
ENDBRANCH  13  14
BRANCH  13  28
ATOM     28  C   UNL     1       5.345 -11.226   5.886  1.00  0.00     0.327 C 
ATOM     29  O   UNL     1       6.165 -10.702   5.148  1.00  0.00    -0.250 OA
BRANCH  28  30
ATOM     30  O   UNL     1       4.266 -10.536   6.308  1.00  0.00    -0.480 OA
ATOM     31  H   UNL     1       4.427  -9.622   5.993  1.00  0.00     0.296 HD
ENDBRANCH  28  30
ENDBRANCH  13  28
ENDBRANCH  11  13
ENDBRANCH   8  11
ENDBRANCH   6   7
BRANCH   6  32
ATOM     32  C   UNL     1       6.981  -9.435  10.939  1.00  0.00     0.037 C 
BRANCH  32  33
ATOM     33  C   UNL     1       8.316  -9.687  10.223  1.00  0.00     0.026 C 
BRANCH  33  34
ATOM     34  C   UNL     1       8.764  -8.492   9.382  1.00  0.00     0.146 C 
BRANCH  34  35
ATOM     35  N   UNL     1       8.047  -8.514   8.114  1.00  0.00    -0.254 NA
ATOM     36  C   UNL     1       8.723  -8.551   7.027  1.00  0.00     0.185 C 
ATOM     37  N   UNL     1       8.072  -8.577   5.853  1.00  0.00    -0.370 N 
ATOM     38  N   UNL     1      10.057  -8.570   6.862  1.00  0.00    -0.370 N 
ATOM     39  H   UNL     1       7.061  -8.575   5.894  1.00  0.00     0.159 HD
ATOM     40  H   UNL     1       8.518  -8.780   4.975  1.00  0.00     0.159 HD
ATOM     41  H   UNL     1      10.471  -8.458   5.951  1.00  0.00     0.159 HD
ATOM     42  H   UNL     1      10.673  -8.538   7.659  1.00  0.00     0.159 HD
ENDBRANCH  34  35
ENDBRANCH  33  34
ENDBRANCH  32  33
ENDBRANCH   6  32
ENDBRANCH   4   6
ENDBRANCH   1   2
BRANCH   1  43
ATOM     43  C   UNL     1       4.333  -5.718  11.155  1.00  0.00     0.102 C 
ATOM     44  C   UNL     1       3.492  -4.430  11.147  1.00  0.00     0.020 C 
BRANCH  43  45
ATOM     45  C   UNL     1       5.627  -5.620  10.342  1.00  0.00     0.225 C 
ATOM     46  O   UNL     1       6.692  -6.104  10.715  1.00  0.00    -0.275 OA
ATOM     47  N   UNL     1       5.550  -4.865   9.194  1.00  0.00    -0.342 N 
ATOM     48  H   UNL     1       4.646  -4.605   8.826  1.00  0.00     0.164 HD
BRANCH  47  49
ATOM     49  C   UNL     1       6.701  -4.713   8.299  1.00  0.00     0.192 C 
BRANCH  49  50
ATOM     50  C   UNL     1       6.885  -3.235   7.944  1.00  0.00     0.047 C 
BRANCH  50  51
ATOM     51  C   UNL     1       5.556  -2.467   7.944  1.00  0.00     0.103 C 
BRANCH  51  52
ATOM     52  C   UNL     1       5.752  -0.982   8.241  1.00  0.00     0.226 C 
ATOM     53  O   UNL     1       6.890  -0.536   8.399  1.00  0.00    -0.275 OA
BRANCH  52  54
ATOM     54  N   UNL     1       4.593  -0.184   8.242  1.00  0.00    -0.311 N 
ATOM     55  C   UNL     1       3.847   0.064   9.483  1.00  0.00     0.153 C 
BRANCH  54  56
ATOM     56  C   UNL     1       4.110   0.407   7.062  1.00  0.00     0.102 C 
ATOM     57  C   UNL     1       3.153  -0.115   6.277  1.00  0.00     0.043 C 
BRANCH  56  58
ATOM     58  C   UNL     1       4.625   1.750   6.602  1.00  0.00     0.268 C 
ATOM     59  O   UNL     1       5.214   2.530   7.338  1.00  0.00    -0.268 OA
ATOM     60  N   UNL     1       4.423   1.975   5.261  1.00  0.00    -0.339 N 
ATOM     61  H   UNL     1       3.917   1.283   4.721  1.00  0.00     0.164 HD
BRANCH  60  62
ATOM     62  C   UNL     1       4.900   3.186   4.593  1.00  0.00     0.168 CG0
ATOM     63  C   UNL     1       6.280   2.968   3.985  1.00  0.00     0.041 C 
ATOM     64  G   UNL     1       4.925   4.354   5.600  1.00  0.00     0.000 G0
ENDBRANCH  60  62
ENDBRANCH  56  58
ENDBRANCH  54  56
ENDBRANCH  52  54
ENDBRANCH  51  52
ENDBRANCH  50  51
ENDBRANCH  49  50
BRANCH  49  65
ATOM     65  C   UNL     1       6.526  -5.528   7.008  1.00  0.00     0.326 C 
ATOM     66  O   UNL     1       6.942  -5.209   5.904  1.00  0.00    -0.250 OA
BRANCH  65  67
ATOM     67  O   UNL     1       5.797  -6.657   7.148  1.00  0.00    -0.480 OA
ATOM     68  H   UNL     1       5.343  -6.749   6.283  1.00  0.00     0.296 HD
ENDBRANCH  65  67
ENDBRANCH  49  65
ENDBRANCH  47  49
ENDBRANCH  43  45
ENDBRANCH   1  43
BRANCH   1  69
ATOM     69  C   UNL     1       2.267  -7.326  11.548  1.00  0.00    -0.001 C 
ATOM     70  C   UNL     1       1.126  -7.856  11.072  1.00  0.00     0.001 C 
BRANCH  70  71
ATOM     71  C   UNL     1      -0.072  -8.197  11.841  1.00  0.00    -0.055 C 
ATOM     72  C   UNL     1      -1.057  -8.866  11.205  1.00  0.00    -0.018 C 
ATOM     73  C   UNL     1      -0.119  -7.786  13.290  1.00  0.00     0.044 C 
BRANCH  72  74
ATOM     74  C   UNL     1      -2.396  -9.350  11.742  1.00  0.00     0.038 C 
ATOM     75  C   UNL     1      -2.449 -10.867  11.526  1.00  0.00     0.015 C 
BRANCH  74  76
ATOM     76  C   UNL     1      -3.535  -8.550  11.043  1.00  0.00     0.128 C 
BRANCH  76  77
ATOM     77  O   UNL     1      -4.647  -9.419  10.767  1.00  0.00    -0.381 OA
ATOM     78  C   UNL     1      -5.810  -9.115  11.524  1.00  0.00     0.195 C 
ENDBRANCH  76  77
BRANCH  76  79
ATOM     79  C   UNL     1      -3.953  -7.262  11.795  1.00  0.00     0.068 C 
BRANCH  79  80
ATOM     80  C   UNL     1      -3.072  -6.044  11.655  1.00  0.00    -0.045 A 
ATOM     81  C   UNL     1      -2.491  -5.711  10.424  1.00  0.00     0.004 A 
ATOM     82  C   UNL     1      -2.799  -5.237  12.769  1.00  0.00     0.004 A 
ATOM     83  C   UNL     1      -1.666  -4.591  10.306  1.00  0.00     0.000 A 
ATOM     84  C   UNL     1      -1.973  -4.117  12.650  1.00  0.00     0.000 A 
ATOM     85  C   UNL     1      -1.409  -3.793  11.418  1.00  0.00     0.000 A 
ENDBRANCH  79  80
ENDBRANCH  76  79
ENDBRANCH  74  76
ENDBRANCH  72  74
ENDBRANCH  70  71
ENDBRANCH   1  69
TORSDOF 17
ENDMDL
MODEL 32
REMARK VINA RESULT:    -5.737      1.690      2.755
REMARK INTER + INTRA:         -24.671
REMARK INTER:                 -19.992
REMARK INTRA:                  -4.679
REMARK UNBOUND:                -7.533
REMARK SMILES C=C1C(=O)N[C@H](C)C(=O)N[C@@H](CC(C)C)C(=O)N[C@@H](C(=O)O)[C@H](C)C(=O)N[C@@H](CCCN=C(N)N)C(=O)N[C@@H](/C=C/C(C)=C/[C@H](C)[C@H](Cc2ccccc2)OC)[C@H](C)C(=O)N[C@@H](C(=O)O)CCC(=O)N1C
REMARK SMILES IDX 39 1 38 2 37 3 36 4 28 6 27 7 25 8 26 9 23 11 24 12 19 13
REMARK SMILES IDX 18 14 16 15 17 16 11 18 10 19 8 20 9 21 12 24 13 25 14 26
REMARK SMILES IDX 15 27 20 28 21 29 22 30 29 32 30 33 31 34 32 35 33 36 34 37
REMARK SMILES IDX 35 38 57 43 58 44 59 45 60 46 61 47 62 49 66 50 67 51 68 52
REMARK SMILES IDX 69 53 70 54 71 55 2 56 1 57 3 58 4 59 5 60 6 62 7 63 63 65
REMARK SMILES IDX 64 66 65 67 40 69 41 70 42 71 44 72 43 73 45 74 46 75 47 76
REMARK SMILES IDX 55 77 56 78 48 79 49 80 50 81 54 82 51 83 53 84 52 85
REMARK H PARENT 38 5 27 10 18 17 10 22 22 31 34 39 34 40 35 41 35 42 61 48
REMARK H PARENT 5 61 65 68
REMARK Flexibility Score:  369.900
ROOT
ATOM      1  C   UNL     1     -11.932 -12.750   0.952  1.00  0.00     0.117 C 
ENDROOT
BRANCH   1   2
ATOM      2  N   UNL     1     -11.958 -14.148   1.386  1.00  0.00    -0.347 N 
ATOM      3  O   UNL     1     -11.958 -13.772   3.650  1.00  0.00    -0.273 OA
ATOM      4  C   UNL     1     -12.061 -14.546   2.705  1.00  0.00     0.243 C 
ATOM      5  H   UNL     1     -11.950 -14.881   0.693  1.00  0.00     0.164 HD
BRANCH   4   6
ATOM      6  C   UNL     1     -12.155 -16.083   2.886  1.00  0.00     0.171 C 
BRANCH   6   7
ATOM      7  N   UNL     1     -10.832 -16.645   3.202  1.00  0.00    -0.344 N 
ATOM      8  C   UNL     1     -10.348 -16.619   4.492  1.00  0.00     0.226 C 
ATOM      9  O   UNL     1     -10.970 -16.118   5.421  1.00  0.00    -0.275 OA
ATOM     10  H   UNL     1     -10.260 -17.007   2.450  1.00  0.00     0.164 HD
BRANCH   8  11
ATOM     11  C   UNL     1      -8.995 -17.286   4.666  1.00  0.00     0.109 C 
ATOM     12  C   UNL     1      -8.686 -18.171   3.458  1.00  0.00     0.021 C 
BRANCH  11  13
ATOM     13  C   UNL     1      -7.925 -16.222   4.981  1.00  0.00     0.204 C 
BRANCH  13  14
ATOM     14  N   UNL     1      -8.412 -14.861   4.733  1.00  0.00    -0.340 N 
ATOM     15  C   UNL     1      -8.179 -14.186   3.554  1.00  0.00     0.243 C 
ATOM     16  O   UNL     1      -7.597 -14.702   2.601  1.00  0.00    -0.273 OA
ATOM     17  H   UNL     1      -8.766 -14.324   5.529  1.00  0.00     0.164 HD
BRANCH  15  18
ATOM     18  C   UNL     1      -8.604 -12.698   3.599  1.00  0.00     0.171 C 
BRANCH  18  19
ATOM     19  N   UNL     1      -9.259 -12.488   4.888  1.00  0.00    -0.343 N 
ATOM     20  C   UNL     1     -10.236 -11.527   5.061  1.00  0.00     0.242 CG0
ATOM     21  O   UNL     1     -10.505 -10.716   4.178  1.00  0.00    -0.273 OA
ATOM     22  H   UNL     1      -8.988 -13.057   5.682  1.00  0.00     0.164 HD
ATOM     23  G   UNL     1     -10.867 -11.507   6.469  1.00  0.00     0.000 G0
ENDBRANCH  18  19
BRANCH  18  24
ATOM     24  C   UNL     1      -7.385 -11.782   3.432  1.00  0.00     0.038 C 
BRANCH  24  25
ATOM     25  C   UNL     1      -7.625 -10.546   2.538  1.00  0.00    -0.015 C 
ATOM     26  C   UNL     1      -8.575 -10.840   1.377  1.00  0.00     0.007 C 
ATOM     27  C   UNL     1      -6.288 -10.037   1.995  1.00  0.00     0.007 C 
ENDBRANCH  24  25
ENDBRANCH  18  24
ENDBRANCH  15  18
ENDBRANCH  13  14
BRANCH  13  28
ATOM     28  C   UNL     1      -7.433 -16.270   6.430  1.00  0.00     0.327 C 
ATOM     29  O   UNL     1      -6.628 -17.063   6.894  1.00  0.00    -0.250 OA
BRANCH  28  30
ATOM     30  O   UNL     1      -8.071 -15.396   7.235  1.00  0.00    -0.480 OA
ATOM     31  H   UNL     1      -7.621 -14.542   7.068  1.00  0.00     0.296 HD
ENDBRANCH  28  30
ENDBRANCH  13  28
ENDBRANCH  11  13
ENDBRANCH   8  11
ENDBRANCH   6   7
BRANCH   6  32
ATOM     32  C   UNL     1     -13.163 -16.398   3.996  1.00  0.00     0.037 C 
BRANCH  32  33
ATOM     33  C   UNL     1     -14.152 -15.246   4.225  1.00  0.00     0.026 C 
BRANCH  33  34
ATOM     34  C   UNL     1     -15.607 -15.680   4.050  1.00  0.00     0.146 C 
BRANCH  34  35
ATOM     35  N   UNL     1     -15.993 -15.481   2.660  1.00  0.00    -0.254 NA
ATOM     36  C   UNL     1     -16.723 -14.472   2.363  1.00  0.00     0.185 C 
ATOM     37  N   UNL     1     -17.080 -14.276   1.084  1.00  0.00    -0.370 N 
ATOM     38  N   UNL     1     -17.218 -13.520   3.173  1.00  0.00    -0.370 N 
ATOM     39  H   UNL     1     -16.736 -14.947   0.409  1.00  0.00     0.159 HD
ATOM     40  H   UNL     1     -17.498 -13.426   0.747  1.00  0.00     0.159 HD
ATOM     41  H   UNL     1     -17.896 -12.854   2.841  1.00  0.00     0.159 HD
ATOM     42  H   UNL     1     -17.043 -13.549   4.166  1.00  0.00     0.159 HD
ENDBRANCH  34  35
ENDBRANCH  33  34
ENDBRANCH  32  33
ENDBRANCH   6  32
ENDBRANCH   4   6
ENDBRANCH   1   2
BRANCH   1  43
ATOM     43  C   UNL     1     -13.376 -12.177   1.046  1.00  0.00     0.102 C 
ATOM     44  C   UNL     1     -14.321 -12.718  -0.040  1.00  0.00     0.020 C 
BRANCH  43  45
ATOM     45  C   UNL     1     -13.354 -10.648   1.145  1.00  0.00     0.225 C 
ATOM     46  O   UNL     1     -12.369  -9.971   0.867  1.00  0.00    -0.275 OA
ATOM     47  N   UNL     1     -14.493 -10.072   1.662  1.00  0.00    -0.342 N 
ATOM     48  H   UNL     1     -15.338 -10.619   1.741  1.00  0.00     0.164 HD
BRANCH  47  49
ATOM     49  C   UNL     1     -14.628  -8.618   1.782  1.00  0.00     0.192 C 
BRANCH  49  50
ATOM     50  C   UNL     1     -14.602  -8.219   3.260  1.00  0.00     0.047 C 
BRANCH  50  51
ATOM     51  C   UNL     1     -14.670  -9.436   4.192  1.00  0.00     0.103 C 
BRANCH  51  52
ATOM     52  C   UNL     1     -15.210  -9.070   5.573  1.00  0.00     0.226 C 
ATOM     53  O   UNL     1     -15.928  -8.078   5.705  1.00  0.00    -0.275 OA
BRANCH  52  54
ATOM     54  N   UNL     1     -14.904  -9.959   6.621  1.00  0.00    -0.311 N 
ATOM     55  C   UNL     1     -14.809  -9.487   8.009  1.00  0.00     0.153 C 
BRANCH  54  56
ATOM     56  C   UNL     1     -14.686 -11.326   6.382  1.00  0.00     0.102 C 
ATOM     57  C   UNL     1     -15.605 -12.178   5.901  1.00  0.00     0.043 C 
BRANCH  56  58
ATOM     58  C   UNL     1     -13.329 -11.946   6.618  1.00  0.00     0.268 C 
ATOM     59  O   UNL     1     -13.175 -13.115   6.946  1.00  0.00    -0.268 OA
ATOM     60  N   UNL     1     -12.289 -11.085   6.362  1.00  0.00    -0.339 N 
ATOM     61  H   UNL     1     -12.501 -10.128   6.105  1.00  0.00     0.164 HD
BRANCH  60  62
ATOM     62  C   UNL     1     -10.890 -11.499   6.467  1.00  0.00     0.168 CG0
ATOM     63  C   UNL     1     -10.114 -10.575   7.397  1.00  0.00     0.041 C 
ATOM     64  G   UNL     1     -10.252 -11.522   5.063  1.00  0.00     0.000 G0
ENDBRANCH  60  62
ENDBRANCH  56  58
ENDBRANCH  54  56
ENDBRANCH  52  54
ENDBRANCH  51  52
ENDBRANCH  50  51
ENDBRANCH  49  50
BRANCH  49  65
ATOM     65  C   UNL     1     -15.932  -8.115   1.142  1.00  0.00     0.326 C 
ATOM     66  O   UNL     1     -16.310  -6.953   1.117  1.00  0.00    -0.250 OA
BRANCH  65  67
ATOM     67  O   UNL     1     -16.718  -9.087   0.627  1.00  0.00    -0.480 OA
ATOM     68  H   UNL     1     -17.409  -9.214   1.313  1.00  0.00     0.296 HD
ENDBRANCH  65  67
ENDBRANCH  49  65
ENDBRANCH  47  49
ENDBRANCH  43  45
ENDBRANCH   1  43
BRANCH   1  69
ATOM     69  C   UNL     1     -11.223 -12.736  -0.390  1.00  0.00    -0.001 C 
ATOM     70  C   UNL     1     -10.709 -13.786  -1.054  1.00  0.00     0.001 C 
BRANCH  70  71
ATOM     71  C   UNL     1     -10.045 -13.763  -2.359  1.00  0.00    -0.055 C 
ATOM     72  C   UNL     1      -9.568 -12.580  -2.799  1.00  0.00    -0.018 C 
ATOM     73  C   UNL     1      -9.935 -15.062  -3.114  1.00  0.00     0.044 C 
BRANCH  72  74
ATOM     74  C   UNL     1      -8.840 -12.258  -4.096  1.00  0.00     0.038 C 
ATOM     75  C   UNL     1      -8.853 -10.732  -4.255  1.00  0.00     0.015 C 
BRANCH  74  76
ATOM     76  C   UNL     1      -9.517 -13.041  -5.258  1.00  0.00     0.128 C 
BRANCH  76  77
ATOM     77  O   UNL     1     -10.355 -12.158  -6.024  1.00  0.00    -0.381 OA
ATOM     78  C   UNL     1     -10.286 -12.379  -7.426  1.00  0.00     0.195 C 
ENDBRANCH  76  77
BRANCH  76  79
ATOM     79  C   UNL     1      -8.525 -13.841  -6.140  1.00  0.00     0.068 C 
BRANCH  79  80
ATOM     80  C   UNL     1      -7.721 -14.937  -5.484  1.00  0.00    -0.045 A 
ATOM     81  C   UNL     1      -8.099 -16.281  -5.604  1.00  0.00     0.004 A 
ATOM     82  C   UNL     1      -6.591 -14.621  -4.715  1.00  0.00     0.004 A 
ATOM     83  C   UNL     1      -7.358 -17.287  -4.982  1.00  0.00     0.000 A 
ATOM     84  C   UNL     1      -5.850 -15.628  -4.093  1.00  0.00     0.000 A 
ATOM     85  C   UNL     1      -6.233 -16.961  -4.228  1.00  0.00     0.000 A 
ENDBRANCH  79  80
ENDBRANCH  76  79
ENDBRANCH  74  76
ENDBRANCH  72  74
ENDBRANCH  70  71
ENDBRANCH   1  69
TORSDOF 17
ENDMDL
MODEL 33
REMARK VINA RESULT:    -5.735      4.173     10.681
REMARK INTER + INTRA:         -24.667
REMARK INTER:                 -18.179
REMARK INTRA:                  -6.487
REMARK UNBOUND:                -7.533
REMARK SMILES C=C1C(=O)N[C@H](C)C(=O)N[C@@H](CC(C)C)C(=O)N[C@@H](C(=O)O)[C@H](C)C(=O)N[C@@H](CCCN=C(N)N)C(=O)N[C@@H](/C=C/C(C)=C/[C@H](C)[C@H](Cc2ccccc2)OC)[C@H](C)C(=O)N[C@@H](C(=O)O)CCC(=O)N1C
REMARK SMILES IDX 39 1 38 2 37 3 36 4 28 6 27 7 25 8 26 9 23 11 24 12 19 13
REMARK SMILES IDX 18 14 16 15 17 16 11 18 10 19 8 20 9 21 12 24 13 25 14 26
REMARK SMILES IDX 15 27 20 28 21 29 22 30 29 32 30 33 31 34 32 35 33 36 34 37
REMARK SMILES IDX 35 38 57 43 58 44 59 45 60 46 61 47 62 49 66 50 67 51 68 52
REMARK SMILES IDX 69 53 70 54 71 55 2 56 1 57 3 58 4 59 5 60 6 62 7 63 63 65
REMARK SMILES IDX 64 66 65 67 40 69 41 70 42 71 44 72 43 73 45 74 46 75 47 76
REMARK SMILES IDX 55 77 56 78 48 79 49 80 50 81 54 82 51 83 53 84 52 85
REMARK H PARENT 38 5 27 10 18 17 10 22 22 31 34 39 34 40 35 41 35 42 61 48
REMARK H PARENT 5 61 65 68
REMARK Flexibility Score:  369.900
ROOT
ATOM      1  C   UNL     1     -10.216 -12.554   7.674  1.00  0.00     0.117 C 
ENDROOT
BRANCH   1   2
ATOM      2  N   UNL     1     -10.530 -13.682   6.795  1.00  0.00    -0.347 N 
ATOM      3  O   UNL     1     -11.561 -15.015   8.355  1.00  0.00    -0.273 OA
ATOM      4  C   UNL     1     -11.261 -14.786   7.187  1.00  0.00     0.243 C 
ATOM      5  H   UNL     1     -10.248 -13.648   5.828  1.00  0.00     0.164 HD
BRANCH   4   6
ATOM      6  C   UNL     1     -11.528 -15.796   6.042  1.00  0.00     0.171 C 
BRANCH   6   7
ATOM      7  N   UNL     1     -12.690 -15.373   5.244  1.00  0.00    -0.344 N 
ATOM      8  C   UNL     1     -13.967 -15.733   5.617  1.00  0.00     0.226 C 
ATOM      9  O   UNL     1     -14.196 -16.428   6.600  1.00  0.00    -0.275 OA
ATOM     10  H   UNL     1     -12.535 -14.855   4.388  1.00  0.00     0.164 HD
BRANCH   8  11
ATOM     11  C   UNL     1     -15.060 -15.175   4.724  1.00  0.00     0.109 C 
ATOM     12  C   UNL     1     -16.360 -15.026   5.514  1.00  0.00     0.021 C 
BRANCH  11  13
ATOM     13  C   UNL     1     -14.566 -13.885   4.038  1.00  0.00     0.204 C 
BRANCH  13  14
ATOM     14  N   UNL     1     -15.354 -13.558   2.846  1.00  0.00    -0.340 N 
ATOM     15  C   UNL     1     -15.351 -14.338   1.710  1.00  0.00     0.243 C 
ATOM     16  O   UNL     1     -14.734 -15.400   1.639  1.00  0.00    -0.273 OA
ATOM     17  H   UNL     1     -15.763 -12.622   2.782  1.00  0.00     0.164 HD
BRANCH  15  18
ATOM     18  C   UNL     1     -16.087 -13.690   0.512  1.00  0.00     0.171 C 
BRANCH  18  19
ATOM     19  N   UNL     1     -15.366 -12.459   0.194  1.00  0.00    -0.343 N 
ATOM     20  C   UNL     1     -15.806 -11.223   0.627  1.00  0.00     0.242 CG0
ATOM     21  O   UNL     1     -16.892 -11.087   1.185  1.00  0.00    -0.273 OA
ATOM     22  H   UNL     1     -14.521 -12.508  -0.365  1.00  0.00     0.164 HD
ATOM     23  G   UNL     1     -14.872 -10.051   0.261  1.00  0.00     0.000 G0
ENDBRANCH  18  19
BRANCH  18  24
ATOM     24  C   UNL     1     -16.121 -14.647  -0.686  1.00  0.00     0.038 C 
BRANCH  24  25
ATOM     25  C   UNL     1     -17.524 -15.179  -1.046  1.00  0.00    -0.015 C 
ATOM     26  C   UNL     1     -17.598 -16.706  -1.013  1.00  0.00     0.007 C 
ATOM     27  C   UNL     1     -17.925 -14.674  -2.435  1.00  0.00     0.007 C 
ENDBRANCH  24  25
ENDBRANCH  18  24
ENDBRANCH  15  18
ENDBRANCH  13  14
BRANCH  13  28
ATOM     28  C   UNL     1     -14.605 -12.661   4.958  1.00  0.00     0.327 C 
ATOM     29  O   UNL     1     -15.388 -11.726   4.885  1.00  0.00    -0.250 OA
BRANCH  28  30
ATOM     30  O   UNL     1     -13.583 -12.627   5.837  1.00  0.00    -0.480 OA
ATOM     31  H   UNL     1     -13.795 -13.336   6.480  1.00  0.00     0.296 HD
ENDBRANCH  28  30
ENDBRANCH  13  28
ENDBRANCH  11  13
ENDBRANCH   8  11
ENDBRANCH   6   7
BRANCH   6  32
ATOM     32  C   UNL     1     -10.274 -15.906   5.167  1.00  0.00     0.037 C 
BRANCH  32  33
ATOM     33  C   UNL     1      -9.450 -17.160   5.491  1.00  0.00     0.026 C 
BRANCH  33  34
ATOM     34  C   UNL     1      -8.112 -16.826   6.153  1.00  0.00     0.146 C 
BRANCH  34  35
ATOM     35  N   UNL     1      -7.835 -17.821   7.180  1.00  0.00    -0.254 NA
ATOM     36  C   UNL     1      -8.197 -17.580   8.384  1.00  0.00     0.185 C 
ATOM     37  N   UNL     1      -7.951 -18.492   9.337  1.00  0.00    -0.370 N 
ATOM     38  N   UNL     1      -8.823 -16.496   8.877  1.00  0.00    -0.370 N 
ATOM     39  H   UNL     1      -7.490 -19.344   9.042  1.00  0.00     0.159 HD
ATOM     40  H   UNL     1      -8.353 -18.457  10.258  1.00  0.00     0.159 HD
ATOM     41  H   UNL     1      -8.930 -16.362   9.869  1.00  0.00     0.159 HD
ATOM     42  H   UNL     1      -9.057 -15.721   8.275  1.00  0.00     0.159 HD
ENDBRANCH  34  35
ENDBRANCH  33  34
ENDBRANCH  32  33
ENDBRANCH   6  32
ENDBRANCH   4   6
ENDBRANCH   1   2
BRANCH   1  43
ATOM     43  C   UNL     1     -10.159 -11.258   6.815  1.00  0.00     0.102 C 
ATOM     44  C   UNL     1     -11.194 -10.200   7.235  1.00  0.00     0.020 C 
BRANCH  43  45
ATOM     45  C   UNL     1     -10.180 -11.588   5.319  1.00  0.00     0.225 C 
ATOM     46  O   UNL     1     -11.207 -11.870   4.709  1.00  0.00    -0.275 OA
ATOM     47  N   UNL     1      -8.949 -11.642   4.707  1.00  0.00    -0.342 N 
ATOM     48  H   UNL     1      -8.139 -11.262   5.178  1.00  0.00     0.164 HD
BRANCH  47  49
ATOM     49  C   UNL     1      -8.818 -11.911   3.272  1.00  0.00     0.192 C 
BRANCH  49  50
ATOM     50  C   UNL     1      -8.533 -13.398   3.052  1.00  0.00     0.047 C 
BRANCH  50  51
ATOM     51  C   UNL     1      -9.107 -13.910   1.723  1.00  0.00     0.103 C 
BRANCH  51  52
ATOM     52  C   UNL     1     -10.605 -13.639   1.603  1.00  0.00     0.226 C 
ATOM     53  O   UNL     1     -11.370 -14.040   2.483  1.00  0.00    -0.275 OA
BRANCH  52  54
ATOM     54  N   UNL     1     -11.015 -12.863   0.503  1.00  0.00    -0.311 N 
ATOM     55  C   UNL     1     -11.105 -13.446  -0.842  1.00  0.00     0.153 C 
BRANCH  54  56
ATOM     56  C   UNL     1     -11.358 -11.509   0.650  1.00  0.00     0.102 C 
ATOM     57  C   UNL     1     -10.539 -10.476   0.393  1.00  0.00     0.043 C 
BRANCH  56  58
ATOM     58  C   UNL     1     -12.748 -11.104   1.083  1.00  0.00     0.268 C 
ATOM     59  O   UNL     1     -13.138 -11.181   2.240  1.00  0.00    -0.268 OA
ATOM     60  N   UNL     1     -13.502 -10.581   0.059  1.00  0.00    -0.339 N 
ATOM     61  H   UNL     1     -13.109 -10.562  -0.874  1.00  0.00     0.164 HD
BRANCH  60  62
ATOM     62  C   UNL     1     -14.855 -10.069   0.271  1.00  0.00     0.168 CG0
ATOM     63  C   UNL     1     -14.869  -8.992   1.349  1.00  0.00     0.041 C 
ATOM     64  G   UNL     1     -15.795 -11.232   0.650  1.00  0.00     0.000 G0
ENDBRANCH  60  62
ENDBRANCH  56  58
ENDBRANCH  54  56
ENDBRANCH  52  54
ENDBRANCH  51  52
ENDBRANCH  50  51
ENDBRANCH  49  50
BRANCH  49  65
ATOM     65  C   UNL     1      -7.692 -11.078   2.640  1.00  0.00     0.326 C 
ATOM     66  O   UNL     1      -6.838 -11.502   1.875  1.00  0.00    -0.250 OA
BRANCH  65  67
ATOM     67  O   UNL     1      -7.654  -9.787   3.038  1.00  0.00    -0.480 OA
ATOM     68  H   UNL     1      -6.695  -9.576   3.048  1.00  0.00     0.296 HD
ENDBRANCH  65  67
ENDBRANCH  49  65
ENDBRANCH  47  49
ENDBRANCH  43  45
ENDBRANCH   1  43
BRANCH   1  69
ATOM     69  C   UNL     1      -8.987 -12.964   8.465  1.00  0.00    -0.001 C 
ATOM     70  C   UNL     1      -8.319 -12.231   9.373  1.00  0.00     0.001 C 
BRANCH  70  71
ATOM     71  C   UNL     1      -7.146 -12.645  10.147  1.00  0.00    -0.055 C 
ATOM     72  C   UNL     1      -6.779 -11.872  11.191  1.00  0.00    -0.018 C 
ATOM     73  C   UNL     1      -6.438 -13.907   9.728  1.00  0.00     0.044 C 
BRANCH  72  74
ATOM     74  C   UNL     1      -5.621 -12.053  12.162  1.00  0.00     0.038 C 
ATOM     75  C   UNL     1      -6.213 -12.059  13.577  1.00  0.00     0.015 C 
BRANCH  74  76
ATOM     76  C   UNL     1      -4.568 -10.937  11.900  1.00  0.00     0.128 C 
BRANCH  76  77
ATOM     77  O   UNL     1      -3.713 -11.315  10.808  1.00  0.00    -0.381 OA
ATOM     78  C   UNL     1      -2.899 -10.254  10.326  1.00  0.00     0.195 C 
ENDBRANCH  76  77
BRANCH  76  79
ATOM     79  C   UNL     1      -5.179  -9.524  11.721  1.00  0.00     0.068 C 
BRANCH  79  80
ATOM     80  C   UNL     1      -4.933  -8.505  12.807  1.00  0.00    -0.045 A 
ATOM     81  C   UNL     1      -3.884  -7.582  12.706  1.00  0.00     0.004 A 
ATOM     82  C   UNL     1      -5.741  -8.484  13.954  1.00  0.00     0.004 A 
ATOM     83  C   UNL     1      -3.654  -6.651  13.721  1.00  0.00     0.000 A 
ATOM     84  C   UNL     1      -5.509  -7.553  14.969  1.00  0.00     0.000 A 
ATOM     85  C   UNL     1      -4.468  -6.636  14.852  1.00  0.00     0.000 A 
ENDBRANCH  79  80
ENDBRANCH  76  79
ENDBRANCH  74  76
ENDBRANCH  72  74
ENDBRANCH  70  71
ENDBRANCH   1  69
TORSDOF 17
ENDMDL
MODEL 34
REMARK VINA RESULT:    -5.727      4.105     11.007
REMARK INTER + INTRA:         -24.643
REMARK INTER:                 -17.231
REMARK INTRA:                  -7.412
REMARK UNBOUND:                -7.533
REMARK SMILES C=C1C(=O)N[C@H](C)C(=O)N[C@@H](CC(C)C)C(=O)N[C@@H](C(=O)O)[C@H](C)C(=O)N[C@@H](CCCN=C(N)N)C(=O)N[C@@H](/C=C/C(C)=C/[C@H](C)[C@H](Cc2ccccc2)OC)[C@H](C)C(=O)N[C@@H](C(=O)O)CCC(=O)N1C
REMARK SMILES IDX 39 1 38 2 37 3 36 4 28 6 27 7 25 8 26 9 23 11 24 12 19 13
REMARK SMILES IDX 18 14 16 15 17 16 11 18 10 19 8 20 9 21 12 24 13 25 14 26
REMARK SMILES IDX 15 27 20 28 21 29 22 30 29 32 30 33 31 34 32 35 33 36 34 37
REMARK SMILES IDX 35 38 57 43 58 44 59 45 60 46 61 47 62 49 66 50 67 51 68 52
REMARK SMILES IDX 69 53 70 54 71 55 2 56 1 57 3 58 4 59 5 60 6 62 7 63 63 65
REMARK SMILES IDX 64 66 65 67 40 69 41 70 42 71 44 72 43 73 45 74 46 75 47 76
REMARK SMILES IDX 55 77 56 78 48 79 49 80 50 81 54 82 51 83 53 84 52 85
REMARK H PARENT 38 5 27 10 18 17 10 22 22 31 34 39 34 40 35 41 35 42 61 48
REMARK H PARENT 5 61 65 68
REMARK Flexibility Score:  369.900
ROOT
ATOM      1  C   UNL     1      -9.620 -12.344   7.481  1.00  0.00     0.117 C 
ENDROOT
BRANCH   1   2
ATOM      2  N   UNL     1     -10.672 -11.333   7.591  1.00  0.00    -0.347 N 
ATOM      3  O   UNL     1     -10.567 -10.536   5.441  1.00  0.00    -0.273 OA
ATOM      4  C   UNL     1     -11.125 -10.570   6.532  1.00  0.00     0.243 C 
ATOM      5  H   UNL     1     -11.143 -11.203   8.474  1.00  0.00     0.164 HD
BRANCH   4   6
ATOM      6  C   UNL     1     -12.307  -9.636   6.898  1.00  0.00     0.171 C 
BRANCH   6   7
ATOM      7  N   UNL     1     -13.416  -9.813   5.948  1.00  0.00    -0.344 N 
ATOM      8  C   UNL     1     -13.996 -11.051   5.768  1.00  0.00     0.226 C 
ATOM      9  O   UNL     1     -13.611 -12.052   6.359  1.00  0.00    -0.275 OA
ATOM     10  H   UNL     1     -13.717  -9.023   5.391  1.00  0.00     0.164 HD
BRANCH   8  11
ATOM     11  C   UNL     1     -15.163 -11.060   4.796  1.00  0.00     0.109 C 
ATOM     12  C   UNL     1     -16.234 -10.069   5.252  1.00  0.00     0.021 C 
BRANCH  11  13
ATOM     13  C   UNL     1     -14.647 -10.841   3.360  1.00  0.00     0.204 C 
BRANCH  13  14
ATOM     14  N   UNL     1     -14.672 -12.076   2.570  1.00  0.00    -0.340 N 
ATOM     15  C   UNL     1     -13.562 -12.574   1.924  1.00  0.00     0.243 C 
ATOM     16  O   UNL     1     -12.454 -12.047   2.013  1.00  0.00    -0.273 OA
ATOM     17  H   UNL     1     -15.584 -12.475   2.332  1.00  0.00     0.164 HD
BRANCH  15  18
ATOM     18  C   UNL     1     -13.874 -13.767   0.987  1.00  0.00     0.171 C 
BRANCH  18  19
ATOM     19  N   UNL     1     -13.893 -14.964   1.826  1.00  0.00    -0.343 N 
ATOM     20  C   UNL     1     -12.733 -15.637   2.161  1.00  0.00     0.242 CG0
ATOM     21  O   UNL     1     -11.650 -15.340   1.662  1.00  0.00    -0.273 OA
ATOM     22  H   UNL     1     -14.779 -15.317   2.168  1.00  0.00     0.164 HD
ATOM     23  G   UNL     1     -12.943 -16.829   3.117  1.00  0.00     0.000 G0
ENDBRANCH  18  19
BRANCH  18  24
ATOM     24  C   UNL     1     -15.216 -13.559   0.275  1.00  0.00     0.038 C 
BRANCH  24  25
ATOM     25  C   UNL     1     -16.312 -14.576   0.655  1.00  0.00    -0.015 C 
ATOM     26  C   UNL     1     -16.773 -15.414  -0.538  1.00  0.00     0.007 C 
ATOM     27  C   UNL     1     -17.510 -13.840   1.262  1.00  0.00     0.007 C 
ENDBRANCH  24  25
ENDBRANCH  18  24
ENDBRANCH  15  18
ENDBRANCH  13  14
BRANCH  13  28
ATOM     28  C   UNL     1     -15.448  -9.790   2.584  1.00  0.00     0.327 C 
ATOM     29  O   UNL     1     -16.347 -10.010   1.787  1.00  0.00    -0.250 OA
BRANCH  28  30
ATOM     30  O   UNL     1     -14.991  -8.535   2.768  1.00  0.00    -0.480 OA
ATOM     31  H   UNL     1     -15.797  -7.979   2.745  1.00  0.00     0.296 HD
ENDBRANCH  28  30
ENDBRANCH  13  28
ENDBRANCH  11  13
ENDBRANCH   8  11
ENDBRANCH   6   7
BRANCH   6  32
ATOM     32  C   UNL     1     -12.760  -9.934   8.331  1.00  0.00     0.037 C 
BRANCH  32  33
ATOM     33  C   UNL     1     -14.054  -9.193   8.696  1.00  0.00     0.026 C 
BRANCH  33  34
ATOM     34  C   UNL     1     -13.888  -7.674   8.658  1.00  0.00     0.146 C 
BRANCH  34  35
ATOM     35  N   UNL     1     -14.690  -7.141   7.565  1.00  0.00    -0.254 NA
ATOM     36  C   UNL     1     -14.720  -5.873   7.386  1.00  0.00     0.185 C 
ATOM     37  N   UNL     1     -15.452  -5.372   6.379  1.00  0.00    -0.370 N 
ATOM     38  N   UNL     1     -14.099  -4.906   8.085  1.00  0.00    -0.370 N 
ATOM     39  H   UNL     1     -15.943  -6.039   5.799  1.00  0.00     0.159 HD
ATOM     40  H   UNL     1     -15.390  -4.417   6.068  1.00  0.00     0.159 HD
ATOM     41  H   UNL     1     -14.312  -3.934   7.933  1.00  0.00     0.159 HD
ATOM     42  H   UNL     1     -13.526  -5.137   8.882  1.00  0.00     0.159 HD
ENDBRANCH  34  35
ENDBRANCH  33  34
ENDBRANCH  32  33
ENDBRANCH   6  32
ENDBRANCH   4   6
ENDBRANCH   1   2
BRANCH   1  43
ATOM     43  C   UNL     1     -10.264 -13.680   7.012  1.00  0.00     0.102 C 
ATOM     44  C   UNL     1      -9.727 -14.914   7.757  1.00  0.00     0.020 C 
BRANCH  43  45
ATOM     45  C   UNL     1     -10.217 -13.807   5.486  1.00  0.00     0.225 C 
ATOM     46  O   UNL     1     -11.076 -14.396   4.835  1.00  0.00    -0.275 OA
ATOM     47  N   UNL     1      -9.091 -13.296   4.883  1.00  0.00    -0.342 N 
ATOM     48  H   UNL     1      -8.476 -12.688   5.406  1.00  0.00     0.164 HD
BRANCH  47  49
ATOM     49  C   UNL     1      -8.926 -13.315   3.427  1.00  0.00     0.192 C 
BRANCH  49  50
ATOM     50  C   UNL     1      -7.818 -14.301   3.048  1.00  0.00     0.047 C 
BRANCH  50  51
ATOM     51  C   UNL     1      -8.372 -15.685   2.679  1.00  0.00     0.103 C 
BRANCH  51  52
ATOM     52  C   UNL     1      -8.273 -16.670   3.842  1.00  0.00     0.226 C 
ATOM     53  O   UNL     1      -7.884 -16.277   4.943  1.00  0.00    -0.275 OA
BRANCH  52  54
ATOM     54  N   UNL     1      -8.718 -17.982   3.592  1.00  0.00    -0.311 N 
ATOM     55  C   UNL     1      -8.102 -18.800   2.539  1.00  0.00     0.153 C 
BRANCH  54  56
ATOM     56  C   UNL     1      -9.758 -18.558   4.339  1.00  0.00     0.102 C 
ATOM     57  C   UNL     1      -9.661 -19.702   5.036  1.00  0.00     0.043 C 
BRANCH  56  58
ATOM     58  C   UNL     1     -11.102 -17.877   4.451  1.00  0.00     0.268 C 
ATOM     59  O   UNL     1     -11.619 -17.587   5.521  1.00  0.00    -0.268 OA
ATOM     60  N   UNL     1     -11.649 -17.558   3.230  1.00  0.00    -0.339 N 
ATOM     61  H   UNL     1     -11.162 -17.843   2.389  1.00  0.00     0.164 HD
BRANCH  60  62
ATOM     62  C   UNL     1     -12.916 -16.839   3.109  1.00  0.00     0.168 CG0
ATOM     63  C   UNL     1     -14.024 -17.762   2.618  1.00  0.00     0.041 C 
ATOM     64  G   UNL     1     -12.741 -15.640   2.154  1.00  0.00     0.000 G0
ENDBRANCH  60  62
ENDBRANCH  56  58
ENDBRANCH  54  56
ENDBRANCH  52  54
ENDBRANCH  51  52
ENDBRANCH  50  51
ENDBRANCH  49  50
BRANCH  49  65
ATOM     65  C   UNL     1      -8.577 -11.923   2.877  1.00  0.00     0.326 C 
ATOM     66  O   UNL     1      -7.458 -11.542   2.565  1.00  0.00    -0.250 OA
BRANCH  65  67
ATOM     67  O   UNL     1      -9.621 -11.068   2.804  1.00  0.00    -0.480 OA
ATOM     68  H   UNL     1     -10.028 -11.123   3.696  1.00  0.00     0.296 HD
ENDBRANCH  65  67
ENDBRANCH  49  65
ENDBRANCH  47  49
ENDBRANCH  43  45
ENDBRANCH   1  43
BRANCH   1  69
ATOM     69  C   UNL     1      -8.866 -12.316   8.798  1.00  0.00    -0.001 C 
ATOM     70  C   UNL     1      -7.922 -11.438   9.180  1.00  0.00     0.001 C 
BRANCH  70  71
ATOM     71  C   UNL     1      -7.216 -11.408  10.463  1.00  0.00    -0.055 C 
ATOM     72  C   UNL     1      -6.490 -10.309  10.754  1.00  0.00    -0.018 C 
ATOM     73  C   UNL     1      -7.357 -12.603  11.370  1.00  0.00     0.044 C 
BRANCH  72  74
ATOM     74  C   UNL     1      -5.666 -10.000  11.996  1.00  0.00     0.038 C 
ATOM     75  C   UNL     1      -6.280  -8.757  12.650  1.00  0.00     0.015 C 
BRANCH  74  76
ATOM     76  C   UNL     1      -4.172  -9.849  11.581  1.00  0.00     0.128 C 
BRANCH  76  77
ATOM     77  O   UNL     1      -3.704  -8.529  11.905  1.00  0.00    -0.381 OA
ATOM     78  C   UNL     1      -3.755  -7.620  10.814  1.00  0.00     0.195 C 
ENDBRANCH  76  77
BRANCH  76  79
ATOM     79  C   UNL     1      -3.250 -10.965  12.133  1.00  0.00     0.068 C 
BRANCH  79  80
ATOM     80  C   UNL     1      -3.673 -12.399  11.926  1.00  0.00    -0.045 A 
ATOM     81  C   UNL     1      -3.688 -12.970  10.647  1.00  0.00     0.004 A 
ATOM     82  C   UNL     1      -4.089 -13.178  13.017  1.00  0.00     0.004 A 
ATOM     83  C   UNL     1      -4.095 -14.293  10.462  1.00  0.00     0.000 A 
ATOM     84  C   UNL     1      -4.496 -14.500  12.831  1.00  0.00     0.000 A 
ATOM     85  C   UNL     1      -4.498 -15.058  11.555  1.00  0.00     0.000 A 
ENDBRANCH  79  80
ENDBRANCH  76  79
ENDBRANCH  74  76
ENDBRANCH  72  74
ENDBRANCH  70  71
ENDBRANCH   1  69
TORSDOF 17
ENDMDL
MODEL 35
REMARK VINA RESULT:    -5.720      3.040      6.361
REMARK INTER + INTRA:         -24.621
REMARK INTER:                 -17.098
REMARK INTRA:                  -7.523
REMARK UNBOUND:                -7.533
REMARK SMILES C=C1C(=O)N[C@H](C)C(=O)N[C@@H](CC(C)C)C(=O)N[C@@H](C(=O)O)[C@H](C)C(=O)N[C@@H](CCCN=C(N)N)C(=O)N[C@@H](/C=C/C(C)=C/[C@H](C)[C@H](Cc2ccccc2)OC)[C@H](C)C(=O)N[C@@H](C(=O)O)CCC(=O)N1C
REMARK SMILES IDX 39 1 38 2 37 3 36 4 28 6 27 7 25 8 26 9 23 11 24 12 19 13
REMARK SMILES IDX 18 14 16 15 17 16 11 18 10 19 8 20 9 21 12 24 13 25 14 26
REMARK SMILES IDX 15 27 20 28 21 29 22 30 29 32 30 33 31 34 32 35 33 36 34 37
REMARK SMILES IDX 35 38 57 43 58 44 59 45 60 46 61 47 62 49 66 50 67 51 68 52
REMARK SMILES IDX 69 53 70 54 71 55 2 56 1 57 3 58 4 59 5 60 6 62 7 63 63 65
REMARK SMILES IDX 64 66 65 67 40 69 41 70 42 71 44 72 43 73 45 74 46 75 47 76
REMARK SMILES IDX 55 77 56 78 48 79 49 80 50 81 54 82 51 83 53 84 52 85
REMARK H PARENT 38 5 27 10 18 17 10 22 22 31 34 39 34 40 35 41 35 42 61 48
REMARK H PARENT 5 61 65 68
REMARK Flexibility Score:  369.900
ROOT
ATOM      1  C   UNL     1     -10.986 -11.557  -0.860  1.00  0.00     0.117 C 
ENDROOT
BRANCH   1   2
ATOM      2  N   UNL     1      -9.981 -11.944   0.130  1.00  0.00    -0.347 N 
ATOM      3  O   UNL     1      -8.666 -10.067  -0.008  1.00  0.00    -0.273 OA
ATOM      4  C   UNL     1      -8.948 -11.126   0.545  1.00  0.00     0.243 C 
ATOM      5  H   UNL     1     -10.057 -12.841   0.587  1.00  0.00     0.164 HD
BRANCH   4   6
ATOM      6  C   UNL     1      -8.075 -11.743   1.667  1.00  0.00     0.171 C 
BRANCH   6   7
ATOM      7  N   UNL     1      -8.641 -13.028   2.110  1.00  0.00    -0.344 N 
ATOM      8  C   UNL     1      -8.764 -13.315   3.452  1.00  0.00     0.226 C 
ATOM      9  O   UNL     1      -8.396 -12.543   4.329  1.00  0.00    -0.275 OA
ATOM     10  H   UNL     1      -8.894 -13.719   1.415  1.00  0.00     0.164 HD
BRANCH   8  11
ATOM     11  C   UNL     1      -9.415 -14.655   3.748  1.00  0.00     0.109 C 
ATOM     12  C   UNL     1      -8.842 -15.733   2.827  1.00  0.00     0.021 C 
BRANCH  11  13
ATOM     13  C   UNL     1      -9.308 -14.966   5.254  1.00  0.00     0.204 C 
BRANCH  13  14
ATOM     14  N   UNL     1     -10.620 -15.212   5.861  1.00  0.00    -0.340 N 
ATOM     15  C   UNL     1     -11.064 -14.544   6.981  1.00  0.00     0.243 C 
ATOM     16  O   UNL     1     -10.413 -13.649   7.517  1.00  0.00    -0.273 OA
ATOM     17  H   UNL     1     -11.140 -16.041   5.560  1.00  0.00     0.164 HD
BRANCH  15  18
ATOM     18  C   UNL     1     -12.381 -15.115   7.561  1.00  0.00     0.171 C 
BRANCH  18  19
ATOM     19  N   UNL     1     -13.159 -15.608   6.425  1.00  0.00    -0.343 N 
ATOM     20  C   UNL     1     -14.143 -14.844   5.829  1.00  0.00     0.242 CG0
ATOM     21  O   UNL     1     -14.502 -13.770   6.307  1.00  0.00    -0.273 OA
ATOM     22  H   UNL     1     -12.978 -16.539   6.066  1.00  0.00     0.164 HD
ATOM     23  G   UNL     1     -14.800 -15.500   4.597  1.00  0.00     0.000 G0
ENDBRANCH  18  19
BRANCH  18  24
ATOM     24  C   UNL     1     -12.090 -16.232   8.570  1.00  0.00     0.038 C 
BRANCH  24  25
ATOM     25  C   UNL     1     -11.298 -17.427   7.998  1.00  0.00    -0.015 C 
ATOM     26  C   UNL     1     -12.160 -18.680   7.842  1.00  0.00     0.007 C 
ATOM     27  C   UNL     1     -10.102 -17.733   8.904  1.00  0.00     0.007 C 
ENDBRANCH  24  25
ENDBRANCH  18  24
ENDBRANCH  15  18
ENDBRANCH  13  14
BRANCH  13  28
ATOM     28  C   UNL     1      -8.431 -16.184   5.558  1.00  0.00     0.327 C 
ATOM     29  O   UNL     1      -8.824 -17.300   5.863  1.00  0.00    -0.250 OA
BRANCH  28  30
ATOM     30  O   UNL     1      -7.114 -15.896   5.578  1.00  0.00    -0.480 OA
ATOM     31  H   UNL     1      -6.746 -16.493   6.261  1.00  0.00     0.296 HD
ENDBRANCH  28  30
ENDBRANCH  13  28
ENDBRANCH  11  13
ENDBRANCH   8  11
ENDBRANCH   6   7
BRANCH   6  32
ATOM     32  C   UNL     1      -6.644 -11.925   1.148  1.00  0.00     0.037 C 
BRANCH  32  33
ATOM     33  C   UNL     1      -6.452 -13.274   0.441  1.00  0.00     0.026 C 
BRANCH  33  34
ATOM     34  C   UNL     1      -5.757 -13.130  -0.914  1.00  0.00     0.146 C 
BRANCH  34  35
ATOM     35  N   UNL     1      -6.484 -13.917  -1.901  1.00  0.00    -0.254 NA
ATOM     36  C   UNL     1      -5.849 -14.362  -2.920  1.00  0.00     0.185 C 
ATOM     37  N   UNL     1      -6.507 -15.092  -3.833  1.00  0.00    -0.370 N 
ATOM     38  N   UNL     1      -4.552 -14.206  -3.242  1.00  0.00    -0.370 N 
ATOM     39  H   UNL     1      -7.489 -15.263  -3.656  1.00  0.00     0.159 HD
ATOM     40  H   UNL     1      -6.051 -15.617  -4.560  1.00  0.00     0.159 HD
ATOM     41  H   UNL     1      -4.202 -14.487  -4.143  1.00  0.00     0.159 HD
ATOM     42  H   UNL     1      -3.939 -13.665  -2.653  1.00  0.00     0.159 HD
ENDBRANCH  34  35
ENDBRANCH  33  34
ENDBRANCH  32  33
ENDBRANCH   6  32
ENDBRANCH   4   6
ENDBRANCH   1   2
BRANCH   1  43
ATOM     43  C   UNL     1     -12.393 -11.657  -0.203  1.00  0.00     0.102 C 
ATOM     44  C   UNL     1     -13.242 -10.386  -0.378  1.00  0.00     0.020 C 
BRANCH  43  45
ATOM     45  C   UNL     1     -12.290 -12.140   1.246  1.00  0.00     0.225 C 
ATOM     46  O   UNL     1     -11.965 -13.285   1.550  1.00  0.00    -0.275 OA
ATOM     47  N   UNL     1     -12.679 -11.231   2.204  1.00  0.00    -0.342 N 
ATOM     48  H   UNL     1     -12.795 -10.259   1.952  1.00  0.00     0.164 HD
BRANCH  47  49
ATOM     49  C   UNL     1     -12.600 -11.543   3.634  1.00  0.00     0.192 C 
BRANCH  49  50
ATOM     50  C   UNL     1     -13.824 -10.973   4.353  1.00  0.00     0.047 C 
BRANCH  50  51
ATOM     51  C   UNL     1     -14.836 -10.354   3.379  1.00  0.00     0.103 C 
BRANCH  51  52
ATOM     52  C   UNL     1     -16.130 -11.162   3.306  1.00  0.00     0.226 C 
ATOM     53  O   UNL     1     -16.948 -11.088   4.225  1.00  0.00    -0.275 OA
BRANCH  52  54
ATOM     54  N   UNL     1     -16.343 -11.900   2.127  1.00  0.00    -0.311 N 
ATOM     55  C   UNL     1     -16.230 -11.265   0.807  1.00  0.00     0.153 C 
BRANCH  54  56
ATOM     56  C   UNL     1     -16.664 -13.267   2.166  1.00  0.00     0.102 C 
ATOM     57  C   UNL     1     -17.843 -13.790   1.793  1.00  0.00     0.043 C 
BRANCH  56  58
ATOM     58  C   UNL     1     -15.644 -14.290   2.607  1.00  0.00     0.268 C 
ATOM     59  O   UNL     1     -14.800 -14.760   1.857  1.00  0.00    -0.268 OA
ATOM     60  N   UNL     1     -15.720 -14.586   3.947  1.00  0.00    -0.339 N 
ATOM     61  H   UNL     1     -16.456 -14.161   4.499  1.00  0.00     0.164 HD
BRANCH  60  62
ATOM     62  C   UNL     1     -14.786 -15.505   4.596  1.00  0.00     0.168 CG0
ATOM     63  C   UNL     1     -15.484 -16.798   5.000  1.00  0.00     0.041 C 
ATOM     64  G   UNL     1     -14.155 -14.818   5.825  1.00  0.00     0.000 G0
ENDBRANCH  60  62
ENDBRANCH  56  58
ENDBRANCH  54  56
ENDBRANCH  52  54
ENDBRANCH  51  52
ENDBRANCH  50  51
ENDBRANCH  49  50
BRANCH  49  65
ATOM     65  C   UNL     1     -11.323 -10.970   4.269  1.00  0.00     0.326 C 
ATOM     66  O   UNL     1     -10.559 -10.178   3.737  1.00  0.00    -0.250 OA
BRANCH  65  67
ATOM     67  O   UNL     1     -11.038 -11.455   5.497  1.00  0.00    -0.480 OA
ATOM     68  H   UNL     1     -11.543 -10.869   6.101  1.00  0.00     0.296 HD
ENDBRANCH  65  67
ENDBRANCH  49  65
ENDBRANCH  47  49
ENDBRANCH  43  45
ENDBRANCH   1  43
BRANCH   1  69
ATOM     69  C   UNL     1     -10.697 -12.380  -2.102  1.00  0.00    -0.001 C 
ATOM     70  C   UNL     1      -9.714 -12.188  -2.999  1.00  0.00     0.001 C 
BRANCH  70  71
ATOM     71  C   UNL     1      -9.431 -13.002  -4.183  1.00  0.00    -0.055 C 
ATOM     72  C   UNL     1      -8.629 -12.473  -5.131  1.00  0.00    -0.018 C 
ATOM     73  C   UNL     1     -10.048 -14.374  -4.255  1.00  0.00     0.044 C 
BRANCH  72  74
ATOM     74  C   UNL     1      -8.165 -13.080  -6.448  1.00  0.00     0.038 C 
ATOM     75  C   UNL     1      -6.633 -13.121  -6.413  1.00  0.00     0.015 C 
BRANCH  74  76
ATOM     76  C   UNL     1      -8.770 -12.254  -7.621  1.00  0.00     0.128 C 
BRANCH  76  77
ATOM     77  O   UNL     1      -9.183 -13.134  -8.680  1.00  0.00    -0.381 OA
ATOM     78  C   UNL     1      -8.787 -12.696  -9.973  1.00  0.00     0.195 C 
ENDBRANCH  76  77
BRANCH  76  79
ATOM     79  C   UNL     1      -9.887 -11.271  -7.188  1.00  0.00     0.068 C 
BRANCH  79  80
ATOM     80  C   UNL     1     -11.314 -11.627  -7.531  1.00  0.00    -0.045 A 
ATOM     81  C   UNL     1     -12.014 -10.927  -8.522  1.00  0.00     0.004 A 
ATOM     82  C   UNL     1     -11.973 -12.653  -6.837  1.00  0.00     0.004 A 
ATOM     83  C   UNL     1     -13.338 -11.253  -8.823  1.00  0.00     0.000 A 
ATOM     84  C   UNL     1     -13.297 -12.978  -7.138  1.00  0.00     0.000 A 
ATOM     85  C   UNL     1     -13.979 -12.279  -8.132  1.00  0.00     0.000 A 
ENDBRANCH  79  80
ENDBRANCH  76  79
ENDBRANCH  74  76
ENDBRANCH  72  74
ENDBRANCH  70  71
ENDBRANCH   1  69
TORSDOF 17
ENDMDL
MODEL 36
REMARK VINA RESULT:    -5.676     12.119     16.530
REMARK INTER + INTRA:         -24.491
REMARK INTER:                 -18.023
REMARK INTRA:                  -6.468
REMARK UNBOUND:                -7.533
REMARK SMILES C=C1C(=O)N[C@H](C)C(=O)N[C@@H](CC(C)C)C(=O)N[C@@H](C(=O)O)[C@H](C)C(=O)N[C@@H](CCCN=C(N)N)C(=O)N[C@@H](/C=C/C(C)=C/[C@H](C)[C@H](Cc2ccccc2)OC)[C@H](C)C(=O)N[C@@H](C(=O)O)CCC(=O)N1C
REMARK SMILES IDX 39 1 38 2 37 3 36 4 28 6 27 7 25 8 26 9 23 11 24 12 19 13
REMARK SMILES IDX 18 14 16 15 17 16 11 18 10 19 8 20 9 21 12 24 13 25 14 26
REMARK SMILES IDX 15 27 20 28 21 29 22 30 29 32 30 33 31 34 32 35 33 36 34 37
REMARK SMILES IDX 35 38 57 43 58 44 59 45 60 46 61 47 62 49 66 50 67 51 68 52
REMARK SMILES IDX 69 53 70 54 71 55 2 56 1 57 3 58 4 59 5 60 6 62 7 63 63 65
REMARK SMILES IDX 64 66 65 67 40 69 41 70 42 71 44 72 43 73 45 74 46 75 47 76
REMARK SMILES IDX 55 77 56 78 48 79 49 80 50 81 54 82 51 83 53 84 52 85
REMARK H PARENT 38 5 27 10 18 17 10 22 22 31 34 39 34 40 35 41 35 42 61 48
REMARK H PARENT 5 61 65 68
REMARK Flexibility Score:  369.900
ROOT
ATOM      1  C   UNL     1      -1.735  -7.164   9.282  1.00  0.00     0.117 C 
ENDROOT
BRANCH   1   2
ATOM      2  N   UNL     1      -1.117  -6.488  10.423  1.00  0.00    -0.347 N 
ATOM      3  O   UNL     1      -0.972  -4.390   9.502  1.00  0.00    -0.273 OA
ATOM      4  C   UNL     1      -0.868  -5.130  10.475  1.00  0.00     0.243 C 
ATOM      5  H   UNL     1      -0.896  -7.019  11.252  1.00  0.00     0.164 HD
BRANCH   4   6
ATOM      6  C   UNL     1      -0.287  -4.654  11.830  1.00  0.00     0.171 C 
BRANCH   6   7
ATOM      7  N   UNL     1       1.161  -4.417  11.714  1.00  0.00    -0.344 N 
ATOM      8  C   UNL     1       2.013  -4.755  12.743  1.00  0.00     0.226 C 
ATOM      9  O   UNL     1       1.617  -5.240  13.796  1.00  0.00    -0.275 OA
ATOM     10  H   UNL     1       1.518  -3.956  10.887  1.00  0.00     0.164 HD
BRANCH   8  11
ATOM     11  C   UNL     1       3.481  -4.499  12.449  1.00  0.00     0.109 C 
ATOM     12  C   UNL     1       3.823  -4.962  11.033  1.00  0.00     0.021 C 
BRANCH  11  13
ATOM     13  C   UNL     1       3.824  -3.026  12.750  1.00  0.00     0.204 C 
BRANCH  13  14
ATOM     14  N   UNL     1       3.102  -2.101  11.871  1.00  0.00    -0.340 N 
ATOM     15  C   UNL     1       3.738  -1.154  11.098  1.00  0.00     0.243 C 
ATOM     16  O   UNL     1       4.962  -1.058  11.045  1.00  0.00    -0.273 OA
ATOM     17  H   UNL     1       2.087  -2.026  11.982  1.00  0.00     0.164 HD
BRANCH  15  18
ATOM     18  C   UNL     1       2.767  -0.158  10.417  1.00  0.00     0.171 C 
BRANCH  18  19
ATOM     19  N   UNL     1       3.216   1.183  10.784  1.00  0.00    -0.343 N 
ATOM     20  C   UNL     1       2.431   2.033  11.540  1.00  0.00     0.242 CG0
ATOM     21  O   UNL     1       1.269   1.753  11.825  1.00  0.00    -0.273 OA
ATOM     22  H   UNL     1       4.125   1.506  10.473  1.00  0.00     0.164 HD
ATOM     23  G   UNL     1       3.105   3.375  11.893  1.00  0.00     0.000 G0
ENDBRANCH  18  19
BRANCH  18  24
ATOM     24  C   UNL     1       2.769  -0.355   8.896  1.00  0.00     0.038 C 
BRANCH  24  25
ATOM     25  C   UNL     1       3.425   0.792   8.099  1.00  0.00    -0.015 C 
ATOM     26  C   UNL     1       2.395   1.708   7.436  1.00  0.00     0.007 C 
ATOM     27  C   UNL     1       4.358   0.212   7.033  1.00  0.00     0.007 C 
ENDBRANCH  24  25
ENDBRANCH  18  24
ENDBRANCH  15  18
ENDBRANCH  13  14
BRANCH  13  28
ATOM     28  C   UNL     1       3.513  -2.617  14.193  1.00  0.00     0.327 C 
ATOM     29  O   UNL     1       3.168  -1.508  14.572  1.00  0.00    -0.250 OA
BRANCH  28  30
ATOM     30  O   UNL     1       3.769  -3.594  15.087  1.00  0.00    -0.480 OA
ATOM     31  H   UNL     1       3.013  -4.210  14.993  1.00  0.00     0.296 HD
ENDBRANCH  28  30
ENDBRANCH  13  28
ENDBRANCH  11  13
ENDBRANCH   8  11
ENDBRANCH   6   7
BRANCH   6  32
ATOM     32  C   UNL     1      -1.016  -3.381  12.272  1.00  0.00     0.037 C 
BRANCH  32  33
ATOM     33  C   UNL     1      -2.421  -3.677  12.815  1.00  0.00     0.026 C 
BRANCH  33  34
ATOM     34  C   UNL     1      -2.391  -4.536  14.080  1.00  0.00     0.146 C 
BRANCH  34  35
ATOM     35  N   UNL     1      -3.653  -4.374  14.788  1.00  0.00    -0.254 NA
ATOM     36  C   UNL     1      -4.319  -5.422  15.105  1.00  0.00     0.185 C 
ATOM     37  N   UNL     1      -5.481  -5.284  15.763  1.00  0.00    -0.370 N 
ATOM     38  N   UNL     1      -4.024  -6.713  14.872  1.00  0.00    -0.370 N 
ATOM     39  H   UNL     1      -5.767  -4.339  15.985  1.00  0.00     0.159 HD
ATOM     40  H   UNL     1      -5.969  -6.049  16.195  1.00  0.00     0.159 HD
ATOM     41  H   UNL     1      -4.697  -7.441  15.047  1.00  0.00     0.159 HD
ATOM     42  H   UNL     1      -3.186  -6.965  14.371  1.00  0.00     0.159 HD
ENDBRANCH  34  35
ENDBRANCH  33  34
ENDBRANCH  32  33
ENDBRANCH   6  32
ENDBRANCH   4   6
ENDBRANCH   1   2
BRANCH   1  43
ATOM     43  C   UNL     1      -3.281  -7.060   9.422  1.00  0.00     0.102 C 
ATOM     44  C   UNL     1      -3.856  -5.735   8.895  1.00  0.00     0.020 C 
BRANCH  43  45
ATOM     45  C   UNL     1      -3.728  -7.409  10.845  1.00  0.00     0.225 C 
ATOM     46  O   UNL     1      -3.646  -6.623  11.785  1.00  0.00    -0.275 OA
ATOM     47  N   UNL     1      -4.149  -8.705  11.033  1.00  0.00    -0.342 N 
ATOM     48  H   UNL     1      -4.353  -9.286  10.232  1.00  0.00     0.164 HD
BRANCH  47  49
ATOM     49  C   UNL     1      -4.639  -9.171  12.334  1.00  0.00     0.192 C 
BRANCH  49  50
ATOM     50  C   UNL     1      -4.472 -10.689  12.434  1.00  0.00     0.047 C 
BRANCH  50  51
ATOM     51  C   UNL     1      -4.443 -11.363  11.055  1.00  0.00     0.103 C 
BRANCH  51  52
ATOM     52  C   UNL     1      -5.799 -11.958  10.680  1.00  0.00     0.226 C 
ATOM     53  O   UNL     1      -6.362 -11.590   9.647  1.00  0.00    -0.275 OA
BRANCH  52  54
ATOM     54  N   UNL     1      -6.294 -12.971  11.522  1.00  0.00    -0.311 N 
ATOM     55  C   UNL     1      -7.354 -12.690  12.500  1.00  0.00     0.153 C 
BRANCH  54  56
ATOM     56  C   UNL     1      -5.800 -14.284  11.458  1.00  0.00     0.102 C 
ATOM     57  C   UNL     1      -4.833 -14.781  12.246  1.00  0.00     0.043 C 
BRANCH  56  58
ATOM     58  C   UNL     1      -6.379 -15.283  10.484  1.00  0.00     0.268 C 
ATOM     59  O   UNL     1      -6.229 -15.201   9.272  1.00  0.00    -0.268 OA
ATOM     60  N   UNL     1      -7.032 -16.323  11.101  1.00  0.00    -0.339 N 
ATOM     61  H   UNL     1      -7.122 -16.312  12.110  1.00  0.00     0.164 HD
BRANCH  60  62
ATOM     62  C   UNL     1      -7.614 -17.434  10.349  1.00  0.00     0.168 CG0
ATOM     63  C   UNL     1      -7.350 -18.764  11.044  1.00  0.00     0.041 C 
ATOM     64  G   UNL     1      -7.042 -17.444   8.916  1.00  0.00     0.000 G0
ENDBRANCH  60  62
ENDBRANCH  56  58
ENDBRANCH  54  56
ENDBRANCH  52  54
ENDBRANCH  51  52
ENDBRANCH  50  51
ENDBRANCH  49  50
BRANCH  49  65
ATOM     65  C   UNL     1      -6.117  -8.807  12.546  1.00  0.00     0.326 C 
ATOM     66  O   UNL     1      -6.980  -8.806  11.680  1.00  0.00    -0.250 OA
BRANCH  65  67
ATOM     67  O   UNL     1      -6.425  -8.408  13.799  1.00  0.00    -0.480 OA
ATOM     68  H   UNL     1      -5.670  -7.834  14.052  1.00  0.00     0.296 HD
ENDBRANCH  65  67
ENDBRANCH  49  65
ENDBRANCH  47  49
ENDBRANCH  43  45
ENDBRANCH   1  43
BRANCH   1  69
ATOM     69  C   UNL     1      -1.096  -8.539   9.207  1.00  0.00    -0.001 C 
ATOM     70  C   UNL     1      -1.676  -9.689   8.821  1.00  0.00     0.001 C 
BRANCH  70  71
ATOM     71  C   UNL     1      -1.043 -11.007   8.732  1.00  0.00    -0.055 C 
ATOM     72  C   UNL     1      -0.562 -11.550   9.870  1.00  0.00    -0.018 C 
ATOM     73  C   UNL     1      -0.981 -11.667   7.379  1.00  0.00     0.044 C 
BRANCH  72  74
ATOM     74  C   UNL     1       0.134 -12.887  10.080  1.00  0.00     0.038 C 
ATOM     75  C   UNL     1      -0.396 -13.471  11.395  1.00  0.00     0.015 C 
BRANCH  74  76
ATOM     76  C   UNL     1       1.674 -12.663  10.039  1.00  0.00     0.128 C 
BRANCH  76  77
ATOM     77  O   UNL     1       2.205 -12.658  11.375  1.00  0.00    -0.381 OA
ATOM     78  C   UNL     1       2.832 -11.435  11.736  1.00  0.00     0.195 C 
ENDBRANCH  76  77
BRANCH  76  79
ATOM     79  C   UNL     1       2.427 -13.636   9.098  1.00  0.00     0.068 C 
BRANCH  79  80
ATOM     80  C   UNL     1       2.140 -13.554   7.618  1.00  0.00    -0.045 A 
ATOM     81  C   UNL     1       1.392 -14.546   6.971  1.00  0.00     0.004 A 
ATOM     82  C   UNL     1       2.645 -12.487   6.859  1.00  0.00     0.004 A 
ATOM     83  C   UNL     1       1.143 -14.470   5.600  1.00  0.00     0.000 A 
ATOM     84  C   UNL     1       2.395 -12.412   5.487  1.00  0.00     0.000 A 
ATOM     85  C   UNL     1       1.643 -13.402   4.858  1.00  0.00     0.000 A 
ENDBRANCH  79  80
ENDBRANCH  76  79
ENDBRANCH  74  76
ENDBRANCH  72  74
ENDBRANCH  70  71
ENDBRANCH   1  69
TORSDOF 17
ENDMDL
MODEL 37
REMARK VINA RESULT:    -5.674     12.442     16.789
REMARK INTER + INTRA:         -24.485
REMARK INTER:                 -18.500
REMARK INTRA:                  -5.986
REMARK UNBOUND:                -7.533
REMARK SMILES C=C1C(=O)N[C@H](C)C(=O)N[C@@H](CC(C)C)C(=O)N[C@@H](C(=O)O)[C@H](C)C(=O)N[C@@H](CCCN=C(N)N)C(=O)N[C@@H](/C=C/C(C)=C/[C@H](C)[C@H](Cc2ccccc2)OC)[C@H](C)C(=O)N[C@@H](C(=O)O)CCC(=O)N1C
REMARK SMILES IDX 39 1 38 2 37 3 36 4 28 6 27 7 25 8 26 9 23 11 24 12 19 13
REMARK SMILES IDX 18 14 16 15 17 16 11 18 10 19 8 20 9 21 12 24 13 25 14 26
REMARK SMILES IDX 15 27 20 28 21 29 22 30 29 32 30 33 31 34 32 35 33 36 34 37
REMARK SMILES IDX 35 38 57 43 58 44 59 45 60 46 61 47 62 49 66 50 67 51 68 52
REMARK SMILES IDX 69 53 70 54 71 55 2 56 1 57 3 58 4 59 5 60 6 62 7 63 63 65
REMARK SMILES IDX 64 66 65 67 40 69 41 70 42 71 44 72 43 73 45 74 46 75 47 76
REMARK SMILES IDX 55 77 56 78 48 79 49 80 50 81 54 82 51 83 53 84 52 85
REMARK H PARENT 38 5 27 10 18 17 10 22 22 31 34 39 34 40 35 41 35 42 61 48
REMARK H PARENT 5 61 65 68
REMARK Flexibility Score:  369.900
ROOT
ATOM      1  C   UNL     1      -1.679  -7.127   9.329  1.00  0.00     0.117 C 
ENDROOT
BRANCH   1   2
ATOM      2  N   UNL     1      -1.056  -6.504  10.497  1.00  0.00    -0.347 N 
ATOM      3  O   UNL     1      -0.710  -4.422   9.594  1.00  0.00    -0.273 OA
ATOM      4  C   UNL     1      -0.703  -5.170  10.566  1.00  0.00     0.243 C 
ATOM      5  H   UNL     1      -0.911  -7.052  11.331  1.00  0.00     0.164 HD
BRANCH   4   6
ATOM      6  C   UNL     1      -0.141  -4.744  11.946  1.00  0.00     0.171 C 
BRANCH   6   7
ATOM      7  N   UNL     1       0.346  -3.357  11.897  1.00  0.00    -0.344 N 
ATOM      8  C   UNL     1       1.629  -3.077  11.478  1.00  0.00     0.226 C 
ATOM      9  O   UNL     1       2.422  -3.952  11.152  1.00  0.00    -0.275 OA
ATOM     10  H   UNL     1      -0.257  -2.612  12.223  1.00  0.00     0.164 HD
BRANCH   8  11
ATOM     11  C   UNL     1       1.963  -1.596  11.431  1.00  0.00     0.109 C 
ATOM     12  C   UNL     1       2.397  -1.111  12.814  1.00  0.00     0.021 C 
BRANCH  11  13
ATOM     13  C   UNL     1       2.977  -1.326  10.302  1.00  0.00     0.204 C 
BRANCH  13  14
ATOM     14  N   UNL     1       2.779  -0.010   9.686  1.00  0.00    -0.340 N 
ATOM     15  C   UNL     1       3.158   0.275   8.392  1.00  0.00     0.243 C 
ATOM     16  O   UNL     1       3.636  -0.574   7.641  1.00  0.00    -0.273 OA
ATOM     17  H   UNL     1       2.530   0.773  10.296  1.00  0.00     0.164 HD
BRANCH  15  18
ATOM     18  C   UNL     1       3.042   1.776   8.030  1.00  0.00     0.171 C 
BRANCH  18  19
ATOM     19  N   UNL     1       2.639   1.839   6.627  1.00  0.00    -0.343 N 
ATOM     20  C   UNL     1       3.521   2.214   5.631  1.00  0.00     0.242 CG0
ATOM     21  O   UNL     1       4.644   2.639   5.893  1.00  0.00    -0.273 OA
ATOM     22  H   UNL     1       1.686   1.607   6.372  1.00  0.00     0.164 HD
ATOM     23  G   UNL     1       2.938   2.144   4.205  1.00  0.00     0.000 G0
ENDBRANCH  18  19
BRANCH  18  24
ATOM     24  C   UNL     1       2.024   2.475   8.939  1.00  0.00     0.038 C 
BRANCH  24  25
ATOM     25  C   UNL     1       2.527   3.783   9.586  1.00  0.00    -0.015 C 
ATOM     26  C   UNL     1       3.893   4.212   9.049  1.00  0.00     0.007 C 
ATOM     27  C   UNL     1       2.602   3.610  11.105  1.00  0.00     0.007 C 
ENDBRANCH  24  25
ENDBRANCH  18  24
ENDBRANCH  15  18
ENDBRANCH  13  14
BRANCH  13  28
ATOM     28  C   UNL     1       4.434  -1.393  10.770  1.00  0.00     0.327 C 
ATOM     29  O   UNL     1       5.124  -0.448  11.122  1.00  0.00    -0.250 OA
BRANCH  28  30
ATOM     30  O   UNL     1       4.971  -2.624  10.653  1.00  0.00    -0.480 OA
ATOM     31  H   UNL     1       5.111  -2.915  11.578  1.00  0.00     0.296 HD
ENDBRANCH  28  30
ENDBRANCH  13  28
ENDBRANCH  11  13
ENDBRANCH   8  11
ENDBRANCH   6   7
BRANCH   6  32
ATOM     32  C   UNL     1      -1.237  -4.902  13.006  1.00  0.00     0.037 C 
BRANCH  32  33
ATOM     33  C   UNL     1      -0.791  -5.796  14.172  1.00  0.00     0.026 C 
BRANCH  33  34
ATOM     34  C   UNL     1      -1.963  -6.521  14.835  1.00  0.00     0.146 C 
BRANCH  34  35
ATOM     35  N   UNL     1      -3.062  -5.580  15.004  1.00  0.00    -0.254 NA
ATOM     36  C   UNL     1      -4.169  -6.008  15.487  1.00  0.00     0.185 C 
ATOM     37  N   UNL     1      -5.186  -5.149  15.652  1.00  0.00    -0.370 N 
ATOM     38  N   UNL     1      -4.494  -7.253  15.879  1.00  0.00    -0.370 N 
ATOM     39  H   UNL     1      -5.015  -4.187  15.389  1.00  0.00     0.159 HD
ATOM     40  H   UNL     1      -6.015  -5.364  16.179  1.00  0.00     0.159 HD
ATOM     41  H   UNL     1      -5.443  -7.494  16.112  1.00  0.00     0.159 HD
ATOM     42  H   UNL     1      -3.829  -8.007  15.797  1.00  0.00     0.159 HD
ENDBRANCH  34  35
ENDBRANCH  33  34
ENDBRANCH  32  33
ENDBRANCH   6  32
ENDBRANCH   4   6
ENDBRANCH   1   2
BRANCH   1  43
ATOM     43  C   UNL     1      -3.220  -6.934   9.427  1.00  0.00     0.102 C 
ATOM     44  C   UNL     1      -3.683  -5.514   9.062  1.00  0.00     0.020 C 
BRANCH  43  45
ATOM     45  C   UNL     1      -3.752  -7.434  10.774  1.00  0.00     0.225 C 
ATOM     46  O   UNL     1      -3.543  -6.853  11.835  1.00  0.00    -0.275 OA
ATOM     47  N   UNL     1      -4.409  -8.642  10.739  1.00  0.00    -0.342 N 
ATOM     48  H   UNL     1      -4.703  -9.027   9.852  1.00  0.00     0.164 HD
BRANCH  47  49
ATOM     49  C   UNL     1      -5.003  -9.226  11.946  1.00  0.00     0.192 C 
BRANCH  49  50
ATOM     50  C   UNL     1      -4.211 -10.469  12.359  1.00  0.00     0.047 C 
BRANCH  50  51
ATOM     51  C   UNL     1      -3.653 -10.357  13.784  1.00  0.00     0.103 C 
BRANCH  51  52
ATOM     52  C   UNL     1      -4.670 -10.800  14.834  1.00  0.00     0.226 C 
ATOM     53  O   UNL     1      -5.478  -9.985  15.284  1.00  0.00    -0.275 OA
BRANCH  52  54
ATOM     54  N   UNL     1      -4.667 -12.166  15.173  1.00  0.00    -0.311 N 
ATOM     55  C   UNL     1      -3.414 -12.863  15.492  1.00  0.00     0.153 C 
BRANCH  54  56
ATOM     56  C   UNL     1      -5.857 -12.911  15.224  1.00  0.00     0.102 C 
ATOM     57  C   UNL     1      -6.503 -13.252  16.351  1.00  0.00     0.043 C 
BRANCH  56  58
ATOM     58  C   UNL     1      -6.545 -13.360  13.956  1.00  0.00     0.268 C 
ATOM     59  O   UNL     1      -7.734 -13.172  13.737  1.00  0.00    -0.268 OA
ATOM     60  N   UNL     1      -5.687 -13.939  13.052  1.00  0.00    -0.339 N 
ATOM     61  H   UNL     1      -4.717 -14.068  13.315  1.00  0.00     0.164 HD
BRANCH  60  62
ATOM     62  C   UNL     1      -6.133 -14.390  11.734  1.00  0.00     0.168 CG0
ATOM     63  C   UNL     1      -5.914 -13.307  10.684  1.00  0.00     0.041 C 
ATOM     64  G   UNL     1      -7.620 -14.793  11.801  1.00  0.00     0.000 G0
ENDBRANCH  60  62
ENDBRANCH  56  58
ENDBRANCH  54  56
ENDBRANCH  52  54
ENDBRANCH  51  52
ENDBRANCH  50  51
ENDBRANCH  49  50
BRANCH  49  65
ATOM     65  C   UNL     1      -6.474  -9.611  11.724  1.00  0.00     0.326 C 
ATOM     66  O   UNL     1      -7.196  -9.179  10.837  1.00  0.00    -0.250 OA
BRANCH  65  67
ATOM     67  O   UNL     1      -6.980 -10.459  12.647  1.00  0.00    -0.480 OA
ATOM     68  H   UNL     1      -6.896 -11.340  12.222  1.00  0.00     0.296 HD
ENDBRANCH  65  67
ENDBRANCH  49  65
ENDBRANCH  47  49
ENDBRANCH  43  45
ENDBRANCH   1  43
BRANCH   1  69
ATOM     69  C   UNL     1      -1.120  -8.536   9.251  1.00  0.00    -0.001 C 
ATOM     70  C   UNL     1      -1.643  -9.588   8.597  1.00  0.00     0.001 C 
BRANCH  70  71
ATOM     71  C   UNL     1      -1.083 -10.938   8.512  1.00  0.00    -0.055 C 
ATOM     72  C   UNL     1      -0.579 -11.481   9.640  1.00  0.00    -0.018 C 
ATOM     73  C   UNL     1      -1.116 -11.628   7.173  1.00  0.00     0.044 C 
BRANCH  72  74
ATOM     74  C   UNL     1       0.056 -12.848   9.850  1.00  0.00     0.038 C 
ATOM     75  C   UNL     1       0.041 -13.127  11.358  1.00  0.00     0.015 C 
BRANCH  74  76
ATOM     76  C   UNL     1       1.472 -12.848   9.200  1.00  0.00     0.128 C 
BRANCH  76  77
ATOM     77  O   UNL     1       2.481 -12.794  10.223  1.00  0.00    -0.381 OA
ATOM     78  C   UNL     1       3.495 -11.830   9.973  1.00  0.00     0.195 C 
ENDBRANCH  76  77
BRANCH  76  79
ATOM     79  C   UNL     1       1.701 -14.001   8.192  1.00  0.00     0.068 C 
BRANCH  79  80
ATOM     80  C   UNL     1       2.003 -13.637   6.758  1.00  0.00    -0.045 A 
ATOM     81  C   UNL     1       2.505 -12.372   6.425  1.00  0.00     0.004 A 
ATOM     82  C   UNL     1       1.758 -14.557   5.728  1.00  0.00     0.004 A 
ATOM     83  C   UNL     1       2.768 -12.038   5.095  1.00  0.00     0.000 A 
ATOM     84  C   UNL     1       2.021 -14.222   4.398  1.00  0.00     0.000 A 
ATOM     85  C   UNL     1       2.528 -12.963   4.082  1.00  0.00     0.000 A 
ENDBRANCH  79  80
ENDBRANCH  76  79
ENDBRANCH  74  76
ENDBRANCH  72  74
ENDBRANCH  70  71
ENDBRANCH   1  69
TORSDOF 17
ENDMDL
MODEL 38
REMARK VINA RESULT:    -5.669     12.643     18.269
REMARK INTER + INTRA:         -24.470
REMARK INTER:                 -16.519
REMARK INTRA:                  -7.951
REMARK UNBOUND:                -7.533
REMARK SMILES C=C1C(=O)N[C@H](C)C(=O)N[C@@H](CC(C)C)C(=O)N[C@@H](C(=O)O)[C@H](C)C(=O)N[C@@H](CCCN=C(N)N)C(=O)N[C@@H](/C=C/C(C)=C/[C@H](C)[C@H](Cc2ccccc2)OC)[C@H](C)C(=O)N[C@@H](C(=O)O)CCC(=O)N1C
REMARK SMILES IDX 39 1 38 2 37 3 36 4 28 6 27 7 25 8 26 9 23 11 24 12 19 13
REMARK SMILES IDX 18 14 16 15 17 16 11 18 10 19 8 20 9 21 12 24 13 25 14 26
REMARK SMILES IDX 15 27 20 28 21 29 22 30 29 32 30 33 31 34 32 35 33 36 34 37
REMARK SMILES IDX 35 38 57 43 58 44 59 45 60 46 61 47 62 49 66 50 67 51 68 52
REMARK SMILES IDX 69 53 70 54 71 55 2 56 1 57 3 58 4 59 5 60 6 62 7 63 63 65
REMARK SMILES IDX 64 66 65 67 40 69 41 70 42 71 44 72 43 73 45 74 46 75 47 76
REMARK SMILES IDX 55 77 56 78 48 79 49 80 50 81 54 82 51 83 53 84 52 85
REMARK H PARENT 38 5 27 10 18 17 10 22 22 31 34 39 34 40 35 41 35 42 61 48
REMARK H PARENT 5 61 65 68
REMARK Flexibility Score:  369.900
ROOT
ATOM      1  C   UNL     1      -0.110  -8.267  10.983  1.00  0.00     0.117 C 
ENDROOT
BRANCH   1   2
ATOM      2  N   UNL     1       0.889  -7.294  11.426  1.00  0.00    -0.347 N 
ATOM      3  O   UNL     1       2.388  -8.774  12.337  1.00  0.00    -0.273 OA
ATOM      4  C   UNL     1       2.105  -7.633  11.987  1.00  0.00     0.243 C 
ATOM      5  H   UNL     1       0.721  -6.310  11.276  1.00  0.00     0.164 HD
BRANCH   4   6
ATOM      6  C   UNL     1       3.015  -6.415  12.288  1.00  0.00     0.171 C 
BRANCH   6   7
ATOM      7  N   UNL     1       2.325  -5.161  11.944  1.00  0.00    -0.344 N 
ATOM      8  C   UNL     1       2.950  -4.204  11.174  1.00  0.00     0.226 C 
ATOM      9  O   UNL     1       4.097  -4.334  10.762  1.00  0.00    -0.275 OA
ATOM     10  H   UNL     1       1.402  -4.989  12.323  1.00  0.00     0.164 HD
BRANCH   8  11
ATOM     11  C   UNL     1       2.089  -2.993  10.862  1.00  0.00     0.109 C 
ATOM     12  C   UNL     1       0.751  -3.095  11.594  1.00  0.00     0.021 C 
BRANCH  11  13
ATOM     13  C   UNL     1       2.884  -1.702  11.141  1.00  0.00     0.204 C 
BRANCH  13  14
ATOM     14  N   UNL     1       2.665  -0.685  10.108  1.00  0.00    -0.340 N 
ATOM     15  C   UNL     1       3.640  -0.310   9.208  1.00  0.00     0.243 C 
ATOM     16  O   UNL     1       4.745  -0.848   9.170  1.00  0.00    -0.273 OA
ATOM     17  H   UNL     1       1.830  -0.098  10.181  1.00  0.00     0.164 HD
BRANCH  15  18
ATOM     18  C   UNL     1       3.251   0.921   8.352  1.00  0.00     0.171 C 
BRANCH  18  19
ATOM     19  N   UNL     1       2.777   0.406   7.069  1.00  0.00    -0.343 N 
ATOM     20  C   UNL     1       3.018   1.071   5.883  1.00  0.00     0.242 CG0
ATOM     21  O   UNL     1       3.525   2.191   5.865  1.00  0.00    -0.273 OA
ATOM     22  H   UNL     1       2.251  -0.461   7.045  1.00  0.00     0.164 HD
ATOM     23  G   UNL     1       2.510   0.336   4.626  1.00  0.00     0.000 G0
ENDBRANCH  18  19
BRANCH  18  24
ATOM     24  C   UNL     1       2.173   1.752   9.058  1.00  0.00     0.038 C 
BRANCH  24  25
ATOM     25  C   UNL     1       2.671   3.091   9.641  1.00  0.00    -0.015 C 
ATOM     26  C   UNL     1       2.395   3.215  11.140  1.00  0.00     0.007 C 
ATOM     27  C   UNL     1       2.008   4.254   8.898  1.00  0.00     0.007 C 
ENDBRANCH  24  25
ENDBRANCH  18  24
ENDBRANCH  15  18
ENDBRANCH  13  14
BRANCH  13  28
ATOM     28  C   UNL     1       2.540  -1.061  12.489  1.00  0.00     0.327 C 
ATOM     29  O   UNL     1       1.903  -0.033  12.659  1.00  0.00    -0.250 OA
BRANCH  28  30
ATOM     30  O   UNL     1       3.118  -1.686  13.534  1.00  0.00    -0.480 OA
ATOM     31  H   UNL     1       2.521  -2.439  13.726  1.00  0.00     0.296 HD
ENDBRANCH  28  30
ENDBRANCH  13  28
ENDBRANCH  11  13
ENDBRANCH   8  11
ENDBRANCH   6   7
BRANCH   6  32
ATOM     32  C   UNL     1       3.409  -6.435  13.769  1.00  0.00     0.037 C 
BRANCH  32  33
ATOM     33  C   UNL     1       2.336  -5.798  14.663  1.00  0.00     0.026 C 
BRANCH  33  34
ATOM     34  C   UNL     1       1.895  -6.723  15.797  1.00  0.00     0.146 C 
BRANCH  34  35
ATOM     35  N   UNL     1       0.888  -6.038  16.597  1.00  0.00    -0.254 NA
ATOM     36  C   UNL     1      -0.348  -6.282  16.367  1.00  0.00     0.185 C 
ATOM     37  N   UNL     1      -1.284  -5.661  17.101  1.00  0.00    -0.370 N 
ATOM     38  N   UNL     1      -0.891  -7.109  15.456  1.00  0.00    -0.370 N 
ATOM     39  H   UNL     1      -0.953  -5.027  17.818  1.00  0.00     0.159 HD
ATOM     40  H   UNL     1      -2.255  -5.923  17.102  1.00  0.00     0.159 HD
ATOM     41  H   UNL     1      -1.882  -7.109  15.278  1.00  0.00     0.159 HD
ATOM     42  H   UNL     1      -0.305  -7.630  14.823  1.00  0.00     0.159 HD
ENDBRANCH  34  35
ENDBRANCH  33  34
ENDBRANCH  32  33
ENDBRANCH   6  32
ENDBRANCH   4   6
ENDBRANCH   1   2
BRANCH   1  43
ATOM     43  C   UNL     1      -0.849  -7.689   9.742  1.00  0.00     0.102 C 
ATOM     44  C   UNL     1      -1.563  -6.355  10.022  1.00  0.00     0.020 C 
BRANCH  43  45
ATOM     45  C   UNL     1      -1.744  -8.748   9.092  1.00  0.00     0.225 C 
ATOM     46  O   UNL     1      -2.851  -8.496   8.625  1.00  0.00    -0.275 OA
ATOM     47  N   UNL     1      -1.269 -10.039   9.145  1.00  0.00    -0.342 N 
ATOM     48  H   UNL     1      -0.304 -10.206   9.391  1.00  0.00     0.164 HD
BRANCH  47  49
ATOM     49  C   UNL     1      -2.002 -11.151   8.532  1.00  0.00     0.192 C 
BRANCH  49  50
ATOM     50  C   UNL     1      -2.561 -12.063   9.627  1.00  0.00     0.047 C 
BRANCH  50  51
ATOM     51  C   UNL     1      -3.717 -11.409  10.396  1.00  0.00     0.103 C 
BRANCH  51  52
ATOM     52  C   UNL     1      -4.362 -12.371  11.391  1.00  0.00     0.226 C 
ATOM     53  O   UNL     1      -3.659 -12.950  12.223  1.00  0.00    -0.275 OA
BRANCH  52  54
ATOM     54  N   UNL     1      -5.764 -12.480  11.339  1.00  0.00    -0.311 N 
ATOM     55  C   UNL     1      -6.574 -11.483  10.627  1.00  0.00     0.153 C 
BRANCH  54  56
ATOM     56  C   UNL     1      -6.439 -13.545  11.959  1.00  0.00     0.102 C 
ATOM     57  C   UNL     1      -7.353 -13.412  12.933  1.00  0.00     0.043 C 
BRANCH  56  58
ATOM     58  C   UNL     1      -6.204 -14.971  11.520  1.00  0.00     0.268 C 
ATOM     59  O   UNL     1      -6.605 -15.419  10.454  1.00  0.00    -0.268 OA
ATOM     60  N   UNL     1      -5.441 -15.691  12.409  1.00  0.00    -0.339 N 
ATOM     61  H   UNL     1      -5.157 -15.250  13.275  1.00  0.00     0.164 HD
BRANCH  60  62
ATOM     62  C   UNL     1      -5.042 -17.074  12.151  1.00  0.00     0.168 CG0
ATOM     63  C   UNL     1      -3.734 -17.129  11.371  1.00  0.00     0.041 C 
ATOM     64  G   UNL     1      -6.165 -17.802  11.385  1.00  0.00     0.000 G0
ENDBRANCH  60  62
ENDBRANCH  56  58
ENDBRANCH  54  56
ENDBRANCH  52  54
ENDBRANCH  51  52
ENDBRANCH  50  51
ENDBRANCH  49  50
BRANCH  49  65
ATOM     65  C   UNL     1      -1.104 -11.973   7.594  1.00  0.00     0.326 C 
ATOM     66  O   UNL     1      -0.980 -11.793   6.392  1.00  0.00    -0.250 OA
BRANCH  65  67
ATOM     67  O   UNL     1      -0.461 -13.002   8.188  1.00  0.00    -0.480 OA
ATOM     68  H   UNL     1      -0.057 -12.594   8.985  1.00  0.00     0.296 HD
ENDBRANCH  65  67
ENDBRANCH  49  65
ENDBRANCH  47  49
ENDBRANCH  43  45
ENDBRANCH   1  43
BRANCH   1  69
ATOM     69  C   UNL     1      -0.918  -8.634  12.214  1.00  0.00    -0.001 C 
ATOM     70  C   UNL     1      -1.162  -9.867  12.694  1.00  0.00     0.001 C 
BRANCH  70  71
ATOM     71  C   UNL     1      -1.926 -10.208  13.895  1.00  0.00    -0.055 C 
ATOM     72  C   UNL     1      -3.221  -9.830  13.944  1.00  0.00    -0.018 C 
ATOM     73  C   UNL     1      -1.216 -10.963  14.988  1.00  0.00     0.044 C 
BRANCH  72  74
ATOM     74  C   UNL     1      -4.247 -10.046  15.047  1.00  0.00     0.038 C 
ATOM     75  C   UNL     1      -5.475 -10.698  14.401  1.00  0.00     0.015 C 
BRANCH  74  76
ATOM     76  C   UNL     1      -4.523  -8.683  15.748  1.00  0.00     0.128 C 
BRANCH  76  77
ATOM     77  O   UNL     1      -3.322  -8.200  16.373  1.00  0.00    -0.381 OA
ATOM     78  C   UNL     1      -3.000  -8.871  17.584  1.00  0.00     0.195 C 
ENDBRANCH  76  77
BRANCH  76  79
ATOM     79  C   UNL     1      -5.187  -7.626  14.830  1.00  0.00     0.068 C 
BRANCH  79  80
ATOM     80  C   UNL     1      -4.375  -6.413  14.445  1.00  0.00    -0.045 A 
ATOM     81  C   UNL     1      -3.604  -6.402  13.275  1.00  0.00     0.004 A 
ATOM     82  C   UNL     1      -4.358  -5.281  15.274  1.00  0.00     0.004 A 
ATOM     83  C   UNL     1      -2.845  -5.281  12.933  1.00  0.00     0.000 A 
ATOM     84  C   UNL     1      -3.598  -4.161  14.932  1.00  0.00     0.000 A 
ATOM     85  C   UNL     1      -2.843  -4.161  13.761  1.00  0.00     0.000 A 
ENDBRANCH  79  80
ENDBRANCH  76  79
ENDBRANCH  74  76
ENDBRANCH  72  74
ENDBRANCH  70  71
ENDBRANCH   1  69
TORSDOF 17
ENDMDL
MODEL 39
REMARK VINA RESULT:    -5.645      8.863     15.008
REMARK INTER + INTRA:         -24.398
REMARK INTER:                 -18.946
REMARK INTRA:                  -5.451
REMARK UNBOUND:                -7.533
REMARK SMILES C=C1C(=O)N[C@H](C)C(=O)N[C@@H](CC(C)C)C(=O)N[C@@H](C(=O)O)[C@H](C)C(=O)N[C@@H](CCCN=C(N)N)C(=O)N[C@@H](/C=C/C(C)=C/[C@H](C)[C@H](Cc2ccccc2)OC)[C@H](C)C(=O)N[C@@H](C(=O)O)CCC(=O)N1C
REMARK SMILES IDX 39 1 38 2 37 3 36 4 28 6 27 7 25 8 26 9 23 11 24 12 19 13
REMARK SMILES IDX 18 14 16 15 17 16 11 18 10 19 8 20 9 21 12 24 13 25 14 26
REMARK SMILES IDX 15 27 20 28 21 29 22 30 29 32 30 33 31 34 32 35 33 36 34 37
REMARK SMILES IDX 35 38 57 43 58 44 59 45 60 46 61 47 62 49 66 50 67 51 68 52
REMARK SMILES IDX 69 53 70 54 71 55 2 56 1 57 3 58 4 59 5 60 6 62 7 63 63 65
REMARK SMILES IDX 64 66 65 67 40 69 41 70 42 71 44 72 43 73 45 74 46 75 47 76
REMARK SMILES IDX 55 77 56 78 48 79 49 80 50 81 54 82 51 83 53 84 52 85
REMARK H PARENT 38 5 27 10 18 17 10 22 22 31 34 39 34 40 35 41 35 42 61 48
REMARK H PARENT 5 61 65 68
REMARK Flexibility Score:  369.900
ROOT
ATOM      1  C   UNL     1      -3.357 -11.557  11.508  1.00  0.00     0.117 C 
ENDROOT
BRANCH   1   2
ATOM      2  N   UNL     1      -4.421 -12.544  11.700  1.00  0.00    -0.347 N 
ATOM      3  O   UNL     1      -5.828 -11.814  10.040  1.00  0.00    -0.273 OA
ATOM      4  C   UNL     1      -5.533 -12.650  10.888  1.00  0.00     0.243 C 
ATOM      5  H   UNL     1      -4.332 -13.230  12.434  1.00  0.00     0.164 HD
BRANCH   4   6
ATOM      6  C   UNL     1      -6.463 -13.835  11.255  1.00  0.00     0.171 C 
BRANCH   6   7
ATOM      7  N   UNL     1      -6.146 -15.012  10.431  1.00  0.00    -0.344 N 
ATOM      8  C   UNL     1      -6.825 -15.249   9.255  1.00  0.00     0.226 C 
ATOM      9  O   UNL     1      -7.725 -14.521   8.853  1.00  0.00    -0.275 OA
ATOM     10  H   UNL     1      -5.456 -15.673  10.764  1.00  0.00     0.164 HD
BRANCH   8  11
ATOM     11  C   UNL     1      -6.346 -16.472   8.492  1.00  0.00     0.109 C 
ATOM     12  C   UNL     1      -5.786 -17.511   9.463  1.00  0.00     0.021 C 
BRANCH  11  13
ATOM     13  C   UNL     1      -7.471 -16.985   7.571  1.00  0.00     0.204 C 
BRANCH  13  14
ATOM     14  N   UNL     1      -8.799 -16.588   8.048  1.00  0.00    -0.340 N 
ATOM     15  C   UNL     1      -9.916 -17.380   7.896  1.00  0.00     0.243 C 
ATOM     16  O   UNL     1      -9.866 -18.505   7.403  1.00  0.00    -0.273 OA
ATOM     17  H   UNL     1      -8.938 -15.613   8.326  1.00  0.00     0.164 HD
BRANCH  15  18
ATOM     18  C   UNL     1     -11.236 -16.670   8.285  1.00  0.00     0.171 C 
BRANCH  18  19
ATOM     19  N   UNL     1     -11.529 -17.057   9.664  1.00  0.00    -0.343 N 
ATOM     20  C   UNL     1     -12.740 -17.618  10.022  1.00  0.00     0.242 CG0
ATOM     21  O   UNL     1     -13.673 -17.695   9.227  1.00  0.00    -0.273 OA
ATOM     22  H   UNL     1     -10.830 -16.906  10.382  1.00  0.00     0.164 HD
ATOM     23  G   UNL     1     -12.836 -18.034  11.504  1.00  0.00     0.000 G0
ENDBRANCH  18  19
BRANCH  18  24
ATOM     24  C   UNL     1     -11.093 -15.149   8.147  1.00  0.00     0.038 C 
BRANCH  24  25
ATOM     25  C   UNL     1     -11.843 -14.538   6.944  1.00  0.00    -0.015 C 
ATOM     26  C   UNL     1     -12.233 -13.078   7.178  1.00  0.00     0.007 C 
ATOM     27  C   UNL     1     -13.097 -15.365   6.646  1.00  0.00     0.007 C 
ENDBRANCH  24  25
ENDBRANCH  18  24
ENDBRANCH  15  18
ENDBRANCH  13  14
BRANCH  13  28
ATOM     28  C   UNL     1      -7.341 -16.491   6.127  1.00  0.00     0.327 C 
ATOM     29  O   UNL     1      -6.569 -16.920   5.283  1.00  0.00    -0.250 OA
BRANCH  28  30
ATOM     30  O   UNL     1      -8.104 -15.411   5.867  1.00  0.00    -0.480 OA
ATOM     31  H   UNL     1      -8.775 -15.412   6.581  1.00  0.00     0.296 HD
ENDBRANCH  28  30
ENDBRANCH  13  28
ENDBRANCH  11  13
ENDBRANCH   8  11
ENDBRANCH   6   7
BRANCH   6  32
ATOM     32  C   UNL     1      -6.307 -14.153  12.746  1.00  0.00     0.037 C 
BRANCH  32  33
ATOM     33  C   UNL     1      -7.273 -13.338  13.617  1.00  0.00     0.026 C 
BRANCH  33  34
ATOM     34  C   UNL     1      -6.604 -12.789  14.878  1.00  0.00     0.146 C 
BRANCH  34  35
ATOM     35  N   UNL     1      -6.075 -13.903  15.652  1.00  0.00    -0.254 NA
ATOM     36  C   UNL     1      -6.124 -13.841  16.930  1.00  0.00     0.185 C 
ATOM     37  N   UNL     1      -5.644 -14.865  17.654  1.00  0.00    -0.370 N 
ATOM     38  N   UNL     1      -6.607 -12.858  17.711  1.00  0.00    -0.370 N 
ATOM     39  H   UNL     1      -5.271 -15.651  17.137  1.00  0.00     0.159 HD
ATOM     40  H   UNL     1      -5.801 -14.970  18.641  1.00  0.00     0.159 HD
ATOM     41  H   UNL     1      -6.462 -12.865  18.707  1.00  0.00     0.159 HD
ATOM     42  H   UNL     1      -6.986 -12.018  17.301  1.00  0.00     0.159 HD
ENDBRANCH  34  35
ENDBRANCH  33  34
ENDBRANCH  32  33
ENDBRANCH   6  32
ENDBRANCH   4   6
ENDBRANCH   1   2
BRANCH   1  43
ATOM     43  C   UNL     1      -1.986 -12.289  11.570  1.00  0.00     0.102 C 
ATOM     44  C   UNL     1      -0.833 -11.389  12.046  1.00  0.00     0.020 C 
BRANCH  43  45
ATOM     45  C   UNL     1      -1.697 -13.027  10.259  1.00  0.00     0.225 C 
ATOM     46  O   UNL     1      -2.111 -14.158  10.021  1.00  0.00    -0.275 OA
ATOM     47  N   UNL     1      -0.855 -12.377   9.386  1.00  0.00    -0.342 N 
ATOM     48  H   UNL     1      -0.649 -11.398   9.526  1.00  0.00     0.164 HD
BRANCH  47  49
ATOM     49  C   UNL     1      -0.518 -12.947   8.078  1.00  0.00     0.192 C 
BRANCH  49  50
ATOM     50  C   UNL     1       0.995 -13.157   7.983  1.00  0.00     0.047 C 
BRANCH  50  51
ATOM     51  C   UNL     1       1.360 -14.405   7.166  1.00  0.00     0.103 C 
BRANCH  51  52
ATOM     52  C   UNL     1       2.772 -14.322   6.591  1.00  0.00     0.226 C 
ATOM     53  O   UNL     1       3.729 -14.710   7.265  1.00  0.00    -0.275 OA
BRANCH  52  54
ATOM     54  N   UNL     1       2.883 -13.864   5.265  1.00  0.00    -0.311 N 
ATOM     55  C   UNL     1       2.699 -14.779   4.131  1.00  0.00     0.153 C 
BRANCH  54  56
ATOM     56  C   UNL     1       3.167 -12.519   4.976  1.00  0.00     0.102 C 
ATOM     57  C   UNL     1       2.565 -11.794   4.020  1.00  0.00     0.043 C 
BRANCH  56  58
ATOM     58  C   UNL     1       4.183 -11.749   5.788  1.00  0.00     0.268 C 
ATOM     59  O   UNL     1       3.875 -10.908   6.622  1.00  0.00    -0.268 OA
ATOM     60  N   UNL     1       5.478 -12.138   5.541  1.00  0.00    -0.339 N 
ATOM     61  H   UNL     1       5.650 -12.835   4.827  1.00  0.00     0.164 HD
BRANCH  60  62
ATOM     62  C   UNL     1       6.614 -11.567   6.264  1.00  0.00     0.168 CG0
ATOM     63  C   UNL     1       7.179 -10.359   5.527  1.00  0.00     0.041 C 
ATOM     64  G   UNL     1       7.699 -12.646   6.456  1.00  0.00     0.000 G0
ENDBRANCH  60  62
ENDBRANCH  56  58
ENDBRANCH  54  56
ENDBRANCH  52  54
ENDBRANCH  51  52
ENDBRANCH  50  51
ENDBRANCH  49  50
BRANCH  49  65
ATOM     65  C   UNL     1      -0.980 -12.039   6.928  1.00  0.00     0.326 C 
ATOM     66  O   UNL     1      -0.475 -11.988   5.816  1.00  0.00    -0.250 OA
BRANCH  65  67
ATOM     67  O   UNL     1      -1.997 -11.206   7.241  1.00  0.00    -0.480 OA
ATOM     68  H   UNL     1      -1.922 -10.489   6.575  1.00  0.00     0.296 HD
ENDBRANCH  65  67
ENDBRANCH  49  65
ENDBRANCH  47  49
ENDBRANCH  43  45
ENDBRANCH   1  43
BRANCH   1  69
ATOM     69  C   UNL     1      -3.636 -10.437  12.494  1.00  0.00    -0.001 C 
ATOM     70  C   UNL     1      -3.995 -10.555  13.785  1.00  0.00     0.001 C 
BRANCH  70  71
ATOM     71  C   UNL     1      -4.240  -9.466  14.733  1.00  0.00    -0.055 C 
ATOM     72  C   UNL     1      -4.358  -8.217  14.236  1.00  0.00    -0.018 C 
ATOM     73  C   UNL     1      -4.352  -9.818  16.193  1.00  0.00     0.044 C 
BRANCH  72  74
ATOM     74  C   UNL     1      -4.614  -6.909  14.971  1.00  0.00     0.038 C 
ATOM     75  C   UNL     1      -6.116  -6.845  15.272  1.00  0.00     0.015 C 
BRANCH  74  76
ATOM     76  C   UNL     1      -4.072  -5.734  14.105  1.00  0.00     0.128 C 
BRANCH  76  77
ATOM     77  O   UNL     1      -3.969  -4.542  14.904  1.00  0.00    -0.381 OA
ATOM     78  C   UNL     1      -2.854  -4.539  15.784  1.00  0.00     0.195 C 
ENDBRANCH  76  77
BRANCH  76  79
ATOM     79  C   UNL     1      -2.760  -6.062  13.348  1.00  0.00     0.068 C 
BRANCH  79  80
ATOM     80  C   UNL     1      -2.718  -5.806  11.861  1.00  0.00    -0.045 A 
ATOM     81  C   UNL     1      -3.407  -6.636  10.966  1.00  0.00     0.004 A 
ATOM     82  C   UNL     1      -1.961  -4.742  11.348  1.00  0.00     0.004 A 
ATOM     83  C   UNL     1      -3.352  -6.400   9.591  1.00  0.00     0.000 A 
ATOM     84  C   UNL     1      -1.906  -4.508   9.973  1.00  0.00     0.000 A 
ATOM     85  C   UNL     1      -2.603  -5.335   9.095  1.00  0.00     0.000 A 
ENDBRANCH  79  80
ENDBRANCH  76  79
ENDBRANCH  74  76
ENDBRANCH  72  74
ENDBRANCH  70  71
ENDBRANCH   1  69
TORSDOF 17
ENDMDL
MODEL 40
REMARK VINA RESULT:    -5.641      4.161     11.252
REMARK INTER + INTRA:         -24.385
REMARK INTER:                 -17.921
REMARK INTRA:                  -6.464
REMARK UNBOUND:                -7.533
REMARK SMILES C=C1C(=O)N[C@H](C)C(=O)N[C@@H](CC(C)C)C(=O)N[C@@H](C(=O)O)[C@H](C)C(=O)N[C@@H](CCCN=C(N)N)C(=O)N[C@@H](/C=C/C(C)=C/[C@H](C)[C@H](Cc2ccccc2)OC)[C@H](C)C(=O)N[C@@H](C(=O)O)CCC(=O)N1C
REMARK SMILES IDX 39 1 38 2 37 3 36 4 28 6 27 7 25 8 26 9 23 11 24 12 19 13
REMARK SMILES IDX 18 14 16 15 17 16 11 18 10 19 8 20 9 21 12 24 13 25 14 26
REMARK SMILES IDX 15 27 20 28 21 29 22 30 29 32 30 33 31 34 32 35 33 36 34 37
REMARK SMILES IDX 35 38 57 43 58 44 59 45 60 46 61 47 62 49 66 50 67 51 68 52
REMARK SMILES IDX 69 53 70 54 71 55 2 56 1 57 3 58 4 59 5 60 6 62 7 63 63 65
REMARK SMILES IDX 64 66 65 67 40 69 41 70 42 71 44 72 43 73 45 74 46 75 47 76
REMARK SMILES IDX 55 77 56 78 48 79 49 80 50 81 54 82 51 83 53 84 52 85
REMARK H PARENT 38 5 27 10 18 17 10 22 22 31 34 39 34 40 35 41 35 42 61 48
REMARK H PARENT 5 61 65 68
REMARK Flexibility Score:  369.900
ROOT
ATOM      1  C   UNL     1      -9.592 -12.398   7.555  1.00  0.00     0.117 C 
ENDROOT
BRANCH   1   2
ATOM      2  N   UNL     1     -10.657 -11.402   7.676  1.00  0.00    -0.347 N 
ATOM      3  O   UNL     1     -10.473 -10.489   5.578  1.00  0.00    -0.273 OA
ATOM      4  C   UNL     1     -11.075 -10.586   6.642  1.00  0.00     0.243 C 
ATOM      5  H   UNL     1     -11.165 -11.323   8.544  1.00  0.00     0.164 HD
BRANCH   4   6
ATOM      6  C   UNL     1     -12.278  -9.681   7.009  1.00  0.00     0.171 C 
BRANCH   6   7
ATOM      7  N   UNL     1     -13.356  -9.832   6.018  1.00  0.00    -0.344 N 
ATOM      8  C   UNL     1     -13.929 -11.063   5.786  1.00  0.00     0.226 C 
ATOM      9  O   UNL     1     -13.564 -12.081   6.362  1.00  0.00    -0.275 OA
ATOM     10  H   UNL     1     -13.638  -9.027   5.474  1.00  0.00     0.164 HD
BRANCH   8  11
ATOM     11  C   UNL     1     -15.063 -11.045   4.776  1.00  0.00     0.109 C 
ATOM     12  C   UNL     1     -16.118 -10.017   5.188  1.00  0.00     0.021 C 
BRANCH  11  13
ATOM     13  C   UNL     1     -14.494 -10.855   3.356  1.00  0.00     0.204 C 
BRANCH  13  14
ATOM     14  N   UNL     1     -14.541 -12.094   2.573  1.00  0.00    -0.340 N 
ATOM     15  C   UNL     1     -13.563 -12.444   1.667  1.00  0.00     0.243 C 
ATOM     16  O   UNL     1     -12.550 -11.769   1.494  1.00  0.00    -0.273 OA
ATOM     17  H   UNL     1     -15.419 -12.619   2.556  1.00  0.00     0.164 HD
BRANCH  15  18
ATOM     18  C   UNL     1     -13.927 -13.683   0.812  1.00  0.00     0.171 C 
BRANCH  18  19
ATOM     19  N   UNL     1     -13.943 -14.828   1.720  1.00  0.00    -0.343 N 
ATOM     20  C   UNL     1     -12.779 -15.447   2.132  1.00  0.00     0.242 CG0
ATOM     21  O   UNL     1     -11.687 -15.150   1.653  1.00  0.00    -0.273 OA
ATOM     22  H   UNL     1     -14.831 -15.185   2.055  1.00  0.00     0.164 HD
ATOM     23  G   UNL     1     -12.990 -16.586   3.151  1.00  0.00     0.000 G0
ENDBRANCH  18  19
BRANCH  18  24
ATOM     24  C   UNL     1     -15.286 -13.489   0.128  1.00  0.00     0.038 C 
BRANCH  24  25
ATOM     25  C   UNL     1     -16.367 -14.510   0.542  1.00  0.00    -0.015 C 
ATOM     26  C   UNL     1     -17.005 -15.206  -0.661  1.00  0.00     0.007 C 
ATOM     27  C   UNL     1     -17.450 -13.809   1.366  1.00  0.00     0.007 C 
ENDBRANCH  24  25
ENDBRANCH  18  24
ENDBRANCH  15  18
ENDBRANCH  13  14
BRANCH  13  28
ATOM     28  C   UNL     1     -15.230  -9.781   2.549  1.00  0.00     0.327 C 
ATOM     29  O   UNL     1     -14.962  -8.590   2.519  1.00  0.00    -0.250 OA
BRANCH  28  30
ATOM     30  O   UNL     1     -16.328 -10.250   1.923  1.00  0.00    -0.480 OA
ATOM     31  H   UNL     1     -17.058 -10.073   2.552  1.00  0.00     0.296 HD
ENDBRANCH  28  30
ENDBRANCH  13  28
ENDBRANCH  11  13
ENDBRANCH   8  11
ENDBRANCH   6   7
BRANCH   6  32
ATOM     32  C   UNL     1     -12.771 -10.045   8.414  1.00  0.00     0.037 C 
BRANCH  32  33
ATOM     33  C   UNL     1     -13.930  -9.148   8.871  1.00  0.00     0.026 C 
BRANCH  33  34
ATOM     34  C   UNL     1     -13.602  -7.659   8.750  1.00  0.00     0.146 C 
BRANCH  34  35
ATOM     35  N   UNL     1     -14.431  -7.079   7.703  1.00  0.00    -0.254 NA
ATOM     36  C   UNL     1     -14.492  -5.803   7.604  1.00  0.00     0.185 C 
ATOM     37  N   UNL     1     -15.250  -5.257   6.640  1.00  0.00    -0.370 N 
ATOM     38  N   UNL     1     -13.882  -4.867   8.354  1.00  0.00    -0.370 N 
ATOM     39  H   UNL     1     -15.734  -5.899   6.026  1.00  0.00     0.159 HD
ATOM     40  H   UNL     1     -15.213  -4.284   6.388  1.00  0.00     0.159 HD
ATOM     41  H   UNL     1     -14.119  -3.893   8.265  1.00  0.00     0.159 HD
ATOM     42  H   UNL     1     -13.292  -5.134   9.127  1.00  0.00     0.159 HD
ENDBRANCH  34  35
ENDBRANCH  33  34
ENDBRANCH  32  33
ENDBRANCH   6  32
ENDBRANCH   4   6
ENDBRANCH   1   2
BRANCH   1  43
ATOM     43  C   UNL     1     -10.224 -13.747   7.107  1.00  0.00     0.102 C 
ATOM     44  C   UNL     1      -9.645 -14.968   7.843  1.00  0.00     0.020 C 
BRANCH  43  45
ATOM     45  C   UNL     1     -10.216 -13.879   5.582  1.00  0.00     0.225 C 
ATOM     46  O   UNL     1     -11.037 -14.549   4.962  1.00  0.00    -0.275 OA
ATOM     47  N   UNL     1      -9.161 -13.271   4.940  1.00  0.00    -0.342 N 
ATOM     48  H   UNL     1      -8.588 -12.606   5.440  1.00  0.00     0.164 HD
BRANCH  47  49
ATOM     49  C   UNL     1      -9.042 -13.284   3.479  1.00  0.00     0.192 C 
BRANCH  49  50
ATOM     50  C   UNL     1      -7.951 -14.274   3.061  1.00  0.00     0.047 C 
BRANCH  50  51
ATOM     51  C   UNL     1      -8.519 -15.661   2.732  1.00  0.00     0.103 C 
BRANCH  51  52
ATOM     52  C   UNL     1      -8.381 -16.630   3.905  1.00  0.00     0.226 C 
ATOM     53  O   UNL     1      -7.873 -16.243   4.959  1.00  0.00    -0.275 OA
BRANCH  52  54
ATOM     54  N   UNL     1      -8.926 -17.915   3.724  1.00  0.00    -0.311 N 
ATOM     55  C   UNL     1      -8.439 -18.799   2.657  1.00  0.00     0.153 C 
BRANCH  54  56
ATOM     56  C   UNL     1      -9.947 -18.401   4.557  1.00  0.00     0.102 C 
ATOM     57  C   UNL     1      -9.818 -19.430   5.410  1.00  0.00     0.043 C 
BRANCH  56  58
ATOM     58  C   UNL     1     -11.306 -17.741   4.584  1.00  0.00     0.268 C 
ATOM     59  O   UNL     1     -11.935 -17.545   5.615  1.00  0.00    -0.268 OA
ATOM     60  N   UNL     1     -11.728 -17.325   3.344  1.00  0.00    -0.339 N 
ATOM     61  H   UNL     1     -11.153 -17.534   2.537  1.00  0.00     0.164 HD
BRANCH  60  62
ATOM     62  C   UNL     1     -12.988 -16.607   3.150  1.00  0.00     0.168 CG0
ATOM     63  C   UNL     1     -14.086 -17.548   2.672  1.00  0.00     0.041 C 
ATOM     64  G   UNL     1     -12.777 -15.457   2.144  1.00  0.00     0.000 G0
ENDBRANCH  60  62
ENDBRANCH  56  58
ENDBRANCH  54  56
ENDBRANCH  52  54
ENDBRANCH  51  52
ENDBRANCH  50  51
ENDBRANCH  49  50
BRANCH  49  65
ATOM     65  C   UNL     1      -8.705 -11.891   2.925  1.00  0.00     0.326 C 
ATOM     66  O   UNL     1      -7.678 -11.267   3.148  1.00  0.00    -0.250 OA
BRANCH  65  67
ATOM     67  O   UNL     1      -9.683 -11.329   2.180  1.00  0.00    -0.480 OA
ATOM     68  H   UNL     1     -10.234 -10.856   2.840  1.00  0.00     0.296 HD
ENDBRANCH  65  67
ENDBRANCH  49  65
ENDBRANCH  47  49
ENDBRANCH  43  45
ENDBRANCH   1  43
BRANCH   1  69
ATOM     69  C   UNL     1      -8.815 -12.348   8.858  1.00  0.00    -0.001 C 
ATOM     70  C   UNL     1      -7.970 -11.386   9.269  1.00  0.00     0.001 C 
BRANCH  70  71
ATOM     71  C   UNL     1      -7.242 -11.339  10.538  1.00  0.00    -0.055 C 
ATOM     72  C   UNL     1      -6.742 -10.148  10.931  1.00  0.00    -0.018 C 
ATOM     73  C   UNL     1      -7.109 -12.619  11.320  1.00  0.00     0.044 C 
BRANCH  72  74
ATOM     74  C   UNL     1      -5.956  -9.800  12.187  1.00  0.00     0.038 C 
ATOM     75  C   UNL     1      -6.593  -8.541  12.787  1.00  0.00     0.015 C 
BRANCH  74  76
ATOM     76  C   UNL     1      -4.452  -9.655  11.812  1.00  0.00     0.128 C 
BRANCH  76  77
ATOM     77  O   UNL     1      -4.016 -10.810  11.074  1.00  0.00    -0.381 OA
ATOM     78  C   UNL     1      -3.148 -11.663  11.808  1.00  0.00     0.195 C 
ENDBRANCH  76  77
BRANCH  76  79
ATOM     79  C   UNL     1      -4.106  -8.323  11.100  1.00  0.00     0.068 C 
BRANCH  79  80
ATOM     80  C   UNL     1      -3.058  -7.437  11.729  1.00  0.00    -0.045 A 
ATOM     81  C   UNL     1      -1.902  -7.982  12.303  1.00  0.00     0.004 A 
ATOM     82  C   UNL     1      -3.241  -6.047  11.771  1.00  0.00     0.004 A 
ATOM     83  C   UNL     1      -0.944  -7.156  12.895  1.00  0.00     0.000 A 
ATOM     84  C   UNL     1      -2.282  -5.222  12.364  1.00  0.00     0.000 A 
ATOM     85  C   UNL     1      -1.134  -5.776  12.925  1.00  0.00     0.000 A 
ENDBRANCH  79  80
ENDBRANCH  76  79
ENDBRANCH  74  76
ENDBRANCH  72  74
ENDBRANCH  70  71
ENDBRANCH   1  69
TORSDOF 17
ENDMDL
MODEL 41
REMARK VINA RESULT:    -5.637     16.188     21.914
REMARK INTER + INTRA:         -24.373
REMARK INTER:                 -17.261
REMARK INTRA:                  -7.112
REMARK UNBOUND:                -7.533
REMARK SMILES C=C1C(=O)N[C@H](C)C(=O)N[C@@H](CC(C)C)C(=O)N[C@@H](C(=O)O)[C@H](C)C(=O)N[C@@H](CCCN=C(N)N)C(=O)N[C@@H](/C=C/C(C)=C/[C@H](C)[C@H](Cc2ccccc2)OC)[C@H](C)C(=O)N[C@@H](C(=O)O)CCC(=O)N1C
REMARK SMILES IDX 39 1 38 2 37 3 36 4 28 6 27 7 25 8 26 9 23 11 24 12 19 13
REMARK SMILES IDX 18 14 16 15 17 16 11 18 10 19 8 20 9 21 12 24 13 25 14 26
REMARK SMILES IDX 15 27 20 28 21 29 22 30 29 32 30 33 31 34 32 35 33 36 34 37
REMARK SMILES IDX 35 38 57 43 58 44 59 45 60 46 61 47 62 49 66 50 67 51 68 52
REMARK SMILES IDX 69 53 70 54 71 55 2 56 1 57 3 58 4 59 5 60 6 62 7 63 63 65
REMARK SMILES IDX 64 66 65 67 40 69 41 70 42 71 44 72 43 73 45 74 46 75 47 76
REMARK SMILES IDX 55 77 56 78 48 79 49 80 50 81 54 82 51 83 53 84 52 85
REMARK H PARENT 38 5 27 10 18 17 10 22 22 31 34 39 34 40 35 41 35 42 61 48
REMARK H PARENT 5 61 65 68
REMARK Flexibility Score:  369.900
ROOT
ATOM      1  C   UNL     1       3.511  -4.477  12.352  1.00  0.00     0.117 C 
ENDROOT
BRANCH   1   2
ATOM      2  N   UNL     1       3.878  -3.634  11.213  1.00  0.00    -0.347 N 
ATOM      3  O   UNL     1       3.735  -1.601  12.270  1.00  0.00    -0.273 OA
ATOM      4  C   UNL     1       4.050  -2.265  11.288  1.00  0.00     0.243 C 
ATOM      5  H   UNL     1       4.070  -4.064  10.321  1.00  0.00     0.164 HD
BRANCH   4   6
ATOM      6  C   UNL     1       4.523  -1.623   9.959  1.00  0.00     0.171 C 
BRANCH   6   7
ATOM      7  N   UNL     1       4.589  -0.159  10.091  1.00  0.00    -0.344 N 
ATOM      8  C   UNL     1       3.957   0.658   9.178  1.00  0.00     0.226 C 
ATOM      9  O   UNL     1       3.339   0.218   8.216  1.00  0.00    -0.275 OA
ATOM     10  H   UNL     1       5.146   0.243  10.834  1.00  0.00     0.164 HD
BRANCH   8  11
ATOM     11  C   UNL     1       4.072   2.141   9.481  1.00  0.00     0.109 C 
ATOM     12  C   UNL     1       4.713   2.871   8.301  1.00  0.00     0.021 C 
BRANCH  11  13
ATOM     13  C   UNL     1       2.699   2.692   9.916  1.00  0.00     0.204 C 
BRANCH  13  14
ATOM     14  N   UNL     1       2.779   3.444  11.172  1.00  0.00    -0.340 N 
ATOM     15  C   UNL     1       2.844   2.834  12.406  1.00  0.00     0.243 C 
ATOM     16  O   UNL     1       2.902   1.612  12.537  1.00  0.00    -0.273 OA
ATOM     17  H   UNL     1       2.583   4.448  11.144  1.00  0.00     0.164 HD
BRANCH  15  18
ATOM     18  C   UNL     1       2.711   3.820  13.592  1.00  0.00     0.171 C 
BRANCH  18  19
ATOM     19  N   UNL     1       4.019   4.450  13.762  1.00  0.00    -0.343 N 
ATOM     20  C   UNL     1       4.505   4.794  15.009  1.00  0.00     0.242 CG0
ATOM     21  O   UNL     1       3.807   4.711  16.017  1.00  0.00    -0.273 OA
ATOM     22  H   UNL     1       4.586   4.646  12.946  1.00  0.00     0.164 HD
ATOM     23  G   UNL     1       5.934   5.374  14.997  1.00  0.00     0.000 G0
ENDBRANCH  18  19
BRANCH  18  24
ATOM     24  C   UNL     1       1.619   4.860  13.311  1.00  0.00     0.038 C 
BRANCH  24  25
ATOM     25  C   UNL     1       0.412   4.804  14.271  1.00  0.00    -0.015 C 
ATOM     26  C   UNL     1       0.245   6.091  15.078  1.00  0.00     0.007 C 
ATOM     27  C   UNL     1       0.567   3.615  15.223  1.00  0.00     0.007 C 
ENDBRANCH  24  25
ENDBRANCH  18  24
ENDBRANCH  15  18
ENDBRANCH  13  14
BRANCH  13  28
ATOM     28  C   UNL     1       2.062   3.617   8.873  1.00  0.00     0.327 C 
ATOM     29  O   UNL     1       1.833   4.809   9.009  1.00  0.00    -0.250 OA
BRANCH  28  30
ATOM     30  O   UNL     1       1.645   2.963   7.771  1.00  0.00    -0.480 OA
ATOM     31  H   UNL     1       1.123   2.211   8.120  1.00  0.00     0.296 HD
ENDBRANCH  28  30
ENDBRANCH  13  28
ENDBRANCH  11  13
ENDBRANCH   8  11
ENDBRANCH   6   7
BRANCH   6  32
ATOM     32  C   UNL     1       5.892  -2.200   9.581  1.00  0.00     0.037 C 
BRANCH  32  33
ATOM     33  C   UNL     1       6.935  -1.102   9.332  1.00  0.00     0.026 C 
BRANCH  33  34
ATOM     34  C   UNL     1       7.462  -1.110   7.897  1.00  0.00     0.146 C 
BRANCH  34  35
ATOM     35  N   UNL     1       6.630  -1.996   7.095  1.00  0.00    -0.254 NA
ATOM     36  C   UNL     1       5.799  -1.477   6.269  1.00  0.00     0.185 C 
ATOM     37  N   UNL     1       5.031  -2.285   5.521  1.00  0.00    -0.370 N 
ATOM     38  N   UNL     1       5.560  -0.179   6.014  1.00  0.00    -0.370 N 
ATOM     39  H   UNL     1       5.159  -3.280   5.649  1.00  0.00     0.159 HD
ATOM     40  H   UNL     1       4.488  -1.966   4.737  1.00  0.00     0.159 HD
ATOM     41  H   UNL     1       4.782   0.105   5.441  1.00  0.00     0.159 HD
ATOM     42  H   UNL     1       6.056   0.542   6.515  1.00  0.00     0.159 HD
ENDBRANCH  34  35
ENDBRANCH  33  34
ENDBRANCH  32  33
ENDBRANCH   6  32
ENDBRANCH   4   6
ENDBRANCH   1   2
BRANCH   1  43
ATOM     43  C   UNL     1       4.362  -5.779  12.299  1.00  0.00     0.102 C 
ATOM     44  C   UNL     1       5.722  -5.650  13.007  1.00  0.00     0.020 C 
BRANCH  43  45
ATOM     45  C   UNL     1       4.455  -6.317  10.868  1.00  0.00     0.225 C 
ATOM     46  O   UNL     1       3.516  -6.858  10.292  1.00  0.00    -0.275 OA
ATOM     47  N   UNL     1       5.701  -6.242  10.287  1.00  0.00    -0.342 N 
ATOM     48  H   UNL     1       6.415  -5.665  10.707  1.00  0.00     0.164 HD
BRANCH  47  49
ATOM     49  C   UNL     1       5.931  -6.687   8.909  1.00  0.00     0.192 C 
BRANCH  49  50
ATOM     50  C   UNL     1       6.820  -7.933   8.912  1.00  0.00     0.047 C 
BRANCH  50  51
ATOM     51  C   UNL     1       6.135  -9.135   9.576  1.00  0.00     0.103 C 
BRANCH  51  52
ATOM     52  C   UNL     1       5.475 -10.057   8.553  1.00  0.00     0.226 C 
ATOM     53  O   UNL     1       4.258  -9.997   8.373  1.00  0.00    -0.275 OA
BRANCH  52  54
ATOM     54  N   UNL     1       6.336 -10.886   7.810  1.00  0.00    -0.311 N 
ATOM     55  C   UNL     1       7.121 -11.942   8.464  1.00  0.00     0.153 C 
BRANCH  54  56
ATOM     56  C   UNL     1       6.474 -10.740   6.420  1.00  0.00     0.102 C 
ATOM     57  C   UNL     1       7.321  -9.891   5.816  1.00  0.00     0.043 C 
BRANCH  56  58
ATOM     58  C   UNL     1       5.674 -11.598   5.468  1.00  0.00     0.268 C 
ATOM     59  O   UNL     1       6.117 -12.009   4.404  1.00  0.00    -0.268 OA
ATOM     60  N   UNL     1       4.428 -11.921   5.949  1.00  0.00    -0.339 N 
ATOM     61  H   UNL     1       4.132 -11.531   6.835  1.00  0.00     0.164 HD
BRANCH  60  62
ATOM     62  C   UNL     1       3.513 -12.795   5.215  1.00  0.00     0.168 CG0
ATOM     63  C   UNL     1       2.598 -11.986   4.304  1.00  0.00     0.041 C 
ATOM     64  G   UNL     1       2.687 -13.632   6.213  1.00  0.00     0.000 G0
ENDBRANCH  60  62
ENDBRANCH  56  58
ENDBRANCH  54  56
ENDBRANCH  52  54
ENDBRANCH  51  52
ENDBRANCH  50  51
ENDBRANCH  49  50
BRANCH  49  65
ATOM     65  C   UNL     1       6.596  -5.589   8.063  1.00  0.00     0.326 C 
ATOM     66  O   UNL     1       7.759  -5.225   8.158  1.00  0.00    -0.250 OA
BRANCH  65  67
ATOM     67  O   UNL     1       5.768  -4.968   7.194  1.00  0.00    -0.480 OA
ATOM     68  H   UNL     1       5.284  -4.324   7.755  1.00  0.00     0.296 HD
ENDBRANCH  65  67
ENDBRANCH  49  65
ENDBRANCH  47  49
ENDBRANCH  43  45
ENDBRANCH   1  43
BRANCH   1  69
ATOM     69  C   UNL     1       1.998  -4.589  12.326  1.00  0.00    -0.001 C 
ATOM     70  C   UNL     1       1.169  -4.225  11.332  1.00  0.00     0.001 C 
BRANCH  70  71
ATOM     71  C   UNL     1      -0.290  -4.358  11.310  1.00  0.00    -0.055 C 
ATOM     72  C   UNL     1      -0.920  -4.552  12.488  1.00  0.00    -0.018 C 
ATOM     73  C   UNL     1      -0.984  -4.260   9.977  1.00  0.00     0.044 C 
BRANCH  72  74
ATOM     74  C   UNL     1      -2.406  -4.719  12.768  1.00  0.00     0.038 C 
ATOM     75  C   UNL     1      -2.899  -3.409  13.395  1.00  0.00     0.015 C 
BRANCH  74  76
ATOM     76  C   UNL     1      -2.610  -5.984  13.654  1.00  0.00     0.128 C 
BRANCH  76  77
ATOM     77  O   UNL     1      -3.431  -5.661  14.789  1.00  0.00    -0.381 OA
ATOM     78  C   UNL     1      -2.847  -6.014  16.036  1.00  0.00     0.195 C 
ENDBRANCH  76  77
BRANCH  76  79
ATOM     79  C   UNL     1      -3.122  -7.222  12.876  1.00  0.00     0.068 C 
BRANCH  79  80
ATOM     80  C   UNL     1      -2.589  -7.451  11.482  1.00  0.00    -0.045 A 
ATOM     81  C   UNL     1      -3.352  -7.120  10.354  1.00  0.00     0.004 A 
ATOM     82  C   UNL     1      -1.325  -8.030  11.295  1.00  0.00     0.004 A 
ATOM     83  C   UNL     1      -2.857  -7.348   9.068  1.00  0.00     0.000 A 
ATOM     84  C   UNL     1      -0.832  -8.259  10.009  1.00  0.00     0.000 A 
ATOM     85  C   UNL     1      -1.597  -7.916   8.896  1.00  0.00     0.000 A 
ENDBRANCH  79  80
ENDBRANCH  76  79
ENDBRANCH  74  76
ENDBRANCH  72  74
ENDBRANCH  70  71
ENDBRANCH   1  69
TORSDOF 17
ENDMDL
MODEL 42
REMARK VINA RESULT:    -5.557     11.002     16.370
REMARK INTER + INTRA:         -24.136
REMARK INTER:                 -16.266
REMARK INTRA:                  -7.870
REMARK UNBOUND:                -7.533
REMARK SMILES C=C1C(=O)N[C@H](C)C(=O)N[C@@H](CC(C)C)C(=O)N[C@@H](C(=O)O)[C@H](C)C(=O)N[C@@H](CCCN=C(N)N)C(=O)N[C@@H](/C=C/C(C)=C/[C@H](C)[C@H](Cc2ccccc2)OC)[C@H](C)C(=O)N[C@@H](C(=O)O)CCC(=O)N1C
REMARK SMILES IDX 39 1 38 2 37 3 36 4 28 6 27 7 25 8 26 9 23 11 24 12 19 13
REMARK SMILES IDX 18 14 16 15 17 16 11 18 10 19 8 20 9 21 12 24 13 25 14 26
REMARK SMILES IDX 15 27 20 28 21 29 22 30 29 32 30 33 31 34 32 35 33 36 34 37
REMARK SMILES IDX 35 38 57 43 58 44 59 45 60 46 61 47 62 49 66 50 67 51 68 52
REMARK SMILES IDX 69 53 70 54 71 55 2 56 1 57 3 58 4 59 5 60 6 62 7 63 63 65
REMARK SMILES IDX 64 66 65 67 40 69 41 70 42 71 44 72 43 73 45 74 46 75 47 76
REMARK SMILES IDX 55 77 56 78 48 79 49 80 50 81 54 82 51 83 53 84 52 85
REMARK H PARENT 38 5 27 10 18 17 10 22 22 31 34 39 34 40 35 41 35 42 61 48
REMARK H PARENT 5 61 65 68
REMARK Flexibility Score:  369.900
ROOT
ATOM      1  C   UNL     1      -0.990 -12.030  10.942  1.00  0.00     0.117 C 
ENDROOT
BRANCH   1   2
ATOM      2  N   UNL     1       0.251 -12.229  10.193  1.00  0.00    -0.347 N 
ATOM      3  O   UNL     1       0.459 -14.491  10.524  1.00  0.00    -0.273 OA
ATOM      4  C   UNL     1       0.829 -13.463   9.967  1.00  0.00     0.243 C 
ATOM      5  H   UNL     1       0.703 -11.434   9.765  1.00  0.00     0.164 HD
BRANCH   4   6
ATOM      6  C   UNL     1       2.093 -13.405   9.071  1.00  0.00     0.171 C 
BRANCH   6   7
ATOM      7  N   UNL     1       2.173 -14.600   8.216  1.00  0.00    -0.344 N 
ATOM      8  C   UNL     1       3.327 -15.351   8.165  1.00  0.00     0.226 C 
ATOM      9  O   UNL     1       4.335 -15.058   8.798  1.00  0.00    -0.275 OA
ATOM     10  H   UNL     1       1.384 -14.836   7.628  1.00  0.00     0.164 HD
BRANCH   8  11
ATOM     11  C   UNL     1       3.234 -16.582   7.281  1.00  0.00     0.109 C 
ATOM     12  C   UNL     1       2.021 -17.424   7.678  1.00  0.00     0.021 C 
BRANCH  11  13
ATOM     13  C   UNL     1       3.274 -16.162   5.798  1.00  0.00     0.204 C 
BRANCH  13  14
ATOM     14  N   UNL     1       4.222 -16.968   5.022  1.00  0.00    -0.340 N 
ATOM     15  C   UNL     1       5.588 -16.813   5.116  1.00  0.00     0.243 C 
ATOM     16  O   UNL     1       6.111 -16.027   5.904  1.00  0.00    -0.273 OA
ATOM     17  H   UNL     1       3.856 -17.526   4.246  1.00  0.00     0.164 HD
BRANCH  15  18
ATOM     18  C   UNL     1       6.377 -17.621   4.057  1.00  0.00     0.171 C 
BRANCH  18  19
ATOM     19  N   UNL     1       7.518 -18.218   4.750  1.00  0.00    -0.343 N 
ATOM     20  C   UNL     1       8.820 -17.940   4.382  1.00  0.00     0.242 CG0
ATOM     21  O   UNL     1       9.079 -17.285   3.375  1.00  0.00    -0.273 OA
ATOM     22  H   UNL     1       7.353 -18.859   5.518  1.00  0.00     0.164 HD
ATOM     23  G   UNL     1       9.889 -18.599   5.278  1.00  0.00     0.000 G0
ENDBRANCH  18  19
BRANCH  18  24
ATOM     24  C   UNL     1       5.485 -18.692   3.418  1.00  0.00     0.038 C 
BRANCH  24  25
ATOM     25  C   UNL     1       6.014 -19.261   2.084  1.00  0.00    -0.015 C 
ATOM     26  C   UNL     1       6.516 -18.167   1.141  1.00  0.00     0.007 C 
ATOM     27  C   UNL     1       4.911 -20.069   1.396  1.00  0.00     0.007 C 
ENDBRANCH  24  25
ENDBRANCH  18  24
ENDBRANCH  15  18
ENDBRANCH  13  14
BRANCH  13  28
ATOM     28  C   UNL     1       1.913 -16.269   5.103  1.00  0.00     0.327 C 
ATOM     29  O   UNL     1       1.584 -17.114   4.285  1.00  0.00    -0.250 OA
BRANCH  28  30
ATOM     30  O   UNL     1       1.092 -15.239   5.389  1.00  0.00    -0.480 OA
ATOM     31  H   UNL     1       1.475 -14.481   4.900  1.00  0.00     0.296 HD
ENDBRANCH  28  30
ENDBRANCH  13  28
ENDBRANCH  11  13
ENDBRANCH   8  11
ENDBRANCH   6   7
BRANCH   6  32
ATOM     32  C   UNL     1       2.051 -12.128   8.225  1.00  0.00     0.037 C 
BRANCH  32  33
ATOM     33  C   UNL     1       3.454 -11.661   7.810  1.00  0.00     0.026 C 
BRANCH  33  34
ATOM     34  C   UNL     1       3.727 -11.877   6.321  1.00  0.00     0.146 C 
BRANCH  34  35
ATOM     35  N   UNL     1       2.528 -12.421   5.698  1.00  0.00    -0.254 NA
ATOM     36  C   UNL     1       2.370 -12.273   4.436  1.00  0.00     0.185 C 
ATOM     37  N   UNL     1       1.271 -12.774   3.851  1.00  0.00    -0.370 N 
ATOM     38  N   UNL     1       3.176 -11.661   3.550  1.00  0.00    -0.370 N 
ATOM     39  H   UNL     1       0.618 -13.261   4.452  1.00  0.00     0.159 HD
ATOM     40  H   UNL     1       1.158 -12.853   2.855  1.00  0.00     0.159 HD
ATOM     41  H   UNL     1       2.874 -11.488   2.605  1.00  0.00     0.159 HD
ATOM     42  H   UNL     1       4.032 -11.223   3.853  1.00  0.00     0.159 HD
ENDBRANCH  34  35
ENDBRANCH  33  34
ENDBRANCH  32  33
ENDBRANCH   6  32
ENDBRANCH   4   6
ENDBRANCH   1   2
BRANCH   1  43
ATOM     43  C   UNL     1      -2.191 -12.267   9.981  1.00  0.00     0.102 C 
ATOM     44  C   UNL     1      -3.048 -11.010   9.751  1.00  0.00     0.020 C 
BRANCH  43  45
ATOM     45  C   UNL     1      -2.997 -13.500  10.401  1.00  0.00     0.225 C 
ATOM     46  O   UNL     1      -4.106 -13.763   9.945  1.00  0.00    -0.275 OA
ATOM     47  N   UNL     1      -2.439 -14.259  11.404  1.00  0.00    -0.342 N 
ATOM     48  H   UNL     1      -1.471 -14.119  11.657  1.00  0.00     0.164 HD
BRANCH  47  49
ATOM     49  C   UNL     1      -3.081 -15.487  11.882  1.00  0.00     0.192 C 
BRANCH  49  50
ATOM     50  C   UNL     1      -3.641 -15.260  13.289  1.00  0.00     0.047 C 
BRANCH  50  51
ATOM     51  C   UNL     1      -5.123 -14.860  13.267  1.00  0.00     0.103 C 
BRANCH  51  52
ATOM     52  C   UNL     1      -5.307 -13.344  13.219  1.00  0.00     0.226 C 
ATOM     53  O   UNL     1      -4.337 -12.606  13.401  1.00  0.00    -0.275 OA
BRANCH  52  54
ATOM     54  N   UNL     1      -6.593 -12.879  12.886  1.00  0.00    -0.311 N 
ATOM     55  C   UNL     1      -7.746 -13.161  13.751  1.00  0.00     0.153 C 
BRANCH  54  56
ATOM     56  C   UNL     1      -6.820 -12.126  11.722  1.00  0.00     0.102 C 
ATOM     57  C   UNL     1      -7.275 -12.624  10.561  1.00  0.00     0.043 C 
BRANCH  56  58
ATOM     58  C   UNL     1      -6.602 -10.631  11.712  1.00  0.00     0.268 C 
ATOM     59  O   UNL     1      -6.924  -9.914  10.774  1.00  0.00    -0.268 OA
ATOM     60  N   UNL     1      -6.069 -10.155  12.885  1.00  0.00    -0.339 N 
ATOM     61  H   UNL     1      -5.820 -10.816  13.611  1.00  0.00     0.164 HD
BRANCH  60  62
ATOM     62  C   UNL     1      -5.834  -8.729  13.112  1.00  0.00     0.168 CG0
ATOM     63  C   UNL     1      -5.479  -8.458  14.569  1.00  0.00     0.041 C 
ATOM     64  G   UNL     1      -7.084  -7.927  12.696  1.00  0.00     0.000 G0
ENDBRANCH  60  62
ENDBRANCH  56  58
ENDBRANCH  54  56
ENDBRANCH  52  54
ENDBRANCH  51  52
ENDBRANCH  50  51
ENDBRANCH  49  50
BRANCH  49  65
ATOM     65  C   UNL     1      -2.096 -16.666  11.911  1.00  0.00     0.326 C 
ATOM     66  O   UNL     1      -1.033 -16.690  12.514  1.00  0.00    -0.250 OA
BRANCH  65  67
ATOM     67  O   UNL     1      -2.456 -17.720  11.146  1.00  0.00    -0.480 OA
ATOM     68  H   UNL     1      -2.520 -18.461  11.787  1.00  0.00     0.296 HD
ENDBRANCH  65  67
ENDBRANCH  49  65
ENDBRANCH  47  49
ENDBRANCH  43  45
ENDBRANCH   1  43
BRANCH   1  69
ATOM     69  C   UNL     1      -0.858 -10.686  11.634  1.00  0.00    -0.001 C 
ATOM     70  C   UNL     1      -0.401  -9.537  11.105  1.00  0.00     0.001 C 
BRANCH  70  71
ATOM     71  C   UNL     1      -0.298  -8.240  11.777  1.00  0.00    -0.055 C 
ATOM     72  C   UNL     1      -0.995  -8.068  12.920  1.00  0.00    -0.018 C 
ATOM     73  C   UNL     1       0.584  -7.192  11.149  1.00  0.00     0.044 C 
BRANCH  72  74
ATOM     74  C   UNL     1      -1.076  -6.846  13.824  1.00  0.00     0.038 C 
ATOM     75  C   UNL     1      -0.725  -7.308  15.243  1.00  0.00     0.015 C 
BRANCH  74  76
ATOM     76  C   UNL     1      -2.489  -6.207  13.676  1.00  0.00     0.128 C 
BRANCH  76  77
ATOM     77  O   UNL     1      -3.084  -6.027  14.972  1.00  0.00    -0.381 OA
ATOM     78  C   UNL     1      -3.652  -4.738  15.165  1.00  0.00     0.195 C 
ENDBRANCH  76  77
BRANCH  76  79
ATOM     79  C   UNL     1      -2.509  -4.914  12.822  1.00  0.00     0.068 C 
BRANCH  79  80
ATOM     80  C   UNL     1      -2.461  -5.059  11.320  1.00  0.00    -0.045 A 
ATOM     81  C   UNL     1      -1.730  -4.161  10.531  1.00  0.00     0.004 A 
ATOM     82  C   UNL     1      -3.177  -6.085  10.685  1.00  0.00     0.004 A 
ATOM     83  C   UNL     1      -1.703  -4.293   9.141  1.00  0.00     0.000 A 
ATOM     84  C   UNL     1      -3.150  -6.215   9.295  1.00  0.00     0.000 A 
ATOM     85  C   UNL     1      -2.412  -5.321   8.524  1.00  0.00     0.000 A 
ENDBRANCH  79  80
ENDBRANCH  76  79
ENDBRANCH  74  76
ENDBRANCH  72  74
ENDBRANCH  70  71
ENDBRANCH   1  69
TORSDOF 17
ENDMDL
MODEL 43
REMARK VINA RESULT:    -5.553     11.118     15.381
REMARK INTER + INTRA:         -24.124
REMARK INTER:                 -15.985
REMARK INTRA:                  -8.139
REMARK UNBOUND:                -7.533
REMARK SMILES C=C1C(=O)N[C@H](C)C(=O)N[C@@H](CC(C)C)C(=O)N[C@@H](C(=O)O)[C@H](C)C(=O)N[C@@H](CCCN=C(N)N)C(=O)N[C@@H](/C=C/C(C)=C/[C@H](C)[C@H](Cc2ccccc2)OC)[C@H](C)C(=O)N[C@@H](C(=O)O)CCC(=O)N1C
REMARK SMILES IDX 39 1 38 2 37 3 36 4 28 6 27 7 25 8 26 9 23 11 24 12 19 13
REMARK SMILES IDX 18 14 16 15 17 16 11 18 10 19 8 20 9 21 12 24 13 25 14 26
REMARK SMILES IDX 15 27 20 28 21 29 22 30 29 32 30 33 31 34 32 35 33 36 34 37
REMARK SMILES IDX 35 38 57 43 58 44 59 45 60 46 61 47 62 49 66 50 67 51 68 52
REMARK SMILES IDX 69 53 70 54 71 55 2 56 1 57 3 58 4 59 5 60 6 62 7 63 63 65
REMARK SMILES IDX 64 66 65 67 40 69 41 70 42 71 44 72 43 73 45 74 46 75 47 76
REMARK SMILES IDX 55 77 56 78 48 79 49 80 50 81 54 82 51 83 53 84 52 85
REMARK H PARENT 38 5 27 10 18 17 10 22 22 31 34 39 34 40 35 41 35 42 61 48
REMARK H PARENT 5 61 65 68
REMARK Flexibility Score:  369.900
ROOT
ATOM      1  C   UNL     1      -3.200 -12.149   9.971  1.00  0.00     0.117 C 
ENDROOT
BRANCH   1   2
ATOM      2  N   UNL     1      -3.028 -11.116  10.994  1.00  0.00    -0.347 N 
ATOM      3  O   UNL     1      -3.230  -9.284   9.626  1.00  0.00    -0.273 OA
ATOM      4  C   UNL     1      -3.149  -9.761  10.753  1.00  0.00     0.243 C 
ATOM      5  H   UNL     1      -2.859 -11.391  11.950  1.00  0.00     0.164 HD
BRANCH   4   6
ATOM      6  C   UNL     1      -3.006  -8.887  12.025  1.00  0.00     0.171 C 
BRANCH   6   7
ATOM      7  N   UNL     1      -3.169  -7.463  11.691  1.00  0.00    -0.344 N 
ATOM      8  C   UNL     1      -2.573  -6.488  12.461  1.00  0.00     0.226 C 
ATOM      9  O   UNL     1      -1.908  -6.748  13.457  1.00  0.00    -0.275 OA
ATOM     10  H   UNL     1      -3.767  -7.206  10.916  1.00  0.00     0.164 HD
BRANCH   8  11
ATOM     11  C   UNL     1      -2.790  -5.073  11.956  1.00  0.00     0.109 C 
ATOM     12  C   UNL     1      -2.855  -4.099  13.133  1.00  0.00     0.021 C 
BRANCH  11  13
ATOM     13  C   UNL     1      -1.731  -4.731  10.890  1.00  0.00     0.204 C 
BRANCH  13  14
ATOM     14  N   UNL     1      -0.488  -5.485  11.085  1.00  0.00    -0.340 N 
ATOM     15  C   UNL     1       0.639  -4.935  11.657  1.00  0.00     0.243 C 
ATOM     16  O   UNL     1       0.662  -3.788  12.099  1.00  0.00    -0.273 OA
ATOM     17  H   UNL     1      -0.392  -6.385  10.607  1.00  0.00     0.164 HD
BRANCH  15  18
ATOM     18  C   UNL     1       1.886  -5.849  11.569  1.00  0.00     0.171 C 
BRANCH  18  19
ATOM     19  N   UNL     1       2.968  -5.147  12.257  1.00  0.00    -0.343 N 
ATOM     20  C   UNL     1       4.077  -4.676  11.582  1.00  0.00     0.242 CG0
ATOM     21  O   UNL     1       4.268  -4.939  10.397  1.00  0.00    -0.273 OA
ATOM     22  H   UNL     1       2.910  -5.006  13.260  1.00  0.00     0.164 HD
ATOM     23  G   UNL     1       5.073  -3.894  12.462  1.00  0.00     0.000 G0
ENDBRANCH  18  19
BRANCH  18  24
ATOM     24  C   UNL     1       1.603  -7.213  12.209  1.00  0.00     0.038 C 
BRANCH  24  25
ATOM     25  C   UNL     1       1.849  -8.423  11.283  1.00  0.00    -0.015 C 
ATOM     26  C   UNL     1       3.081  -8.241  10.397  1.00  0.00     0.007 C 
ATOM     27  C   UNL     1       0.615  -8.659  10.408  1.00  0.00     0.007 C 
ENDBRANCH  24  25
ENDBRANCH  18  24
ENDBRANCH  15  18
ENDBRANCH  13  14
BRANCH  13  28
ATOM     28  C   UNL     1      -2.205  -5.003   9.459  1.00  0.00     0.327 C 
ATOM     29  O   UNL     1      -3.185  -5.656   9.134  1.00  0.00    -0.250 OA
BRANCH  28  30
ATOM     30  O   UNL     1      -1.355  -4.536   8.522  1.00  0.00    -0.480 OA
ATOM     31  H   UNL     1      -1.742  -3.678   8.251  1.00  0.00     0.296 HD
ENDBRANCH  28  30
ENDBRANCH  13  28
ENDBRANCH  11  13
ENDBRANCH   8  11
ENDBRANCH   6   7
BRANCH   6  32
ATOM     32  C   UNL     1      -4.047  -9.330  13.059  1.00  0.00     0.037 C 
BRANCH  32  33
ATOM     33  C   UNL     1      -3.399  -9.955  14.302  1.00  0.00     0.026 C 
BRANCH  33  34
ATOM     34  C   UNL     1      -3.573  -9.091  15.551  1.00  0.00     0.146 C 
BRANCH  34  35
ATOM     35  N   UNL     1      -4.903  -8.497  15.529  1.00  0.00    -0.254 NA
ATOM     36  C   UNL     1      -5.010  -7.226  15.648  1.00  0.00     0.185 C 
ATOM     37  N   UNL     1      -6.230  -6.667  15.624  1.00  0.00    -0.370 N 
ATOM     38  N   UNL     1      -4.040  -6.307  15.801  1.00  0.00    -0.370 N 
ATOM     39  H   UNL     1      -7.014  -7.295  15.502  1.00  0.00     0.159 HD
ATOM     40  H   UNL     1      -6.387  -5.678  15.537  1.00  0.00     0.159 HD
ATOM     41  H   UNL     1      -4.260  -5.350  16.024  1.00  0.00     0.159 HD
ATOM     42  H   UNL     1      -3.073  -6.586  15.852  1.00  0.00     0.159 HD
ENDBRANCH  34  35
ENDBRANCH  33  34
ENDBRANCH  32  33
ENDBRANCH   6  32
ENDBRANCH   4   6
ENDBRANCH   1   2
BRANCH   1  43
ATOM     43  C   UNL     1      -3.984 -13.339  10.595  1.00  0.00     0.102 C 
ATOM     44  C   UNL     1      -5.459 -13.394  10.161  1.00  0.00     0.020 C 
BRANCH  43  45
ATOM     45  C   UNL     1      -3.780 -13.397  12.112  1.00  0.00     0.225 C 
ATOM     46  O   UNL     1      -2.676 -13.504  12.637  1.00  0.00    -0.275 OA
ATOM     47  N   UNL     1      -4.933 -13.415  12.864  1.00  0.00    -0.342 N 
ATOM     48  H   UNL     1      -5.815 -13.175  12.434  1.00  0.00     0.164 HD
BRANCH  47  49
ATOM     49  C   UNL     1      -4.891 -13.434  14.330  1.00  0.00     0.192 C 
BRANCH  49  50
ATOM     50  C   UNL     1      -5.338 -14.806  14.840  1.00  0.00     0.047 C 
BRANCH  50  51
ATOM     51  C   UNL     1      -4.202 -15.838  14.805  1.00  0.00     0.103 C 
BRANCH  51  52
ATOM     52  C   UNL     1      -4.645 -17.157  14.175  1.00  0.00     0.226 C 
ATOM     53  O   UNL     1      -4.930 -18.113  14.898  1.00  0.00    -0.275 OA
BRANCH  52  54
ATOM     54  N   UNL     1      -4.775 -17.170  12.774  1.00  0.00    -0.311 N 
ATOM     55  C   UNL     1      -3.598 -17.035  11.904  1.00  0.00     0.153 C 
BRANCH  54  56
ATOM     56  C   UNL     1      -6.027 -17.319  12.155  1.00  0.00     0.102 C 
ATOM     57  C   UNL     1      -6.881 -16.315  11.896  1.00  0.00     0.043 C 
BRANCH  56  58
ATOM     58  C   UNL     1      -6.500 -18.672  11.677  1.00  0.00     0.268 C 
ATOM     59  O   UNL     1      -6.196 -19.721  12.230  1.00  0.00    -0.268 OA
ATOM     60  N   UNL     1      -7.356 -18.597  10.604  1.00  0.00    -0.339 N 
ATOM     61  H   UNL     1      -7.549 -17.690  10.198  1.00  0.00     0.164 HD
BRANCH  60  62
ATOM     62  C   UNL     1      -7.981 -19.784  10.022  1.00  0.00     0.168 CG0
ATOM     63  C   UNL     1      -9.297 -19.431   9.341  1.00  0.00     0.041 C 
ATOM     64  G   UNL     1      -8.202 -20.843  11.122  1.00  0.00     0.000 G0
ENDBRANCH  60  62
ENDBRANCH  56  58
ENDBRANCH  54  56
ENDBRANCH  52  54
ENDBRANCH  51  52
ENDBRANCH  50  51
ENDBRANCH  49  50
BRANCH  49  65
ATOM     65  C   UNL     1      -5.793 -12.347  14.936  1.00  0.00     0.326 C 
ATOM     66  O   UNL     1      -5.855 -12.055  16.121  1.00  0.00    -0.250 OA
BRANCH  65  67
ATOM     67  O   UNL     1      -6.605 -11.730  14.050  1.00  0.00    -0.480 OA
ATOM     68  H   UNL     1      -7.433 -12.255  14.091  1.00  0.00     0.296 HD
ENDBRANCH  65  67
ENDBRANCH  49  65
ENDBRANCH  47  49
ENDBRANCH  43  45
ENDBRANCH   1  43
BRANCH   1  69
ATOM     69  C   UNL     1      -1.821 -12.403   9.390  1.00  0.00    -0.001 C 
ATOM     70  C   UNL     1      -1.344 -11.985   8.205  1.00  0.00     0.001 C 
BRANCH  70  71
ATOM     71  C   UNL     1      -0.003 -12.219   7.664  1.00  0.00    -0.055 C 
ATOM     72  C   UNL     1       0.096 -12.914   6.511  1.00  0.00    -0.018 C 
ATOM     73  C   UNL     1       1.170 -11.661   8.428  1.00  0.00     0.044 C 
BRANCH  72  74
ATOM     74  C   UNL     1       1.340 -13.301   5.724  1.00  0.00     0.038 C 
ATOM     75  C   UNL     1       1.386 -12.406   4.480  1.00  0.00     0.015 C 
BRANCH  74  76
ATOM     76  C   UNL     1       1.289 -14.829   5.427  1.00  0.00     0.128 C 
BRANCH  76  77
ATOM     77  O   UNL     1       2.365 -15.194   4.546  1.00  0.00    -0.381 OA
ATOM     78  C   UNL     1       2.530 -16.597   4.397  1.00  0.00     0.195 C 
ENDBRANCH  76  77
BRANCH  76  79
ATOM     79  C   UNL     1       1.228 -15.715   6.697  1.00  0.00     0.068 C 
BRANCH  79  80
ATOM     80  C   UNL     1       1.988 -15.256   7.918  1.00  0.00    -0.045 A 
ATOM     81  C   UNL     1       3.334 -14.876   7.829  1.00  0.00     0.004 A 
ATOM     82  C   UNL     1       1.361 -15.229   9.173  1.00  0.00     0.004 A 
ATOM     83  C   UNL     1       4.034 -14.465   8.966  1.00  0.00     0.000 A 
ATOM     84  C   UNL     1       2.062 -14.819  10.308  1.00  0.00     0.000 A 
ATOM     85  C   UNL     1       3.398 -14.436  10.205  1.00  0.00     0.000 A 
ENDBRANCH  79  80
ENDBRANCH  76  79
ENDBRANCH  74  76
ENDBRANCH  72  74
ENDBRANCH  70  71
ENDBRANCH   1  69
TORSDOF 17
ENDMDL
MODEL 44
REMARK VINA RESULT:    -5.546     10.133     15.999
REMARK INTER + INTRA:         -24.102
REMARK INTER:                 -16.878
REMARK INTRA:                  -7.223
REMARK UNBOUND:                -7.533
REMARK SMILES C=C1C(=O)N[C@H](C)C(=O)N[C@@H](CC(C)C)C(=O)N[C@@H](C(=O)O)[C@H](C)C(=O)N[C@@H](CCCN=C(N)N)C(=O)N[C@@H](/C=C/C(C)=C/[C@H](C)[C@H](Cc2ccccc2)OC)[C@H](C)C(=O)N[C@@H](C(=O)O)CCC(=O)N1C
REMARK SMILES IDX 39 1 38 2 37 3 36 4 28 6 27 7 25 8 26 9 23 11 24 12 19 13
REMARK SMILES IDX 18 14 16 15 17 16 11 18 10 19 8 20 9 21 12 24 13 25 14 26
REMARK SMILES IDX 15 27 20 28 21 29 22 30 29 32 30 33 31 34 32 35 33 36 34 37
REMARK SMILES IDX 35 38 57 43 58 44 59 45 60 46 61 47 62 49 66 50 67 51 68 52
REMARK SMILES IDX 69 53 70 54 71 55 2 56 1 57 3 58 4 59 5 60 6 62 7 63 63 65
REMARK SMILES IDX 64 66 65 67 40 69 41 70 42 71 44 72 43 73 45 74 46 75 47 76
REMARK SMILES IDX 55 77 56 78 48 79 49 80 50 81 54 82 51 83 53 84 52 85
REMARK H PARENT 38 5 27 10 18 17 10 22 22 31 34 39 34 40 35 41 35 42 61 48
REMARK H PARENT 5 61 65 68
REMARK Flexibility Score:  369.900
ROOT
ATOM      1  C   UNL     1       0.108 -11.726  10.081  1.00  0.00     0.117 C 
ENDROOT
BRANCH   1   2
ATOM      2  N   UNL     1      -0.763 -12.685  10.761  1.00  0.00    -0.347 N 
ATOM      3  O   UNL     1      -2.655 -12.330   9.511  1.00  0.00    -0.273 OA
ATOM      4  C   UNL     1      -2.053 -12.977  10.361  1.00  0.00     0.243 C 
ATOM      5  H   UNL     1      -0.403 -13.213  11.542  1.00  0.00     0.164 HD
BRANCH   4   6
ATOM      6  C   UNL     1      -2.728 -14.092  11.199  1.00  0.00     0.171 C 
BRANCH   6   7
ATOM      7  N   UNL     1      -4.178 -14.116  10.950  1.00  0.00    -0.344 N 
ATOM      8  C   UNL     1      -5.071 -13.894  11.976  1.00  0.00     0.226 C 
ATOM      9  O   UNL     1      -4.714 -13.691  13.130  1.00  0.00    -0.275 OA
ATOM     10  H   UNL     1      -4.513 -14.347  10.023  1.00  0.00     0.164 HD
BRANCH   8  11
ATOM     11  C   UNL     1      -6.529 -13.897  11.548  1.00  0.00     0.109 C 
ATOM     12  C   UNL     1      -7.329 -12.914  12.402  1.00  0.00     0.021 C 
BRANCH  11  13
ATOM     13  C   UNL     1      -6.626 -13.664  10.027  1.00  0.00     0.204 C 
BRANCH  13  14
ATOM     14  N   UNL     1      -7.364 -14.735   9.351  1.00  0.00    -0.340 N 
ATOM     15  C   UNL     1      -6.764 -15.898   8.918  1.00  0.00     0.243 C 
ATOM     16  O   UNL     1      -5.577 -16.145   9.123  1.00  0.00    -0.273 OA
ATOM     17  H   UNL     1      -8.309 -14.531   9.017  1.00  0.00     0.164 HD
BRANCH  15  18
ATOM     18  C   UNL     1      -7.691 -16.786   8.051  1.00  0.00     0.171 C 
BRANCH  18  19
ATOM     19  N   UNL     1      -8.982 -16.104   7.985  1.00  0.00    -0.343 N 
ATOM     20  C   UNL     1     -10.175 -16.791   8.101  1.00  0.00     0.242 CG0
ATOM     21  O   UNL     1     -10.211 -18.018   8.131  1.00  0.00    -0.273 OA
ATOM     22  H   UNL     1      -9.008 -15.100   7.844  1.00  0.00     0.164 HD
ATOM     23  G   UNL     1     -11.430 -15.893   8.087  1.00  0.00     0.000 G0
ENDBRANCH  18  19
BRANCH  18  24
ATOM     24  C   UNL     1      -7.092 -16.991   6.654  1.00  0.00     0.038 C 
BRANCH  24  25
ATOM     25  C   UNL     1      -6.773 -18.459   6.299  1.00  0.00    -0.015 C 
ATOM     26  C   UNL     1      -5.349 -18.637   5.770  1.00  0.00     0.007 C 
ATOM     27  C   UNL     1      -7.776 -18.967   5.260  1.00  0.00     0.007 C 
ENDBRANCH  24  25
ENDBRANCH  18  24
ENDBRANCH  15  18
ENDBRANCH  13  14
BRANCH  13  28
ATOM     28  C   UNL     1      -7.309 -12.342   9.662  1.00  0.00     0.327 C 
ATOM     29  O   UNL     1      -8.457 -12.207   9.266  1.00  0.00    -0.250 OA
BRANCH  28  30
ATOM     30  O   UNL     1      -6.472 -11.285   9.702  1.00  0.00    -0.480 OA
ATOM     31  H   UNL     1      -7.044 -10.517   9.498  1.00  0.00     0.296 HD
ENDBRANCH  28  30
ENDBRANCH  13  28
ENDBRANCH  11  13
ENDBRANCH   8  11
ENDBRANCH   6   7
BRANCH   6  32
ATOM     32  C   UNL     1      -2.090 -15.441  10.849  1.00  0.00     0.037 C 
BRANCH  32  33
ATOM     33  C   UNL     1      -1.790 -16.281  12.098  1.00  0.00     0.026 C 
BRANCH  33  34
ATOM     34  C   UNL     1      -2.645 -17.546  12.172  1.00  0.00     0.146 C 
BRANCH  34  35
ATOM     35  N   UNL     1      -4.013 -17.170  12.501  1.00  0.00    -0.254 NA
ATOM     36  C   UNL     1      -4.973 -17.711  11.848  1.00  0.00     0.185 C 
ATOM     37  N   UNL     1      -6.238 -17.375  12.146  1.00  0.00    -0.370 N 
ATOM     38  N   UNL     1      -4.915 -18.616  10.854  1.00  0.00    -0.370 N 
ATOM     39  H   UNL     1      -6.366 -16.705  12.893  1.00  0.00     0.159 HD
ATOM     40  H   UNL     1      -7.041 -17.876  11.806  1.00  0.00     0.159 HD
ATOM     41  H   UNL     1      -5.735 -18.862  10.325  1.00  0.00     0.159 HD
ATOM     42  H   UNL     1      -4.025 -18.948  10.515  1.00  0.00     0.159 HD
ENDBRANCH  34  35
ENDBRANCH  33  34
ENDBRANCH  32  33
ENDBRANCH   6  32
ENDBRANCH   4   6
ENDBRANCH   1   2
BRANCH   1  43
ATOM     43  C   UNL     1       1.438 -12.443   9.708  1.00  0.00     0.102 C 
ATOM     44  C   UNL     1       2.661 -11.510   9.723  1.00  0.00     0.020 C 
BRANCH  43  45
ATOM     45  C   UNL     1       1.285 -13.247   8.414  1.00  0.00     0.225 C 
ATOM     46  O   UNL     1       0.518 -14.199   8.302  1.00  0.00    -0.275 OA
ATOM     47  N   UNL     1       2.139 -12.895   7.393  1.00  0.00    -0.342 N 
ATOM     48  H   UNL     1       2.649 -12.024   7.446  1.00  0.00     0.164 HD
BRANCH  47  49
ATOM     49  C   UNL     1       2.082 -13.553   6.085  1.00  0.00     0.192 C 
BRANCH  49  50
ATOM     50  C   UNL     1       3.460 -13.498   5.421  1.00  0.00     0.047 C 
BRANCH  50  51
ATOM     51  C   UNL     1       4.583 -13.225   6.431  1.00  0.00     0.103 C 
BRANCH  51  52
ATOM     52  C   UNL     1       4.974 -11.749   6.470  1.00  0.00     0.226 C 
ATOM     53  O   UNL     1       4.243 -10.910   5.940  1.00  0.00    -0.275 OA
BRANCH  52  54
ATOM     54  N   UNL     1       6.137 -11.428   7.193  1.00  0.00    -0.311 N 
ATOM     55  C   UNL     1       6.343 -11.932   8.558  1.00  0.00     0.153 C 
BRANCH  54  56
ATOM     56  C   UNL     1       7.145 -10.622   6.639  1.00  0.00     0.102 C 
ATOM     57  C   UNL     1       8.170 -11.074   5.897  1.00  0.00     0.043 C 
BRANCH  56  58
ATOM     58  C   UNL     1       7.118  -9.121   6.809  1.00  0.00     0.268 C 
ATOM     59  O   UNL     1       6.282  -8.539   7.486  1.00  0.00    -0.268 OA
ATOM     60  N   UNL     1       8.165  -8.488   6.182  1.00  0.00    -0.339 N 
ATOM     61  H   UNL     1       8.810  -9.041   5.631  1.00  0.00     0.164 HD
BRANCH  60  62
ATOM     62  C   UNL     1       8.366  -7.042   6.270  1.00  0.00     0.168 CG0
ATOM     63  C   UNL     1       7.646  -6.320   5.138  1.00  0.00     0.041 C 
ATOM     64  G   UNL     1       9.876  -6.728   6.246  1.00  0.00     0.000 G0
ENDBRANCH  60  62
ENDBRANCH  56  58
ENDBRANCH  54  56
ENDBRANCH  52  54
ENDBRANCH  51  52
ENDBRANCH  50  51
ENDBRANCH  49  50
BRANCH  49  65
ATOM     65  C   UNL     1       1.045 -12.893   5.163  1.00  0.00     0.326 C 
ATOM     66  O   UNL     1       1.299 -12.170   4.210  1.00  0.00    -0.250 OA
BRANCH  65  67
ATOM     67  O   UNL     1      -0.242 -13.118   5.509  1.00  0.00    -0.480 OA
ATOM     68  H   UNL     1      -0.489 -13.907   4.981  1.00  0.00     0.296 HD
ENDBRANCH  65  67
ENDBRANCH  49  65
ENDBRANCH  47  49
ENDBRANCH  43  45
ENDBRANCH   1  43
BRANCH   1  69
ATOM     69  C   UNL     1       0.162 -10.497  10.971  1.00  0.00    -0.001 C 
ATOM     70  C   UNL     1      -0.539  -9.358  10.832  1.00  0.00     0.001 C 
BRANCH  70  71
ATOM     71  C   UNL     1      -0.494  -8.186  11.710  1.00  0.00    -0.055 C 
ATOM     72  C   UNL     1      -1.352  -8.150  12.752  1.00  0.00    -0.018 C 
ATOM     73  C   UNL     1       0.510  -7.109  11.393  1.00  0.00     0.044 C 
BRANCH  72  74
ATOM     74  C   UNL     1      -1.528  -7.077  13.817  1.00  0.00     0.038 C 
ATOM     75  C   UNL     1      -1.331  -7.755  15.179  1.00  0.00     0.015 C 
BRANCH  74  76
ATOM     76  C   UNL     1      -2.915  -6.399  13.620  1.00  0.00     0.128 C 
BRANCH  76  77
ATOM     77  O   UNL     1      -3.592  -6.289  14.883  1.00  0.00    -0.381 OA
ATOM     78  C   UNL     1      -4.876  -6.899  14.898  1.00  0.00     0.195 C 
ENDBRANCH  76  77
BRANCH  76  79
ATOM     79  C   UNL     1      -2.855  -5.053  12.853  1.00  0.00     0.068 C 
BRANCH  79  80
ATOM     80  C   UNL     1      -2.607  -5.099  11.364  1.00  0.00    -0.045 A 
ATOM     81  C   UNL     1      -3.229  -6.060  10.558  1.00  0.00     0.004 A 
ATOM     82  C   UNL     1      -1.721  -4.189  10.767  1.00  0.00     0.004 A 
ATOM     83  C   UNL     1      -2.983  -6.104   9.184  1.00  0.00     0.000 A 
ATOM     84  C   UNL     1      -1.475  -4.234   9.393  1.00  0.00     0.000 A 
ATOM     85  C   UNL     1      -2.107  -5.190   8.602  1.00  0.00     0.000 A 
ENDBRANCH  79  80
ENDBRANCH  76  79
ENDBRANCH  74  76
ENDBRANCH  72  74
ENDBRANCH  70  71
ENDBRANCH   1  69
TORSDOF 17
ENDMDL
MODEL 45
REMARK VINA RESULT:    -5.545     12.956     17.518
REMARK INTER + INTRA:         -24.100
REMARK INTER:                 -16.600
REMARK INTRA:                  -7.500
REMARK UNBOUND:                -7.533
REMARK SMILES C=C1C(=O)N[C@H](C)C(=O)N[C@@H](CC(C)C)C(=O)N[C@@H](C(=O)O)[C@H](C)C(=O)N[C@@H](CCCN=C(N)N)C(=O)N[C@@H](/C=C/C(C)=C/[C@H](C)[C@H](Cc2ccccc2)OC)[C@H](C)C(=O)N[C@@H](C(=O)O)CCC(=O)N1C
REMARK SMILES IDX 39 1 38 2 37 3 36 4 28 6 27 7 25 8 26 9 23 11 24 12 19 13
REMARK SMILES IDX 18 14 16 15 17 16 11 18 10 19 8 20 9 21 12 24 13 25 14 26
REMARK SMILES IDX 15 27 20 28 21 29 22 30 29 32 30 33 31 34 32 35 33 36 34 37
REMARK SMILES IDX 35 38 57 43 58 44 59 45 60 46 61 47 62 49 66 50 67 51 68 52
REMARK SMILES IDX 69 53 70 54 71 55 2 56 1 57 3 58 4 59 5 60 6 62 7 63 63 65
REMARK SMILES IDX 64 66 65 67 40 69 41 70 42 71 44 72 43 73 45 74 46 75 47 76
REMARK SMILES IDX 55 77 56 78 48 79 49 80 50 81 54 82 51 83 53 84 52 85
REMARK H PARENT 38 5 27 10 18 17 10 22 22 31 34 39 34 40 35 41 35 42 61 48
REMARK H PARENT 5 61 65 68
REMARK Flexibility Score:  369.900
ROOT
ATOM      1  C   UNL     1       2.791  -7.508  11.489  1.00  0.00     0.117 C 
ENDROOT
BRANCH   1   2
ATOM      2  N   UNL     1       1.411  -7.030  11.396  1.00  0.00    -0.347 N 
ATOM      3  O   UNL     1       1.143  -6.419  13.593  1.00  0.00    -0.273 OA
ATOM      4  C   UNL     1       0.726  -6.437  12.439  1.00  0.00     0.243 C 
ATOM      5  H   UNL     1       0.928  -7.082  10.512  1.00  0.00     0.164 HD
BRANCH   4   6
ATOM      6  C   UNL     1      -0.691  -5.942  12.053  1.00  0.00     0.171 C 
BRANCH   6   7
ATOM      7  N   UNL     1      -1.641  -6.196  13.148  1.00  0.00    -0.344 N 
ATOM      8  C   UNL     1      -2.381  -7.358  13.180  1.00  0.00     0.226 C 
ATOM      9  O   UNL     1      -2.307  -8.213  12.305  1.00  0.00    -0.275 OA
ATOM     10  H   UNL     1      -1.779  -5.483  13.853  1.00  0.00     0.164 HD
BRANCH   8  11
ATOM     11  C   UNL     1      -3.274  -7.497  14.401  1.00  0.00     0.109 C 
ATOM     12  C   UNL     1      -3.175  -6.244  15.270  1.00  0.00     0.021 C 
BRANCH  11  13
ATOM     13  C   UNL     1      -4.704  -7.869  13.961  1.00  0.00     0.204 C 
BRANCH  13  14
ATOM     14  N   UNL     1      -4.766  -9.205  13.360  1.00  0.00    -0.340 N 
ATOM     15  C   UNL     1      -5.678  -9.545  12.384  1.00  0.00     0.243 C 
ATOM     16  O   UNL     1      -6.465  -8.732  11.904  1.00  0.00    -0.273 OA
ATOM     17  H   UNL     1      -4.249  -9.962  13.816  1.00  0.00     0.164 HD
BRANCH  15  18
ATOM     18  C   UNL     1      -5.694 -11.058  12.053  1.00  0.00     0.171 C 
BRANCH  18  19
ATOM     19  N   UNL     1      -6.714 -11.663  12.908  1.00  0.00    -0.343 N 
ATOM     20  C   UNL     1      -6.385 -12.526  13.935  1.00  0.00     0.242 CG0
ATOM     21  O   UNL     1      -5.235 -12.930  14.093  1.00  0.00    -0.273 OA
ATOM     22  H   UNL     1      -7.691 -11.450  12.743  1.00  0.00     0.164 HD
ATOM     23  G   UNL     1      -7.587 -13.001  14.778  1.00  0.00     0.000 G0
ENDBRANCH  18  19
BRANCH  18  24
ATOM     24  C   UNL     1      -6.001 -11.284  10.567  1.00  0.00     0.038 C 
BRANCH  24  25
ATOM     25  C   UNL     1      -7.277 -12.106  10.290  1.00  0.00    -0.015 C 
ATOM     26  C   UNL     1      -6.967 -13.545   9.876  1.00  0.00     0.007 C 
ATOM     27  C   UNL     1      -8.103 -11.422   9.198  1.00  0.00     0.007 C 
ENDBRANCH  24  25
ENDBRANCH  18  24
ENDBRANCH  15  18
ENDBRANCH  13  14
BRANCH  13  28
ATOM     28  C   UNL     1      -5.716  -7.841  15.110  1.00  0.00     0.327 C 
ATOM     29  O   UNL     1      -6.604  -7.018  15.271  1.00  0.00    -0.250 OA
BRANCH  28  30
ATOM     30  O   UNL     1      -5.475  -8.778  16.050  1.00  0.00    -0.480 OA
ATOM     31  H   UNL     1      -4.763  -8.390  16.600  1.00  0.00     0.296 HD
ENDBRANCH  28  30
ENDBRANCH  13  28
ENDBRANCH  11  13
ENDBRANCH   8  11
ENDBRANCH   6   7
BRANCH   6  32
ATOM     32  C   UNL     1      -0.628  -4.447  11.719  1.00  0.00     0.037 C 
BRANCH  32  33
ATOM     33  C   UNL     1      -0.629  -4.191  10.206  1.00  0.00     0.026 C 
BRANCH  33  34
ATOM     34  C   UNL     1      -2.037  -4.213   9.610  1.00  0.00     0.146 C 
BRANCH  34  35
ATOM     35  N   UNL     1      -2.851  -5.158  10.361  1.00  0.00    -0.254 NA
ATOM     36  C   UNL     1      -3.524  -6.038   9.717  1.00  0.00     0.185 C 
ATOM     37  N   UNL     1      -4.273  -6.917  10.399  1.00  0.00    -0.370 N 
ATOM     38  N   UNL     1      -3.605  -6.233   8.388  1.00  0.00    -0.370 N 
ATOM     39  H   UNL     1      -4.257  -6.841  11.408  1.00  0.00     0.159 HD
ATOM     40  H   UNL     1      -4.686  -7.735   9.985  1.00  0.00     0.159 HD
ATOM     41  H   UNL     1      -4.278  -6.870   7.996  1.00  0.00     0.159 HD
ATOM     42  H   UNL     1      -3.105  -5.634   7.751  1.00  0.00     0.159 HD
ENDBRANCH  34  35
ENDBRANCH  33  34
ENDBRANCH  32  33
ENDBRANCH   6  32
ENDBRANCH   4   6
ENDBRANCH   1   2
BRANCH   1  43
ATOM     43  C   UNL     1       3.700  -6.562  10.653  1.00  0.00     0.102 C 
ATOM     44  C   UNL     1       4.964  -7.250  10.110  1.00  0.00     0.020 C 
BRANCH  43  45
ATOM     45  C   UNL     1       3.978  -5.258  11.407  1.00  0.00     0.225 C 
ATOM     46  O   UNL     1       4.470  -5.225  12.531  1.00  0.00    -0.275 OA
ATOM     47  N   UNL     1       3.551  -4.109  10.780  1.00  0.00    -0.342 N 
ATOM     48  H   UNL     1       3.292  -4.138   9.805  1.00  0.00     0.164 HD
BRANCH  47  49
ATOM     49  C   UNL     1       3.782  -2.786  11.367  1.00  0.00     0.192 C 
BRANCH  49  50
ATOM     50  C   UNL     1       2.514  -1.938  11.238  1.00  0.00     0.047 C 
BRANCH  50  51
ATOM     51  C   UNL     1       2.420  -0.861  12.327  1.00  0.00     0.103 C 
BRANCH  51  52
ATOM     52  C   UNL     1       2.133   0.522  11.744  1.00  0.00     0.226 C 
ATOM     53  O   UNL     1       1.020   1.028  11.895  1.00  0.00    -0.275 OA
BRANCH  52  54
ATOM     54  N   UNL     1       3.212   1.175  11.121  1.00  0.00    -0.311 N 
ATOM     55  C   UNL     1       4.362   1.651  11.902  1.00  0.00     0.153 C 
BRANCH  54  56
ATOM     56  C   UNL     1       3.234   1.391   9.733  1.00  0.00     0.102 C 
ATOM     57  C   UNL     1       2.770   0.530   8.813  1.00  0.00     0.043 C 
BRANCH  56  58
ATOM     58  C   UNL     1       3.764   2.684   9.158  1.00  0.00     0.268 C 
ATOM     59  O   UNL     1       3.242   3.772   9.364  1.00  0.00    -0.268 OA
ATOM     60  N   UNL     1       4.924   2.521   8.439  1.00  0.00    -0.339 N 
ATOM     61  H   UNL     1       5.286   1.585   8.306  1.00  0.00     0.164 HD
BRANCH  60  62
ATOM     62  C   UNL     1       5.639   3.651   7.848  1.00  0.00     0.168 CG0
ATOM     63  C   UNL     1       6.797   4.090   8.736  1.00  0.00     0.041 C 
ATOM     64  G   UNL     1       4.659   4.818   7.613  1.00  0.00     0.000 G0
ENDBRANCH  60  62
ENDBRANCH  56  58
ENDBRANCH  54  56
ENDBRANCH  52  54
ENDBRANCH  51  52
ENDBRANCH  50  51
ENDBRANCH  49  50
BRANCH  49  65
ATOM     65  C   UNL     1       4.952  -2.059  10.686  1.00  0.00     0.326 C 
ATOM     66  O   UNL     1       5.792  -1.376  11.253  1.00  0.00    -0.250 OA
BRANCH  65  67
ATOM     67  O   UNL     1       4.979  -2.173   9.339  1.00  0.00    -0.480 OA
ATOM     68  H   UNL     1       5.162  -3.125   9.191  1.00  0.00     0.296 HD
ENDBRANCH  65  67
ENDBRANCH  49  65
ENDBRANCH  47  49
ENDBRANCH  43  45
ENDBRANCH   1  43
BRANCH   1  69
ATOM     69  C   UNL     1       2.752  -8.985  11.141  1.00  0.00    -0.001 C 
ATOM     70  C   UNL     1       1.840  -9.623  10.387  1.00  0.00     0.001 C 
BRANCH  70  71
ATOM     71  C   UNL     1       1.825 -11.045  10.040  1.00  0.00    -0.055 C 
ATOM     72  C   UNL     1       2.085 -11.382   8.759  1.00  0.00    -0.018 C 
ATOM     73  C   UNL     1       1.528 -12.033  11.138  1.00  0.00     0.044 C 
BRANCH  72  74
ATOM     74  C   UNL     1       2.141 -12.761   8.118  1.00  0.00     0.038 C 
ATOM     75  C   UNL     1       3.620 -13.090   7.881  1.00  0.00     0.015 C 
BRANCH  74  76
ATOM     76  C   UNL     1       1.260 -12.752   6.834  1.00  0.00     0.128 C 
BRANCH  76  77
ATOM     77  O   UNL     1       1.876 -13.552   5.811  1.00  0.00    -0.381 OA
ATOM     78  C   UNL     1       1.901 -12.926   4.535  1.00  0.00     0.195 C 
ENDBRANCH  76  77
BRANCH  76  79
ATOM     79  C   UNL     1      -0.221 -13.135   7.084  1.00  0.00     0.068 C 
BRANCH  79  80
ATOM     80  C   UNL     1      -1.031 -12.259   8.009  1.00  0.00    -0.045 A 
ATOM     81  C   UNL     1      -1.359 -10.944   7.655  1.00  0.00     0.004 A 
ATOM     82  C   UNL     1      -1.446 -12.744   9.259  1.00  0.00     0.004 A 
ATOM     83  C   UNL     1      -2.096 -10.136   8.523  1.00  0.00     0.000 A 
ATOM     84  C   UNL     1      -2.183 -11.935  10.126  1.00  0.00     0.000 A 
ATOM     85  C   UNL     1      -2.509 -10.632   9.757  1.00  0.00     0.000 A 
ENDBRANCH  79  80
ENDBRANCH  76  79
ENDBRANCH  74  76
ENDBRANCH  72  74
ENDBRANCH  70  71
ENDBRANCH   1  69
TORSDOF 17
ENDMDL
MODEL 46
REMARK VINA RESULT:    -5.532     13.004     18.555
REMARK INTER + INTRA:         -24.060
REMARK INTER:                 -15.925
REMARK INTRA:                  -8.135
REMARK UNBOUND:                -7.533
REMARK SMILES C=C1C(=O)N[C@H](C)C(=O)N[C@@H](CC(C)C)C(=O)N[C@@H](C(=O)O)[C@H](C)C(=O)N[C@@H](CCCN=C(N)N)C(=O)N[C@@H](/C=C/C(C)=C/[C@H](C)[C@H](Cc2ccccc2)OC)[C@H](C)C(=O)N[C@@H](C(=O)O)CCC(=O)N1C
REMARK SMILES IDX 39 1 38 2 37 3 36 4 28 6 27 7 25 8 26 9 23 11 24 12 19 13
REMARK SMILES IDX 18 14 16 15 17 16 11 18 10 19 8 20 9 21 12 24 13 25 14 26
REMARK SMILES IDX 15 27 20 28 21 29 22 30 29 32 30 33 31 34 32 35 33 36 34 37
REMARK SMILES IDX 35 38 57 43 58 44 59 45 60 46 61 47 62 49 66 50 67 51 68 52
REMARK SMILES IDX 69 53 70 54 71 55 2 56 1 57 3 58 4 59 5 60 6 62 7 63 63 65
REMARK SMILES IDX 64 66 65 67 40 69 41 70 42 71 44 72 43 73 45 74 46 75 47 76
REMARK SMILES IDX 55 77 56 78 48 79 49 80 50 81 54 82 51 83 53 84 52 85
REMARK H PARENT 38 5 27 10 18 17 10 22 22 31 34 39 34 40 35 41 35 42 61 48
REMARK H PARENT 5 61 65 68
REMARK Flexibility Score:  369.900
ROOT
ATOM      1  C   UNL     1      -0.655  -8.763  10.852  1.00  0.00     0.117 C 
ENDROOT
BRANCH   1   2
ATOM      2  N   UNL     1       0.672  -8.160  10.985  1.00  0.00    -0.347 N 
ATOM      3  O   UNL     1       1.860  -9.766   9.854  1.00  0.00    -0.273 OA
ATOM      4  C   UNL     1       1.814  -8.666  10.394  1.00  0.00     0.243 C 
ATOM      5  H   UNL     1       0.773  -7.295  11.494  1.00  0.00     0.164 HD
BRANCH   4   6
ATOM      6  C   UNL     1       3.072  -7.790  10.620  1.00  0.00     0.171 C 
BRANCH   6   7
ATOM      7  N   UNL     1       2.771  -6.685  11.545  1.00  0.00    -0.344 N 
ATOM      8  C   UNL     1       3.360  -5.450  11.380  1.00  0.00     0.226 C 
ATOM      9  O   UNL     1       4.166  -5.217  10.487  1.00  0.00    -0.275 OA
ATOM     10  H   UNL     1       2.162  -6.858  12.334  1.00  0.00     0.164 HD
BRANCH   8  11
ATOM     11  C   UNL     1       2.906  -4.402  12.380  1.00  0.00     0.109 C 
ATOM     12  C   UNL     1       2.605  -5.057  13.728  1.00  0.00     0.021 C 
BRANCH  11  13
ATOM     13  C   UNL     1       3.932  -3.252  12.433  1.00  0.00     0.204 C 
BRANCH  13  14
ATOM     14  N   UNL     1       3.865  -2.398  11.243  1.00  0.00    -0.340 N 
ATOM     15  C   UNL     1       4.986  -1.939  10.587  1.00  0.00     0.243 C 
ATOM     16  O   UNL     1       6.125  -2.263  10.920  1.00  0.00    -0.273 OA
ATOM     17  H   UNL     1       2.965  -1.972  11.008  1.00  0.00     0.164 HD
BRANCH  15  18
ATOM     18  C   UNL     1       4.676  -0.890   9.491  1.00  0.00     0.171 C 
BRANCH  18  19
ATOM     19  N   UNL     1       5.362  -1.335   8.280  1.00  0.00    -0.343 N 
ATOM     20  C   UNL     1       6.314  -0.554   7.653  1.00  0.00     0.242 CG0
ATOM     21  O   UNL     1       6.531   0.603   8.006  1.00  0.00    -0.273 OA
ATOM     22  H   UNL     1       5.132  -2.238   7.881  1.00  0.00     0.164 HD
ATOM     23  G   UNL     1       6.984  -1.223   6.435  1.00  0.00     0.000 G0
ENDBRANCH  18  19
BRANCH  18  24
ATOM     24  C   UNL     1       3.163  -0.770   9.269  1.00  0.00     0.038 C 
BRANCH  24  25
ATOM     25  C   UNL     1       2.676   0.647   8.902  1.00  0.00    -0.015 C 
ATOM     26  C   UNL     1       2.771   0.929   7.402  1.00  0.00     0.007 C 
ATOM     27  C   UNL     1       3.491   1.688   9.674  1.00  0.00     0.007 C 
ENDBRANCH  24  25
ENDBRANCH  18  24
ENDBRANCH  15  18
ENDBRANCH  13  14
BRANCH  13  28
ATOM     28  C   UNL     1       3.759  -2.344  13.654  1.00  0.00     0.327 C 
ATOM     29  O   UNL     1       4.349  -2.444  14.719  1.00  0.00    -0.250 OA
BRANCH  28  30
ATOM     30  O   UNL     1       2.770  -1.440  13.504  1.00  0.00    -0.480 OA
ATOM     31  H   UNL     1       3.236  -0.609  13.273  1.00  0.00     0.296 HD
ENDBRANCH  28  30
ENDBRANCH  13  28
ENDBRANCH  11  13
ENDBRANCH   8  11
ENDBRANCH   6   7
BRANCH   6  32
ATOM     32  C   UNL     1       4.205  -8.667  11.165  1.00  0.00     0.037 C 
BRANCH  32  33
ATOM     33  C   UNL     1       5.427  -8.678  10.237  1.00  0.00     0.026 C 
BRANCH  33  34
ATOM     34  C   UNL     1       5.062  -8.369   8.784  1.00  0.00     0.146 C 
BRANCH  34  35
ATOM     35  N   UNL     1       6.277  -8.035   8.055  1.00  0.00    -0.254 NA
ATOM     36  C   UNL     1       6.510  -6.806   7.778  1.00  0.00     0.185 C 
ATOM     37  N   UNL     1       7.630  -6.487   7.111  1.00  0.00    -0.370 N 
ATOM     38  N   UNL     1       5.770  -5.721   8.066  1.00  0.00    -0.370 N 
ATOM     39  H   UNL     1       8.246  -7.251   6.866  1.00  0.00     0.159 HD
ATOM     40  H   UNL     1       7.967  -5.545   7.010  1.00  0.00     0.159 HD
ATOM     41  H   UNL     1       5.991  -4.821   7.672  1.00  0.00     0.159 HD
ATOM     42  H   UNL     1       4.892  -5.813   8.553  1.00  0.00     0.159 HD
ENDBRANCH  34  35
ENDBRANCH  33  34
ENDBRANCH  32  33
ENDBRANCH   6  32
ENDBRANCH   4   6
ENDBRANCH   1   2
BRANCH   1  43
ATOM     43  C   UNL     1      -1.281  -8.291   9.508  1.00  0.00     0.102 C 
ATOM     44  C   UNL     1      -2.388  -7.238   9.685  1.00  0.00     0.020 C 
BRANCH  43  45
ATOM     45  C   UNL     1      -1.693  -9.486   8.643  1.00  0.00     0.225 C 
ATOM     46  O   UNL     1      -2.534  -9.411   7.752  1.00  0.00    -0.275 OA
ATOM     47  N   UNL     1      -1.125 -10.691   8.989  1.00  0.00    -0.342 N 
ATOM     48  H   UNL     1      -0.332 -10.709   9.615  1.00  0.00     0.164 HD
BRANCH  47  49
ATOM     49  C   UNL     1      -1.399 -11.913   8.228  1.00  0.00     0.192 C 
BRANCH  49  50
ATOM     50  C   UNL     1      -1.744 -13.053   9.191  1.00  0.00     0.047 C 
BRANCH  50  51
ATOM     51  C   UNL     1      -2.281 -12.538  10.533  1.00  0.00     0.103 C 
BRANCH  51  52
ATOM     52  C   UNL     1      -3.789 -12.302  10.496  1.00  0.00     0.226 C 
ATOM     53  O   UNL     1      -4.232 -11.254  10.022  1.00  0.00    -0.275 OA
BRANCH  52  54
ATOM     54  N   UNL     1      -4.600 -13.360  10.949  1.00  0.00    -0.311 N 
ATOM     55  C   UNL     1      -5.472 -14.094  10.023  1.00  0.00     0.153 C 
BRANCH  54  56
ATOM     56  C   UNL     1      -4.602 -13.756  12.297  1.00  0.00     0.102 C 
ATOM     57  C   UNL     1      -3.890 -14.778  12.798  1.00  0.00     0.043 C 
BRANCH  56  58
ATOM     58  C   UNL     1      -5.406 -12.996  13.326  1.00  0.00     0.268 C 
ATOM     59  O   UNL     1      -5.913 -11.904  13.107  1.00  0.00    -0.268 OA
ATOM     60  N   UNL     1      -5.563 -13.686  14.505  1.00  0.00    -0.339 N 
ATOM     61  H   UNL     1      -5.101 -14.581  14.611  1.00  0.00     0.164 HD
BRANCH  60  62
ATOM     62  C   UNL     1      -6.358 -13.161  15.614  1.00  0.00     0.168 CG0
ATOM     63  C   UNL     1      -5.479 -12.427  16.619  1.00  0.00     0.041 C 
ATOM     64  G   UNL     1      -7.119 -14.317  16.296  1.00  0.00     0.000 G0
ENDBRANCH  60  62
ENDBRANCH  56  58
ENDBRANCH  54  56
ENDBRANCH  52  54
ENDBRANCH  51  52
ENDBRANCH  50  51
ENDBRANCH  49  50
BRANCH  49  65
ATOM     65  C   UNL     1      -0.197 -12.324   7.363  1.00  0.00     0.326 C 
ATOM     66  O   UNL     1      -0.233 -13.101   6.420  1.00  0.00    -0.250 OA
BRANCH  65  67
ATOM     67  O   UNL     1       0.984 -11.798   7.754  1.00  0.00    -0.480 OA
ATOM     68  H   UNL     1       1.209 -11.172   7.032  1.00  0.00     0.296 HD
ENDBRANCH  65  67
ENDBRANCH  49  65
ENDBRANCH  47  49
ENDBRANCH  43  45
ENDBRANCH   1  43
BRANCH   1  69
ATOM     69  C   UNL     1      -1.388  -8.465  12.147  1.00  0.00    -0.001 C 
ATOM     70  C   UNL     1      -2.356  -9.197  12.725  1.00  0.00     0.001 C 
BRANCH  70  71
ATOM     71  C   UNL     1      -3.042  -8.910  13.987  1.00  0.00    -0.055 C 
ATOM     72  C   UNL     1      -3.733  -7.755  14.077  1.00  0.00    -0.018 C 
ATOM     73  C   UNL     1      -2.933  -9.928  15.092  1.00  0.00     0.044 C 
BRANCH  72  74
ATOM     74  C   UNL     1      -4.535  -7.201  15.246  1.00  0.00     0.038 C 
ATOM     75  C   UNL     1      -6.019  -7.360  14.893  1.00  0.00     0.015 C 
BRANCH  74  76
ATOM     76  C   UNL     1      -4.081  -5.736  15.515  1.00  0.00     0.128 C 
BRANCH  76  77
ATOM     77  O   UNL     1      -4.503  -5.325  16.827  1.00  0.00    -0.381 OA
ATOM     78  C   UNL     1      -3.980  -6.131  17.874  1.00  0.00     0.195 C 
ENDBRANCH  76  77
BRANCH  76  79
ATOM     79  C   UNL     1      -2.572  -5.489  15.266  1.00  0.00     0.068 C 
BRANCH  79  80
ATOM     80  C   UNL     1      -2.163  -4.891  13.941  1.00  0.00    -0.045 A 
ATOM     81  C   UNL     1      -1.074  -5.403  13.224  1.00  0.00     0.004 A 
ATOM     82  C   UNL     1      -2.856  -3.788  13.419  1.00  0.00     0.004 A 
ATOM     83  C   UNL     1      -0.694  -4.836  12.006  1.00  0.00     0.000 A 
ATOM     84  C   UNL     1      -2.474  -3.221  12.201  1.00  0.00     0.000 A 
ATOM     85  C   UNL     1      -1.394  -3.746  11.494  1.00  0.00     0.000 A 
ENDBRANCH  79  80
ENDBRANCH  76  79
ENDBRANCH  74  76
ENDBRANCH  72  74
ENDBRANCH  70  71
ENDBRANCH   1  69
TORSDOF 17
ENDMDL
MODEL 47
REMARK VINA RESULT:    -5.495     10.078     15.925
REMARK INTER + INTRA:         -23.949
REMARK INTER:                 -16.832
REMARK INTRA:                  -7.116
REMARK UNBOUND:                -7.533
REMARK SMILES C=C1C(=O)N[C@H](C)C(=O)N[C@@H](CC(C)C)C(=O)N[C@@H](C(=O)O)[C@H](C)C(=O)N[C@@H](CCCN=C(N)N)C(=O)N[C@@H](/C=C/C(C)=C/[C@H](C)[C@H](Cc2ccccc2)OC)[C@H](C)C(=O)N[C@@H](C(=O)O)CCC(=O)N1C
REMARK SMILES IDX 39 1 38 2 37 3 36 4 28 6 27 7 25 8 26 9 23 11 24 12 19 13
REMARK SMILES IDX 18 14 16 15 17 16 11 18 10 19 8 20 9 21 12 24 13 25 14 26
REMARK SMILES IDX 15 27 20 28 21 29 22 30 29 32 30 33 31 34 32 35 33 36 34 37
REMARK SMILES IDX 35 38 57 43 58 44 59 45 60 46 61 47 62 49 66 50 67 51 68 52
REMARK SMILES IDX 69 53 70 54 71 55 2 56 1 57 3 58 4 59 5 60 6 62 7 63 63 65
REMARK SMILES IDX 64 66 65 67 40 69 41 70 42 71 44 72 43 73 45 74 46 75 47 76
REMARK SMILES IDX 55 77 56 78 48 79 49 80 50 81 54 82 51 83 53 84 52 85
REMARK H PARENT 38 5 27 10 18 17 10 22 22 31 34 39 34 40 35 41 35 42 61 48
REMARK H PARENT 5 61 65 68
REMARK Flexibility Score:  369.900
ROOT
ATOM      1  C   UNL     1      -1.192 -11.700   9.748  1.00  0.00     0.117 C 
ENDROOT
BRANCH   1   2
ATOM      2  N   UNL     1      -1.879 -12.729  10.530  1.00  0.00    -0.347 N 
ATOM      3  O   UNL     1      -1.013 -12.189  12.586  1.00  0.00    -0.273 OA
ATOM      4  C   UNL     1      -1.804 -12.833  11.905  1.00  0.00     0.243 C 
ATOM      5  H   UNL     1      -2.488 -13.382  10.061  1.00  0.00     0.164 HD
BRANCH   4   6
ATOM      6  C   UNL     1      -2.695 -13.956  12.495  1.00  0.00     0.171 C 
BRANCH   6   7
ATOM      7  N   UNL     1      -4.062 -13.863  11.957  1.00  0.00    -0.344 N 
ATOM      8  C   UNL     1      -5.136 -13.666  12.798  1.00  0.00     0.226 C 
ATOM      9  O   UNL     1      -5.015 -13.581  14.015  1.00  0.00    -0.275 OA
ATOM     10  H   UNL     1      -4.210 -13.995  10.965  1.00  0.00     0.164 HD
BRANCH   8  11
ATOM     11  C   UNL     1      -6.472 -13.537  12.088  1.00  0.00     0.109 C 
ATOM     12  C   UNL     1      -7.261 -12.359  12.660  1.00  0.00     0.021 C 
BRANCH  11  13
ATOM     13  C   UNL     1      -6.249 -13.488  10.563  1.00  0.00     0.204 C 
BRANCH  13  14
ATOM     14  N   UNL     1      -7.346 -14.121   9.824  1.00  0.00    -0.340 N 
ATOM     15  C   UNL     1      -7.154 -15.175   8.958  1.00  0.00     0.243 C 
ATOM     16  O   UNL     1      -6.055 -15.700   8.789  1.00  0.00    -0.273 OA
ATOM     17  H   UNL     1      -8.250 -13.642   9.802  1.00  0.00     0.164 HD
BRANCH  15  18
ATOM     18  C   UNL     1      -8.416 -15.540   8.138  1.00  0.00     0.171 C 
BRANCH  18  19
ATOM     19  N   UNL     1      -8.935 -14.289   7.589  1.00  0.00    -0.343 N 
ATOM     20  C   UNL     1     -10.269 -13.945   7.694  1.00  0.00     0.242 CG0
ATOM     21  O   UNL     1     -11.104 -14.731   8.135  1.00  0.00    -0.273 OA
ATOM     22  H   UNL     1      -8.303 -13.656   7.111  1.00  0.00     0.164 HD
ATOM     23  G   UNL     1     -10.613 -12.553   7.125  1.00  0.00     0.000 G0
ENDBRANCH  18  19
BRANCH  18  24
ATOM     24  C   UNL     1      -8.071 -16.541   7.029  1.00  0.00     0.038 C 
BRANCH  24  25
ATOM     25  C   UNL     1      -8.244 -18.024   7.422  1.00  0.00    -0.015 C 
ATOM     26  C   UNL     1      -7.345 -18.954   6.606  1.00  0.00     0.007 C 
ATOM     27  C   UNL     1      -9.707 -18.436   7.244  1.00  0.00     0.007 C 
ENDBRANCH  24  25
ENDBRANCH  18  24
ENDBRANCH  15  18
ENDBRANCH  13  14
BRANCH  13  28
ATOM     28  C   UNL     1      -6.099 -12.064  10.020  1.00  0.00     0.327 C 
ATOM     29  O   UNL     1      -6.990 -11.371   9.551  1.00  0.00    -0.250 OA
BRANCH  28  30
ATOM     30  O   UNL     1      -4.819 -11.641   9.990  1.00  0.00    -0.480 OA
ATOM     31  H   UNL     1      -4.309 -12.435   9.728  1.00  0.00     0.296 HD
ENDBRANCH  28  30
ENDBRANCH  13  28
ENDBRANCH  11  13
ENDBRANCH   8  11
ENDBRANCH   6   7
BRANCH   6  32
ATOM     32  C   UNL     1      -2.071 -15.317  12.169  1.00  0.00     0.037 C 
BRANCH  32  33
ATOM     33  C   UNL     1      -2.925 -16.126  11.183  1.00  0.00     0.026 C 
BRANCH  33  34
ATOM     34  C   UNL     1      -3.566 -17.352  11.833  1.00  0.00     0.146 C 
BRANCH  34  35
ATOM     35  N   UNL     1      -4.921 -17.011  12.246  1.00  0.00    -0.254 NA
ATOM     36  C   UNL     1      -5.904 -17.457  11.556  1.00  0.00     0.185 C 
ATOM     37  N   UNL     1      -7.156 -17.154  11.930  1.00  0.00    -0.370 N 
ATOM     38  N   UNL     1      -5.882 -18.227  10.453  1.00  0.00    -0.370 N 
ATOM     39  H   UNL     1      -7.257 -16.584  12.760  1.00  0.00     0.159 HD
ATOM     40  H   UNL     1      -7.974 -17.601  11.552  1.00  0.00     0.159 HD
ATOM     41  H   UNL     1      -6.719 -18.397   9.920  1.00  0.00     0.159 HD
ATOM     42  H   UNL     1      -5.006 -18.519  10.050  1.00  0.00     0.159 HD
ENDBRANCH  34  35
ENDBRANCH  33  34
ENDBRANCH  32  33
ENDBRANCH   6  32
ENDBRANCH   4   6
ENDBRANCH   1   2
BRANCH   1  43
ATOM     43  C   UNL     1       0.333 -12.010   9.754  1.00  0.00     0.102 C 
ATOM     44  C   UNL     1       1.209 -10.766   9.983  1.00  0.00     0.020 C 
BRANCH  43  45
ATOM     45  C   UNL     1       0.732 -12.833   8.525  1.00  0.00     0.225 C 
ATOM     46  O   UNL     1       0.455 -14.022   8.395  1.00  0.00    -0.275 OA
ATOM     47  N   UNL     1       1.513 -12.177   7.601  1.00  0.00    -0.342 N 
ATOM     48  H   UNL     1       1.603 -11.171   7.645  1.00  0.00     0.164 HD
BRANCH  47  49
ATOM     49  C   UNL     1       1.940 -12.828   6.359  1.00  0.00     0.192 C 
BRANCH  49  50
ATOM     50  C   UNL     1       3.225 -12.171   5.849  1.00  0.00     0.047 C 
BRANCH  50  51
ATOM     51  C   UNL     1       4.394 -12.341   6.830  1.00  0.00     0.103 C 
BRANCH  51  52
ATOM     52  C   UNL     1       4.914 -10.999   7.341  1.00  0.00     0.226 C 
ATOM     53  O   UNL     1       4.254 -10.364   8.167  1.00  0.00    -0.275 OA
BRANCH  52  54
ATOM     54  N   UNL     1       6.182 -10.600   6.879  1.00  0.00    -0.311 N 
ATOM     55  C   UNL     1       6.682 -11.040   5.570  1.00  0.00     0.153 C 
BRANCH  54  56
ATOM     56  C   UNL     1       7.012  -9.766   7.647  1.00  0.00     0.102 C 
ATOM     57  C   UNL     1       7.853 -10.190   8.604  1.00  0.00     0.043 C 
BRANCH  56  58
ATOM     58  C   UNL     1       7.048  -8.275   7.406  1.00  0.00     0.268 C 
ATOM     59  O   UNL     1       6.151  -7.519   7.752  1.00  0.00    -0.268 OA
ATOM     60  N   UNL     1       8.217  -7.851   6.820  1.00  0.00    -0.339 N 
ATOM     61  H   UNL     1       8.908  -8.543   6.554  1.00  0.00     0.164 HD
BRANCH  60  62
ATOM     62  C   UNL     1       8.488  -6.439   6.555  1.00  0.00     0.168 CG0
ATOM     63  C   UNL     1       8.003  -6.041   5.166  1.00  0.00     0.041 C 
ATOM     64  G   UNL     1       9.998  -6.165   6.706  1.00  0.00     0.000 G0
ENDBRANCH  60  62
ENDBRANCH  56  58
ENDBRANCH  54  56
ENDBRANCH  52  54
ENDBRANCH  51  52
ENDBRANCH  50  51
ENDBRANCH  49  50
BRANCH  49  65
ATOM     65  C   UNL     1       0.858 -12.739   5.271  1.00  0.00     0.326 C 
ATOM     66  O   UNL     1       0.894 -12.011   4.290  1.00  0.00    -0.250 OA
BRANCH  65  67
ATOM     67  O   UNL     1      -0.229 -13.511   5.494  1.00  0.00    -0.480 OA
ATOM     68  H   UNL     1      -0.670 -13.075   6.255  1.00  0.00     0.296 HD
ENDBRANCH  65  67
ENDBRANCH  49  65
ENDBRANCH  47  49
ENDBRANCH  43  45
ENDBRANCH   1  43
BRANCH   1  69
ATOM     69  C   UNL     1      -1.671 -10.366  10.289  1.00  0.00    -0.001 C 
ATOM     70  C   UNL     1      -2.129  -9.316   9.584  1.00  0.00     0.001 C 
BRANCH  70  71
ATOM     71  C   UNL     1      -2.609  -8.040  10.119  1.00  0.00    -0.055 C 
ATOM     72  C   UNL     1      -1.835  -6.950   9.933  1.00  0.00    -0.018 C 
ATOM     73  C   UNL     1      -3.936  -8.033  10.832  1.00  0.00     0.044 C 
BRANCH  72  74
ATOM     74  C   UNL     1      -2.076  -5.512  10.369  1.00  0.00     0.038 C 
ATOM     75  C   UNL     1      -2.352  -4.694   9.101  1.00  0.00     0.015 C 
BRANCH  74  76
ATOM     76  C   UNL     1      -0.853  -5.030  11.203  1.00  0.00     0.128 C 
BRANCH  76  77
ATOM     77  O   UNL     1      -0.341  -3.802  10.658  1.00  0.00    -0.381 OA
ATOM     78  C   UNL     1       1.069  -3.666  10.782  1.00  0.00     0.195 C 
ENDBRANCH  76  77
BRANCH  76  79
ATOM     79  C   UNL     1      -1.125  -4.943  12.726  1.00  0.00     0.068 C 
BRANCH  79  80
ATOM     80  C   UNL     1      -2.006  -5.999  13.348  1.00  0.00    -0.045 A 
ATOM     81  C   UNL     1      -3.329  -5.713  13.711  1.00  0.00     0.004 A 
ATOM     82  C   UNL     1      -1.500  -7.283  13.601  1.00  0.00     0.004 A 
ATOM     83  C   UNL     1      -4.133  -6.692  14.299  1.00  0.00     0.000 A 
ATOM     84  C   UNL     1      -2.305  -8.260  14.190  1.00  0.00     0.000 A 
ATOM     85  C   UNL     1      -3.621  -7.965  14.537  1.00  0.00     0.000 A 
ENDBRANCH  79  80
ENDBRANCH  76  79
ENDBRANCH  74  76
ENDBRANCH  72  74
ENDBRANCH  70  71
ENDBRANCH   1  69
TORSDOF 17
ENDMDL
MODEL 48
REMARK VINA RESULT:    -5.459      9.433     14.998
REMARK INTER + INTRA:         -23.843
REMARK INTER:                 -18.331
REMARK INTRA:                  -5.511
REMARK UNBOUND:                -7.533
REMARK SMILES C=C1C(=O)N[C@H](C)C(=O)N[C@@H](CC(C)C)C(=O)N[C@@H](C(=O)O)[C@H](C)C(=O)N[C@@H](CCCN=C(N)N)C(=O)N[C@@H](/C=C/C(C)=C/[C@H](C)[C@H](Cc2ccccc2)OC)[C@H](C)C(=O)N[C@@H](C(=O)O)CCC(=O)N1C
REMARK SMILES IDX 39 1 38 2 37 3 36 4 28 6 27 7 25 8 26 9 23 11 24 12 19 13
REMARK SMILES IDX 18 14 16 15 17 16 11 18 10 19 8 20 9 21 12 24 13 25 14 26
REMARK SMILES IDX 15 27 20 28 21 29 22 30 29 32 30 33 31 34 32 35 33 36 34 37
REMARK SMILES IDX 35 38 57 43 58 44 59 45 60 46 61 47 62 49 66 50 67 51 68 52
REMARK SMILES IDX 69 53 70 54 71 55 2 56 1 57 3 58 4 59 5 60 6 62 7 63 63 65
REMARK SMILES IDX 64 66 65 67 40 69 41 70 42 71 44 72 43 73 45 74 46 75 47 76
REMARK SMILES IDX 55 77 56 78 48 79 49 80 50 81 54 82 51 83 53 84 52 85
REMARK H PARENT 38 5 27 10 18 17 10 22 22 31 34 39 34 40 35 41 35 42 61 48
REMARK H PARENT 5 61 65 68
REMARK Flexibility Score:  369.900
ROOT
ATOM      1  C   UNL     1      -3.483 -13.475  12.637  1.00  0.00     0.117 C 
ENDROOT
BRANCH   1   2
ATOM      2  N   UNL     1      -2.801 -12.643  11.645  1.00  0.00    -0.347 N 
ATOM      3  O   UNL     1      -0.980 -13.997  11.299  1.00  0.00    -0.273 OA
ATOM      4  C   UNL     1      -1.645 -13.016  10.986  1.00  0.00     0.243 C 
ATOM      5  H   UNL     1      -3.209 -11.761  11.375  1.00  0.00     0.164 HD
BRANCH   4   6
ATOM      6  C   UNL     1      -1.177 -11.991   9.922  1.00  0.00     0.171 C 
BRANCH   6   7
ATOM      7  N   UNL     1      -0.985 -12.652   8.621  1.00  0.00    -0.344 N 
ATOM      8  C   UNL     1       0.185 -12.482   7.912  1.00  0.00     0.226 C 
ATOM      9  O   UNL     1       1.099 -11.769   8.308  1.00  0.00    -0.275 OA
ATOM     10  H   UNL     1      -1.744 -13.194   8.229  1.00  0.00     0.164 HD
BRANCH   8  11
ATOM     11  C   UNL     1       0.252 -13.272   6.617  1.00  0.00     0.109 C 
ATOM     12  C   UNL     1       0.140 -12.328   5.419  1.00  0.00     0.021 C 
BRANCH  11  13
ATOM     13  C   UNL     1       1.503 -14.172   6.619  1.00  0.00     0.204 C 
BRANCH  13  14
ATOM     14  N   UNL     1       2.733 -13.407   6.849  1.00  0.00    -0.340 N 
ATOM     15  C   UNL     1       3.590 -13.044   5.833  1.00  0.00     0.243 C 
ATOM     16  O   UNL     1       3.352 -13.285   4.650  1.00  0.00    -0.273 OA
ATOM     17  H   UNL     1       3.064 -13.308   7.812  1.00  0.00     0.164 HD
BRANCH  15  18
ATOM     18  C   UNL     1       4.919 -12.428   6.334  1.00  0.00     0.171 C 
BRANCH  18  19
ATOM     19  N   UNL     1       5.293 -11.396   5.369  1.00  0.00    -0.343 N 
ATOM     20  C   UNL     1       6.604 -11.203   4.980  1.00  0.00     0.242 CG0
ATOM     21  O   UNL     1       7.531 -11.798   5.525  1.00  0.00    -0.273 OA
ATOM     22  H   UNL     1       4.574 -10.799   4.976  1.00  0.00     0.164 HD
ATOM     23  G   UNL     1       6.794 -10.123   3.896  1.00  0.00     0.000 G0
ENDBRANCH  18  19
BRANCH  18  24
ATOM     24  C   UNL     1       4.748 -11.845   7.742  1.00  0.00     0.038 C 
BRANCH  24  25
ATOM     25  C   UNL     1       5.774 -12.349   8.778  1.00  0.00    -0.015 C 
ATOM     26  C   UNL     1       6.888 -11.335   9.041  1.00  0.00     0.007 C 
ATOM     27  C   UNL     1       6.383 -13.670   8.299  1.00  0.00     0.007 C 
ENDBRANCH  24  25
ENDBRANCH  18  24
ENDBRANCH  15  18
ENDBRANCH  13  14
BRANCH  13  28
ATOM     28  C   UNL     1       1.451 -15.276   7.679  1.00  0.00     0.327 C 
ATOM     29  O   UNL     1       1.276 -16.468   7.473  1.00  0.00    -0.250 OA
BRANCH  28  30
ATOM     30  O   UNL     1       1.502 -14.802   8.940  1.00  0.00    -0.480 OA
ATOM     31  H   UNL     1       0.881 -14.045   8.938  1.00  0.00     0.296 HD
ENDBRANCH  28  30
ENDBRANCH  13  28
ENDBRANCH  11  13
ENDBRANCH   8  11
ENDBRANCH   6   7
BRANCH   6  32
ATOM     32  C   UNL     1      -2.212 -10.865   9.816  1.00  0.00     0.037 C 
BRANCH  32  33
ATOM     33  C   UNL     1      -1.595  -9.557   9.303  1.00  0.00     0.026 C 
BRANCH  33  34
ATOM     34  C   UNL     1      -2.435  -8.332   9.665  1.00  0.00     0.146 C 
BRANCH  34  35
ATOM     35  N   UNL     1      -1.679  -7.130   9.339  1.00  0.00    -0.254 NA
ATOM     36  C   UNL     1      -2.300  -6.135   8.825  1.00  0.00     0.185 C 
ATOM     37  N   UNL     1      -1.614  -5.021   8.525  1.00  0.00    -0.370 N 
ATOM     38  N   UNL     1      -3.605  -6.018   8.521  1.00  0.00    -0.370 N 
ATOM     39  H   UNL     1      -0.624  -5.026   8.735  1.00  0.00     0.159 HD
ATOM     40  H   UNL     1      -2.050  -4.147   8.286  1.00  0.00     0.159 HD
ATOM     41  H   UNL     1      -3.948  -5.234   7.991  1.00  0.00     0.159 HD
ATOM     42  H   UNL     1      -4.238  -6.786   8.679  1.00  0.00     0.159 HD
ENDBRANCH  34  35
ENDBRANCH  33  34
ENDBRANCH  32  33
ENDBRANCH   6  32
ENDBRANCH   4   6
ENDBRANCH   1   2
BRANCH   1  43
ATOM     43  C   UNL     1      -4.650 -14.227  11.934  1.00  0.00     0.102 C 
ATOM     44  C   UNL     1      -4.219 -15.554  11.286  1.00  0.00     0.020 C 
BRANCH  43  45
ATOM     45  C   UNL     1      -5.417 -13.295  10.991  1.00  0.00     0.225 C 
ATOM     46  O   UNL     1      -5.053 -13.055   9.843  1.00  0.00    -0.275 OA
ATOM     47  N   UNL     1      -6.504 -12.658  11.543  1.00  0.00    -0.342 N 
ATOM     48  H   UNL     1      -6.875 -12.977  12.427  1.00  0.00     0.164 HD
BRANCH  47  49
ATOM     49  C   UNL     1      -7.353 -11.765  10.750  1.00  0.00     0.192 C 
BRANCH  49  50
ATOM     50  C   UNL     1      -7.417 -12.265   9.305  1.00  0.00     0.047 C 
BRANCH  50  51
ATOM     51  C   UNL     1      -8.836 -12.685   8.896  1.00  0.00     0.103 C 
BRANCH  51  52
ATOM     52  C   UNL     1      -9.550 -11.594   8.100  1.00  0.00     0.226 C 
ATOM     53  O   UNL     1      -9.139 -10.433   8.153  1.00  0.00    -0.275 OA
BRANCH  52  54
ATOM     54  N   UNL     1     -10.613 -12.012   7.278  1.00  0.00    -0.311 N 
ATOM     55  C   UNL     1     -11.163 -13.369   7.385  1.00  0.00     0.153 C 
BRANCH  54  56
ATOM     56  C   UNL     1     -11.189 -11.149   6.332  1.00  0.00     0.102 C 
ATOM     57  C   UNL     1     -10.766 -11.004   5.065  1.00  0.00     0.043 C 
BRANCH  56  58
ATOM     58  C   UNL     1     -12.405 -10.322   6.677  1.00  0.00     0.268 C 
ATOM     59  O   UNL     1     -12.562  -9.783   7.764  1.00  0.00    -0.268 OA
ATOM     60  N   UNL     1     -13.280 -10.183   5.626  1.00  0.00    -0.339 N 
ATOM     61  H   UNL     1     -13.083 -10.670   4.760  1.00  0.00     0.164 HD
BRANCH  60  62
ATOM     62  C   UNL     1     -14.492  -9.371   5.723  1.00  0.00     0.168 CG0
ATOM     63  C   UNL     1     -15.740 -10.228   5.552  1.00  0.00     0.041 C 
ATOM     64  G   UNL     1     -14.450  -8.250   4.664  1.00  0.00     0.000 G0
ENDBRANCH  60  62
ENDBRANCH  56  58
ENDBRANCH  54  56
ENDBRANCH  52  54
ENDBRANCH  51  52
ENDBRANCH  50  51
ENDBRANCH  49  50
BRANCH  49  65
ATOM     65  C   UNL     1      -6.827 -10.321  10.766  1.00  0.00     0.326 C 
ATOM     66  O   UNL     1      -5.713  -9.975  11.130  1.00  0.00    -0.250 OA
BRANCH  65  67
ATOM     67  O   UNL     1      -7.729  -9.388  10.387  1.00  0.00    -0.480 OA
ATOM     68  H   UNL     1      -7.565  -9.284   9.425  1.00  0.00     0.296 HD
ENDBRANCH  65  67
ENDBRANCH  49  65
ENDBRANCH  47  49
ENDBRANCH  43  45
ENDBRANCH   1  43
BRANCH   1  69
ATOM     69  C   UNL     1      -3.798 -12.564  13.809  1.00  0.00    -0.001 C 
ATOM     70  C   UNL     1      -4.118 -11.259  13.767  1.00  0.00     0.001 C 
BRANCH  70  71
ATOM     71  C   UNL     1      -4.442 -10.395  14.904  1.00  0.00    -0.055 C 
ATOM     72  C   UNL     1      -4.747  -9.106  14.646  1.00  0.00    -0.018 C 
ATOM     73  C   UNL     1      -4.419 -11.008  16.280  1.00  0.00     0.044 C 
BRANCH  72  74
ATOM     74  C   UNL     1      -5.122  -7.993  15.614  1.00  0.00     0.038 C 
ATOM     75  C   UNL     1      -6.225  -7.164  14.945  1.00  0.00     0.015 C 
BRANCH  74  76
ATOM     76  C   UNL     1      -3.836  -7.194  15.980  1.00  0.00     0.128 C 
BRANCH  76  77
ATOM     77  O   UNL     1      -3.280  -7.695  17.207  1.00  0.00    -0.381 OA
ATOM     78  C   UNL     1      -1.961  -7.233  17.467  1.00  0.00     0.195 C 
ENDBRANCH  76  77
BRANCH  76  79
ATOM     79  C   UNL     1      -2.794  -7.118  14.836  1.00  0.00     0.068 C 
BRANCH  79  80
ATOM     80  C   UNL     1      -2.678  -5.823  14.070  1.00  0.00    -0.045 A 
ATOM     81  C   UNL     1      -3.309  -4.657  14.523  1.00  0.00     0.004 A 
ATOM     82  C   UNL     1      -1.954  -5.774  12.869  1.00  0.00     0.004 A 
ATOM     83  C   UNL     1      -3.209  -3.466  13.801  1.00  0.00     0.000 A 
ATOM     84  C   UNL     1      -1.854  -4.582  12.148  1.00  0.00     0.000 A 
ATOM     85  C   UNL     1      -2.480  -3.429  12.614  1.00  0.00     0.000 A 
ENDBRANCH  79  80
ENDBRANCH  76  79
ENDBRANCH  74  76
ENDBRANCH  72  74
ENDBRANCH  70  71
ENDBRANCH   1  69
TORSDOF 17
ENDMDL
MODEL 49
REMARK VINA RESULT:    -5.405      9.224     14.236
REMARK INTER + INTRA:         -23.681
REMARK INTER:                 -16.125
REMARK INTRA:                  -7.556
REMARK UNBOUND:                -7.533
REMARK SMILES C=C1C(=O)N[C@H](C)C(=O)N[C@@H](CC(C)C)C(=O)N[C@@H](C(=O)O)[C@H](C)C(=O)N[C@@H](CCCN=C(N)N)C(=O)N[C@@H](/C=C/C(C)=C/[C@H](C)[C@H](Cc2ccccc2)OC)[C@H](C)C(=O)N[C@@H](C(=O)O)CCC(=O)N1C
REMARK SMILES IDX 39 1 38 2 37 3 36 4 28 6 27 7 25 8 26 9 23 11 24 12 19 13
REMARK SMILES IDX 18 14 16 15 17 16 11 18 10 19 8 20 9 21 12 24 13 25 14 26
REMARK SMILES IDX 15 27 20 28 21 29 22 30 29 32 30 33 31 34 32 35 33 36 34 37
REMARK SMILES IDX 35 38 57 43 58 44 59 45 60 46 61 47 62 49 66 50 67 51 68 52
REMARK SMILES IDX 69 53 70 54 71 55 2 56 1 57 3 58 4 59 5 60 6 62 7 63 63 65
REMARK SMILES IDX 64 66 65 67 40 69 41 70 42 71 44 72 43 73 45 74 46 75 47 76
REMARK SMILES IDX 55 77 56 78 48 79 49 80 50 81 54 82 51 83 53 84 52 85
REMARK H PARENT 38 5 27 10 18 17 10 22 22 31 34 39 34 40 35 41 35 42 61 48
REMARK H PARENT 5 61 65 68
REMARK Flexibility Score:  369.900
ROOT
ATOM      1  C   UNL     1      -4.737 -11.662  10.404  1.00  0.00     0.117 C 
ENDROOT
BRANCH   1   2
ATOM      2  N   UNL     1      -4.631 -10.572  11.375  1.00  0.00    -0.347 N 
ATOM      3  O   UNL     1      -3.609  -9.035  10.010  1.00  0.00    -0.273 OA
ATOM      4  C   UNL     1      -4.157  -9.311  11.072  1.00  0.00     0.243 C 
ATOM      5  H   UNL     1      -4.966 -10.714  12.316  1.00  0.00     0.164 HD
BRANCH   4   6
ATOM      6  C   UNL     1      -4.231  -8.316  12.259  1.00  0.00     0.171 C 
BRANCH   6   7
ATOM      7  N   UNL     1      -3.892  -6.956  11.811  1.00  0.00    -0.344 N 
ATOM      8  C   UNL     1      -2.799  -6.297  12.331  1.00  0.00     0.226 C 
ATOM      9  O   UNL     1      -2.079  -6.789  13.192  1.00  0.00    -0.275 OA
ATOM     10  H   UNL     1      -4.502  -6.490  11.151  1.00  0.00     0.164 HD
BRANCH   8  11
ATOM     11  C   UNL     1      -2.551  -4.925  11.729  1.00  0.00     0.109 C 
ATOM     12  C   UNL     1      -2.168  -3.931  12.826  1.00  0.00     0.021 C 
BRANCH  11  13
ATOM     13  C   UNL     1      -1.537  -5.038  10.573  1.00  0.00     0.204 C 
BRANCH  13  14
ATOM     14  N   UNL     1      -0.645  -6.191  10.733  1.00  0.00    -0.340 N 
ATOM     15  C   UNL     1       0.643  -6.080  11.211  1.00  0.00     0.243 C 
ATOM     16  O   UNL     1       1.115  -5.012  11.596  1.00  0.00    -0.273 OA
ATOM     17  H   UNL     1      -0.918  -7.074  10.294  1.00  0.00     0.164 HD
BRANCH  15  18
ATOM     18  C   UNL     1       1.460  -7.390  11.096  1.00  0.00     0.171 C 
BRANCH  18  19
ATOM     19  N   UNL     1       2.860  -7.031  11.315  1.00  0.00    -0.343 N 
ATOM     20  C   UNL     1       3.865  -7.471  10.475  1.00  0.00     0.242 CG0
ATOM     21  O   UNL     1       3.648  -8.291   9.587  1.00  0.00    -0.273 OA
ATOM     22  H   UNL     1       3.106  -6.447  12.106  1.00  0.00     0.164 HD
ATOM     23  G   UNL     1       5.266  -6.925  10.819  1.00  0.00     0.000 G0
ENDBRANCH  18  19
BRANCH  18  24
ATOM     24  C   UNL     1       0.978  -8.422  12.123  1.00  0.00     0.038 C 
BRANCH  24  25
ATOM     25  C   UNL     1       0.377  -9.706  11.514  1.00  0.00    -0.015 C 
ATOM     26  C   UNL     1      -0.055  -9.517  10.059  1.00  0.00     0.007 C 
ATOM     27  C   UNL     1      -0.820 -10.162  12.352  1.00  0.00     0.007 C 
ENDBRANCH  24  25
ENDBRANCH  18  24
ENDBRANCH  15  18
ENDBRANCH  13  14
BRANCH  13  28
ATOM     28  C   UNL     1      -2.200  -5.164   9.199  1.00  0.00     0.327 C 
ATOM     29  O   UNL     1      -3.338  -5.551   8.978  1.00  0.00    -0.250 OA
BRANCH  28  30
ATOM     30  O   UNL     1      -1.356  -4.911   8.179  1.00  0.00    -0.480 OA
ATOM     31  H   UNL     1      -1.112  -3.969   8.296  1.00  0.00     0.296 HD
ENDBRANCH  28  30
ENDBRANCH  13  28
ENDBRANCH  11  13
ENDBRANCH   8  11
ENDBRANCH   6   7
BRANCH   6  32
ATOM     32  C   UNL     1      -5.638  -8.359  12.865  1.00  0.00     0.037 C 
BRANCH  32  33
ATOM     33  C   UNL     1      -5.629  -8.065  14.371  1.00  0.00     0.026 C 
BRANCH  33  34
ATOM     34  C   UNL     1      -4.970  -9.182  15.182  1.00  0.00     0.146 C 
BRANCH  34  35
ATOM     35  N   UNL     1      -5.429 -10.466  14.671  1.00  0.00    -0.254 NA
ATOM     36  C   UNL     1      -5.074 -11.533  15.284  1.00  0.00     0.185 C 
ATOM     37  N   UNL     1      -5.496 -12.722  14.824  1.00  0.00    -0.370 N 
ATOM     38  N   UNL     1      -4.304 -11.662  16.378  1.00  0.00    -0.370 N 
ATOM     39  H   UNL     1      -6.091 -12.708  14.006  1.00  0.00     0.159 HD
ATOM     40  H   UNL     1      -5.408 -13.580  15.341  1.00  0.00     0.159 HD
ATOM     41  H   UNL     1      -3.981 -12.566  16.684  1.00  0.00     0.159 HD
ATOM     42  H   UNL     1      -3.903 -10.851  16.822  1.00  0.00     0.159 HD
ENDBRANCH  34  35
ENDBRANCH  33  34
ENDBRANCH  32  33
ENDBRANCH   6  32
ENDBRANCH   4   6
ENDBRANCH   1   2
BRANCH   1  43
ATOM     43  C   UNL     1      -5.969 -12.538  10.775  1.00  0.00     0.102 C 
ATOM     44  C   UNL     1      -6.951 -11.839  11.729  1.00  0.00     0.020 C 
BRANCH  43  45
ATOM     45  C   UNL     1      -5.533 -13.930  11.242  1.00  0.00     0.225 C 
ATOM     46  O   UNL     1      -4.914 -14.125  12.284  1.00  0.00    -0.275 OA
ATOM     47  N   UNL     1      -5.797 -14.958  10.366  1.00  0.00    -0.342 N 
ATOM     48  H   UNL     1      -6.433 -14.808   9.595  1.00  0.00     0.164 HD
BRANCH  47  49
ATOM     49  C   UNL     1      -5.469 -16.348  10.695  1.00  0.00     0.192 C 
BRANCH  49  50
ATOM     50  C   UNL     1      -5.496 -17.198   9.422  1.00  0.00     0.047 C 
BRANCH  50  51
ATOM     51  C   UNL     1      -6.115 -16.449   8.235  1.00  0.00     0.103 C 
BRANCH  51  52
ATOM     52  C   UNL     1      -7.497 -16.990   7.872  1.00  0.00     0.226 C 
ATOM     53  O   UNL     1      -8.408 -16.940   8.700  1.00  0.00    -0.275 OA
BRANCH  52  54
ATOM     54  N   UNL     1      -7.662 -17.454   6.553  1.00  0.00    -0.311 N 
ATOM     55  C   UNL     1      -7.399 -18.857   6.208  1.00  0.00     0.153 C 
BRANCH  54  56
ATOM     56  C   UNL     1      -8.087 -16.599   5.524  1.00  0.00     0.102 C 
ATOM     57  C   UNL     1      -7.319 -16.183   4.504  1.00  0.00     0.043 C 
BRANCH  56  58
ATOM     58  C   UNL     1      -9.513 -16.103   5.467  1.00  0.00     0.268 C 
ATOM     59  O   UNL     1      -9.854 -15.118   4.826  1.00  0.00    -0.268 OA
ATOM     60  N   UNL     1     -10.392 -16.907   6.152  1.00  0.00    -0.339 N 
ATOM     61  H   UNL     1     -10.027 -17.700   6.667  1.00  0.00     0.164 HD
BRANCH  60  62
ATOM     62  C   UNL     1     -11.831 -16.646   6.176  1.00  0.00     0.168 CG0
ATOM     63  C   UNL     1     -12.216 -15.818   7.395  1.00  0.00     0.041 C 
ATOM     64  G   UNL     1     -12.599 -17.983   6.158  1.00  0.00     0.000 G0
ENDBRANCH  60  62
ENDBRANCH  56  58
ENDBRANCH  54  56
ENDBRANCH  52  54
ENDBRANCH  51  52
ENDBRANCH  50  51
ENDBRANCH  49  50
BRANCH  49  65
ATOM     65  C   UNL     1      -6.452 -16.935  11.720  1.00  0.00     0.326 C 
ATOM     66  O   UNL     1      -6.157 -17.693  12.633  1.00  0.00    -0.250 OA
BRANCH  65  67
ATOM     67  O   UNL     1      -7.745 -16.599  11.518  1.00  0.00    -0.480 OA
ATOM     68  H   UNL     1      -7.691 -15.707  11.112  1.00  0.00     0.296 HD
ENDBRANCH  65  67
ENDBRANCH  49  65
ENDBRANCH  47  49
ENDBRANCH  43  45
ENDBRANCH   1  43
BRANCH   1  69
ATOM     69  C   UNL     1      -3.367 -12.311  10.345  1.00  0.00    -0.001 C 
ATOM     70  C   UNL     1      -2.474 -12.245   9.341  1.00  0.00     0.001 C 
BRANCH  70  71
ATOM     71  C   UNL     1      -1.145 -12.859   9.304  1.00  0.00    -0.055 C 
ATOM     72  C   UNL     1      -0.369 -12.611   8.228  1.00  0.00    -0.018 C 
ATOM     73  C   UNL     1      -0.734 -13.716  10.473  1.00  0.00     0.044 C 
BRANCH  72  74
ATOM     74  C   UNL     1       1.038 -13.103   7.921  1.00  0.00     0.038 C 
ATOM     75  C   UNL     1       2.015 -12.087   8.526  1.00  0.00     0.015 C 
BRANCH  74  76
ATOM     76  C   UNL     1       1.175 -13.304   6.383  1.00  0.00     0.128 C 
BRANCH  76  77
ATOM     77  O   UNL     1       2.553 -13.188   5.993  1.00  0.00    -0.381 OA
ATOM     78  C   UNL     1       2.734 -12.694   4.673  1.00  0.00     0.195 C 
ENDBRANCH  76  77
BRANCH  76  79
ATOM     79  C   UNL     1       0.510 -14.601   5.857  1.00  0.00     0.068 C 
BRANCH  79  80
ATOM     80  C   UNL     1       1.306 -15.882   5.926  1.00  0.00    -0.045 A 
ATOM     81  C   UNL     1       1.645 -16.456   7.158  1.00  0.00     0.004 A 
ATOM     82  C   UNL     1       1.746 -16.506   4.748  1.00  0.00     0.004 A 
ATOM     83  C   UNL     1       2.394 -17.633   7.214  1.00  0.00     0.000 A 
ATOM     84  C   UNL     1       2.496 -17.683   4.805  1.00  0.00     0.000 A 
ATOM     85  C   UNL     1       2.818 -18.247   6.037  1.00  0.00     0.000 A 
ENDBRANCH  79  80
ENDBRANCH  76  79
ENDBRANCH  74  76
ENDBRANCH  72  74
ENDBRANCH  70  71
ENDBRANCH   1  69
TORSDOF 17
ENDMDL
MODEL 50
REMARK VINA RESULT:    -5.363     15.052     19.563
REMARK INTER + INTRA:         -23.556
REMARK INTER:                 -15.755
REMARK INTRA:                  -7.801
REMARK UNBOUND:                -7.533
REMARK SMILES C=C1C(=O)N[C@H](C)C(=O)N[C@@H](CC(C)C)C(=O)N[C@@H](C(=O)O)[C@H](C)C(=O)N[C@@H](CCCN=C(N)N)C(=O)N[C@@H](/C=C/C(C)=C/[C@H](C)[C@H](Cc2ccccc2)OC)[C@H](C)C(=O)N[C@@H](C(=O)O)CCC(=O)N1C
REMARK SMILES IDX 39 1 38 2 37 3 36 4 28 6 27 7 25 8 26 9 23 11 24 12 19 13
REMARK SMILES IDX 18 14 16 15 17 16 11 18 10 19 8 20 9 21 12 24 13 25 14 26
REMARK SMILES IDX 15 27 20 28 21 29 22 30 29 32 30 33 31 34 32 35 33 36 34 37
REMARK SMILES IDX 35 38 57 43 58 44 59 45 60 46 61 47 62 49 66 50 67 51 68 52
REMARK SMILES IDX 69 53 70 54 71 55 2 56 1 57 3 58 4 59 5 60 6 62 7 63 63 65
REMARK SMILES IDX 64 66 65 67 40 69 41 70 42 71 44 72 43 73 45 74 46 75 47 76
REMARK SMILES IDX 55 77 56 78 48 79 49 80 50 81 54 82 51 83 53 84 52 85
REMARK H PARENT 38 5 27 10 18 17 10 22 22 31 34 39 34 40 35 41 35 42 61 48
REMARK H PARENT 5 61 65 68
REMARK Flexibility Score:  369.900
ROOT
ATOM      1  C   UNL     1       3.051  -3.791  12.580  1.00  0.00     0.117 C 
ENDROOT
BRANCH   1   2
ATOM      2  N   UNL     1       2.051  -4.858  12.530  1.00  0.00    -0.347 N 
ATOM      3  O   UNL     1       2.260  -5.586  14.697  1.00  0.00    -0.273 OA
ATOM      4  C   UNL     1       1.669  -5.612  13.622  1.00  0.00     0.243 C 
ATOM      5  H   UNL     1       1.562  -5.037  11.665  1.00  0.00     0.164 HD
BRANCH   4   6
ATOM      6  C   UNL     1       0.529  -6.617  13.318  1.00  0.00     0.171 C 
BRANCH   6   7
ATOM      7  N   UNL     1      -0.777  -5.938  13.348  1.00  0.00    -0.344 N 
ATOM      8  C   UNL     1      -1.602  -6.051  14.447  1.00  0.00     0.226 C 
ATOM      9  O   UNL     1      -1.309  -6.726  15.426  1.00  0.00    -0.275 OA
ATOM     10  H   UNL     1      -1.083  -5.426  12.530  1.00  0.00     0.164 HD
BRANCH   8  11
ATOM     11  C   UNL     1      -2.887  -5.249  14.348  1.00  0.00     0.109 C 
ATOM     12  C   UNL     1      -2.854  -4.352  13.110  1.00  0.00     0.021 C 
BRANCH  11  13
ATOM     13  C   UNL     1      -4.101  -6.196  14.430  1.00  0.00     0.204 C 
BRANCH  13  14
ATOM     14  N   UNL     1      -3.722  -7.597  14.221  1.00  0.00    -0.340 N 
ATOM     15  C   UNL     1      -4.602  -8.549  13.755  1.00  0.00     0.243 C 
ATOM     16  O   UNL     1      -5.754  -8.277  13.423  1.00  0.00    -0.273 OA
ATOM     17  H   UNL     1      -2.835  -7.919  14.617  1.00  0.00     0.164 HD
BRANCH  15  18
ATOM     18  C   UNL     1      -4.042  -9.992  13.814  1.00  0.00     0.171 C 
BRANCH  18  19
ATOM     19  N   UNL     1      -5.163 -10.863  14.160  1.00  0.00    -0.343 N 
ATOM     20  C   UNL     1      -5.127 -11.694  15.262  1.00  0.00     0.242 CG0
ATOM     21  O   UNL     1      -4.103 -11.839  15.926  1.00  0.00    -0.273 OA
ATOM     22  H   UNL     1      -5.991 -10.865  13.574  1.00  0.00     0.164 HD
ATOM     23  G   UNL     1      -6.432 -12.479  15.511  1.00  0.00     0.000 G0
ENDBRANCH  18  19
BRANCH  18  24
ATOM     24  C   UNL     1      -3.418 -10.385  12.469  1.00  0.00     0.038 C 
BRANCH  24  25
ATOM     25  C   UNL     1      -2.770 -11.786  12.445  1.00  0.00    -0.015 C 
ATOM     26  C   UNL     1      -1.265 -11.730  12.183  1.00  0.00     0.007 C 
ATOM     27  C   UNL     1      -3.447 -12.648  11.376  1.00  0.00     0.007 C 
ENDBRANCH  24  25
ENDBRANCH  18  24
ENDBRANCH  15  18
ENDBRANCH  13  14
BRANCH  13  28
ATOM     28  C   UNL     1      -4.837  -6.120  15.771  1.00  0.00     0.327 C 
ATOM     29  O   UNL     1      -4.321  -6.073  16.877  1.00  0.00    -0.250 OA
BRANCH  28  30
ATOM     30  O   UNL     1      -6.175  -6.227  15.646  1.00  0.00    -0.480 OA
ATOM     31  H   UNL     1      -6.405  -5.580  14.947  1.00  0.00     0.296 HD
ENDBRANCH  28  30
ENDBRANCH  13  28
ENDBRANCH  11  13
ENDBRANCH   8  11
ENDBRANCH   6   7
BRANCH   6  32
ATOM     32  C   UNL     1       0.778  -7.262  11.950  1.00  0.00     0.037 C 
BRANCH  32  33
ATOM     33  C   UNL     1      -0.421  -8.096  11.476  1.00  0.00     0.026 C 
BRANCH  33  34
ATOM     34  C   UNL     1      -1.312  -7.332  10.495  1.00  0.00     0.146 C 
BRANCH  34  35
ATOM     35  N   UNL     1      -2.663  -7.273  11.036  1.00  0.00    -0.254 NA
ATOM     36  C   UNL     1      -3.607  -6.842  10.285  1.00  0.00     0.185 C 
ATOM     37  N   UNL     1      -4.856  -6.788  10.772  1.00  0.00    -0.370 N 
ATOM     38  N   UNL     1      -3.545  -6.411   9.013  1.00  0.00    -0.370 N 
ATOM     39  H   UNL     1      -4.987  -7.106  11.724  1.00  0.00     0.159 HD
ATOM     40  H   UNL     1      -5.669  -6.630  10.201  1.00  0.00     0.159 HD
ATOM     41  H   UNL     1      -4.334  -5.965   8.575  1.00  0.00     0.159 HD
ATOM     42  H   UNL     1      -2.663  -6.381   8.524  1.00  0.00     0.159 HD
ENDBRANCH  34  35
ENDBRANCH  33  34
ENDBRANCH  32  33
ENDBRANCH   6  32
ENDBRANCH   4   6
ENDBRANCH   1   2
BRANCH   1  43
ATOM     43  C   UNL     1       2.349  -2.439  12.262  1.00  0.00     0.102 C 
ATOM     44  C   UNL     1       2.023  -2.254  10.771  1.00  0.00     0.020 C 
BRANCH  43  45
ATOM     45  C   UNL     1       3.113  -1.264  12.881  1.00  0.00     0.225 C 
ATOM     46  O   UNL     1       3.403  -1.206  14.073  1.00  0.00    -0.275 OA
ATOM     47  N   UNL     1       3.379  -0.216  12.030  1.00  0.00    -0.342 N 
ATOM     48  H   UNL     1       3.272  -0.342  11.033  1.00  0.00     0.164 HD
BRANCH  47  49
ATOM     49  C   UNL     1       4.133   0.959  12.475  1.00  0.00     0.192 C 
BRANCH  49  50
ATOM     50  C   UNL     1       3.573   2.215  11.802  1.00  0.00     0.047 C 
BRANCH  50  51
ATOM     51  C   UNL     1       2.457   1.890  10.800  1.00  0.00     0.103 C 
BRANCH  51  52
ATOM     52  C   UNL     1       3.001   1.661   9.391  1.00  0.00     0.226 C 
ATOM     53  O   UNL     1       3.362   0.532   9.052  1.00  0.00    -0.275 OA
BRANCH  52  54
ATOM     54  N   UNL     1       2.984   2.770   8.525  1.00  0.00    -0.311 N 
ATOM     55  C   UNL     1       2.020   3.862   8.713  1.00  0.00     0.153 C 
BRANCH  54  56
ATOM     56  C   UNL     1       3.888   2.877   7.455  1.00  0.00     0.102 C 
ATOM     57  C   UNL     1       5.125   3.391   7.543  1.00  0.00     0.043 C 
BRANCH  56  58
ATOM     58  C   UNL     1       3.529   2.358   6.082  1.00  0.00     0.268 C 
ATOM     59  O   UNL     1       2.968   1.286   5.897  1.00  0.00    -0.268 OA
ATOM     60  N   UNL     1       3.837   3.240   5.074  1.00  0.00    -0.339 N 
ATOM     61  H   UNL     1       4.311   4.103   5.309  1.00  0.00     0.164 HD
BRANCH  60  62
ATOM     62  C   UNL     1       3.518   2.964   3.673  1.00  0.00     0.168 CG0
ATOM     63  C   UNL     1       4.681   3.339   2.763  1.00  0.00     0.041 C 
ATOM     64  G   UNL     1       2.242   3.733   3.273  1.00  0.00     0.000 G0
ENDBRANCH  60  62
ENDBRANCH  56  58
ENDBRANCH  54  56
ENDBRANCH  52  54
ENDBRANCH  51  52
ENDBRANCH  50  51
ENDBRANCH  49  50
BRANCH  49  65
ATOM     65  C   UNL     1       5.629   0.831  12.146  1.00  0.00     0.326 C 
ATOM     66  O   UNL     1       6.543   0.903  12.954  1.00  0.00    -0.250 OA
BRANCH  65  67
ATOM     67  O   UNL     1       5.906   0.681  10.832  1.00  0.00    -0.480 OA
ATOM     68  H   UNL     1       6.004   1.603  10.509  1.00  0.00     0.296 HD
ENDBRANCH  65  67
ENDBRANCH  49  65
ENDBRANCH  47  49
ENDBRANCH  43  45
ENDBRANCH   1  43
BRANCH   1  69
ATOM     69  C   UNL     1       4.200  -4.246  11.700  1.00  0.00    -0.001 C 
ATOM     70  C   UNL     1       4.183  -5.218  10.771  1.00  0.00     0.001 C 
BRANCH  70  71
ATOM     71  C   UNL     1       5.294  -5.634   9.912  1.00  0.00    -0.055 C 
ATOM     72  C   UNL     1       6.170  -4.687   9.517  1.00  0.00    -0.018 C 
ATOM     73  C   UNL     1       5.384  -7.090   9.536  1.00  0.00     0.044 C 
BRANCH  72  74
ATOM     74  C   UNL     1       7.405  -4.824   8.638  1.00  0.00     0.038 C 
ATOM     75  C   UNL     1       8.502  -3.950   9.259  1.00  0.00     0.015 C 
BRANCH  74  76
ATOM     76  C   UNL     1       7.023  -4.450   7.176  1.00  0.00     0.128 C 
BRANCH  76  77
ATOM     77  O   UNL     1       6.449  -5.589   6.512  1.00  0.00    -0.381 OA
ATOM     78  C   UNL     1       7.393  -6.356   5.777  1.00  0.00     0.195 C 
ENDBRANCH  76  77
BRANCH  76  79
ATOM     79  C   UNL     1       6.140  -3.182   7.060  1.00  0.00     0.068 C 
BRANCH  79  80
ATOM     80  C   UNL     1       6.783  -1.917   6.545  1.00  0.00    -0.045 A 
ATOM     81  C   UNL     1       6.092  -0.698   6.560  1.00  0.00     0.004 A 
ATOM     82  C   UNL     1       8.081  -1.950   6.013  1.00  0.00     0.004 A 
ATOM     83  C   UNL     1       6.689   0.465   6.068  1.00  0.00     0.000 A 
ATOM     84  C   UNL     1       8.676  -0.786   5.521  1.00  0.00     0.000 A 
ATOM     85  C   UNL     1       7.981   0.420   5.550  1.00  0.00     0.000 A 
ENDBRANCH  79  80
ENDBRANCH  76  79
ENDBRANCH  74  76
ENDBRANCH  72  74
ENDBRANCH  70  71
ENDBRANCH   1  69
TORSDOF 17
ENDMDL
