MODEL 1
REMARK VINA RESULT:    -6.767      0.000      0.000
REMARK INTER + INTRA:         -20.917
REMARK INTER:                 -16.854
REMARK INTRA:                  -4.062
REMARK UNBOUND:                -4.062
REMARK SMILES CCCCCCC[C@H](N)[C@H](O)C(=O)N[C@H](C)C(=O)N(C)[C@H](CC(C)C)C(=O)N[C@@H](Cc1ccc(O)cc1)C(=O)N[C@@H](Cc1ccc(O)cc1)C(=O)O
REMARK SMILES IDX 18 1 17 2 15 3 16 4 14 5 12 6 13 7 10 9 11 10 8 12 9 13 7 16
REMARK SMILES IDX 6 17 5 18 4 19 3 20 2 21 1 22 19 23 20 24 21 25 22 26 23 27
REMARK SMILES IDX 24 28 25 29 26 30 27 31 28 32 29 34 30 35 31 36 32 37 37 38
REMARK SMILES IDX 33 39 36 40 34 41 35 42 38 44 39 45 40 46 41 48 42 49 43 50
REMARK SMILES IDX 44 51 49 52 45 53 48 54 46 55 47 56 50 58 51 59 52 60
REMARK H PARENT 14 8 11 11 9 14 9 15 28 33 35 43 40 47 47 57 52 61
ROOT
ATOM      1  O   UNL     1      -6.098   1.638   8.970  1.00  0.00    -0.272 OA
ATOM      2  C   UNL     1      -5.466   2.482   8.316  1.00  0.00     0.245 C 
ENDROOT
BRANCH   2   3
ATOM      3  C   UNL     1      -4.764   2.033   7.011  1.00  0.00     0.168 C 
ATOM      4  C   UNL     1      -3.924   3.166   6.431  1.00  0.00     0.041 C 
BRANCH   3   5
ATOM      5  N   UNL     1      -4.005   0.796   7.119  1.00  0.00    -0.342 N 
ATOM      6  C   UNL     1      -4.511  -0.409   6.681  1.00  0.00     0.251 C 
ATOM      7  O   UNL     1      -5.637  -0.540   6.213  1.00  0.00    -0.272 OA
ATOM      8  H   UNL     1      -3.072   0.774   7.523  1.00  0.00     0.164 HD
BRANCH   6   9
ATOM      9  C   UNL     1      -3.485  -1.550   6.764  1.00  0.00     0.219 C 
BRANCH   9  10
ATOM     10  O   UNL     1      -4.034  -2.748   7.327  1.00  0.00    -0.382 OA
ATOM     11  H   UNL     1      -4.199  -3.317   6.544  1.00  0.00     0.211 HD
ENDBRANCH   9  10
BRANCH   9  12
ATOM     12  C   UNL     1      -2.794  -1.846   5.407  1.00  0.00     0.089 C 
BRANCH  12  13
ATOM     13  N   UNL     1      -3.116  -0.747   4.469  1.00  0.00    -0.325 NA
ATOM     14  H   UNL     1      -3.259   0.115   4.998  1.00  0.00     0.119 HD
ATOM     15  H   UNL     1      -4.017  -0.942   4.027  1.00  0.00     0.119 HD
ENDBRANCH  12  13
BRANCH  12  16
ATOM     16  C   UNL     1      -1.263  -2.069   5.460  1.00  0.00     0.022 C 
BRANCH  16  17
ATOM     17  C   UNL     1      -0.346  -1.147   4.645  1.00  0.00     0.002 C 
BRANCH  17  18
ATOM     18  C   UNL     1       0.448  -1.840   3.540  1.00  0.00     0.000 C 
BRANCH  18  19
ATOM     19  C   UNL     1      -0.161  -1.682   2.141  1.00  0.00    -0.000 C 
BRANCH  19  20
ATOM     20  C   UNL     1       0.523  -2.497   1.039  1.00  0.00    -0.000 C 
BRANCH  20  21
ATOM     21  C   UNL     1      -0.376  -2.731  -0.179  1.00  0.00    -0.003 C 
ATOM     22  C   UNL     1      -0.227  -4.147  -0.714  1.00  0.00     0.004 C 
ENDBRANCH  20  21
ENDBRANCH  19  20
ENDBRANCH  18  19
ENDBRANCH  17  18
ENDBRANCH  16  17
ENDBRANCH  12  16
ENDBRANCH   9  12
ENDBRANCH   6   9
ENDBRANCH   3   5
ENDBRANCH   2   3
BRANCH   2  23
ATOM     23  N   UNL     1      -5.500   3.820   8.692  1.00  0.00    -0.332 N 
ATOM     24  C   UNL     1      -6.234   4.859   7.984  1.00  0.00     0.147 C 
BRANCH  23  25
ATOM     25  C   UNL     1      -4.862   4.260   9.964  1.00  0.00     0.174 C 
BRANCH  25  26
ATOM     26  C   UNL     1      -5.438   5.593  10.497  1.00  0.00     0.038 C 
BRANCH  26  27
ATOM     27  C   UNL     1      -5.455   5.784  12.030  1.00  0.00    -0.015 C 
ATOM     28  C   UNL     1      -5.495   4.456  12.784  1.00  0.00     0.007 C 
ATOM     29  C   UNL     1      -4.317   6.661  12.545  1.00  0.00     0.007 C 
ENDBRANCH  26  27
ENDBRANCH  25  26
BRANCH  25  30
ATOM     30  C   UNL     1      -3.323   4.263   9.814  1.00  0.00     0.243 C 
ATOM     31  O   UNL     1      -2.634   3.309  10.172  1.00  0.00    -0.273 OA
ATOM     32  N   UNL     1      -2.783   5.397   9.264  1.00  0.00    -0.342 N 
ATOM     33  H   UNL     1      -3.428   6.082   8.863  1.00  0.00     0.164 HD
BRANCH  32  34
ATOM     34  C   UNL     1      -1.343   5.586   9.071  1.00  0.00     0.175 C 
BRANCH  34  35
ATOM     35  C   UNL     1      -0.926   5.272   7.626  1.00  0.00     0.070 C 
BRANCH  35  36
ATOM     36  C   UNL     1      -0.116   4.000   7.515  1.00  0.00    -0.045 A 
ATOM     37  C   UNL     1      -0.318   3.132   6.431  1.00  0.00     0.007 A 
ATOM     38  C   UNL     1       0.825   3.659   8.495  1.00  0.00     0.007 A 
ATOM     39  C   UNL     1       0.414   1.949   6.327  1.00  0.00     0.046 A 
ATOM     40  C   UNL     1       1.558   2.474   8.392  1.00  0.00     0.046 A 
ATOM     41  C   UNL     1       1.347   1.630   7.307  1.00  0.00     0.115 A 
BRANCH  41  42
ATOM     42  O   UNL     1       2.039   0.464   7.170  1.00  0.00    -0.508 OA
ATOM     43  H   UNL     1       2.359   0.194   8.047  1.00  0.00     0.293 HD
ENDBRANCH  41  42
ENDBRANCH  35  36
ENDBRANCH  34  35
BRANCH  34  44
ATOM     44  C   UNL     1      -0.994   7.038   9.470  1.00  0.00     0.243 C 
ATOM     45  O   UNL     1      -1.241   7.535  10.565  1.00  0.00    -0.273 OA
ATOM     46  N   UNL     1      -0.487   7.786   8.429  1.00  0.00    -0.341 N 
ATOM     47  H   UNL     1      -0.410   7.363   7.507  1.00  0.00     0.164 HD
BRANCH  46  48
ATOM     48  C   UNL     1      -0.147   9.206   8.548  1.00  0.00     0.196 C 
BRANCH  48  49
ATOM     49  C   UNL     1       0.705   9.679   7.357  1.00  0.00     0.072 C 
BRANCH  49  50
ATOM     50  C   UNL     1       2.162   9.301   7.498  1.00  0.00    -0.045 A 
ATOM     51  C   UNL     1       2.744   9.222   8.771  1.00  0.00     0.007 A 
ATOM     52  C   UNL     1       2.952   9.046   6.369  1.00  0.00     0.007 A 
ATOM     53  C   UNL     1       4.091   8.886   8.912  1.00  0.00     0.046 A 
ATOM     54  C   UNL     1       4.301   8.712   6.510  1.00  0.00     0.046 A 
ATOM     55  C   UNL     1       4.858   8.634   7.782  1.00  0.00     0.115 A 
BRANCH  55  56
ATOM     56  O   UNL     1       6.171   8.311   7.963  1.00  0.00    -0.508 OA
ATOM     57  H   UNL     1       6.348   7.478   7.497  1.00  0.00     0.293 HD
ENDBRANCH  55  56
ENDBRANCH  49  50
ENDBRANCH  48  49
BRANCH  48  58
ATOM     58  C   UNL     1      -1.443  10.026   8.612  1.00  0.00     0.326 C 
ATOM     59  O   UNL     1      -2.196  10.292   7.690  1.00  0.00    -0.250 OA
BRANCH  58  60
ATOM     60  O   UNL     1      -1.742  10.469   9.860  1.00  0.00    -0.480 OA
ATOM     61  H   UNL     1      -1.879   9.639  10.366  1.00  0.00     0.296 HD
ENDBRANCH  58  60
ENDBRANCH  48  58
ENDBRANCH  46  48
ENDBRANCH  34  44
ENDBRANCH  32  34
ENDBRANCH  25  30
ENDBRANCH  23  25
ENDBRANCH   2  23
TORSDOF 28
ENDMDL
MODEL 2
REMARK VINA RESULT:    -6.767     10.148     15.876
REMARK INTER + INTRA:         -20.916
REMARK INTER:                 -17.467
REMARK INTRA:                  -3.450
REMARK UNBOUND:                -4.062
REMARK SMILES CCCCCCC[C@H](N)[C@H](O)C(=O)N[C@H](C)C(=O)N(C)[C@H](CC(C)C)C(=O)N[C@@H](Cc1ccc(O)cc1)C(=O)N[C@@H](Cc1ccc(O)cc1)C(=O)O
REMARK SMILES IDX 18 1 17 2 15 3 16 4 14 5 12 6 13 7 10 9 11 10 8 12 9 13 7 16
REMARK SMILES IDX 6 17 5 18 4 19 3 20 2 21 1 22 19 23 20 24 21 25 22 26 23 27
REMARK SMILES IDX 24 28 25 29 26 30 27 31 28 32 29 34 30 35 31 36 32 37 37 38
REMARK SMILES IDX 33 39 36 40 34 41 35 42 38 44 39 45 40 46 41 48 42 49 43 50
REMARK SMILES IDX 44 51 49 52 45 53 48 54 46 55 47 56 50 58 51 59 52 60
REMARK H PARENT 14 8 11 11 9 14 9 15 28 33 35 43 40 47 47 57 52 61
ROOT
ATOM      1  O   UNL     1       2.363   0.667  -4.806  1.00  0.00    -0.272 OA
ATOM      2  C   UNL     1       2.196  -0.533  -4.538  1.00  0.00     0.245 C 
ENDROOT
BRANCH   2   3
ATOM      3  C   UNL     1       2.515  -1.023  -3.104  1.00  0.00     0.168 C 
ATOM      4  C   UNL     1       3.596  -0.159  -2.464  1.00  0.00     0.041 C 
BRANCH   3   5
ATOM      5  N   UNL     1       1.357  -1.173  -2.238  1.00  0.00    -0.342 N 
ATOM      6  C   UNL     1       0.731  -2.389  -2.062  1.00  0.00     0.251 C 
ATOM      7  O   UNL     1       1.070  -3.414  -2.643  1.00  0.00    -0.272 OA
ATOM      8  H   UNL     1       0.963  -0.385  -1.728  1.00  0.00     0.164 HD
BRANCH   6   9
ATOM      9  C   UNL     1      -0.376  -2.340  -0.997  1.00  0.00     0.219 C 
BRANCH   9  10
ATOM     10  O   UNL     1      -0.663  -3.627  -0.437  1.00  0.00    -0.382 OA
ATOM     11  H   UNL     1      -1.247  -3.423   0.326  1.00  0.00     0.211 HD
ENDBRANCH   9  10
BRANCH   9  12
ATOM     12  C   UNL     1      -0.098  -1.303   0.123  1.00  0.00     0.089 C 
BRANCH  12  13
ATOM     13  N   UNL     1      -0.786  -0.039  -0.229  1.00  0.00    -0.325 NA
ATOM     14  H   UNL     1      -1.570  -0.246  -0.851  1.00  0.00     0.119 HD
ATOM     15  H   UNL     1      -0.151   0.540  -0.784  1.00  0.00     0.119 HD
ENDBRANCH  12  13
BRANCH  12  16
ATOM     16  C   UNL     1      -0.483  -1.735   1.558  1.00  0.00     0.022 C 
BRANCH  16  17
ATOM     17  C   UNL     1       0.370  -1.249   2.738  1.00  0.00     0.002 C 
BRANCH  17  18
ATOM     18  C   UNL     1       0.615  -2.291   3.828  1.00  0.00     0.000 C 
BRANCH  18  19
ATOM     19  C   UNL     1      -0.232  -2.086   5.091  1.00  0.00    -0.000 C 
BRANCH  19  20
ATOM     20  C   UNL     1      -1.343  -1.040   4.965  1.00  0.00    -0.000 C 
BRANCH  20  21
ATOM     21  C   UNL     1      -2.740  -1.659   4.867  1.00  0.00    -0.003 C 
ATOM     22  C   UNL     1      -3.399  -1.759   6.234  1.00  0.00     0.004 C 
ENDBRANCH  20  21
ENDBRANCH  19  20
ENDBRANCH  18  19
ENDBRANCH  17  18
ENDBRANCH  16  17
ENDBRANCH  12  16
ENDBRANCH   9  12
ENDBRANCH   6   9
ENDBRANCH   3   5
ENDBRANCH   2   3
BRANCH   2  23
ATOM     23  N   UNL     1       1.619  -1.381  -5.477  1.00  0.00    -0.332 N 
ATOM     24  C   UNL     1       2.363  -2.296  -6.331  1.00  0.00     0.147 C 
BRANCH  23  25
ATOM     25  C   UNL     1       0.138  -1.495  -5.576  1.00  0.00     0.174 C 
BRANCH  25  26
ATOM     26  C   UNL     1      -0.338  -2.942  -5.843  1.00  0.00     0.038 C 
BRANCH  26  27
ATOM     27  C   UNL     1      -1.765  -3.307  -5.377  1.00  0.00    -0.015 C 
ATOM     28  C   UNL     1      -2.269  -2.388  -4.265  1.00  0.00     0.007 C 
ATOM     29  C   UNL     1      -2.777  -3.376  -6.518  1.00  0.00     0.007 C 
ENDBRANCH  26  27
ENDBRANCH  25  26
BRANCH  25  30
ATOM     30  C   UNL     1      -0.408  -0.464  -6.591  1.00  0.00     0.243 C 
ATOM     31  O   UNL     1      -0.770  -0.792  -7.720  1.00  0.00    -0.273 OA
ATOM     32  N   UNL     1      -0.455   0.834  -6.151  1.00  0.00    -0.342 N 
ATOM     33  H   UNL     1      -0.272   1.004  -5.158  1.00  0.00     0.164 HD
BRANCH  32  34
ATOM     34  C   UNL     1      -0.918   1.947  -6.984  1.00  0.00     0.175 C 
BRANCH  34  35
ATOM     35  C   UNL     1      -1.459   3.100  -6.125  1.00  0.00     0.070 C 
BRANCH  35  36
ATOM     36  C   UNL     1      -2.943   2.983  -5.857  1.00  0.00    -0.045 A 
ATOM     37  C   UNL     1      -3.432   3.118  -4.549  1.00  0.00     0.007 A 
ATOM     38  C   UNL     1      -3.842   2.717  -6.898  1.00  0.00     0.007 A 
ATOM     39  C   UNL     1      -4.798   2.998  -4.290  1.00  0.00     0.046 A 
ATOM     40  C   UNL     1      -5.210   2.595  -6.639  1.00  0.00     0.046 A 
ATOM     41  C   UNL     1      -5.675   2.738  -5.336  1.00  0.00     0.115 A 
BRANCH  41  42
ATOM     42  O   UNL     1      -7.001   2.625  -5.040  1.00  0.00    -0.508 OA
ATOM     43  H   UNL     1      -7.084   2.335  -4.116  1.00  0.00     0.293 HD
ENDBRANCH  41  42
ENDBRANCH  35  36
ENDBRANCH  34  35
BRANCH  34  44
ATOM     44  C   UNL     1       0.259   2.396  -7.879  1.00  0.00     0.243 C 
ATOM     45  O   UNL     1       1.442   2.181  -7.630  1.00  0.00    -0.273 OA
ATOM     46  N   UNL     1      -0.129   3.189  -8.938  1.00  0.00    -0.341 N 
ATOM     47  H   UNL     1      -1.110   3.437  -9.036  1.00  0.00     0.164 HD
BRANCH  46  48
ATOM     48  C   UNL     1       0.815   3.790  -9.883  1.00  0.00     0.196 C 
BRANCH  48  49
ATOM     49  C   UNL     1       0.192   3.934 -11.282  1.00  0.00     0.072 C 
BRANCH  49  50
ATOM     50  C   UNL     1       1.168   3.612 -12.390  1.00  0.00    -0.045 A 
ATOM     51  C   UNL     1       2.486   3.248 -12.077  1.00  0.00     0.007 A 
ATOM     52  C   UNL     1       0.784   3.692 -13.735  1.00  0.00     0.007 A 
ATOM     53  C   UNL     1       3.399   2.961 -13.092  1.00  0.00     0.046 A 
ATOM     54  C   UNL     1       1.699   3.406 -14.751  1.00  0.00     0.046 A 
ATOM     55  C   UNL     1       3.000   3.041 -14.420  1.00  0.00     0.115 A 
BRANCH  55  56
ATOM     56  O   UNL     1       3.923   2.755 -15.381  1.00  0.00    -0.508 OA
ATOM     57  H   UNL     1       3.460   2.383 -16.149  1.00  0.00     0.293 HD
ENDBRANCH  55  56
ENDBRANCH  49  50
ENDBRANCH  48  49
BRANCH  48  58
ATOM     58  C   UNL     1       1.235   5.171  -9.361  1.00  0.00     0.326 C 
ATOM     59  O   UNL     1       1.938   5.413  -8.394  1.00  0.00    -0.250 OA
BRANCH  58  60
ATOM     60  O   UNL     1       0.752   6.199 -10.102  1.00  0.00    -0.480 OA
ATOM     61  H   UNL     1       0.590   6.902  -9.436  1.00  0.00     0.296 HD
ENDBRANCH  58  60
ENDBRANCH  48  58
ENDBRANCH  46  48
ENDBRANCH  34  44
ENDBRANCH  32  34
ENDBRANCH  25  30
ENDBRANCH  23  25
ENDBRANCH   2  23
TORSDOF 28
ENDMDL
MODEL 3
REMARK VINA RESULT:    -6.757     16.352     22.102
REMARK INTER + INTRA:         -20.893
REMARK INTER:                 -13.761
REMARK INTRA:                  -7.132
REMARK UNBOUND:                -4.062
REMARK SMILES CCCCCCC[C@H](N)[C@H](O)C(=O)N[C@H](C)C(=O)N(C)[C@H](CC(C)C)C(=O)N[C@@H](Cc1ccc(O)cc1)C(=O)N[C@@H](Cc1ccc(O)cc1)C(=O)O
REMARK SMILES IDX 18 1 17 2 15 3 16 4 14 5 12 6 13 7 10 9 11 10 8 12 9 13 7 16
REMARK SMILES IDX 6 17 5 18 4 19 3 20 2 21 1 22 19 23 20 24 21 25 22 26 23 27
REMARK SMILES IDX 24 28 25 29 26 30 27 31 28 32 29 34 30 35 31 36 32 37 37 38
REMARK SMILES IDX 33 39 36 40 34 41 35 42 38 44 39 45 40 46 41 48 42 49 43 50
REMARK SMILES IDX 44 51 49 52 45 53 48 54 46 55 47 56 50 58 51 59 52 60
REMARK H PARENT 14 8 11 11 9 14 9 15 28 33 35 43 40 47 47 57 52 61
ROOT
ATOM      1  O   UNL     1       5.747  -4.727  -9.627  1.00  0.00    -0.272 OA
ATOM      2  C   UNL     1       4.671  -5.131  -9.161  1.00  0.00     0.245 C 
ENDROOT
BRANCH   2   3
ATOM      3  C   UNL     1       3.682  -4.095  -8.572  1.00  0.00     0.168 C 
ATOM      4  C   UNL     1       3.174  -3.153  -9.658  1.00  0.00     0.041 C 
BRANCH   3   5
ATOM      5  N   UNL     1       2.593  -4.663  -7.794  1.00  0.00    -0.342 N 
ATOM      6  C   UNL     1       2.770  -5.087  -6.494  1.00  0.00     0.251 C 
ATOM      7  O   UNL     1       3.851  -5.058  -5.914  1.00  0.00    -0.272 OA
ATOM      8  H   UNL     1       1.657  -4.770  -8.179  1.00  0.00     0.164 HD
BRANCH   6   9
ATOM      9  C   UNL     1       1.455  -5.517  -5.824  1.00  0.00     0.219 C 
BRANCH   9  10
ATOM     10  O   UNL     1       1.617  -6.653  -4.967  1.00  0.00    -0.382 OA
ATOM     11  H   UNL     1       2.498  -7.009  -5.219  1.00  0.00     0.211 HD
ENDBRANCH   9  10
BRANCH   9  12
ATOM     12  C   UNL     1       0.747  -4.358  -5.074  1.00  0.00     0.089 C 
BRANCH  12  13
ATOM     13  N   UNL     1       1.768  -3.358  -4.687  1.00  0.00    -0.325 NA
ATOM     14  H   UNL     1       2.276  -3.057  -5.521  1.00  0.00     0.119 HD
ATOM     15  H   UNL     1       2.469  -3.812  -4.097  1.00  0.00     0.119 HD
ENDBRANCH  12  13
BRANCH  12  16
ATOM     16  C   UNL     1      -0.412  -3.668  -5.832  1.00  0.00     0.022 C 
BRANCH  16  17
ATOM     17  C   UNL     1      -0.094  -2.516  -6.795  1.00  0.00     0.002 C 
BRANCH  17  18
ATOM     18  C   UNL     1      -0.416  -2.794  -8.262  1.00  0.00     0.000 C 
BRANCH  18  19
ATOM     19  C   UNL     1      -1.629  -2.019  -8.793  1.00  0.00    -0.000 C 
BRANCH  19  20
ATOM     20  C   UNL     1      -2.867  -2.870  -9.087  1.00  0.00    -0.000 C 
BRANCH  20  21
ATOM     21  C   UNL     1      -3.631  -2.408 -10.330  1.00  0.00    -0.003 C 
ATOM     22  C   UNL     1      -5.130  -2.369 -10.078  1.00  0.00     0.004 C 
ENDBRANCH  20  21
ENDBRANCH  19  20
ENDBRANCH  18  19
ENDBRANCH  17  18
ENDBRANCH  16  17
ENDBRANCH  12  16
ENDBRANCH   9  12
ENDBRANCH   6   9
ENDBRANCH   3   5
ENDBRANCH   2   3
BRANCH   2  23
ATOM     23  N   UNL     1       4.320  -6.472  -9.283  1.00  0.00    -0.332 N 
ATOM     24  C   UNL     1       4.763  -7.526  -8.383  1.00  0.00     0.147 C 
BRANCH  23  25
ATOM     25  C   UNL     1       3.331  -6.898 -10.310  1.00  0.00     0.174 C 
BRANCH  25  26
ATOM     26  C   UNL     1       2.831  -8.347 -10.099  1.00  0.00     0.038 C 
BRANCH  26  27
ATOM     27  C   UNL     1       1.410  -8.520  -9.517  1.00  0.00    -0.015 C 
ATOM     28  C   UNL     1       0.698  -7.184  -9.306  1.00  0.00     0.007 C 
ATOM     29  C   UNL     1       0.535  -9.474 -10.325  1.00  0.00     0.007 C 
ENDBRANCH  26  27
ENDBRANCH  25  26
BRANCH  25  30
ATOM     30  C   UNL     1       3.887  -6.633 -11.727  1.00  0.00     0.243 C 
ATOM     31  O   UNL     1       4.976  -7.073 -12.091  1.00  0.00    -0.273 OA
ATOM     32  N   UNL     1       3.090  -5.873 -12.544  1.00  0.00    -0.342 N 
ATOM     33  H   UNL     1       2.142  -5.665 -12.221  1.00  0.00     0.164 HD
BRANCH  32  34
ATOM     34  C   UNL     1       3.468  -5.498 -13.910  1.00  0.00     0.175 C 
BRANCH  34  35
ATOM     35  C   UNL     1       3.085  -6.595 -14.916  1.00  0.00     0.070 C 
BRANCH  35  36
ATOM     36  C   UNL     1       1.676  -7.104 -14.718  1.00  0.00    -0.045 A 
ATOM     37  C   UNL     1       1.459  -8.357 -14.123  1.00  0.00     0.007 A 
ATOM     38  C   UNL     1       0.573  -6.352 -15.143  1.00  0.00     0.007 A 
ATOM     39  C   UNL     1       0.163  -8.841 -13.948  1.00  0.00     0.046 A 
ATOM     40  C   UNL     1      -0.726  -6.838 -14.970  1.00  0.00     0.046 A 
ATOM     41  C   UNL     1      -0.919  -8.079 -14.372  1.00  0.00     0.115 A 
BRANCH  41  42
ATOM     42  O   UNL     1      -2.169  -8.590 -14.186  1.00  0.00    -0.508 OA
ATOM     43  H   UNL     1      -2.785  -7.850 -14.057  1.00  0.00     0.293 HD
ENDBRANCH  41  42
ENDBRANCH  35  36
ENDBRANCH  34  35
BRANCH  34  44
ATOM     44  C   UNL     1       2.790  -4.149 -14.241  1.00  0.00     0.243 C 
ATOM     45  O   UNL     1       2.809  -3.616 -15.347  1.00  0.00    -0.273 OA
ATOM     46  N   UNL     1       2.260  -3.516 -13.137  1.00  0.00    -0.341 N 
ATOM     47  H   UNL     1       2.372  -3.943 -12.221  1.00  0.00     0.164 HD
BRANCH  46  48
ATOM     48  C   UNL     1       1.628  -2.196 -13.191  1.00  0.00     0.196 C 
BRANCH  48  49
ATOM     49  C   UNL     1       0.496  -2.073 -12.157  1.00  0.00     0.072 C 
BRANCH  49  50
ATOM     50  C   UNL     1      -0.563  -3.139 -12.325  1.00  0.00    -0.045 A 
ATOM     51  C   UNL     1      -0.520  -4.297 -11.535  1.00  0.00     0.007 A 
ATOM     52  C   UNL     1      -1.582  -2.999 -13.276  1.00  0.00     0.007 A 
ATOM     53  C   UNL     1      -1.484  -5.293 -11.690  1.00  0.00     0.046 A 
ATOM     54  C   UNL     1      -2.547  -3.997 -13.432  1.00  0.00     0.046 A 
ATOM     55  C   UNL     1      -2.490  -5.136 -12.636  1.00  0.00     0.115 A 
BRANCH  55  56
ATOM     56  O   UNL     1      -3.412  -6.133 -12.758  1.00  0.00    -0.508 OA
ATOM     57  H   UNL     1      -4.013  -6.089 -11.997  1.00  0.00     0.293 HD
ENDBRANCH  55  56
ENDBRANCH  49  50
ENDBRANCH  48  49
BRANCH  48  58
ATOM     58  C   UNL     1       2.691  -1.122 -12.921  1.00  0.00     0.326 C 
ATOM     59  O   UNL     1       2.548  -0.080 -12.301  1.00  0.00    -0.250 OA
BRANCH  58  60
ATOM     60  O   UNL     1       3.908  -1.423 -13.439  1.00  0.00    -0.480 OA
ATOM     61  H   UNL     1       3.689  -1.929 -14.251  1.00  0.00     0.296 HD
ENDBRANCH  58  60
ENDBRANCH  48  58
ENDBRANCH  46  48
ENDBRANCH  34  44
ENDBRANCH  32  34
ENDBRANCH  25  30
ENDBRANCH  23  25
ENDBRANCH   2  23
TORSDOF 28
ENDMDL
MODEL 4
REMARK VINA RESULT:    -6.735      5.121      7.788
REMARK INTER + INTRA:         -20.838
REMARK INTER:                 -16.501
REMARK INTRA:                  -4.338
REMARK UNBOUND:                -4.062
REMARK SMILES CCCCCCC[C@H](N)[C@H](O)C(=O)N[C@H](C)C(=O)N(C)[C@H](CC(C)C)C(=O)N[C@@H](Cc1ccc(O)cc1)C(=O)N[C@@H](Cc1ccc(O)cc1)C(=O)O
REMARK SMILES IDX 18 1 17 2 15 3 16 4 14 5 12 6 13 7 10 9 11 10 8 12 9 13 7 16
REMARK SMILES IDX 6 17 5 18 4 19 3 20 2 21 1 22 19 23 20 24 21 25 22 26 23 27
REMARK SMILES IDX 24 28 25 29 26 30 27 31 28 32 29 34 30 35 31 36 32 37 37 38
REMARK SMILES IDX 33 39 36 40 34 41 35 42 38 44 39 45 40 46 41 48 42 49 43 50
REMARK SMILES IDX 44 51 49 52 45 53 48 54 46 55 47 56 50 58 51 59 52 60
REMARK H PARENT 14 8 11 11 9 14 9 15 28 33 35 43 40 47 47 57 52 61
ROOT
ATOM      1  O   UNL     1      -5.023   1.095   1.507  1.00  0.00    -0.272 OA
ATOM      2  C   UNL     1      -6.019   0.448   1.865  1.00  0.00     0.245 C 
ENDROOT
BRANCH   2   3
ATOM      3  C   UNL     1      -6.502  -0.723   0.974  1.00  0.00     0.168 C 
ATOM      4  C   UNL     1      -6.805  -0.239  -0.440  1.00  0.00     0.041 C 
BRANCH   3   5
ATOM      5  N   UNL     1      -5.632  -1.889   0.973  1.00  0.00    -0.342 N 
ATOM      6  C   UNL     1      -6.136  -3.173   0.951  1.00  0.00     0.251 C 
ATOM      7  O   UNL     1      -7.335  -3.429   0.972  1.00  0.00    -0.272 OA
ATOM      8  H   UNL     1      -4.619  -1.802   0.989  1.00  0.00     0.164 HD
BRANCH   6   9
ATOM      9  C   UNL     1      -5.038  -4.239   0.809  1.00  0.00     0.219 C 
BRANCH   9  10
ATOM     10  O   UNL     1      -5.457  -5.528   1.273  1.00  0.00    -0.382 OA
ATOM     11  H   UNL     1      -4.633  -5.923   1.635  1.00  0.00     0.211 HD
ENDBRANCH   9  10
BRANCH   9  12
ATOM     12  C   UNL     1      -4.460  -4.332  -0.627  1.00  0.00     0.089 C 
BRANCH  12  13
ATOM     13  N   UNL     1      -5.311  -3.519  -1.526  1.00  0.00    -0.325 NA
ATOM     14  H   UNL     1      -6.293  -3.675  -1.291  1.00  0.00     0.119 HD
ATOM     15  H   UNL     1      -5.207  -3.865  -2.483  1.00  0.00     0.119 HD
ENDBRANCH  12  13
BRANCH  12  16
ATOM     16  C   UNL     1      -2.976  -3.926  -0.788  1.00  0.00     0.022 C 
BRANCH  16  17
ATOM     17  C   UNL     1      -2.532  -2.526  -0.343  1.00  0.00     0.002 C 
BRANCH  17  18
ATOM     18  C   UNL     1      -1.112  -2.446   0.213  1.00  0.00     0.000 C 
BRANCH  18  19
ATOM     19  C   UNL     1      -0.027  -2.294  -0.862  1.00  0.00    -0.000 C 
BRANCH  19  20
ATOM     20  C   UNL     1       0.784  -0.998  -0.789  1.00  0.00    -0.000 C 
BRANCH  20  21
ATOM     21  C   UNL     1       1.767  -0.839  -1.952  1.00  0.00    -0.003 C 
ATOM     22  C   UNL     1       2.925  -1.818  -1.836  1.00  0.00     0.004 C 
ENDBRANCH  20  21
ENDBRANCH  19  20
ENDBRANCH  18  19
ENDBRANCH  17  18
ENDBRANCH  16  17
ENDBRANCH  12  16
ENDBRANCH   9  12
ENDBRANCH   6   9
ENDBRANCH   3   5
ENDBRANCH   2   3
BRANCH   2  23
ATOM     23  N   UNL     1      -6.604   0.700   3.102  1.00  0.00    -0.332 N 
ATOM     24  C   UNL     1      -7.308   1.926   3.448  1.00  0.00     0.147 C 
BRANCH  23  25
ATOM     25  C   UNL     1      -6.652  -0.365   4.141  1.00  0.00     0.174 C 
BRANCH  25  26
ATOM     26  C   UNL     1      -7.588  -0.014   5.321  1.00  0.00     0.038 C 
BRANCH  26  27
ATOM     27  C   UNL     1      -8.905  -0.814   5.432  1.00  0.00    -0.015 C 
ATOM     28  C   UNL     1      -9.554  -0.683   6.809  1.00  0.00     0.007 C 
ATOM     29  C   UNL     1      -9.910  -0.487   4.331  1.00  0.00     0.007 C 
ENDBRANCH  26  27
ENDBRANCH  25  26
BRANCH  25  30
ATOM     30  C   UNL     1      -5.219  -0.748   4.577  1.00  0.00     0.243 C 
ATOM     31  O   UNL     1      -4.675  -1.780   4.188  1.00  0.00    -0.273 OA
ATOM     32  N   UNL     1      -4.602   0.133   5.427  1.00  0.00    -0.342 N 
ATOM     33  H   UNL     1      -5.061   1.033   5.591  1.00  0.00     0.164 HD
BRANCH  32  34
ATOM     34  C   UNL     1      -3.256  -0.080   5.965  1.00  0.00     0.175 C 
BRANCH  34  35
ATOM     35  C   UNL     1      -2.179   0.241   4.917  1.00  0.00     0.070 C 
BRANCH  35  36
ATOM     36  C   UNL     1      -1.155  -0.863   4.773  1.00  0.00    -0.045 A 
ATOM     37  C   UNL     1      -1.061  -1.865   5.751  1.00  0.00     0.007 A 
ATOM     38  C   UNL     1      -0.277  -0.891   3.682  1.00  0.00     0.007 A 
ATOM     39  C   UNL     1      -0.111  -2.880   5.635  1.00  0.00     0.046 A 
ATOM     40  C   UNL     1       0.676  -1.907   3.565  1.00  0.00     0.046 A 
ATOM     41  C   UNL     1       0.748  -2.893   4.543  1.00  0.00     0.115 A 
BRANCH  41  42
ATOM     42  O   UNL     1       1.664  -3.901   4.468  1.00  0.00    -0.508 OA
ATOM     43  H   UNL     1       1.392  -4.606   5.078  1.00  0.00     0.293 HD
ENDBRANCH  41  42
ENDBRANCH  35  36
ENDBRANCH  34  35
BRANCH  34  44
ATOM     44  C   UNL     1      -3.104   0.789   7.234  1.00  0.00     0.243 C 
ATOM     45  O   UNL     1      -2.048   1.293   7.607  1.00  0.00    -0.273 OA
ATOM     46  N   UNL     1      -4.249   0.846   8.000  1.00  0.00    -0.341 N 
ATOM     47  H   UNL     1      -5.065   0.315   7.708  1.00  0.00     0.164 HD
BRANCH  46  48
ATOM     48  C   UNL     1      -4.327   1.553   9.280  1.00  0.00     0.196 C 
BRANCH  48  49
ATOM     49  C   UNL     1      -5.746   2.083   9.542  1.00  0.00     0.072 C 
BRANCH  49  50
ATOM     50  C   UNL     1      -5.885   3.555   9.225  1.00  0.00    -0.045 A 
ATOM     51  C   UNL     1      -5.739   4.506  10.245  1.00  0.00     0.007 A 
ATOM     52  C   UNL     1      -6.180   3.988   7.926  1.00  0.00     0.007 A 
ATOM     53  C   UNL     1      -5.878   5.866   9.967  1.00  0.00     0.046 A 
ATOM     54  C   UNL     1      -6.320   5.350   7.648  1.00  0.00     0.046 A 
ATOM     55  C   UNL     1      -6.167   6.278   8.672  1.00  0.00     0.115 A 
BRANCH  55  56
ATOM     56  O   UNL     1      -6.296   7.616   8.442  1.00  0.00    -0.508 OA
ATOM     57  H   UNL     1      -5.418   8.023   8.504  1.00  0.00     0.293 HD
ENDBRANCH  55  56
ENDBRANCH  49  50
ENDBRANCH  48  49
BRANCH  48  58
ATOM     58  C   UNL     1      -3.921   0.591  10.406  1.00  0.00     0.326 C 
ATOM     59  O   UNL     1      -4.632   0.152  11.295  1.00  0.00    -0.250 OA
BRANCH  58  60
ATOM     60  O   UNL     1      -2.620   0.210  10.350  1.00  0.00    -0.480 OA
ATOM     61  H   UNL     1      -2.196   0.749  11.052  1.00  0.00     0.296 HD
ENDBRANCH  58  60
ENDBRANCH  48  58
ENDBRANCH  46  48
ENDBRANCH  34  44
ENDBRANCH  32  34
ENDBRANCH  25  30
ENDBRANCH  23  25
ENDBRANCH   2  23
TORSDOF 28
ENDMDL
MODEL 5
REMARK VINA RESULT:    -6.731      3.029      7.011
REMARK INTER + INTRA:         -20.827
REMARK INTER:                 -15.498
REMARK INTRA:                  -5.330
REMARK UNBOUND:                -4.062
REMARK SMILES CCCCCCC[C@H](N)[C@H](O)C(=O)N[C@H](C)C(=O)N(C)[C@H](CC(C)C)C(=O)N[C@@H](Cc1ccc(O)cc1)C(=O)N[C@@H](Cc1ccc(O)cc1)C(=O)O
REMARK SMILES IDX 18 1 17 2 15 3 16 4 14 5 12 6 13 7 10 9 11 10 8 12 9 13 7 16
REMARK SMILES IDX 6 17 5 18 4 19 3 20 2 21 1 22 19 23 20 24 21 25 22 26 23 27
REMARK SMILES IDX 24 28 25 29 26 30 27 31 28 32 29 34 30 35 31 36 32 37 37 38
REMARK SMILES IDX 33 39 36 40 34 41 35 42 38 44 39 45 40 46 41 48 42 49 43 50
REMARK SMILES IDX 44 51 49 52 45 53 48 54 46 55 47 56 50 58 51 59 52 60
REMARK H PARENT 14 8 11 11 9 14 9 15 28 33 35 43 40 47 47 57 52 61
ROOT
ATOM      1  O   UNL     1      -1.439   5.455  12.703  1.00  0.00    -0.272 OA
ATOM      2  C   UNL     1      -1.991   5.352  11.598  1.00  0.00     0.245 C 
ENDROOT
BRANCH   2   3
ATOM      3  C   UNL     1      -2.208   3.937  11.007  1.00  0.00     0.168 C 
ATOM      4  C   UNL     1      -3.246   3.166  11.814  1.00  0.00     0.041 C 
BRANCH   3   5
ATOM      5  N   UNL     1      -2.498   3.908   9.582  1.00  0.00    -0.342 N 
ATOM      6  C   UNL     1      -1.971   2.942   8.751  1.00  0.00     0.251 C 
ATOM      7  O   UNL     1      -1.195   2.072   9.132  1.00  0.00    -0.272 OA
ATOM      8  H   UNL     1      -3.102   4.599   9.143  1.00  0.00     0.164 HD
BRANCH   6   9
ATOM      9  C   UNL     1      -2.525   3.022   7.319  1.00  0.00     0.219 C 
BRANCH   9  10
ATOM     10  O   UNL     1      -3.598   3.964   7.194  1.00  0.00    -0.382 OA
ATOM     11  H   UNL     1      -3.860   3.891   6.250  1.00  0.00     0.211 HD
ENDBRANCH   9  10
BRANCH   9  12
ATOM     12  C   UNL     1      -1.429   3.291   6.255  1.00  0.00     0.089 C 
BRANCH  12  13
ATOM     13  N   UNL     1      -0.303   3.994   6.912  1.00  0.00    -0.325 NA
ATOM     14  H   UNL     1       0.314   4.382   6.196  1.00  0.00     0.119 HD
ATOM     15  H   UNL     1       0.267   3.309   7.414  1.00  0.00     0.119 HD
ENDBRANCH  12  13
BRANCH  12  16
ATOM     16  C   UNL     1      -0.908   2.051   5.490  1.00  0.00     0.022 C 
BRANCH  16  17
ATOM     17  C   UNL     1       0.325   1.309   6.023  1.00  0.00     0.002 C 
BRANCH  17  18
ATOM     18  C   UNL     1       1.399   1.010   4.979  1.00  0.00     0.000 C 
BRANCH  18  19
ATOM     19  C   UNL     1       1.763  -0.477   4.865  1.00  0.00    -0.000 C 
BRANCH  19  20
ATOM     20  C   UNL     1       0.660  -1.374   4.297  1.00  0.00    -0.000 C 
BRANCH  20  21
ATOM     21  C   UNL     1       0.003  -2.262   5.357  1.00  0.00    -0.003 C 
ATOM     22  C   UNL     1      -1.497  -2.023   5.429  1.00  0.00     0.004 C 
ENDBRANCH  20  21
ENDBRANCH  19  20
ENDBRANCH  18  19
ENDBRANCH  17  18
ENDBRANCH  16  17
ENDBRANCH  12  16
ENDBRANCH   9  12
ENDBRANCH   6   9
ENDBRANCH   3   5
ENDBRANCH   2   3
BRANCH   2  23
ATOM     23  N   UNL     1      -2.509   6.481  10.971  1.00  0.00    -0.332 N 
ATOM     24  C   UNL     1      -3.921   6.833  10.941  1.00  0.00     0.147 C 
BRANCH  23  25
ATOM     25  C   UNL     1      -1.596   7.497  10.381  1.00  0.00     0.174 C 
BRANCH  25  26
ATOM     26  C   UNL     1      -2.352   8.678   9.727  1.00  0.00     0.038 C 
BRANCH  26  27
ATOM     27  C   UNL     1      -1.570   9.999   9.553  1.00  0.00    -0.015 C 
ATOM     28  C   UNL     1      -1.312  10.336   8.085  1.00  0.00     0.007 C 
ATOM     29  C   UNL     1      -2.212  11.184  10.271  1.00  0.00     0.007 C 
ENDBRANCH  26  27
ENDBRANCH  25  26
BRANCH  25  30
ATOM     30  C   UNL     1      -0.577   6.815   9.440  1.00  0.00     0.243 C 
ATOM     31  O   UNL     1      -0.918   6.305   8.373  1.00  0.00    -0.273 OA
ATOM     32  N   UNL     1       0.723   6.812   9.875  1.00  0.00    -0.342 N 
ATOM     33  H   UNL     1       0.948   7.377  10.698  1.00  0.00     0.164 HD
BRANCH  32  34
ATOM     34  C   UNL     1       1.818   6.188   9.127  1.00  0.00     0.175 C 
BRANCH  34  35
ATOM     35  C   UNL     1       3.045   7.110   9.057  1.00  0.00     0.070 C 
BRANCH  35  36
ATOM     36  C   UNL     1       2.727   8.462   8.458  1.00  0.00    -0.045 A 
ATOM     37  C   UNL     1       2.692   9.601   9.276  1.00  0.00     0.007 A 
ATOM     38  C   UNL     1       2.442   8.594   7.093  1.00  0.00     0.007 A 
ATOM     39  C   UNL     1       2.386  10.850   8.735  1.00  0.00     0.046 A 
ATOM     40  C   UNL     1       2.134   9.844   6.551  1.00  0.00     0.046 A 
ATOM     41  C   UNL     1       2.111  10.962   7.378  1.00  0.00     0.115 A 
BRANCH  41  42
ATOM     42  O   UNL     1       1.814  12.200   6.890  1.00  0.00    -0.508 OA
ATOM     43  H   UNL     1       2.241  12.296   6.022  1.00  0.00     0.293 HD
ENDBRANCH  41  42
ENDBRANCH  35  36
ENDBRANCH  34  35
BRANCH  34  44
ATOM     44  C   UNL     1       2.148   4.837   9.801  1.00  0.00     0.243 C 
ATOM     45  O   UNL     1       1.352   4.180  10.466  1.00  0.00    -0.273 OA
ATOM     46  N   UNL     1       3.478   4.484   9.700  1.00  0.00    -0.341 N 
ATOM     47  H   UNL     1       4.124   5.120   9.239  1.00  0.00     0.164 HD
BRANCH  46  48
ATOM     48  C   UNL     1       4.041   3.282  10.317  1.00  0.00     0.196 C 
BRANCH  48  49
ATOM     49  C   UNL     1       3.587   2.010   9.583  1.00  0.00     0.072 C 
BRANCH  49  50
ATOM     50  C   UNL     1       3.667   0.775  10.452  1.00  0.00    -0.045 A 
ATOM     51  C   UNL     1       3.243   0.832  11.788  1.00  0.00     0.007 A 
ATOM     52  C   UNL     1       4.181  -0.427   9.951  1.00  0.00     0.007 A 
ATOM     53  C   UNL     1       3.325  -0.296  12.603  1.00  0.00     0.046 A 
ATOM     54  C   UNL     1       4.264  -1.557  10.768  1.00  0.00     0.046 A 
ATOM     55  C   UNL     1       3.834  -1.482  12.088  1.00  0.00     0.115 A 
BRANCH  55  56
ATOM     56  O   UNL     1       3.899  -2.561  12.918  1.00  0.00    -0.508 OA
ATOM     57  H   UNL     1       3.028  -2.684  13.330  1.00  0.00     0.293 HD
ENDBRANCH  55  56
ENDBRANCH  49  50
ENDBRANCH  48  49
BRANCH  48  58
ATOM     58  C   UNL     1       5.573   3.376  10.286  1.00  0.00     0.326 C 
ATOM     59  O   UNL     1       6.351   3.072  11.176  1.00  0.00    -0.250 OA
BRANCH  58  60
ATOM     60  O   UNL     1       6.063   3.841   9.109  1.00  0.00    -0.480 OA
ATOM     61  H   UNL     1       6.179   4.802   9.277  1.00  0.00     0.296 HD
ENDBRANCH  58  60
ENDBRANCH  48  58
ENDBRANCH  46  48
ENDBRANCH  34  44
ENDBRANCH  32  34
ENDBRANCH  25  30
ENDBRANCH  23  25
ENDBRANCH   2  23
TORSDOF 28
ENDMDL
MODEL 6
REMARK VINA RESULT:    -6.644     11.239     17.205
REMARK INTER + INTRA:         -20.611
REMARK INTER:                 -16.008
REMARK INTRA:                  -4.603
REMARK UNBOUND:                -4.062
REMARK SMILES CCCCCCC[C@H](N)[C@H](O)C(=O)N[C@H](C)C(=O)N(C)[C@H](CC(C)C)C(=O)N[C@@H](Cc1ccc(O)cc1)C(=O)N[C@@H](Cc1ccc(O)cc1)C(=O)O
REMARK SMILES IDX 18 1 17 2 15 3 16 4 14 5 12 6 13 7 10 9 11 10 8 12 9 13 7 16
REMARK SMILES IDX 6 17 5 18 4 19 3 20 2 21 1 22 19 23 20 24 21 25 22 26 23 27
REMARK SMILES IDX 24 28 25 29 26 30 27 31 28 32 29 34 30 35 31 36 32 37 37 38
REMARK SMILES IDX 33 39 36 40 34 41 35 42 38 44 39 45 40 46 41 48 42 49 43 50
REMARK SMILES IDX 44 51 49 52 45 53 48 54 46 55 47 56 50 58 51 59 52 60
REMARK H PARENT 14 8 11 11 9 14 9 15 28 33 35 43 40 47 47 57 52 61
ROOT
ATOM      1  O   UNL     1      -0.764  -1.668  -8.711  1.00  0.00    -0.272 OA
ATOM      2  C   UNL     1      -0.760  -2.268  -7.626  1.00  0.00     0.245 C 
ENDROOT
BRANCH   2   3
ATOM      3  C   UNL     1      -0.708  -1.437  -6.320  1.00  0.00     0.168 C 
ATOM      4  C   UNL     1      -2.092  -0.906  -5.962  1.00  0.00     0.041 C 
BRANCH   3   5
ATOM      5  N   UNL     1      -0.077  -2.108  -5.194  1.00  0.00    -0.342 N 
ATOM      6  C   UNL     1       0.947  -1.522  -4.479  1.00  0.00     0.251 C 
ATOM      7  O   UNL     1       1.426  -0.428  -4.757  1.00  0.00    -0.272 OA
ATOM      8  H   UNL     1      -0.366  -3.035  -4.891  1.00  0.00     0.164 HD
BRANCH   6   9
ATOM      9  C   UNL     1       1.362  -2.348  -3.251  1.00  0.00     0.219 C 
BRANCH   9  10
ATOM     10  O   UNL     1       2.709  -2.827  -3.336  1.00  0.00    -0.382 OA
ATOM     11  H   UNL     1       2.848  -3.281  -2.476  1.00  0.00     0.211 HD
ENDBRANCH   9  10
BRANCH   9  12
ATOM     12  C   UNL     1       1.126  -1.604  -1.910  1.00  0.00     0.089 C 
BRANCH  12  13
ATOM     13  N   UNL     1       2.179  -0.575  -1.755  1.00  0.00    -0.325 NA
ATOM     14  H   UNL     1       2.653  -0.442  -2.650  1.00  0.00     0.119 HD
ATOM     15  H   UNL     1       2.898  -0.930  -1.121  1.00  0.00     0.119 HD
ENDBRANCH  12  13
BRANCH  12  16
ATOM     16  C   UNL     1      -0.272  -0.967  -1.725  1.00  0.00     0.022 C 
BRANCH  16  17
ATOM     17  C   UNL     1      -0.776  -0.671  -0.306  1.00  0.00     0.002 C 
BRANCH  17  18
ATOM     18  C   UNL     1      -1.829  -1.643   0.221  1.00  0.00     0.000 C 
BRANCH  18  19
ATOM     19  C   UNL     1      -3.066  -0.960   0.820  1.00  0.00    -0.000 C 
BRANCH  19  20
ATOM     20  C   UNL     1      -4.202  -1.907   1.218  1.00  0.00    -0.000 C 
BRANCH  20  21
ATOM     21  C   UNL     1      -4.235  -3.189   0.383  1.00  0.00    -0.003 C 
ATOM     22  C   UNL     1      -5.126  -4.244   1.021  1.00  0.00     0.004 C 
ENDBRANCH  20  21
ENDBRANCH  19  20
ENDBRANCH  18  19
ENDBRANCH  17  18
ENDBRANCH  16  17
ENDBRANCH  12  16
ENDBRANCH   9  12
ENDBRANCH   6   9
ENDBRANCH   3   5
ENDBRANCH   2   3
BRANCH   2  23
ATOM     23  N   UNL     1      -0.922  -3.649  -7.595  1.00  0.00    -0.332 N 
ATOM     24  C   UNL     1      -2.164  -4.327  -7.256  1.00  0.00     0.147 C 
BRANCH  23  25
ATOM     25  C   UNL     1       0.178  -4.545  -8.047  1.00  0.00     0.174 C 
BRANCH  25  26
ATOM     26  C   UNL     1      -0.001  -6.006  -7.572  1.00  0.00     0.038 C 
BRANCH  26  27
ATOM     27  C   UNL     1       1.180  -6.972  -7.816  1.00  0.00    -0.015 C 
ATOM     28  C   UNL     1       1.644  -7.662  -6.534  1.00  0.00     0.007 C 
ATOM     29  C   UNL     1       0.908  -7.999  -8.911  1.00  0.00     0.007 C 
ENDBRANCH  26  27
ENDBRANCH  25  26
BRANCH  25  30
ATOM     30  C   UNL     1       1.549  -3.934  -7.676  1.00  0.00     0.243 C 
ATOM     31  O   UNL     1       2.018  -4.031  -6.543  1.00  0.00    -0.273 OA
ATOM     32  N   UNL     1       2.199  -3.276  -8.687  1.00  0.00    -0.342 N 
ATOM     33  H   UNL     1       1.813  -3.360  -9.632  1.00  0.00     0.164 HD
BRANCH  32  34
ATOM     34  C   UNL     1       3.493  -2.613  -8.511  1.00  0.00     0.175 C 
BRANCH  34  35
ATOM     35  C   UNL     1       4.563  -3.220  -9.432  1.00  0.00     0.070 C 
BRANCH  35  36
ATOM     36  C   UNL     1       4.596  -4.731  -9.372  1.00  0.00    -0.045 A 
ATOM     37  C   UNL     1       4.267  -5.485 -10.509  1.00  0.00     0.007 A 
ATOM     38  C   UNL     1       4.930  -5.397  -8.186  1.00  0.00     0.007 A 
ATOM     39  C   UNL     1       4.282  -6.879 -10.460  1.00  0.00     0.046 A 
ATOM     40  C   UNL     1       4.943  -6.793  -8.136  1.00  0.00     0.046 A 
ATOM     41  C   UNL     1       4.620  -7.522  -9.275  1.00  0.00     0.115 A 
BRANCH  41  42
ATOM     42  O   UNL     1       4.619  -8.885  -9.269  1.00  0.00    -0.508 OA
ATOM     43  H   UNL     1       4.648  -9.185  -8.345  1.00  0.00     0.293 HD
ENDBRANCH  41  42
ENDBRANCH  35  36
ENDBRANCH  34  35
BRANCH  34  44
ATOM     44  C   UNL     1       3.298  -1.102  -8.771  1.00  0.00     0.243 C 
ATOM     45  O   UNL     1       2.711  -0.636  -9.744  1.00  0.00    -0.273 OA
ATOM     46  N   UNL     1       3.961  -0.299  -7.868  1.00  0.00    -0.341 N 
ATOM     47  H   UNL     1       4.531  -0.733  -7.147  1.00  0.00     0.164 HD
BRANCH  46  48
ATOM     48  C   UNL     1       3.979   1.163  -7.951  1.00  0.00     0.196 C 
BRANCH  48  49
ATOM     49  C   UNL     1       2.719   1.775  -7.316  1.00  0.00     0.072 C 
BRANCH  49  50
ATOM     50  C   UNL     1       2.185   2.952  -8.102  1.00  0.00    -0.045 A 
ATOM     51  C   UNL     1       1.662   4.064  -7.426  1.00  0.00     0.007 A 
ATOM     52  C   UNL     1       2.184   2.943  -9.502  1.00  0.00     0.007 A 
ATOM     53  C   UNL     1       1.154   5.149  -8.140  1.00  0.00     0.046 A 
ATOM     54  C   UNL     1       1.675   4.029 -10.217  1.00  0.00     0.046 A 
ATOM     55  C   UNL     1       1.165   5.124  -9.529  1.00  0.00     0.115 A 
BRANCH  55  56
ATOM     56  O   UNL     1       0.657   6.204 -10.189  1.00  0.00    -0.508 OA
ATOM     57  H   UNL     1       0.630   6.954  -9.574  1.00  0.00     0.293 HD
ENDBRANCH  55  56
ENDBRANCH  49  50
ENDBRANCH  48  49
BRANCH  48  58
ATOM     58  C   UNL     1       5.227   1.689  -7.229  1.00  0.00     0.326 C 
ATOM     59  O   UNL     1       5.301   2.095  -6.081  1.00  0.00    -0.250 OA
BRANCH  58  60
ATOM     60  O   UNL     1       6.347   1.665  -7.996  1.00  0.00    -0.480 OA
ATOM     61  H   UNL     1       5.993   1.624  -8.911  1.00  0.00     0.296 HD
ENDBRANCH  58  60
ENDBRANCH  48  58
ENDBRANCH  46  48
ENDBRANCH  34  44
ENDBRANCH  32  34
ENDBRANCH  25  30
ENDBRANCH  23  25
ENDBRANCH   2  23
TORSDOF 28
ENDMDL
MODEL 7
REMARK VINA RESULT:    -6.633     10.895     16.866
REMARK INTER + INTRA:         -20.583
REMARK INTER:                 -15.133
REMARK INTRA:                  -5.450
REMARK UNBOUND:                -4.062
REMARK SMILES CCCCCCC[C@H](N)[C@H](O)C(=O)N[C@H](C)C(=O)N(C)[C@H](CC(C)C)C(=O)N[C@@H](Cc1ccc(O)cc1)C(=O)N[C@@H](Cc1ccc(O)cc1)C(=O)O
REMARK SMILES IDX 18 1 17 2 15 3 16 4 14 5 12 6 13 7 10 9 11 10 8 12 9 13 7 16
REMARK SMILES IDX 6 17 5 18 4 19 3 20 2 21 1 22 19 23 20 24 21 25 22 26 23 27
REMARK SMILES IDX 24 28 25 29 26 30 27 31 28 32 29 34 30 35 31 36 32 37 37 38
REMARK SMILES IDX 33 39 36 40 34 41 35 42 38 44 39 45 40 46 41 48 42 49 43 50
REMARK SMILES IDX 44 51 49 52 45 53 48 54 46 55 47 56 50 58 51 59 52 60
REMARK H PARENT 14 8 11 11 9 14 9 15 28 33 35 43 40 47 47 57 52 61
ROOT
ATOM      1  O   UNL     1      -5.296  -0.894  -7.971  1.00  0.00    -0.272 OA
ATOM      2  C   UNL     1      -4.606  -0.577  -6.991  1.00  0.00     0.245 C 
ENDROOT
BRANCH   2   3
ATOM      3  C   UNL     1      -4.506   0.921  -6.609  1.00  0.00     0.168 C 
ATOM      4  C   UNL     1      -5.725   1.357  -5.804  1.00  0.00     0.041 C 
BRANCH   3   5
ATOM      5  N   UNL     1      -3.262   1.304  -5.960  1.00  0.00    -0.342 N 
ATOM      6  C   UNL     1      -2.462   2.312  -6.456  1.00  0.00     0.251 C 
ATOM      7  O   UNL     1      -2.710   2.925  -7.488  1.00  0.00    -0.272 OA
ATOM      8  H   UNL     1      -2.934   0.843  -5.114  1.00  0.00     0.164 HD
BRANCH   6   9
ATOM      9  C   UNL     1      -1.278   2.640  -5.532  1.00  0.00     0.219 C 
BRANCH   9  10
ATOM     10  O   UNL     1      -1.480   2.181  -4.190  1.00  0.00    -0.382 OA
ATOM     11  H   UNL     1      -1.680   1.225  -4.301  1.00  0.00     0.211 HD
ENDBRANCH   9  10
BRANCH   9  12
ATOM     12  C   UNL     1       0.082   2.141  -6.086  1.00  0.00     0.089 C 
BRANCH  12  13
ATOM     13  N   UNL     1      -0.182   1.120  -7.125  1.00  0.00    -0.325 NA
ATOM     14  H   UNL     1      -1.069   1.332  -7.587  1.00  0.00     0.119 HD
ATOM     15  H   UNL     1      -0.328   0.215  -6.671  1.00  0.00     0.119 HD
ENDBRANCH  12  13
BRANCH  12  16
ATOM     16  C   UNL     1       1.029   3.232  -6.641  1.00  0.00     0.022 C 
BRANCH  16  17
ATOM     17  C   UNL     1       0.480   4.260  -7.640  1.00  0.00     0.002 C 
BRANCH  17  18
ATOM     18  C   UNL     1       1.482   5.320  -8.091  1.00  0.00     0.000 C 
BRANCH  18  19
ATOM     19  C   UNL     1       1.805   5.278  -9.590  1.00  0.00    -0.000 C 
BRANCH  19  20
ATOM     20  C   UNL     1       2.169   3.895 -10.138  1.00  0.00    -0.000 C 
BRANCH  20  21
ATOM     21  C   UNL     1       1.148   3.361 -11.146  1.00  0.00    -0.003 C 
ATOM     22  C   UNL     1       0.178   4.448 -11.581  1.00  0.00     0.004 C 
ENDBRANCH  20  21
ENDBRANCH  19  20
ENDBRANCH  18  19
ENDBRANCH  17  18
ENDBRANCH  16  17
ENDBRANCH  12  16
ENDBRANCH   9  12
ENDBRANCH   6   9
ENDBRANCH   3   5
ENDBRANCH   2   3
BRANCH   2  23
ATOM     23  N   UNL     1      -4.041  -1.563  -6.189  1.00  0.00    -0.332 N 
ATOM     24  C   UNL     1      -4.659  -2.106  -4.989  1.00  0.00     0.147 C 
BRANCH  23  25
ATOM     25  C   UNL     1      -2.778  -2.235  -6.603  1.00  0.00     0.174 C 
BRANCH  25  26
ATOM     26  C   UNL     1      -2.957  -3.751  -6.854  1.00  0.00     0.038 C 
BRANCH  26  27
ATOM     27  C   UNL     1      -2.698  -4.258  -8.290  1.00  0.00    -0.015 C 
ATOM     28  C   UNL     1      -1.225  -4.161  -8.687  1.00  0.00     0.007 C 
ATOM     29  C   UNL     1      -3.231  -5.666  -8.542  1.00  0.00     0.007 C 
ENDBRANCH  26  27
ENDBRANCH  25  26
BRANCH  25  30
ATOM     30  C   UNL     1      -1.646  -1.899  -5.606  1.00  0.00     0.243 C 
ATOM     31  O   UNL     1      -1.558  -0.796  -5.069  1.00  0.00    -0.273 OA
ATOM     32  N   UNL     1      -0.748  -2.907  -5.367  1.00  0.00    -0.342 N 
ATOM     33  H   UNL     1      -0.967  -3.835  -5.738  1.00  0.00     0.164 HD
BRANCH  32  34
ATOM     34  C   UNL     1       0.404  -2.760  -4.473  1.00  0.00     0.175 C 
BRANCH  34  35
ATOM     35  C   UNL     1       0.298  -3.703  -3.264  1.00  0.00     0.070 C 
BRANCH  35  36
ATOM     36  C   UNL     1       0.171  -2.961  -1.953  1.00  0.00    -0.045 A 
ATOM     37  C   UNL     1       0.466  -1.591  -1.890  1.00  0.00     0.007 A 
ATOM     38  C   UNL     1      -0.219  -3.629  -0.784  1.00  0.00     0.007 A 
ATOM     39  C   UNL     1       0.366  -0.901  -0.682  1.00  0.00     0.046 A 
ATOM     40  C   UNL     1      -0.318  -2.939   0.427  1.00  0.00     0.046 A 
ATOM     41  C   UNL     1      -0.026  -1.579   0.466  1.00  0.00     0.115 A 
BRANCH  41  42
ATOM     42  O   UNL     1      -0.110  -0.869   1.627  1.00  0.00    -0.508 OA
ATOM     43  H   UNL     1       0.672  -1.074   2.166  1.00  0.00     0.293 HD
ENDBRANCH  41  42
ENDBRANCH  35  36
ENDBRANCH  34  35
BRANCH  34  44
ATOM     44  C   UNL     1       1.686  -3.019  -5.296  1.00  0.00     0.243 C 
ATOM     45  O   UNL     1       2.689  -3.577  -4.861  1.00  0.00    -0.273 OA
ATOM     46  N   UNL     1       1.658  -2.445  -6.550  1.00  0.00    -0.341 N 
ATOM     47  H   UNL     1       0.849  -1.892  -6.822  1.00  0.00     0.164 HD
BRANCH  46  48
ATOM     48  C   UNL     1       2.784  -2.498  -7.485  1.00  0.00     0.196 C 
BRANCH  48  49
ATOM     49  C   UNL     1       2.441  -3.337  -8.727  1.00  0.00     0.072 C 
BRANCH  49  50
ATOM     50  C   UNL     1       3.167  -4.663  -8.753  1.00  0.00    -0.045 A 
ATOM     51  C   UNL     1       4.124  -4.916  -9.746  1.00  0.00     0.007 A 
ATOM     52  C   UNL     1       2.885  -5.657  -7.808  1.00  0.00     0.007 A 
ATOM     53  C   UNL     1       4.791  -6.140  -9.788  1.00  0.00     0.046 A 
ATOM     54  C   UNL     1       3.552  -6.884  -7.850  1.00  0.00     0.046 A 
ATOM     55  C   UNL     1       4.501  -7.114  -8.840  1.00  0.00     0.115 A 
BRANCH  55  56
ATOM     56  O   UNL     1       5.174  -8.298  -8.917  1.00  0.00    -0.508 OA
ATOM     57  H   UNL     1       5.781  -8.256  -9.673  1.00  0.00     0.293 HD
ENDBRANCH  55  56
ENDBRANCH  49  50
ENDBRANCH  48  49
BRANCH  48  58
ATOM     58  C   UNL     1       3.145  -1.069  -7.913  1.00  0.00     0.326 C 
ATOM     59  O   UNL     1       2.481  -0.058  -7.748  1.00  0.00    -0.250 OA
BRANCH  58  60
ATOM     60  O   UNL     1       4.352  -0.975  -8.525  1.00  0.00    -0.480 OA
ATOM     61  H   UNL     1       4.165  -0.415  -9.309  1.00  0.00     0.296 HD
ENDBRANCH  58  60
ENDBRANCH  48  58
ENDBRANCH  46  48
ENDBRANCH  34  44
ENDBRANCH  32  34
ENDBRANCH  25  30
ENDBRANCH  23  25
ENDBRANCH   2  23
TORSDOF 28
ENDMDL
MODEL 8
REMARK VINA RESULT:    -6.620      9.061     14.751
REMARK INTER + INTRA:         -20.552
REMARK INTER:                 -16.919
REMARK INTRA:                  -3.633
REMARK UNBOUND:                -4.062
REMARK SMILES CCCCCCC[C@H](N)[C@H](O)C(=O)N[C@H](C)C(=O)N(C)[C@H](CC(C)C)C(=O)N[C@@H](Cc1ccc(O)cc1)C(=O)N[C@@H](Cc1ccc(O)cc1)C(=O)O
REMARK SMILES IDX 18 1 17 2 15 3 16 4 14 5 12 6 13 7 10 9 11 10 8 12 9 13 7 16
REMARK SMILES IDX 6 17 5 18 4 19 3 20 2 21 1 22 19 23 20 24 21 25 22 26 23 27
REMARK SMILES IDX 24 28 25 29 26 30 27 31 28 32 29 34 30 35 31 36 32 37 37 38
REMARK SMILES IDX 33 39 36 40 34 41 35 42 38 44 39 45 40 46 41 48 42 49 43 50
REMARK SMILES IDX 44 51 49 52 45 53 48 54 46 55 47 56 50 58 51 59 52 60
REMARK H PARENT 14 8 11 11 9 14 9 15 28 33 35 43 40 47 47 57 52 61
ROOT
ATOM      1  O   UNL     1      -1.839   0.362  -1.875  1.00  0.00    -0.272 OA
ATOM      2  C   UNL     1      -1.690  -0.851  -1.660  1.00  0.00     0.245 C 
ENDROOT
BRANCH   2   3
ATOM      3  C   UNL     1      -1.591  -1.336  -0.193  1.00  0.00     0.168 C 
ATOM      4  C   UNL     1      -0.136  -1.391   0.263  1.00  0.00     0.041 C 
BRANCH   3   5
ATOM      5  N   UNL     1      -2.427  -0.609   0.750  1.00  0.00    -0.342 N 
ATOM      6  C   UNL     1      -3.800  -0.731   0.750  1.00  0.00     0.251 C 
ATOM      7  O   UNL     1      -4.418  -1.418  -0.057  1.00  0.00    -0.272 OA
ATOM      8  H   UNL     1      -2.030   0.019   1.445  1.00  0.00     0.164 HD
BRANCH   6   9
ATOM      9  C   UNL     1      -4.463   0.014   1.919  1.00  0.00     0.219 C 
BRANCH   9  10
ATOM     10  O   UNL     1      -5.525   0.877   1.493  1.00  0.00    -0.382 OA
ATOM     11  H   UNL     1      -5.055   1.640   1.090  1.00  0.00     0.211 HD
ENDBRANCH   9  10
BRANCH   9  12
ATOM     12  C   UNL     1      -4.943  -0.932   3.051  1.00  0.00     0.089 C 
BRANCH  12  13
ATOM     13  N   UNL     1      -4.555  -2.317   2.698  1.00  0.00    -0.325 NA
ATOM     14  H   UNL     1      -3.787  -2.615   3.303  1.00  0.00     0.119 HD
ATOM     15  H   UNL     1      -4.166  -2.321   1.752  1.00  0.00     0.119 HD
ENDBRANCH  12  13
BRANCH  12  16
ATOM     16  C   UNL     1      -4.449  -0.588   4.477  1.00  0.00     0.022 C 
BRANCH  16  17
ATOM     17  C   UNL     1      -3.345   0.463   4.651  1.00  0.00     0.002 C 
BRANCH  17  18
ATOM     18  C   UNL     1      -2.246   0.085   5.642  1.00  0.00     0.000 C 
BRANCH  18  19
ATOM     19  C   UNL     1      -0.874  -0.146   4.995  1.00  0.00    -0.000 C 
BRANCH  19  20
ATOM     20  C   UNL     1      -0.836  -1.241   3.925  1.00  0.00    -0.000 C 
BRANCH  20  21
ATOM     21  C   UNL     1       0.511  -1.965   3.855  1.00  0.00    -0.003 C 
ATOM     22  C   UNL     1       0.782  -2.757   5.124  1.00  0.00     0.004 C 
ENDBRANCH  20  21
ENDBRANCH  19  20
ENDBRANCH  18  19
ENDBRANCH  17  18
ENDBRANCH  16  17
ENDBRANCH  12  16
ENDBRANCH   9  12
ENDBRANCH   6   9
ENDBRANCH   3   5
ENDBRANCH   2   3
BRANCH   2  23
ATOM     23  N   UNL     1      -1.737  -1.755  -2.716  1.00  0.00    -0.332 N 
ATOM     24  C   UNL     1      -2.798  -2.730  -2.921  1.00  0.00     0.147 C 
BRANCH  23  25
ATOM     25  C   UNL     1      -0.727  -1.688  -3.807  1.00  0.00     0.174 C 
BRANCH  25  26
ATOM     26  C   UNL     1       0.632  -1.119  -3.337  1.00  0.00     0.038 C 
BRANCH  26  27
ATOM     27  C   UNL     1       1.836  -2.087  -3.340  1.00  0.00    -0.015 C 
ATOM     28  C   UNL     1       2.287  -2.453  -4.754  1.00  0.00     0.007 C 
ATOM     29  C   UNL     1       3.017  -1.589  -2.511  1.00  0.00     0.007 C 
ENDBRANCH  26  27
ENDBRANCH  25  26
BRANCH  25  30
ATOM     30  C   UNL     1      -1.317  -0.956  -5.034  1.00  0.00     0.243 C 
ATOM     31  O   UNL     1      -2.044  -1.527  -5.845  1.00  0.00    -0.273 OA
ATOM     32  N   UNL     1      -0.972   0.366  -5.159  1.00  0.00    -0.342 N 
ATOM     33  H   UNL     1      -0.483   0.804  -4.373  1.00  0.00     0.164 HD
BRANCH  32  34
ATOM     34  C   UNL     1      -1.416   1.209  -6.272  1.00  0.00     0.175 C 
BRANCH  34  35
ATOM     35  C   UNL     1      -1.746   2.632  -5.797  1.00  0.00     0.070 C 
BRANCH  35  36
ATOM     36  C   UNL     1      -3.208   2.810  -5.455  1.00  0.00    -0.045 A 
ATOM     37  C   UNL     1      -3.618   2.826  -4.113  1.00  0.00     0.007 A 
ATOM     38  C   UNL     1      -4.173   2.937  -6.464  1.00  0.00     0.007 A 
ATOM     39  C   UNL     1      -4.966   2.975  -3.788  1.00  0.00     0.046 A 
ATOM     40  C   UNL     1      -5.523   3.085  -6.139  1.00  0.00     0.046 A 
ATOM     41  C   UNL     1      -5.908   3.104  -4.802  1.00  0.00     0.115 A 
BRANCH  41  42
ATOM     42  O   UNL     1      -7.215   3.245  -4.442  1.00  0.00    -0.508 OA
ATOM     43  H   UNL     1      -7.246   3.557  -3.522  1.00  0.00     0.293 HD
ENDBRANCH  41  42
ENDBRANCH  35  36
ENDBRANCH  34  35
BRANCH  34  44
ATOM     44  C   UNL     1      -0.308   1.202  -7.349  1.00  0.00     0.243 C 
ATOM     45  O   UNL     1       0.247   0.190  -7.767  1.00  0.00    -0.273 OA
ATOM     46  N   UNL     1       0.107   2.464  -7.718  1.00  0.00    -0.341 N 
ATOM     47  H   UNL     1      -0.302   3.273  -7.257  1.00  0.00     0.164 HD
BRANCH  46  48
ATOM     48  C   UNL     1       1.191   2.710  -8.671  1.00  0.00     0.196 C 
BRANCH  48  49
ATOM     49  C   UNL     1       0.820   3.822  -9.667  1.00  0.00     0.072 C 
BRANCH  49  50
ATOM     50  C   UNL     1       0.893   3.363 -11.106  1.00  0.00    -0.045 A 
ATOM     51  C   UNL     1       1.619   2.209 -11.435  1.00  0.00     0.007 A 
ATOM     52  C   UNL     1       0.261   4.085 -12.126  1.00  0.00     0.007 A 
ATOM     53  C   UNL     1       1.705   1.783 -12.761  1.00  0.00     0.046 A 
ATOM     54  C   UNL     1       0.348   3.660 -13.453  1.00  0.00     0.046 A 
ATOM     55  C   UNL     1       1.069   2.511 -13.759  1.00  0.00     0.115 A 
BRANCH  55  56
ATOM     56  O   UNL     1       1.178   2.062 -15.042  1.00  0.00    -0.508 OA
ATOM     57  H   UNL     1       0.885   2.769 -15.639  1.00  0.00     0.293 HD
ENDBRANCH  55  56
ENDBRANCH  49  50
ENDBRANCH  48  49
BRANCH  48  58
ATOM     58  C   UNL     1       2.455   3.112  -7.898  1.00  0.00     0.326 C 
ATOM     59  O   UNL     1       2.515   3.756  -6.864  1.00  0.00    -0.250 OA
BRANCH  58  60
ATOM     60  O   UNL     1       3.603   2.663  -8.466  1.00  0.00    -0.480 OA
ATOM     61  H   UNL     1       4.048   2.189  -7.731  1.00  0.00     0.296 HD
ENDBRANCH  58  60
ENDBRANCH  48  58
ENDBRANCH  46  48
ENDBRANCH  34  44
ENDBRANCH  32  34
ENDBRANCH  25  30
ENDBRANCH  23  25
ENDBRANCH   2  23
TORSDOF 28
ENDMDL
MODEL 9
REMARK VINA RESULT:    -6.607     13.163     17.094
REMARK INTER + INTRA:         -20.520
REMARK INTER:                 -15.621
REMARK INTRA:                  -4.898
REMARK UNBOUND:                -4.062
REMARK SMILES CCCCCCC[C@H](N)[C@H](O)C(=O)N[C@H](C)C(=O)N(C)[C@H](CC(C)C)C(=O)N[C@@H](Cc1ccc(O)cc1)C(=O)N[C@@H](Cc1ccc(O)cc1)C(=O)O
REMARK SMILES IDX 18 1 17 2 15 3 16 4 14 5 12 6 13 7 10 9 11 10 8 12 9 13 7 16
REMARK SMILES IDX 6 17 5 18 4 19 3 20 2 21 1 22 19 23 20 24 21 25 22 26 23 27
REMARK SMILES IDX 24 28 25 29 26 30 27 31 28 32 29 34 30 35 31 36 32 37 37 38
REMARK SMILES IDX 33 39 36 40 34 41 35 42 38 44 39 45 40 46 41 48 42 49 43 50
REMARK SMILES IDX 44 51 49 52 45 53 48 54 46 55 47 56 50 58 51 59 52 60
REMARK H PARENT 14 8 11 11 9 14 9 15 28 33 35 43 40 47 47 57 52 61
ROOT
ATOM      1  O   UNL     1       0.025  -3.221  -8.724  1.00  0.00    -0.272 OA
ATOM      2  C   UNL     1      -0.023  -3.485  -7.513  1.00  0.00     0.245 C 
ENDROOT
BRANCH   2   3
ATOM      3  C   UNL     1       0.802  -4.684  -6.982  1.00  0.00     0.168 C 
ATOM      4  C   UNL     1      -0.055  -5.943  -6.912  1.00  0.00     0.041 C 
BRANCH   3   5
ATOM      5  N   UNL     1       2.056  -4.920  -7.681  1.00  0.00    -0.342 N 
ATOM      6  C   UNL     1       3.223  -5.208  -7.006  1.00  0.00     0.251 C 
ATOM      7  O   UNL     1       3.304  -5.246  -5.783  1.00  0.00    -0.272 OA
ATOM      8  H   UNL     1       2.120  -4.880  -8.696  1.00  0.00     0.164 HD
BRANCH   6   9
ATOM      9  C   UNL     1       4.384  -5.560  -7.949  1.00  0.00     0.219 C 
BRANCH   9  10
ATOM     10  O   UNL     1       5.653  -5.114  -7.454  1.00  0.00    -0.382 OA
ATOM     11  H   UNL     1       5.543  -4.140  -7.381  1.00  0.00     0.211 HD
ENDBRANCH   9  10
BRANCH   9  12
ATOM     12  C   UNL     1       4.435  -7.065  -8.318  1.00  0.00     0.089 C 
BRANCH  12  13
ATOM     13  N   UNL     1       3.565  -7.807  -7.376  1.00  0.00    -0.325 NA
ATOM     14  H   UNL     1       3.255  -7.174  -6.636  1.00  0.00     0.119 HD
ATOM     15  H   UNL     1       4.124  -8.520  -6.901  1.00  0.00     0.119 HD
ENDBRANCH  12  13
BRANCH  12  16
ATOM     16  C   UNL     1       4.061  -7.419  -9.777  1.00  0.00     0.022 C 
BRANCH  16  17
ATOM     17  C   UNL     1       4.107  -6.320 -10.848  1.00  0.00     0.002 C 
BRANCH  17  18
ATOM     18  C   UNL     1       3.247  -6.584 -12.081  1.00  0.00     0.000 C 
BRANCH  18  19
ATOM     19  C   UNL     1       3.782  -5.940 -13.366  1.00  0.00    -0.000 C 
BRANCH  19  20
ATOM     20  C   UNL     1       4.226  -6.925 -14.451  1.00  0.00    -0.000 C 
BRANCH  20  21
ATOM     21  C   UNL     1       5.141  -8.031 -13.919  1.00  0.00    -0.003 C 
ATOM     22  C   UNL     1       5.295  -9.157 -14.929  1.00  0.00     0.004 C 
ENDBRANCH  20  21
ENDBRANCH  19  20
ENDBRANCH  18  19
ENDBRANCH  17  18
ENDBRANCH  16  17
ENDBRANCH  12  16
ENDBRANCH   9  12
ENDBRANCH   6   9
ENDBRANCH   3   5
ENDBRANCH   2   3
BRANCH   2  23
ATOM     23  N   UNL     1      -0.708  -2.642  -6.645  1.00  0.00    -0.332 N 
ATOM     24  C   UNL     1      -2.095  -2.822  -6.242  1.00  0.00     0.147 C 
BRANCH  23  25
ATOM     25  C   UNL     1       0.007  -1.535  -5.952  1.00  0.00     0.174 C 
BRANCH  25  26
ATOM     26  C   UNL     1      -0.197  -1.553  -4.419  1.00  0.00     0.038 C 
BRANCH  26  27
ATOM     27  C   UNL     1       0.827  -2.357  -3.586  1.00  0.00    -0.015 C 
ATOM     28  C   UNL     1       0.347  -3.775  -3.281  1.00  0.00     0.007 C 
ATOM     29  C   UNL     1       2.224  -2.384  -4.202  1.00  0.00     0.007 C 
ENDBRANCH  26  27
ENDBRANCH  25  26
BRANCH  25  30
ATOM     30  C   UNL     1      -0.345  -0.181  -6.610  1.00  0.00     0.243 C 
ATOM     31  O   UNL     1      -0.517  -0.073  -7.823  1.00  0.00    -0.273 OA
ATOM     32  N   UNL     1      -0.444   0.886  -5.755  1.00  0.00    -0.342 N 
ATOM     33  H   UNL     1      -0.427   0.691  -4.750  1.00  0.00     0.164 HD
BRANCH  32  34
ATOM     34  C   UNL     1      -0.742   2.249  -6.204  1.00  0.00     0.175 C 
BRANCH  34  35
ATOM     35  C   UNL     1      -1.445   3.058  -5.104  1.00  0.00     0.070 C 
BRANCH  35  36
ATOM     36  C   UNL     1      -2.948   2.893  -5.127  1.00  0.00    -0.045 A 
ATOM     37  C   UNL     1      -3.664   2.820  -3.922  1.00  0.00     0.007 A 
ATOM     38  C   UNL     1      -3.642   2.787  -6.340  1.00  0.00     0.007 A 
ATOM     39  C   UNL     1      -5.050   2.653  -3.933  1.00  0.00     0.046 A 
ATOM     40  C   UNL     1      -5.028   2.619  -6.351  1.00  0.00     0.046 A 
ATOM     41  C   UNL     1      -5.720   2.555  -5.146  1.00  0.00     0.115 A 
BRANCH  41  42
ATOM     42  O   UNL     1      -7.073   2.390  -5.113  1.00  0.00    -0.508 OA
ATOM     43  H   UNL     1      -7.477   3.233  -4.848  1.00  0.00     0.293 HD
ENDBRANCH  41  42
ENDBRANCH  35  36
ENDBRANCH  34  35
BRANCH  34  44
ATOM     44  C   UNL     1       0.584   2.907  -6.647  1.00  0.00     0.243 C 
ATOM     45  O   UNL     1       1.527   3.142  -5.897  1.00  0.00    -0.273 OA
ATOM     46  N   UNL     1       0.572   3.337  -7.958  1.00  0.00    -0.341 N 
ATOM     47  H   UNL     1      -0.276   3.224  -8.507  1.00  0.00     0.164 HD
BRANCH  46  48
ATOM     48  C   UNL     1       1.689   4.049  -8.582  1.00  0.00     0.196 C 
BRANCH  48  49
ATOM     49  C   UNL     1       2.186   3.318  -9.841  1.00  0.00     0.072 C 
BRANCH  49  50
ATOM     50  C   UNL     1       2.339   1.829  -9.627  1.00  0.00    -0.045 A 
ATOM     51  C   UNL     1       3.135   1.352  -8.575  1.00  0.00     0.007 A 
ATOM     52  C   UNL     1       1.711   0.911 -10.478  1.00  0.00     0.007 A 
ATOM     53  C   UNL     1       3.294  -0.019  -8.376  1.00  0.00     0.046 A 
ATOM     54  C   UNL     1       1.871  -0.462 -10.279  1.00  0.00     0.046 A 
ATOM     55  C   UNL     1       2.661  -0.916  -9.228  1.00  0.00     0.115 A 
BRANCH  55  56
ATOM     56  O   UNL     1       2.843  -2.248  -9.000  1.00  0.00    -0.508 OA
ATOM     57  H   UNL     1       2.193  -2.740  -9.526  1.00  0.00     0.293 HD
ENDBRANCH  55  56
ENDBRANCH  49  50
ENDBRANCH  48  49
BRANCH  48  58
ATOM     58  C   UNL     1       1.230   5.465  -8.957  1.00  0.00     0.326 C 
ATOM     59  O   UNL     1       0.849   5.854 -10.049  1.00  0.00    -0.250 OA
BRANCH  58  60
ATOM     60  O   UNL     1       1.260   6.337  -7.917  1.00  0.00    -0.480 OA
ATOM     61  H   UNL     1       1.492   5.768  -7.152  1.00  0.00     0.296 HD
ENDBRANCH  58  60
ENDBRANCH  48  58
ENDBRANCH  46  48
ENDBRANCH  34  44
ENDBRANCH  32  34
ENDBRANCH  25  30
ENDBRANCH  23  25
ENDBRANCH   2  23
TORSDOF 28
ENDMDL
MODEL 10
REMARK VINA RESULT:    -6.606     14.213     19.463
REMARK INTER + INTRA:         -20.515
REMARK INTER:                 -16.013
REMARK INTRA:                  -4.502
REMARK UNBOUND:                -4.062
REMARK SMILES CCCCCCC[C@H](N)[C@H](O)C(=O)N[C@H](C)C(=O)N(C)[C@H](CC(C)C)C(=O)N[C@@H](Cc1ccc(O)cc1)C(=O)N[C@@H](Cc1ccc(O)cc1)C(=O)O
REMARK SMILES IDX 18 1 17 2 15 3 16 4 14 5 12 6 13 7 10 9 11 10 8 12 9 13 7 16
REMARK SMILES IDX 6 17 5 18 4 19 3 20 2 21 1 22 19 23 20 24 21 25 22 26 23 27
REMARK SMILES IDX 24 28 25 29 26 30 27 31 28 32 29 34 30 35 31 36 32 37 37 38
REMARK SMILES IDX 33 39 36 40 34 41 35 42 38 44 39 45 40 46 41 48 42 49 43 50
REMARK SMILES IDX 44 51 49 52 45 53 48 54 46 55 47 56 50 58 51 59 52 60
REMARK H PARENT 14 8 11 11 9 14 9 15 28 33 35 43 40 47 47 57 52 61
ROOT
ATOM      1  O   UNL     1       1.487  -0.730 -10.935  1.00  0.00    -0.272 OA
ATOM      2  C   UNL     1       1.439  -1.293 -12.038  1.00  0.00     0.245 C 
ENDROOT
BRANCH   2   3
ATOM      3  C   UNL     1       1.631  -0.439 -13.316  1.00  0.00     0.168 C 
ATOM      4  C   UNL     1       0.531  -0.729 -14.332  1.00  0.00     0.041 C 
BRANCH   3   5
ATOM      5  N   UNL     1       1.786   0.988 -13.079  1.00  0.00    -0.342 N 
ATOM      6  C   UNL     1       2.956   1.653 -13.382  1.00  0.00     0.251 C 
ATOM      7  O   UNL     1       3.954   1.097 -13.827  1.00  0.00    -0.272 OA
ATOM      8  H   UNL     1       1.038   1.550 -12.680  1.00  0.00     0.164 HD
BRANCH   6   9
ATOM      9  C   UNL     1       2.844   3.173 -13.182  1.00  0.00     0.219 C 
BRANCH   9  10
ATOM     10  O   UNL     1       1.492   3.641 -13.250  1.00  0.00    -0.382 OA
ATOM     11  H   UNL     1       1.044   2.973 -13.814  1.00  0.00     0.211 HD
ENDBRANCH   9  10
BRANCH   9  12
ATOM     12  C   UNL     1       3.534   3.669 -11.885  1.00  0.00     0.089 C 
BRANCH  12  13
ATOM     13  N   UNL     1       3.403   5.143 -11.820  1.00  0.00    -0.325 NA
ATOM     14  H   UNL     1       2.956   5.401 -10.938  1.00  0.00     0.119 HD
ATOM     15  H   UNL     1       2.753   5.450 -12.548  1.00  0.00     0.119 HD
ENDBRANCH  12  13
BRANCH  12  16
ATOM     16  C   UNL     1       3.036   3.032 -10.565  1.00  0.00     0.022 C 
BRANCH  16  17
ATOM     17  C   UNL     1       2.304   3.911  -9.542  1.00  0.00     0.002 C 
BRANCH  17  18
ATOM     18  C   UNL     1       1.352   3.160  -8.613  1.00  0.00     0.000 C 
BRANCH  18  19
ATOM     19  C   UNL     1       0.893   3.976  -7.397  1.00  0.00    -0.000 C 
BRANCH  19  20
ATOM     20  C   UNL     1      -0.041   3.239  -6.434  1.00  0.00    -0.000 C 
BRANCH  20  21
ATOM     21  C   UNL     1      -1.083   2.377  -7.152  1.00  0.00    -0.003 C 
ATOM     22  C   UNL     1      -2.435   2.448  -6.458  1.00  0.00     0.004 C 
ENDBRANCH  20  21
ENDBRANCH  19  20
ENDBRANCH  18  19
ENDBRANCH  17  18
ENDBRANCH  16  17
ENDBRANCH  12  16
ENDBRANCH   9  12
ENDBRANCH   6   9
ENDBRANCH   3   5
ENDBRANCH   2   3
BRANCH   2  23
ATOM     23  N   UNL     1       1.340  -2.679 -12.108  1.00  0.00    -0.332 N 
ATOM     24  C   UNL     1       2.379  -3.557 -12.625  1.00  0.00     0.147 C 
BRANCH  23  25
ATOM     25  C   UNL     1       0.166  -3.378 -11.516  1.00  0.00     0.174 C 
BRANCH  25  26
ATOM     26  C   UNL     1      -1.055  -2.448 -11.324  1.00  0.00     0.038 C 
BRANCH  26  27
ATOM     27  C   UNL     1      -2.342  -2.814 -12.097  1.00  0.00    -0.015 C 
ATOM     28  C   UNL     1      -2.076  -3.096 -13.576  1.00  0.00     0.007 C 
ATOM     29  C   UNL     1      -3.125  -3.962 -11.464  1.00  0.00     0.007 C 
ENDBRANCH  26  27
ENDBRANCH  25  26
BRANCH  25  30
ATOM     30  C   UNL     1       0.585  -4.127 -10.230  1.00  0.00     0.243 C 
ATOM     31  O   UNL     1       0.393  -5.334 -10.089  1.00  0.00    -0.273 OA
ATOM     32  N   UNL     1       1.177  -3.358  -9.262  1.00  0.00    -0.342 N 
ATOM     33  H   UNL     1       1.430  -2.397  -9.509  1.00  0.00     0.164 HD
BRANCH  32  34
ATOM     34  C   UNL     1       1.613  -3.892  -7.969  1.00  0.00     0.175 C 
BRANCH  34  35
ATOM     35  C   UNL     1       3.133  -4.114  -7.941  1.00  0.00     0.070 C 
BRANCH  35  36
ATOM     36  C   UNL     1       3.532  -5.491  -8.423  1.00  0.00    -0.045 A 
ATOM     37  C   UNL     1       3.106  -6.630  -7.723  1.00  0.00     0.007 A 
ATOM     38  C   UNL     1       4.346  -5.649  -9.552  1.00  0.00     0.007 A 
ATOM     39  C   UNL     1       3.480  -7.903  -8.152  1.00  0.00     0.046 A 
ATOM     40  C   UNL     1       4.722  -6.924  -9.982  1.00  0.00     0.046 A 
ATOM     41  C   UNL     1       4.284  -8.041  -9.277  1.00  0.00     0.115 A 
BRANCH  41  42
ATOM     42  O   UNL     1       4.630  -9.303  -9.661  1.00  0.00    -0.508 OA
ATOM     43  H   UNL     1       4.501  -9.897  -8.904  1.00  0.00     0.293 HD
ENDBRANCH  41  42
ENDBRANCH  35  36
ENDBRANCH  34  35
BRANCH  34  44
ATOM     44  C   UNL     1       1.152  -2.912  -6.866  1.00  0.00     0.243 C 
ATOM     45  O   UNL     1       0.060  -2.351  -6.849  1.00  0.00    -0.273 OA
ATOM     46  N   UNL     1       2.139  -2.613  -5.950  1.00  0.00    -0.341 N 
ATOM     47  H   UNL     1       3.066  -3.014  -6.074  1.00  0.00     0.164 HD
BRANCH  46  48
ATOM     48  C   UNL     1       1.959  -1.658  -4.855  1.00  0.00     0.196 C 
BRANCH  48  49
ATOM     49  C   UNL     1       1.548  -0.273  -5.381  1.00  0.00     0.072 C 
BRANCH  49  50
ATOM     50  C   UNL     1       2.635   0.384  -6.200  1.00  0.00    -0.045 A 
ATOM     51  C   UNL     1       3.024  -0.177  -7.425  1.00  0.00     0.007 A 
ATOM     52  C   UNL     1       3.281   1.541  -5.745  1.00  0.00     0.007 A 
ATOM     53  C   UNL     1       4.036   0.413  -8.183  1.00  0.00     0.046 A 
ATOM     54  C   UNL     1       4.294   2.131  -6.504  1.00  0.00     0.046 A 
ATOM     55  C   UNL     1       4.662   1.562  -7.718  1.00  0.00     0.115 A 
BRANCH  55  56
ATOM     56  O   UNL     1       5.647   2.107  -8.488  1.00  0.00    -0.508 OA
ATOM     57  H   UNL     1       6.358   1.453  -8.584  1.00  0.00     0.293 HD
ENDBRANCH  55  56
ENDBRANCH  49  50
ENDBRANCH  48  49
BRANCH  48  58
ATOM     58  C   UNL     1       0.878  -2.189  -3.903  1.00  0.00     0.326 C 
ATOM     59  O   UNL     1      -0.235  -1.724  -3.715  1.00  0.00    -0.250 OA
BRANCH  58  60
ATOM     60  O   UNL     1       1.250  -3.308  -3.231  1.00  0.00    -0.480 OA
ATOM     61  H   UNL     1       0.537  -3.419  -2.566  1.00  0.00     0.296 HD
ENDBRANCH  58  60
ENDBRANCH  48  58
ENDBRANCH  46  48
ENDBRANCH  34  44
ENDBRANCH  32  34
ENDBRANCH  25  30
ENDBRANCH  23  25
ENDBRANCH   2  23
TORSDOF 28
ENDMDL
MODEL 11
REMARK VINA RESULT:    -6.599      7.448     12.293
REMARK INTER + INTRA:         -20.498
REMARK INTER:                 -15.159
REMARK INTRA:                  -5.339
REMARK UNBOUND:                -4.062
REMARK SMILES CCCCCCC[C@H](N)[C@H](O)C(=O)N[C@H](C)C(=O)N(C)[C@H](CC(C)C)C(=O)N[C@@H](Cc1ccc(O)cc1)C(=O)N[C@@H](Cc1ccc(O)cc1)C(=O)O
REMARK SMILES IDX 18 1 17 2 15 3 16 4 14 5 12 6 13 7 10 9 11 10 8 12 9 13 7 16
REMARK SMILES IDX 6 17 5 18 4 19 3 20 2 21 1 22 19 23 20 24 21 25 22 26 23 27
REMARK SMILES IDX 24 28 25 29 26 30 27 31 28 32 29 34 30 35 31 36 32 37 37 38
REMARK SMILES IDX 33 39 36 40 34 41 35 42 38 44 39 45 40 46 41 48 42 49 43 50
REMARK SMILES IDX 44 51 49 52 45 53 48 54 46 55 47 56 50 58 51 59 52 60
REMARK H PARENT 14 8 11 11 9 14 9 15 28 33 35 43 40 47 47 57 52 61
ROOT
ATOM      1  O   UNL     1      -7.434  -2.849  -2.299  1.00  0.00    -0.272 OA
ATOM      2  C   UNL     1      -6.760  -2.064  -2.983  1.00  0.00     0.245 C 
ENDROOT
BRANCH   2   3
ATOM      3  C   UNL     1      -7.241  -0.598  -3.118  1.00  0.00     0.168 C 
ATOM      4  C   UNL     1      -7.242   0.099  -1.762  1.00  0.00     0.041 C 
BRANCH   3   5
ATOM      5  N   UNL     1      -6.544   0.183  -4.128  1.00  0.00    -0.342 N 
ATOM      6  C   UNL     1      -7.195   0.695  -5.230  1.00  0.00     0.251 C 
ATOM      7  O   UNL     1      -8.384   0.501  -5.465  1.00  0.00    -0.272 OA
ATOM      8  H   UNL     1      -5.549   0.381  -4.060  1.00  0.00     0.164 HD
BRANCH   6   9
ATOM      9  C   UNL     1      -6.296   1.603  -6.084  1.00  0.00     0.219 C 
BRANCH   9  10
ATOM     10  O   UNL     1      -6.712   1.664  -7.454  1.00  0.00    -0.382 OA
ATOM     11  H   UNL     1      -7.321   2.434  -7.476  1.00  0.00     0.211 HD
ENDBRANCH   9  10
BRANCH   9  12
ATOM     12  C   UNL     1      -6.134   3.028  -5.494  1.00  0.00     0.089 C 
BRANCH  12  13
ATOM     13  N   UNL     1      -7.121   3.197  -4.403  1.00  0.00    -0.325 NA
ATOM     14  H   UNL     1      -6.626   3.323  -3.518  1.00  0.00     0.119 HD
ATOM     15  H   UNL     1      -7.646   2.326  -4.294  1.00  0.00     0.119 HD
ENDBRANCH  12  13
BRANCH  12  16
ATOM     16  C   UNL     1      -4.718   3.398  -4.991  1.00  0.00     0.022 C 
BRANCH  16  17
ATOM     17  C   UNL     1      -3.496   2.757  -5.664  1.00  0.00     0.002 C 
BRANCH  17  18
ATOM     18  C   UNL     1      -2.150   3.131  -5.047  1.00  0.00     0.000 C 
BRANCH  18  19
ATOM     19  C   UNL     1      -0.942   2.784  -5.926  1.00  0.00    -0.000 C 
BRANCH  19  20
ATOM     20  C   UNL     1      -1.200   1.718  -6.995  1.00  0.00    -0.000 C 
BRANCH  20  21
ATOM     21  C   UNL     1      -0.004   1.499  -7.924  1.00  0.00    -0.003 C 
ATOM     22  C   UNL     1       0.400   2.789  -8.622  1.00  0.00     0.004 C 
ENDBRANCH  20  21
ENDBRANCH  19  20
ENDBRANCH  18  19
ENDBRANCH  17  18
ENDBRANCH  16  17
ENDBRANCH  12  16
ENDBRANCH   9  12
ENDBRANCH   6   9
ENDBRANCH   3   5
ENDBRANCH   2   3
BRANCH   2  23
ATOM     23  N   UNL     1      -5.539  -2.473  -3.510  1.00  0.00    -0.332 N 
ATOM     24  C   UNL     1      -5.388  -3.382  -4.636  1.00  0.00     0.147 C 
BRANCH  23  25
ATOM     25  C   UNL     1      -4.269  -1.879  -3.009  1.00  0.00     0.174 C 
BRANCH  25  26
ATOM     26  C   UNL     1      -3.123  -1.948  -4.045  1.00  0.00     0.038 C 
BRANCH  26  27
ATOM     27  C   UNL     1      -2.252  -0.682  -4.211  1.00  0.00    -0.015 C 
ATOM     28  C   UNL     1      -2.421   0.300  -3.052  1.00  0.00     0.007 C 
ATOM     29  C   UNL     1      -0.775  -0.988  -4.445  1.00  0.00     0.007 C 
ENDBRANCH  26  27
ENDBRANCH  25  26
BRANCH  25  30
ATOM     30  C   UNL     1      -3.903  -2.486  -1.635  1.00  0.00     0.243 C 
ATOM     31  O   UNL     1      -3.820  -3.701  -1.463  1.00  0.00    -0.273 OA
ATOM     32  N   UNL     1      -3.686  -1.583  -0.626  1.00  0.00    -0.342 N 
ATOM     33  H   UNL     1      -3.635  -0.593  -0.879  1.00  0.00     0.164 HD
BRANCH  32  34
ATOM     34  C   UNL     1      -3.356  -1.979   0.746  1.00  0.00     0.175 C 
BRANCH  34  35
ATOM     35  C   UNL     1      -2.008  -1.390   1.188  1.00  0.00     0.070 C 
BRANCH  35  36
ATOM     36  C   UNL     1      -0.891  -1.691   0.215  1.00  0.00    -0.045 A 
ATOM     37  C   UNL     1      -0.631  -3.016  -0.167  1.00  0.00     0.007 A 
ATOM     38  C   UNL     1      -0.088  -0.664  -0.298  1.00  0.00     0.007 A 
ATOM     39  C   UNL     1       0.406  -3.305  -1.054  1.00  0.00     0.046 A 
ATOM     40  C   UNL     1       0.952  -0.953  -1.185  1.00  0.00     0.046 A 
ATOM     41  C   UNL     1       1.189  -2.272  -1.556  1.00  0.00     0.115 A 
BRANCH  41  42
ATOM     42  O   UNL     1       2.194  -2.597  -2.417  1.00  0.00    -0.508 OA
ATOM     43  H   UNL     1       3.033  -2.581  -1.927  1.00  0.00     0.293 HD
ENDBRANCH  41  42
ENDBRANCH  35  36
ENDBRANCH  34  35
BRANCH  34  44
ATOM     44  C   UNL     1      -4.513  -1.527   1.665  1.00  0.00     0.243 C 
ATOM     45  O   UNL     1      -5.289  -2.292   2.231  1.00  0.00    -0.273 OA
ATOM     46  N   UNL     1      -4.688  -0.159   1.696  1.00  0.00    -0.341 N 
ATOM     47  H   UNL     1      -4.092   0.428   1.117  1.00  0.00     0.164 HD
BRANCH  46  48
ATOM     48  C   UNL     1      -5.761   0.500   2.443  1.00  0.00     0.196 C 
BRANCH  48  49
ATOM     49  C   UNL     1      -5.212   1.253   3.667  1.00  0.00     0.072 C 
BRANCH  49  50
ATOM     50  C   UNL     1      -4.488   0.343   4.633  1.00  0.00    -0.045 A 
ATOM     51  C   UNL     1      -5.198  -0.651   5.323  1.00  0.00     0.007 A 
ATOM     52  C   UNL     1      -3.116   0.489   4.870  1.00  0.00     0.007 A 
ATOM     53  C   UNL     1      -4.543  -1.488   6.227  1.00  0.00     0.046 A 
ATOM     54  C   UNL     1      -2.460  -0.348   5.776  1.00  0.00     0.046 A 
ATOM     55  C   UNL     1      -3.180  -1.331   6.446  1.00  0.00     0.115 A 
BRANCH  55  56
ATOM     56  O   UNL     1      -2.578  -2.168   7.339  1.00  0.00    -0.508 OA
ATOM     57  H   UNL     1      -3.233  -2.423   8.008  1.00  0.00     0.293 HD
ENDBRANCH  55  56
ENDBRANCH  49  50
ENDBRANCH  48  49
BRANCH  48  58
ATOM     58  C   UNL     1      -6.484   1.485   1.514  1.00  0.00     0.326 C 
ATOM     59  O   UNL     1      -7.688   1.596   1.348  1.00  0.00    -0.250 OA
BRANCH  58  60
ATOM     60  O   UNL     1      -5.643   2.307   0.837  1.00  0.00    -0.480 OA
ATOM     61  H   UNL     1      -4.771   1.867   0.934  1.00  0.00     0.296 HD
ENDBRANCH  58  60
ENDBRANCH  48  58
ENDBRANCH  46  48
ENDBRANCH  34  44
ENDBRANCH  32  34
ENDBRANCH  25  30
ENDBRANCH  23  25
ENDBRANCH   2  23
TORSDOF 28
ENDMDL
MODEL 12
REMARK VINA RESULT:    -6.589      3.790      9.999
REMARK INTER + INTRA:         -20.474
REMARK INTER:                 -14.016
REMARK INTRA:                  -6.458
REMARK UNBOUND:                -4.062
REMARK SMILES CCCCCCC[C@H](N)[C@H](O)C(=O)N[C@H](C)C(=O)N(C)[C@H](CC(C)C)C(=O)N[C@@H](Cc1ccc(O)cc1)C(=O)N[C@@H](Cc1ccc(O)cc1)C(=O)O
REMARK SMILES IDX 18 1 17 2 15 3 16 4 14 5 12 6 13 7 10 9 11 10 8 12 9 13 7 16
REMARK SMILES IDX 6 17 5 18 4 19 3 20 2 21 1 22 19 23 20 24 21 25 22 26 23 27
REMARK SMILES IDX 24 28 25 29 26 30 27 31 28 32 29 34 30 35 31 36 32 37 37 38
REMARK SMILES IDX 33 39 36 40 34 41 35 42 38 44 39 45 40 46 41 48 42 49 43 50
REMARK SMILES IDX 44 51 49 52 45 53 48 54 46 55 47 56 50 58 51 59 52 60
REMARK H PARENT 14 8 11 11 9 14 9 15 28 33 35 43 40 47 47 57 52 61
ROOT
ATOM      1  O   UNL     1      -6.503   0.876   7.690  1.00  0.00    -0.272 OA
ATOM      2  C   UNL     1      -5.615   1.400   7.000  1.00  0.00     0.245 C 
ENDROOT
BRANCH   2   3
ATOM      3  C   UNL     1      -5.956   2.688   6.209  1.00  0.00     0.168 C 
ATOM      4  C   UNL     1      -7.011   2.407   5.145  1.00  0.00     0.041 C 
BRANCH   3   5
ATOM      5  N   UNL     1      -6.306   3.836   7.032  1.00  0.00    -0.342 N 
ATOM      6  C   UNL     1      -5.348   4.592   7.672  1.00  0.00     0.251 C 
ATOM      7  O   UNL     1      -4.149   4.338   7.634  1.00  0.00    -0.272 OA
ATOM      8  H   UNL     1      -7.273   4.123   7.166  1.00  0.00     0.164 HD
BRANCH   6   9
ATOM      9  C   UNL     1      -5.936   5.833   8.363  1.00  0.00     0.219 C 
BRANCH   9  10
ATOM     10  O   UNL     1      -7.202   6.222   7.819  1.00  0.00    -0.382 OA
ATOM     11  H   UNL     1      -7.638   6.694   8.562  1.00  0.00     0.211 HD
ENDBRANCH   9  10
BRANCH   9  12
ATOM     12  C   UNL     1      -6.020   5.689   9.905  1.00  0.00     0.089 C 
BRANCH  12  13
ATOM     13  N   UNL     1      -5.764   4.273  10.257  1.00  0.00    -0.325 NA
ATOM     14  H   UNL     1      -6.410   3.676   9.738  1.00  0.00     0.119 HD
ATOM     15  H   UNL     1      -5.998   4.129  11.242  1.00  0.00     0.119 HD
ENDBRANCH  12  13
BRANCH  12  16
ATOM     16  C   UNL     1      -5.091   6.616  10.725  1.00  0.00     0.022 C 
BRANCH  16  17
ATOM     17  C   UNL     1      -3.874   6.013  11.439  1.00  0.00     0.002 C 
BRANCH  17  18
ATOM     18  C   UNL     1      -2.522   6.540  10.963  1.00  0.00     0.000 C 
BRANCH  18  19
ATOM     19  C   UNL     1      -1.956   5.798   9.744  1.00  0.00    -0.000 C 
BRANCH  19  20
ATOM     20  C   UNL     1      -0.432   5.843   9.606  1.00  0.00    -0.000 C 
BRANCH  20  21
ATOM     21  C   UNL     1       0.032   6.347   8.237  1.00  0.00    -0.003 C 
ATOM     22  C   UNL     1      -0.070   7.861   8.139  1.00  0.00     0.004 C 
ENDBRANCH  20  21
ENDBRANCH  19  20
ENDBRANCH  18  19
ENDBRANCH  17  18
ENDBRANCH  16  17
ENDBRANCH  12  16
ENDBRANCH   9  12
ENDBRANCH   6   9
ENDBRANCH   3   5
ENDBRANCH   2   3
BRANCH   2  23
ATOM     23  N   UNL     1      -4.317   0.904   7.043  1.00  0.00    -0.332 N 
ATOM     24  C   UNL     1      -3.753  -0.018   6.068  1.00  0.00     0.147 C 
BRANCH  23  25
ATOM     25  C   UNL     1      -3.353   1.407   8.060  1.00  0.00     0.174 C 
BRANCH  25  26
ATOM     26  C   UNL     1      -1.884   1.343   7.581  1.00  0.00     0.038 C 
BRANCH  26  27
ATOM     27  C   UNL     1      -1.083   2.664   7.601  1.00  0.00    -0.015 C 
ATOM     28  C   UNL     1       0.306   2.496   8.215  1.00  0.00     0.007 C 
ATOM     29  C   UNL     1      -0.988   3.336   6.234  1.00  0.00     0.007 C 
ENDBRANCH  26  27
ENDBRANCH  25  26
BRANCH  25  30
ATOM     30  C   UNL     1      -3.597   0.705   9.416  1.00  0.00     0.243 C 
ATOM     31  O   UNL     1      -3.332  -0.484   9.589  1.00  0.00    -0.273 OA
ATOM     32  N   UNL     1      -4.130   1.492  10.404  1.00  0.00    -0.342 N 
ATOM     33  H   UNL     1      -4.190   2.498  10.228  1.00  0.00     0.164 HD
BRANCH  32  34
ATOM     34  C   UNL     1      -4.452   0.990  11.742  1.00  0.00     0.175 C 
BRANCH  34  35
ATOM     35  C   UNL     1      -3.756   1.819  12.833  1.00  0.00     0.070 C 
BRANCH  35  36
ATOM     36  C   UNL     1      -2.260   1.910  12.633  1.00  0.00    -0.045 A 
ATOM     37  C   UNL     1      -1.470   0.754  12.717  1.00  0.00     0.007 A 
ATOM     38  C   UNL     1      -1.641   3.142  12.385  1.00  0.00     0.007 A 
ATOM     39  C   UNL     1      -0.087   0.830  12.548  1.00  0.00     0.046 A 
ATOM     40  C   UNL     1      -0.257   3.219  12.217  1.00  0.00     0.046 A 
ATOM     41  C   UNL     1       0.508   2.061  12.299  1.00  0.00     0.115 A 
BRANCH  41  42
ATOM     42  O   UNL     1       1.862   2.092  12.142  1.00  0.00    -0.508 OA
ATOM     43  H   UNL     1       2.061   2.525  11.295  1.00  0.00     0.293 HD
ENDBRANCH  41  42
ENDBRANCH  35  36
ENDBRANCH  34  35
BRANCH  34  44
ATOM     44  C   UNL     1      -5.989   1.001  11.901  1.00  0.00     0.243 C 
ATOM     45  O   UNL     1      -6.593   0.497  12.843  1.00  0.00    -0.273 OA
ATOM     46  N   UNL     1      -6.650   1.524  10.809  1.00  0.00    -0.341 N 
ATOM     47  H   UNL     1      -6.109   1.823  10.002  1.00  0.00     0.164 HD
BRANCH  46  48
ATOM     48  C   UNL     1      -8.109   1.577  10.700  1.00  0.00     0.196 C 
BRANCH  48  49
ATOM     49  C   UNL     1      -8.740   0.196  10.943  1.00  0.00     0.072 C 
BRANCH  49  50
ATOM     50  C   UNL     1      -9.920  -0.072  10.037  1.00  0.00    -0.045 A 
ATOM     51  C   UNL     1     -11.192  -0.282  10.589  1.00  0.00     0.007 A 
ATOM     52  C   UNL     1      -9.762  -0.136   8.647  1.00  0.00     0.007 A 
ATOM     53  C   UNL     1     -12.286  -0.543   9.764  1.00  0.00     0.046 A 
ATOM     54  C   UNL     1     -10.857  -0.399   7.820  1.00  0.00     0.046 A 
ATOM     55  C   UNL     1     -12.111  -0.599   8.386  1.00  0.00     0.115 A 
BRANCH  55  56
ATOM     56  O   UNL     1     -13.204  -0.859   7.615  1.00  0.00    -0.508 OA
ATOM     57  H   UNL     1     -12.951  -0.763   6.683  1.00  0.00     0.293 HD
ENDBRANCH  55  56
ENDBRANCH  49  50
ENDBRANCH  48  49
BRANCH  48  58
ATOM     58  C   UNL     1      -8.650   2.579  11.731  1.00  0.00     0.326 C 
ATOM     59  O   UNL     1      -8.569   3.796  11.692  1.00  0.00    -0.250 OA
BRANCH  58  60
ATOM     60  O   UNL     1      -9.293   1.991  12.771  1.00  0.00    -0.480 OA
ATOM     61  H   UNL     1     -10.240   2.162  12.578  1.00  0.00     0.296 HD
ENDBRANCH  58  60
ENDBRANCH  48  58
ENDBRANCH  46  48
ENDBRANCH  34  44
ENDBRANCH  32  34
ENDBRANCH  25  30
ENDBRANCH  23  25
ENDBRANCH   2  23
TORSDOF 28
ENDMDL
MODEL 13
REMARK VINA RESULT:    -6.587     10.217     17.279
REMARK INTER + INTRA:         -20.468
REMARK INTER:                 -16.616
REMARK INTRA:                  -3.852
REMARK UNBOUND:                -4.062
REMARK SMILES CCCCCCC[C@H](N)[C@H](O)C(=O)N[C@H](C)C(=O)N(C)[C@H](CC(C)C)C(=O)N[C@@H](Cc1ccc(O)cc1)C(=O)N[C@@H](Cc1ccc(O)cc1)C(=O)O
REMARK SMILES IDX 18 1 17 2 15 3 16 4 14 5 12 6 13 7 10 9 11 10 8 12 9 13 7 16
REMARK SMILES IDX 6 17 5 18 4 19 3 20 2 21 1 22 19 23 20 24 21 25 22 26 23 27
REMARK SMILES IDX 24 28 25 29 26 30 27 31 28 32 29 34 30 35 31 36 32 37 37 38
REMARK SMILES IDX 33 39 36 40 34 41 35 42 38 44 39 45 40 46 41 48 42 49 43 50
REMARK SMILES IDX 44 51 49 52 45 53 48 54 46 55 47 56 50 58 51 59 52 60
REMARK H PARENT 14 8 11 11 9 14 9 15 28 33 35 43 40 47 47 57 52 61
ROOT
ATOM      1  O   UNL     1      -0.482  -1.689  -9.112  1.00  0.00    -0.272 OA
ATOM      2  C   UNL     1      -0.544  -2.142  -7.959  1.00  0.00     0.245 C 
ENDROOT
BRANCH   2   3
ATOM      3  C   UNL     1      -0.396  -1.162  -6.769  1.00  0.00     0.168 C 
ATOM      4  C   UNL     1      -1.498  -0.108  -6.794  1.00  0.00     0.041 C 
BRANCH   3   5
ATOM      5  N   UNL     1      -0.284  -1.797  -5.465  1.00  0.00    -0.342 N 
ATOM      6  C   UNL     1       0.707  -1.452  -4.571  1.00  0.00     0.251 C 
ATOM      7  O   UNL     1       1.582  -0.627  -4.815  1.00  0.00    -0.272 OA
ATOM      8  H   UNL     1      -0.932  -2.520  -5.163  1.00  0.00     0.164 HD
BRANCH   6   9
ATOM      9  C   UNL     1       0.547  -2.146  -3.208  1.00  0.00     0.219 C 
BRANCH   9  10
ATOM     10  O   UNL     1       1.511  -3.185  -3.001  1.00  0.00    -0.382 OA
ATOM     11  H   UNL     1       1.323  -3.495  -2.087  1.00  0.00     0.211 HD
ENDBRANCH   9  10
BRANCH   9  12
ATOM     12  C   UNL     1       0.541  -1.154  -2.016  1.00  0.00     0.089 C 
BRANCH  12  13
ATOM     13  N   UNL     1      -0.752  -0.432  -2.015  1.00  0.00    -0.325 NA
ATOM     14  H   UNL     1      -1.130  -0.421  -1.066  1.00  0.00     0.119 HD
ATOM     15  H   UNL     1      -1.429  -0.965  -2.566  1.00  0.00     0.119 HD
ENDBRANCH  12  13
BRANCH  12  16
ATOM     16  C   UNL     1       0.808  -1.768  -0.621  1.00  0.00     0.022 C 
BRANCH  16  17
ATOM     17  C   UNL     1       0.245  -1.068   0.623  1.00  0.00     0.002 C 
BRANCH  17  18
ATOM     18  C   UNL     1      -0.077  -1.995   1.794  1.00  0.00     0.000 C 
BRANCH  18  19
ATOM     19  C   UNL     1      -0.326  -1.263   3.119  1.00  0.00    -0.000 C 
BRANCH  19  20
ATOM     20  C   UNL     1       0.828  -1.326   4.123  1.00  0.00    -0.000 C 
BRANCH  20  21
ATOM     21  C   UNL     1       0.617  -0.418   5.338  1.00  0.00    -0.003 C 
ATOM     22  C   UNL     1       0.990   1.022   5.025  1.00  0.00     0.004 C 
ENDBRANCH  20  21
ENDBRANCH  19  20
ENDBRANCH  18  19
ENDBRANCH  17  18
ENDBRANCH  16  17
ENDBRANCH  12  16
ENDBRANCH   9  12
ENDBRANCH   6   9
ENDBRANCH   3   5
ENDBRANCH   2   3
BRANCH   2  23
ATOM     23  N   UNL     1      -0.863  -3.480  -7.754  1.00  0.00    -0.332 N 
ATOM     24  C   UNL     1      -2.206  -3.978  -7.495  1.00  0.00     0.147 C 
BRANCH  23  25
ATOM     25  C   UNL     1       0.175  -4.533  -7.920  1.00  0.00     0.174 C 
BRANCH  25  26
ATOM     26  C   UNL     1      -0.110  -5.798  -7.076  1.00  0.00     0.038 C 
BRANCH  26  27
ATOM     27  C   UNL     1       0.563  -7.111  -7.533  1.00  0.00    -0.015 C 
ATOM     28  C   UNL     1       1.712  -7.530  -6.616  1.00  0.00     0.007 C 
ATOM     29  C   UNL     1      -0.420  -8.264  -7.723  1.00  0.00     0.007 C 
ENDBRANCH  26  27
ENDBRANCH  25  26
BRANCH  25  30
ATOM     30  C   UNL     1       1.582  -3.935  -7.688  1.00  0.00     0.243 C 
ATOM     31  O   UNL     1       2.079  -3.859  -6.566  1.00  0.00    -0.273 OA
ATOM     32  N   UNL     1       2.231  -3.493  -8.812  1.00  0.00    -0.342 N 
ATOM     33  H   UNL     1       1.815  -3.719  -9.719  1.00  0.00     0.164 HD
BRANCH  32  34
ATOM     34  C   UNL     1       3.558  -2.873  -8.779  1.00  0.00     0.175 C 
BRANCH  34  35
ATOM     35  C   UNL     1       4.492  -3.497  -9.828  1.00  0.00     0.070 C 
BRANCH  35  36
ATOM     36  C   UNL     1       4.535  -5.006  -9.749  1.00  0.00    -0.045 A 
ATOM     37  C   UNL     1       4.184  -5.778 -10.867  1.00  0.00     0.007 A 
ATOM     38  C   UNL     1       4.899  -5.654  -8.561  1.00  0.00     0.007 A 
ATOM     39  C   UNL     1       4.207  -7.171 -10.800  1.00  0.00     0.046 A 
ATOM     40  C   UNL     1       4.921  -7.049  -8.492  1.00  0.00     0.046 A 
ATOM     41  C   UNL     1       4.576  -7.795  -9.614  1.00  0.00     0.115 A 
BRANCH  41  42
ATOM     42  O   UNL     1       4.582  -9.159  -9.589  1.00  0.00    -0.508 OA
ATOM     43  H   UNL     1       4.635  -9.446  -8.662  1.00  0.00     0.293 HD
ENDBRANCH  41  42
ENDBRANCH  35  36
ENDBRANCH  34  35
BRANCH  34  44
ATOM     44  C   UNL     1       3.383  -1.353  -8.994  1.00  0.00     0.243 C 
ATOM     45  O   UNL     1       2.879  -0.847  -9.993  1.00  0.00    -0.273 OA
ATOM     46  N   UNL     1       3.968  -0.588  -8.008  1.00  0.00    -0.341 N 
ATOM     47  H   UNL     1       4.476  -1.052  -7.259  1.00  0.00     0.164 HD
BRANCH  46  48
ATOM     48  C   UNL     1       3.990   0.876  -8.030  1.00  0.00     0.196 C 
BRANCH  48  49
ATOM     49  C   UNL     1       2.736   1.466  -7.363  1.00  0.00     0.072 C 
BRANCH  49  50
ATOM     50  C   UNL     1       2.225   2.700  -8.072  1.00  0.00    -0.045 A 
ATOM     51  C   UNL     1       1.604   3.721  -7.338  1.00  0.00     0.007 A 
ATOM     52  C   UNL     1       2.343   2.833  -9.461  1.00  0.00     0.007 A 
ATOM     53  C   UNL     1       1.117   4.858  -7.983  1.00  0.00     0.046 A 
ATOM     54  C   UNL     1       1.854   3.971 -10.107  1.00  0.00     0.046 A 
ATOM     55  C   UNL     1       1.246   4.975  -9.362  1.00  0.00     0.115 A 
BRANCH  55  56
ATOM     56  O   UNL     1       0.755   6.100  -9.954  1.00  0.00    -0.508 OA
ATOM     57  H   UNL     1       1.138   6.170 -10.843  1.00  0.00     0.293 HD
ENDBRANCH  55  56
ENDBRANCH  49  50
ENDBRANCH  48  49
BRANCH  48  58
ATOM     58  C   UNL     1       5.245   1.368  -7.294  1.00  0.00     0.326 C 
ATOM     59  O   UNL     1       5.336   2.332  -6.552  1.00  0.00    -0.250 OA
BRANCH  58  60
ATOM     60  O   UNL     1       6.340   0.600  -7.521  1.00  0.00    -0.480 OA
ATOM     61  H   UNL     1       6.289   0.411  -8.483  1.00  0.00     0.296 HD
ENDBRANCH  58  60
ENDBRANCH  48  58
ENDBRANCH  46  48
ENDBRANCH  34  44
ENDBRANCH  32  34
ENDBRANCH  25  30
ENDBRANCH  23  25
ENDBRANCH   2  23
TORSDOF 28
ENDMDL
MODEL 14
REMARK VINA RESULT:    -6.586     10.027     15.113
REMARK INTER + INTRA:         -20.466
REMARK INTER:                 -14.954
REMARK INTRA:                  -5.512
REMARK UNBOUND:                -4.062
REMARK SMILES CCCCCCC[C@H](N)[C@H](O)C(=O)N[C@H](C)C(=O)N(C)[C@H](CC(C)C)C(=O)N[C@@H](Cc1ccc(O)cc1)C(=O)N[C@@H](Cc1ccc(O)cc1)C(=O)O
REMARK SMILES IDX 18 1 17 2 15 3 16 4 14 5 12 6 13 7 10 9 11 10 8 12 9 13 7 16
REMARK SMILES IDX 6 17 5 18 4 19 3 20 2 21 1 22 19 23 20 24 21 25 22 26 23 27
REMARK SMILES IDX 24 28 25 29 26 30 27 31 28 32 29 34 30 35 31 36 32 37 37 38
REMARK SMILES IDX 33 39 36 40 34 41 35 42 38 44 39 45 40 46 41 48 42 49 43 50
REMARK SMILES IDX 44 51 49 52 45 53 48 54 46 55 47 56 50 58 51 59 52 60
REMARK H PARENT 14 8 11 11 9 14 9 15 28 33 35 43 40 47 47 57 52 61
ROOT
ATOM      1  O   UNL     1      -9.961  14.078   8.690  1.00  0.00    -0.272 OA
ATOM      2  C   UNL     1     -10.556  13.409   9.548  1.00  0.00     0.245 C 
ENDROOT
BRANCH   2   3
ATOM      3  C   UNL     1     -11.425  12.214   9.084  1.00  0.00     0.168 C 
ATOM      4  C   UNL     1     -10.989  10.926   9.775  1.00  0.00     0.041 C 
BRANCH   3   5
ATOM      5  N   UNL     1     -12.861  12.425   9.187  1.00  0.00    -0.342 N 
ATOM      6  C   UNL     1     -13.558  13.155   8.249  1.00  0.00     0.251 C 
ATOM      7  O   UNL     1     -13.028  13.710   7.292  1.00  0.00    -0.272 OA
ATOM      8  H   UNL     1     -13.405  12.043   9.957  1.00  0.00     0.164 HD
BRANCH   6   9
ATOM      9  C   UNL     1     -15.077  13.127   8.482  1.00  0.00     0.219 C 
BRANCH   9  10
ATOM     10  O   UNL     1     -15.515  11.922   9.122  1.00  0.00    -0.382 OA
ATOM     11  H   UNL     1     -15.191  11.212   8.525  1.00  0.00     0.211 HD
ENDBRANCH   9  10
BRANCH   9  12
ATOM     12  C   UNL     1     -15.601  14.375   9.240  1.00  0.00     0.089 C 
BRANCH  12  13
ATOM     13  N   UNL     1     -14.450  15.261   9.531  1.00  0.00    -0.325 NA
ATOM     14  H   UNL     1     -13.704  15.073   8.860  1.00  0.00     0.119 HD
ATOM     15  H   UNL     1     -14.060  15.008  10.442  1.00  0.00     0.119 HD
ENDBRANCH  12  13
BRANCH  12  16
ATOM     16  C   UNL     1     -16.723  15.174   8.537  1.00  0.00     0.022 C 
BRANCH  16  17
ATOM     17  C   UNL     1     -18.149  15.115   9.101  1.00  0.00     0.002 C 
BRANCH  17  18
ATOM     18  C   UNL     1     -19.043  16.293   8.720  1.00  0.00     0.000 C 
BRANCH  18  19
ATOM     19  C   UNL     1     -18.704  16.920   7.361  1.00  0.00    -0.000 C 
BRANCH  19  20
ATOM     20  C   UNL     1     -19.095  18.393   7.209  1.00  0.00    -0.000 C 
BRANCH  20  21
ATOM     21  C   UNL     1     -17.900  19.344   7.308  1.00  0.00    -0.003 C 
ATOM     22  C   UNL     1     -17.082  19.079   8.563  1.00  0.00     0.004 C 
ENDBRANCH  20  21
ENDBRANCH  19  20
ENDBRANCH  18  19
ENDBRANCH  17  18
ENDBRANCH  16  17
ENDBRANCH  12  16
ENDBRANCH   9  12
ENDBRANCH   6   9
ENDBRANCH   3   5
ENDBRANCH   2   3
BRANCH   2  23
ATOM     23  N   UNL     1     -10.341  13.660  10.899  1.00  0.00    -0.332 N 
ATOM     24  C   UNL     1     -11.392  13.947  11.863  1.00  0.00     0.147 C 
BRANCH  23  25
ATOM     25  C   UNL     1      -8.978  13.517  11.481  1.00  0.00     0.174 C 
BRANCH  25  26
ATOM     26  C   UNL     1      -8.996  12.990  12.935  1.00  0.00     0.038 C 
BRANCH  26  27
ATOM     27  C   UNL     1      -8.601  11.512  13.148  1.00  0.00    -0.015 C 
ATOM     28  C   UNL     1      -9.817  10.589  13.239  1.00  0.00     0.007 C 
ATOM     29  C   UNL     1      -7.609  10.992  12.111  1.00  0.00     0.007 C 
ENDBRANCH  26  27
ENDBRANCH  25  26
BRANCH  25  30
ATOM     30  C   UNL     1      -8.185  14.833  11.307  1.00  0.00     0.243 C 
ATOM     31  O   UNL     1      -8.334  15.787  12.069  1.00  0.00    -0.273 OA
ATOM     32  N   UNL     1      -7.315  14.866  10.248  1.00  0.00    -0.342 N 
ATOM     33  H   UNL     1      -7.143  13.990   9.749  1.00  0.00     0.164 HD
BRANCH  32  34
ATOM     34  C   UNL     1      -6.502  16.039   9.915  1.00  0.00     0.175 C 
BRANCH  34  35
ATOM     35  C   UNL     1      -5.131  15.983  10.607  1.00  0.00     0.070 C 
BRANCH  35  36
ATOM     36  C   UNL     1      -4.363  14.722  10.284  1.00  0.00    -0.045 A 
ATOM     37  C   UNL     1      -3.498  14.691   9.179  1.00  0.00     0.007 A 
ATOM     38  C   UNL     1      -4.517  13.567  11.060  1.00  0.00     0.007 A 
ATOM     39  C   UNL     1      -2.795  13.528   8.864  1.00  0.00     0.046 A 
ATOM     40  C   UNL     1      -3.815  12.401  10.745  1.00  0.00     0.046 A 
ATOM     41  C   UNL     1      -2.958  12.393   9.649  1.00  0.00     0.115 A 
BRANCH  41  42
ATOM     42  O   UNL     1      -2.256  11.276   9.306  1.00  0.00    -0.508 OA
ATOM     43  H   UNL     1      -1.387  11.318   9.738  1.00  0.00     0.293 HD
ENDBRANCH  41  42
ENDBRANCH  35  36
ENDBRANCH  34  35
BRANCH  34  44
ATOM     44  C   UNL     1      -6.369  16.107   8.377  1.00  0.00     0.243 C 
ATOM     45  O   UNL     1      -5.803  17.012   7.769  1.00  0.00    -0.273 OA
ATOM     46  N   UNL     1      -7.065  15.114   7.721  1.00  0.00    -0.341 N 
ATOM     47  H   UNL     1      -7.616  14.455   8.265  1.00  0.00     0.164 HD
BRANCH  46  48
ATOM     48  C   UNL     1      -7.144  15.014   6.262  1.00  0.00     0.196 C 
BRANCH  48  49
ATOM     49  C   UNL     1      -7.557  13.601   5.819  1.00  0.00     0.072 C 
BRANCH  49  50
ATOM     50  C   UNL     1      -6.807  12.517   6.559  1.00  0.00    -0.045 A 
ATOM     51  C   UNL     1      -7.353  11.959   7.724  1.00  0.00     0.007 A 
ATOM     52  C   UNL     1      -5.557  12.070   6.111  1.00  0.00     0.007 A 
ATOM     53  C   UNL     1      -6.664  10.968   8.423  1.00  0.00     0.046 A 
ATOM     54  C   UNL     1      -4.867  11.079   6.812  1.00  0.00     0.046 A 
ATOM     55  C   UNL     1      -5.427  10.535   7.962  1.00  0.00     0.115 A 
BRANCH  55  56
ATOM     56  O   UNL     1      -4.785   9.566   8.675  1.00  0.00    -0.508 OA
ATOM     57  H   UNL     1      -5.417   9.177   9.301  1.00  0.00     0.293 HD
ENDBRANCH  55  56
ENDBRANCH  49  50
ENDBRANCH  48  49
BRANCH  48  58
ATOM     58  C   UNL     1      -8.168  16.035   5.746  1.00  0.00     0.326 C 
ATOM     59  O   UNL     1      -8.122  16.665   4.702  1.00  0.00    -0.250 OA
BRANCH  58  60
ATOM     60  O   UNL     1      -9.227  16.207   6.577  1.00  0.00    -0.480 OA
ATOM     61  H   UNL     1      -9.997  15.975   6.013  1.00  0.00     0.296 HD
ENDBRANCH  58  60
ENDBRANCH  48  58
ENDBRANCH  46  48
ENDBRANCH  34  44
ENDBRANCH  32  34
ENDBRANCH  25  30
ENDBRANCH  23  25
ENDBRANCH   2  23
TORSDOF 28
ENDMDL
MODEL 15
REMARK VINA RESULT:    -6.546      2.592      6.418
REMARK INTER + INTRA:         -20.367
REMARK INTER:                 -15.650
REMARK INTRA:                  -4.718
REMARK UNBOUND:                -4.062
REMARK SMILES CCCCCCC[C@H](N)[C@H](O)C(=O)N[C@H](C)C(=O)N(C)[C@H](CC(C)C)C(=O)N[C@@H](Cc1ccc(O)cc1)C(=O)N[C@@H](Cc1ccc(O)cc1)C(=O)O
REMARK SMILES IDX 18 1 17 2 15 3 16 4 14 5 12 6 13 7 10 9 11 10 8 12 9 13 7 16
REMARK SMILES IDX 6 17 5 18 4 19 3 20 2 21 1 22 19 23 20 24 21 25 22 26 23 27
REMARK SMILES IDX 24 28 25 29 26 30 27 31 28 32 29 34 30 35 31 36 32 37 37 38
REMARK SMILES IDX 33 39 36 40 34 41 35 42 38 44 39 45 40 46 41 48 42 49 43 50
REMARK SMILES IDX 44 51 49 52 45 53 48 54 46 55 47 56 50 58 51 59 52 60
REMARK H PARENT 14 8 11 11 9 14 9 15 28 33 35 43 40 47 47 57 52 61
ROOT
ATOM      1  O   UNL     1      -2.995   4.724   8.149  1.00  0.00    -0.272 OA
ATOM      2  C   UNL     1      -2.644   3.587   8.499  1.00  0.00     0.245 C 
ENDROOT
BRANCH   2   3
ATOM      3  C   UNL     1      -3.676   2.435   8.418  1.00  0.00     0.168 C 
ATOM      4  C   UNL     1      -5.087   2.984   8.234  1.00  0.00     0.041 C 
BRANCH   3   5
ATOM      5  N   UNL     1      -3.365   1.403   7.441  1.00  0.00    -0.342 N 
ATOM      6  C   UNL     1      -3.410   0.062   7.759  1.00  0.00     0.251 C 
ATOM      7  O   UNL     1      -3.672  -0.358   8.881  1.00  0.00    -0.272 OA
ATOM      8  H   UNL     1      -3.100   1.631   6.486  1.00  0.00     0.164 HD
BRANCH   6   9
ATOM      9  C   UNL     1      -3.185  -0.846   6.540  1.00  0.00     0.219 C 
BRANCH   9  10
ATOM     10  O   UNL     1      -2.528  -2.074   6.879  1.00  0.00    -0.382 OA
ATOM     11  H   UNL     1      -2.740  -2.194   7.831  1.00  0.00     0.211 HD
ENDBRANCH   9  10
BRANCH   9  12
ATOM     12  C   UNL     1      -4.482  -1.120   5.736  1.00  0.00     0.089 C 
BRANCH  12  13
ATOM     13  N   UNL     1      -5.622  -0.526   6.472  1.00  0.00    -0.325 NA
ATOM     14  H   UNL     1      -5.482  -0.663   7.474  1.00  0.00     0.119 HD
ATOM     15  H   UNL     1      -6.471  -1.051   6.247  1.00  0.00     0.119 HD
ENDBRANCH  12  13
BRANCH  12  16
ATOM     16  C   UNL     1      -4.486  -0.631   4.267  1.00  0.00     0.022 C 
BRANCH  16  17
ATOM     17  C   UNL     1      -4.731   0.855   3.975  1.00  0.00     0.002 C 
BRANCH  17  18
ATOM     18  C   UNL     1      -5.350   1.150   2.610  1.00  0.00     0.000 C 
BRANCH  18  19
ATOM     19  C   UNL     1      -6.718   0.491   2.389  1.00  0.00    -0.000 C 
BRANCH  19  20
ATOM     20  C   UNL     1      -7.893   1.463   2.248  1.00  0.00    -0.000 C 
BRANCH  20  21
ATOM     21  C   UNL     1      -8.229   2.190   3.552  1.00  0.00    -0.003 C 
ATOM     22  C   UNL     1      -8.440   1.210   4.696  1.00  0.00     0.004 C 
ENDBRANCH  20  21
ENDBRANCH  19  20
ENDBRANCH  18  19
ENDBRANCH  17  18
ENDBRANCH  16  17
ENDBRANCH  12  16
ENDBRANCH   9  12
ENDBRANCH   6   9
ENDBRANCH   3   5
ENDBRANCH   2   3
BRANCH   2  23
ATOM     23  N   UNL     1      -1.317   3.342   8.837  1.00  0.00    -0.332 N 
ATOM     24  C   UNL     1      -0.886   2.662  10.049  1.00  0.00     0.147 C 
BRANCH  23  25
ATOM     25  C   UNL     1      -0.226   3.662   7.876  1.00  0.00     0.174 C 
BRANCH  25  26
ATOM     26  C   UNL     1       0.688   2.451   7.577  1.00  0.00     0.038 C 
BRANCH  26  27
ATOM     27  C   UNL     1       0.256   1.516   6.426  1.00  0.00    -0.015 C 
ATOM     28  C   UNL     1      -0.539   2.248   5.345  1.00  0.00     0.007 C 
ATOM     29  C   UNL     1       1.416   0.739   5.806  1.00  0.00     0.007 C 
ENDBRANCH  26  27
ENDBRANCH  25  26
BRANCH  25  30
ATOM     30  C   UNL     1       0.542   4.920   8.344  1.00  0.00     0.243 C 
ATOM     31  O   UNL     1       1.634   4.844   8.905  1.00  0.00    -0.273 OA
ATOM     32  N   UNL     1      -0.077   6.119   8.097  1.00  0.00    -0.342 N 
ATOM     33  H   UNL     1      -0.910   6.108   7.503  1.00  0.00     0.164 HD
BRANCH  32  34
ATOM     34  C   UNL     1       0.491   7.410   8.493  1.00  0.00     0.175 C 
BRANCH  34  35
ATOM     35  C   UNL     1       1.237   8.075   7.327  1.00  0.00     0.070 C 
BRANCH  35  36
ATOM     36  C   UNL     1       2.731   8.138   7.548  1.00  0.00    -0.045 A 
ATOM     37  C   UNL     1       3.586   8.448   6.479  1.00  0.00     0.007 A 
ATOM     38  C   UNL     1       3.284   7.866   8.806  1.00  0.00     0.007 A 
ATOM     39  C   UNL     1       4.968   8.495   6.671  1.00  0.00     0.046 A 
ATOM     40  C   UNL     1       4.667   7.910   8.998  1.00  0.00     0.046 A 
ATOM     41  C   UNL     1       5.497   8.226   7.927  1.00  0.00     0.115 A 
BRANCH  41  42
ATOM     42  O   UNL     1       6.851   8.279   8.071  1.00  0.00    -0.508 OA
ATOM     43  H   UNL     1       7.203   7.378   7.977  1.00  0.00     0.293 HD
ENDBRANCH  41  42
ENDBRANCH  35  36
ENDBRANCH  34  35
BRANCH  34  44
ATOM     44  C   UNL     1      -0.660   8.296   9.023  1.00  0.00     0.243 C 
ATOM     45  O   UNL     1      -1.323   9.061   8.328  1.00  0.00    -0.273 OA
ATOM     46  N   UNL     1      -0.799   8.253  10.394  1.00  0.00    -0.341 N 
ATOM     47  H   UNL     1      -0.149   7.692  10.939  1.00  0.00     0.164 HD
BRANCH  46  48
ATOM     48  C   UNL     1      -1.776   9.058  11.130  1.00  0.00     0.196 C 
BRANCH  48  49
ATOM     49  C   UNL     1      -2.852   8.174  11.783  1.00  0.00     0.072 C 
BRANCH  49  50
ATOM     50  C   UNL     1      -3.959   7.800  10.823  1.00  0.00    -0.045 A 
ATOM     51  C   UNL     1      -4.442   8.748   9.910  1.00  0.00     0.007 A 
ATOM     52  C   UNL     1      -4.529   6.521  10.844  1.00  0.00     0.007 A 
ATOM     53  C   UNL     1      -5.472   8.419   9.029  1.00  0.00     0.046 A 
ATOM     54  C   UNL     1      -5.561   6.191   9.962  1.00  0.00     0.046 A 
ATOM     55  C   UNL     1      -6.023   7.144   9.061  1.00  0.00     0.115 A 
BRANCH  55  56
ATOM     56  O   UNL     1      -7.029   6.862   8.184  1.00  0.00    -0.508 OA
ATOM     57  H   UNL     1      -7.443   7.698   7.915  1.00  0.00     0.293 HD
ENDBRANCH  55  56
ENDBRANCH  49  50
ENDBRANCH  48  49
BRANCH  48  58
ATOM     58  C   UNL     1      -1.045   9.863  12.213  1.00  0.00     0.326 C 
ATOM     59  O   UNL     1      -1.470  10.181  13.312  1.00  0.00    -0.250 OA
BRANCH  58  60
ATOM     60  O   UNL     1       0.215  10.224  11.861  1.00  0.00    -0.480 OA
ATOM     61  H   UNL     1       0.524   9.465  11.320  1.00  0.00     0.296 HD
ENDBRANCH  58  60
ENDBRANCH  48  58
ENDBRANCH  46  48
ENDBRANCH  34  44
ENDBRANCH  32  34
ENDBRANCH  25  30
ENDBRANCH  23  25
ENDBRANCH   2  23
TORSDOF 28
ENDMDL
MODEL 16
REMARK VINA RESULT:    -6.524      9.546     15.153
REMARK INTER + INTRA:         -20.313
REMARK INTER:                 -16.331
REMARK INTRA:                  -3.982
REMARK UNBOUND:                -4.062
REMARK SMILES CCCCCCC[C@H](N)[C@H](O)C(=O)N[C@H](C)C(=O)N(C)[C@H](CC(C)C)C(=O)N[C@@H](Cc1ccc(O)cc1)C(=O)N[C@@H](Cc1ccc(O)cc1)C(=O)O
REMARK SMILES IDX 18 1 17 2 15 3 16 4 14 5 12 6 13 7 10 9 11 10 8 12 9 13 7 16
REMARK SMILES IDX 6 17 5 18 4 19 3 20 2 21 1 22 19 23 20 24 21 25 22 26 23 27
REMARK SMILES IDX 24 28 25 29 26 30 27 31 28 32 29 34 30 35 31 36 32 37 37 38
REMARK SMILES IDX 33 39 36 40 34 41 35 42 38 44 39 45 40 46 41 48 42 49 43 50
REMARK SMILES IDX 44 51 49 52 45 53 48 54 46 55 47 56 50 58 51 59 52 60
REMARK H PARENT 14 8 11 11 9 14 9 15 28 33 35 43 40 47 47 57 52 61
ROOT
ATOM      1  O   UNL     1       1.369   0.117  -4.312  1.00  0.00    -0.272 OA
ATOM      2  C   UNL     1       1.040  -0.941  -3.755  1.00  0.00     0.245 C 
ENDROOT
BRANCH   2   3
ATOM      3  C   UNL     1       1.756  -1.340  -2.441  1.00  0.00     0.168 C 
ATOM      4  C   UNL     1       3.212  -0.889  -2.458  1.00  0.00     0.041 C 
BRANCH   3   5
ATOM      5  N   UNL     1       1.075  -0.926  -1.224  1.00  0.00    -0.342 N 
ATOM      6  C   UNL     1       0.177  -1.748  -0.577  1.00  0.00     0.251 C 
ATOM      7  O   UNL     1      -0.146  -2.857  -0.991  1.00  0.00    -0.272 OA
ATOM      8  H   UNL     1       1.235  -0.014  -0.804  1.00  0.00     0.164 HD
BRANCH   6   9
ATOM      9  C   UNL     1      -0.309  -1.163   0.759  1.00  0.00     0.219 C 
BRANCH   9  10
ATOM     10  O   UNL     1      -1.701  -0.823   0.740  1.00  0.00    -0.382 OA
ATOM     11  H   UNL     1      -2.146  -1.656   1.007  1.00  0.00     0.211 HD
ENDBRANCH   9  10
BRANCH   9  12
ATOM     12  C   UNL     1       0.020  -2.067   1.976  1.00  0.00     0.089 C 
BRANCH  12  13
ATOM     13  N   UNL     1       1.229  -2.860   1.655  1.00  0.00    -0.325 NA
ATOM     14  H   UNL     1       2.012  -2.521   2.217  1.00  0.00     0.119 HD
ATOM     15  H   UNL     1       1.497  -2.677   0.685  1.00  0.00     0.119 HD
ENDBRANCH  12  13
BRANCH  12  16
ATOM     16  C   UNL     1       0.205  -1.341   3.330  1.00  0.00     0.022 C 
BRANCH  16  17
ATOM     17  C   UNL     1      -1.036  -0.968   4.153  1.00  0.00     0.002 C 
BRANCH  17  18
ATOM     18  C   UNL     1      -0.754  -0.144   5.407  1.00  0.00     0.000 C 
BRANCH  18  19
ATOM     19  C   UNL     1       0.308   0.947   5.212  1.00  0.00    -0.000 C 
BRANCH  19  20
ATOM     20  C   UNL     1      -0.211   2.384   5.313  1.00  0.00    -0.000 C 
BRANCH  20  21
ATOM     21  C   UNL     1      -1.409   2.524   6.256  1.00  0.00    -0.003 C 
ATOM     22  C   UNL     1      -1.056   3.354   7.481  1.00  0.00     0.004 C 
ENDBRANCH  20  21
ENDBRANCH  19  20
ENDBRANCH  18  19
ENDBRANCH  17  18
ENDBRANCH  16  17
ENDBRANCH  12  16
ENDBRANCH   9  12
ENDBRANCH   6   9
ENDBRANCH   3   5
ENDBRANCH   2   3
BRANCH   2  23
ATOM     23  N   UNL     1      -0.032  -1.680  -4.243  1.00  0.00    -0.332 N 
ATOM     24  C   UNL     1       0.070  -3.030  -4.777  1.00  0.00     0.147 C 
BRANCH  23  25
ATOM     25  C   UNL     1      -1.421  -1.156  -4.126  1.00  0.00     0.174 C 
BRANCH  25  26
ATOM     26  C   UNL     1      -2.413  -2.201  -3.565  1.00  0.00     0.038 C 
BRANCH  26  27
ATOM     27  C   UNL     1      -3.555  -1.671  -2.668  1.00  0.00    -0.015 C 
ATOM     28  C   UNL     1      -3.747  -2.514  -1.408  1.00  0.00     0.007 C 
ATOM     29  C   UNL     1      -3.410  -0.194  -2.310  1.00  0.00     0.007 C 
ENDBRANCH  26  27
ENDBRANCH  25  26
BRANCH  25  30
ATOM     30  C   UNL     1      -1.868  -0.531  -5.468  1.00  0.00     0.243 C 
ATOM     31  O   UNL     1      -2.589  -1.138  -6.259  1.00  0.00    -0.273 OA
ATOM     32  N   UNL     1      -1.405   0.735  -5.716  1.00  0.00    -0.342 N 
ATOM     33  H   UNL     1      -0.932   1.225  -4.952  1.00  0.00     0.164 HD
BRANCH  32  34
ATOM     34  C   UNL     1      -1.705   1.472  -6.947  1.00  0.00     0.175 C 
BRANCH  34  35
ATOM     35  C   UNL     1      -2.359   2.828  -6.642  1.00  0.00     0.070 C 
BRANCH  35  36
ATOM     36  C   UNL     1      -3.699   2.690  -5.955  1.00  0.00    -0.045 A 
ATOM     37  C   UNL     1      -4.779   2.107  -6.636  1.00  0.00     0.007 A 
ATOM     38  C   UNL     1      -3.890   3.158  -4.649  1.00  0.00     0.007 A 
ATOM     39  C   UNL     1      -6.023   1.987  -6.015  1.00  0.00     0.046 A 
ATOM     40  C   UNL     1      -5.135   3.040  -4.027  1.00  0.00     0.046 A 
ATOM     41  C   UNL     1      -6.191   2.454  -4.717  1.00  0.00     0.115 A 
BRANCH  41  42
ATOM     42  O   UNL     1      -7.424   2.321  -4.149  1.00  0.00    -0.508 OA
ATOM     43  H   UNL     1      -7.398   2.729  -3.268  1.00  0.00     0.293 HD
ENDBRANCH  41  42
ENDBRANCH  35  36
ENDBRANCH  34  35
BRANCH  34  44
ATOM     44  C   UNL     1      -0.390   1.631  -7.742  1.00  0.00     0.243 C 
ATOM     45  O   UNL     1       0.546   0.837  -7.702  1.00  0.00    -0.273 OA
ATOM     46  N   UNL     1      -0.298   2.830  -8.417  1.00  0.00    -0.341 N 
ATOM     47  H   UNL     1      -1.051   3.507  -8.325  1.00  0.00     0.164 HD
BRANCH  46  48
ATOM     48  C   UNL     1       0.882   3.235  -9.183  1.00  0.00     0.196 C 
BRANCH  48  49
ATOM     49  C   UNL     1       0.533   4.316 -10.220  1.00  0.00     0.072 C 
BRANCH  49  50
ATOM     50  C   UNL     1       0.986   3.952 -11.616  1.00  0.00    -0.045 A 
ATOM     51  C   UNL     1       2.339   3.678 -11.862  1.00  0.00     0.007 A 
ATOM     52  C   UNL     1       0.075   3.902 -12.679  1.00  0.00     0.007 A 
ATOM     53  C   UNL     1       2.771   3.354 -13.149  1.00  0.00     0.046 A 
ATOM     54  C   UNL     1       0.508   3.578 -13.967  1.00  0.00     0.046 A 
ATOM     55  C   UNL     1       1.853   3.306 -14.191  1.00  0.00     0.115 A 
BRANCH  55  56
ATOM     56  O   UNL     1       2.316   2.987 -15.433  1.00  0.00    -0.508 OA
ATOM     57  H   UNL     1       2.502   2.035 -15.455  1.00  0.00     0.293 HD
ENDBRANCH  55  56
ENDBRANCH  49  50
ENDBRANCH  48  49
BRANCH  48  58
ATOM     58  C   UNL     1       1.945   3.774  -8.216  1.00  0.00     0.326 C 
ATOM     59  O   UNL     1       1.944   4.852  -7.643  1.00  0.00    -0.250 OA
BRANCH  58  60
ATOM     60  O   UNL     1       2.969   2.911  -8.001  1.00  0.00    -0.480 OA
ATOM     61  H   UNL     1       3.458   3.321  -7.255  1.00  0.00     0.296 HD
ENDBRANCH  58  60
ENDBRANCH  48  58
ENDBRANCH  46  48
ENDBRANCH  34  44
ENDBRANCH  32  34
ENDBRANCH  25  30
ENDBRANCH  23  25
ENDBRANCH   2  23
TORSDOF 28
ENDMDL
MODEL 17
REMARK VINA RESULT:    -6.510     12.720     18.457
REMARK INTER + INTRA:         -20.276
REMARK INTER:                 -15.284
REMARK INTRA:                  -4.992
REMARK UNBOUND:                -4.062
REMARK SMILES CCCCCCC[C@H](N)[C@H](O)C(=O)N[C@H](C)C(=O)N(C)[C@H](CC(C)C)C(=O)N[C@@H](Cc1ccc(O)cc1)C(=O)N[C@@H](Cc1ccc(O)cc1)C(=O)O
REMARK SMILES IDX 18 1 17 2 15 3 16 4 14 5 12 6 13 7 10 9 11 10 8 12 9 13 7 16
REMARK SMILES IDX 6 17 5 18 4 19 3 20 2 21 1 22 19 23 20 24 21 25 22 26 23 27
REMARK SMILES IDX 24 28 25 29 26 30 27 31 28 32 29 34 30 35 31 36 32 37 37 38
REMARK SMILES IDX 33 39 36 40 34 41 35 42 38 44 39 45 40 46 41 48 42 49 43 50
REMARK SMILES IDX 44 51 49 52 45 53 48 54 46 55 47 56 50 58 51 59 52 60
REMARK H PARENT 14 8 11 11 9 14 9 15 28 33 35 43 40 47 47 57 52 61
ROOT
ATOM      1  O   UNL     1       3.864  -5.223  -5.957  1.00  0.00    -0.272 OA
ATOM      2  C   UNL     1       2.992  -5.429  -6.813  1.00  0.00     0.245 C 
ENDROOT
BRANCH   2   3
ATOM      3  C   UNL     1       1.543  -5.713  -6.342  1.00  0.00     0.168 C 
ATOM      4  C   UNL     1       1.297  -7.214  -6.226  1.00  0.00     0.041 C 
BRANCH   3   5
ATOM      5  N   UNL     1       1.142  -5.003  -5.138  1.00  0.00    -0.342 N 
ATOM      6  C   UNL     1       0.747  -3.682  -5.169  1.00  0.00     0.251 C 
ATOM      7  O   UNL     1       0.743  -3.002  -6.190  1.00  0.00    -0.272 OA
ATOM      8  H   UNL     1       1.138  -5.454  -4.226  1.00  0.00     0.164 HD
BRANCH   6   9
ATOM      9  C   UNL     1       0.232  -3.183  -3.810  1.00  0.00     0.219 C 
BRANCH   9  10
ATOM     10  O   UNL     1       0.271  -4.197  -2.798  1.00  0.00    -0.382 OA
ATOM     11  H   UNL     1       0.231  -3.688  -1.959  1.00  0.00     0.211 HD
ENDBRANCH   9  10
BRANCH   9  12
ATOM     12  C   UNL     1       0.945  -1.894  -3.324  1.00  0.00     0.089 C 
BRANCH  12  13
ATOM     13  N   UNL     1      -0.082  -0.854  -3.086  1.00  0.00    -0.325 NA
ATOM     14  H   UNL     1      -0.918  -1.077  -3.629  1.00  0.00     0.119 HD
ATOM     15  H   UNL     1       0.253   0.035  -3.466  1.00  0.00     0.119 HD
ENDBRANCH  12  13
BRANCH  12  16
ATOM     16  C   UNL     1       1.847  -2.047  -2.076  1.00  0.00     0.022 C 
BRANCH  16  17
ATOM     17  C   UNL     1       3.274  -1.482  -2.112  1.00  0.00     0.002 C 
BRANCH  17  18
ATOM     18  C   UNL     1       3.374  -0.007  -2.495  1.00  0.00     0.000 C 
BRANCH  18  19
ATOM     19  C   UNL     1       4.772   0.595  -2.300  1.00  0.00    -0.000 C 
BRANCH  19  20
ATOM     20  C   UNL     1       4.944   2.023  -2.827  1.00  0.00    -0.000 C 
BRANCH  20  21
ATOM     21  C   UNL     1       5.456   2.072  -4.268  1.00  0.00    -0.003 C 
ATOM     22  C   UNL     1       4.482   2.805  -5.178  1.00  0.00     0.004 C 
ENDBRANCH  20  21
ENDBRANCH  19  20
ENDBRANCH  18  19
ENDBRANCH  17  18
ENDBRANCH  16  17
ENDBRANCH  12  16
ENDBRANCH   9  12
ENDBRANCH   6   9
ENDBRANCH   3   5
ENDBRANCH   2   3
BRANCH   2  23
ATOM     23  N   UNL     1       3.294  -5.283  -8.163  1.00  0.00    -0.332 N 
ATOM     24  C   UNL     1       4.599  -4.900  -8.681  1.00  0.00     0.147 C 
BRANCH  23  25
ATOM     25  C   UNL     1       2.291  -5.648  -9.201  1.00  0.00     0.174 C 
BRANCH  25  26
ATOM     26  C   UNL     1       2.770  -6.792 -10.126  1.00  0.00     0.038 C 
BRANCH  26  27
ATOM     27  C   UNL     1       1.678  -7.676 -10.769  1.00  0.00    -0.015 C 
ATOM     28  C   UNL     1       1.852  -7.811 -12.281  1.00  0.00     0.007 C 
ATOM     29  C   UNL     1       1.548  -9.050 -10.118  1.00  0.00     0.007 C 
ENDBRANCH  26  27
ENDBRANCH  25  26
BRANCH  25  30
ATOM     30  C   UNL     1       1.829  -4.385  -9.963  1.00  0.00     0.243 C 
ATOM     31  O   UNL     1       2.187  -4.155 -11.117  1.00  0.00    -0.273 OA
ATOM     32  N   UNL     1       1.004  -3.540  -9.266  1.00  0.00    -0.342 N 
ATOM     33  H   UNL     1       0.639  -3.868  -8.368  1.00  0.00     0.164 HD
BRANCH  32  34
ATOM     34  C   UNL     1       0.492  -2.283  -9.819  1.00  0.00     0.175 C 
BRANCH  34  35
ATOM     35  C   UNL     1      -1.024  -2.153  -9.600  1.00  0.00     0.070 C 
BRANCH  35  36
ATOM     36  C   UNL     1      -1.825  -3.068 -10.499  1.00  0.00    -0.045 A 
ATOM     37  C   UNL     1      -2.554  -4.132  -9.947  1.00  0.00     0.007 A 
ATOM     38  C   UNL     1      -1.834  -2.883 -11.888  1.00  0.00     0.007 A 
ATOM     39  C   UNL     1      -3.285  -4.989 -10.770  1.00  0.00     0.046 A 
ATOM     40  C   UNL     1      -2.565  -3.741 -12.712  1.00  0.00     0.046 A 
ATOM     41  C   UNL     1      -3.285  -4.787 -12.145  1.00  0.00     0.115 A 
BRANCH  41  42
ATOM     42  O   UNL     1      -4.010  -5.649 -12.914  1.00  0.00    -0.508 OA
ATOM     43  H   UNL     1      -4.450  -6.285 -12.326  1.00  0.00     0.293 HD
ENDBRANCH  41  42
ENDBRANCH  35  36
ENDBRANCH  34  35
BRANCH  34  44
ATOM     44  C   UNL     1       1.271  -1.120  -9.165  1.00  0.00     0.243 C 
ATOM     45  O   UNL     1       2.495  -1.021  -9.159  1.00  0.00    -0.273 OA
ATOM     46  N   UNL     1       0.468  -0.247  -8.462  1.00  0.00    -0.341 N 
ATOM     47  H   UNL     1      -0.530  -0.436  -8.399  1.00  0.00     0.164 HD
BRANCH  46  48
ATOM     48  C   UNL     1       0.987   0.893  -7.704  1.00  0.00     0.196 C 
BRANCH  48  49
ATOM     49  C   UNL     1       0.407   2.220  -8.221  1.00  0.00     0.072 C 
BRANCH  49  50
ATOM     50  C   UNL     1       1.341   2.931  -9.174  1.00  0.00    -0.045 A 
ATOM     51  C   UNL     1       0.870   4.007  -9.941  1.00  0.00     0.007 A 
ATOM     52  C   UNL     1       2.671   2.519  -9.321  1.00  0.00     0.007 A 
ATOM     53  C   UNL     1       1.719   4.663 -10.833  1.00  0.00     0.046 A 
ATOM     54  C   UNL     1       3.521   3.175 -10.215  1.00  0.00     0.046 A 
ATOM     55  C   UNL     1       3.037   4.242 -10.963  1.00  0.00     0.115 A 
BRANCH  55  56
ATOM     56  O   UNL     1       3.834   4.908 -11.847  1.00  0.00    -0.508 OA
ATOM     57  H   UNL     1       3.645   4.575 -12.739  1.00  0.00     0.293 HD
ENDBRANCH  55  56
ENDBRANCH  49  50
ENDBRANCH  48  49
BRANCH  48  58
ATOM     58  C   UNL     1       0.624   0.715  -6.223  1.00  0.00     0.326 C 
ATOM     59  O   UNL     1       1.152   1.252  -5.263  1.00  0.00    -0.250 OA
BRANCH  58  60
ATOM     60  O   UNL     1      -0.415  -0.134  -6.019  1.00  0.00    -0.480 OA
ATOM     61  H   UNL     1      -0.202  -0.548  -5.155  1.00  0.00     0.296 HD
ENDBRANCH  58  60
ENDBRANCH  48  58
ENDBRANCH  46  48
ENDBRANCH  34  44
ENDBRANCH  32  34
ENDBRANCH  25  30
ENDBRANCH  23  25
ENDBRANCH   2  23
TORSDOF 28
ENDMDL
MODEL 18
REMARK VINA RESULT:    -6.487      3.864      8.444
REMARK INTER + INTRA:         -20.219
REMARK INTER:                 -13.975
REMARK INTRA:                  -6.244
REMARK UNBOUND:                -4.062
REMARK SMILES CCCCCCC[C@H](N)[C@H](O)C(=O)N[C@H](C)C(=O)N(C)[C@H](CC(C)C)C(=O)N[C@@H](Cc1ccc(O)cc1)C(=O)N[C@@H](Cc1ccc(O)cc1)C(=O)O
REMARK SMILES IDX 18 1 17 2 15 3 16 4 14 5 12 6 13 7 10 9 11 10 8 12 9 13 7 16
REMARK SMILES IDX 6 17 5 18 4 19 3 20 2 21 1 22 19 23 20 24 21 25 22 26 23 27
REMARK SMILES IDX 24 28 25 29 26 30 27 31 28 32 29 34 30 35 31 36 32 37 37 38
REMARK SMILES IDX 33 39 36 40 34 41 35 42 38 44 39 45 40 46 41 48 42 49 43 50
REMARK SMILES IDX 44 51 49 52 45 53 48 54 46 55 47 56 50 58 51 59 52 60
REMARK H PARENT 14 8 11 11 9 14 9 15 28 33 35 43 40 47 47 57 52 61
ROOT
ATOM      1  O   UNL     1      -3.761  12.096  10.943  1.00  0.00    -0.272 OA
ATOM      2  C   UNL     1      -3.434  11.531   9.889  1.00  0.00     0.245 C 
ENDROOT
BRANCH   2   3
ATOM      3  C   UNL     1      -4.476  10.637   9.173  1.00  0.00     0.168 C 
ATOM      4  C   UNL     1      -4.274  10.672   7.662  1.00  0.00     0.041 C 
BRANCH   3   5
ATOM      5  N   UNL     1      -4.562   9.275   9.677  1.00  0.00    -0.342 N 
ATOM      6  C   UNL     1      -5.681   8.811  10.334  1.00  0.00     0.251 C 
ATOM      7  O   UNL     1      -6.660   9.509  10.580  1.00  0.00    -0.272 OA
ATOM      8  H   UNL     1      -3.798   8.613   9.564  1.00  0.00     0.164 HD
BRANCH   6   9
ATOM      9  C   UNL     1      -5.606   7.308  10.649  1.00  0.00     0.219 C 
BRANCH   9  10
ATOM     10  O   UNL     1      -6.276   6.964  11.867  1.00  0.00    -0.382 OA
ATOM     11  H   UNL     1      -6.547   6.030  11.726  1.00  0.00     0.211 HD
ENDBRANCH   9  10
BRANCH   9  12
ATOM     12  C   UNL     1      -6.097   6.416   9.479  1.00  0.00     0.089 C 
BRANCH  12  13
ATOM     13  N   UNL     1      -6.675   7.292   8.434  1.00  0.00    -0.325 NA
ATOM     14  H   UNL     1      -6.854   8.216   8.831  1.00  0.00     0.119 HD
ATOM     15  H   UNL     1      -7.595   6.931   8.171  1.00  0.00     0.119 HD
ENDBRANCH  12  13
BRANCH  12  16
ATOM     16  C   UNL     1      -5.041   5.471   8.857  1.00  0.00     0.022 C 
BRANCH  16  17
ATOM     17  C   UNL     1      -5.402   3.998   8.621  1.00  0.00     0.002 C 
BRANCH  17  18
ATOM     18  C   UNL     1      -5.907   3.676   7.216  1.00  0.00     0.000 C 
BRANCH  18  19
ATOM     19  C   UNL     1      -5.560   2.259   6.738  1.00  0.00    -0.000 C 
BRANCH  19  20
ATOM     20  C   UNL     1      -4.090   1.861   6.895  1.00  0.00    -0.000 C 
BRANCH  20  21
ATOM     21  C   UNL     1      -3.131   2.810   6.171  1.00  0.00    -0.003 C 
ATOM     22  C   UNL     1      -1.725   2.719   6.741  1.00  0.00     0.004 C 
ENDBRANCH  20  21
ENDBRANCH  19  20
ENDBRANCH  18  19
ENDBRANCH  17  18
ENDBRANCH  16  17
ENDBRANCH  12  16
ENDBRANCH   9  12
ENDBRANCH   6   9
ENDBRANCH   3   5
ENDBRANCH   2   3
BRANCH   2  23
ATOM     23  N   UNL     1      -2.199  11.802   9.309  1.00  0.00    -0.332 N 
ATOM     24  C   UNL     1      -1.945  12.887   8.374  1.00  0.00     0.147 C 
BRANCH  23  25
ATOM     25  C   UNL     1      -0.990  11.041   9.728  1.00  0.00     0.174 C 
BRANCH  25  26
ATOM     26  C   UNL     1       0.287  11.913   9.769  1.00  0.00     0.038 C 
BRANCH  26  27
ATOM     27  C   UNL     1       1.516  11.392   8.992  1.00  0.00    -0.015 C 
ATOM     28  C   UNL     1       1.650  12.035   7.611  1.00  0.00     0.007 C 
ATOM     29  C   UNL     1       2.824  11.515   9.770  1.00  0.00     0.007 C 
ENDBRANCH  26  27
ENDBRANCH  25  26
BRANCH  25  30
ATOM     30  C   UNL     1      -0.842   9.763   8.871  1.00  0.00     0.243 C 
ATOM     31  O   UNL     1      -1.114   9.750   7.671  1.00  0.00    -0.273 OA
ATOM     32  N   UNL     1      -0.395   8.650   9.536  1.00  0.00    -0.342 N 
ATOM     33  H   UNL     1      -0.057   8.775  10.494  1.00  0.00     0.164 HD
BRANCH  32  34
ATOM     34  C   UNL     1      -0.221   7.346   8.891  1.00  0.00     0.175 C 
BRANCH  34  35
ATOM     35  C   UNL     1       1.231   6.858   9.000  1.00  0.00     0.070 C 
BRANCH  35  36
ATOM     36  C   UNL     1       2.184   7.664   8.145  1.00  0.00    -0.045 A 
ATOM     37  C   UNL     1       3.465   7.976   8.626  1.00  0.00     0.007 A 
ATOM     38  C   UNL     1       1.799   8.127   6.881  1.00  0.00     0.007 A 
ATOM     39  C   UNL     1       4.346   8.730   7.851  1.00  0.00     0.046 A 
ATOM     40  C   UNL     1       2.681   8.884   6.104  1.00  0.00     0.046 A 
ATOM     41  C   UNL     1       3.948   9.177   6.597  1.00  0.00     0.115 A 
BRANCH  41  42
ATOM     42  O   UNL     1       4.838   9.914   5.873  1.00  0.00    -0.508 OA
ATOM     43  H   UNL     1       4.711  10.851   6.096  1.00  0.00     0.293 HD
ENDBRANCH  41  42
ENDBRANCH  35  36
ENDBRANCH  34  35
BRANCH  34  44
ATOM     44  C   UNL     1      -1.213   6.355   9.540  1.00  0.00     0.243 C 
ATOM     45  O   UNL     1      -1.823   5.483   8.927  1.00  0.00    -0.273 OA
ATOM     46  N   UNL     1      -1.461   6.618  10.870  1.00  0.00    -0.341 N 
ATOM     47  H   UNL     1      -1.020   7.425  11.305  1.00  0.00     0.164 HD
BRANCH  46  48
ATOM     48  C   UNL     1      -2.416   5.857  11.678  1.00  0.00     0.196 C 
BRANCH  48  49
ATOM     49  C   UNL     1      -1.788   4.558  12.211  1.00  0.00     0.072 C 
BRANCH  49  50
ATOM     50  C   UNL     1      -2.439   3.319  11.637  1.00  0.00    -0.045 A 
ATOM     51  C   UNL     1      -1.740   2.526  10.716  1.00  0.00     0.007 A 
ATOM     52  C   UNL     1      -3.744   2.958  11.996  1.00  0.00     0.007 A 
ATOM     53  C   UNL     1      -2.335   1.388  10.170  1.00  0.00     0.046 A 
ATOM     54  C   UNL     1      -4.340   1.820  11.448  1.00  0.00     0.046 A 
ATOM     55  C   UNL     1      -3.629   1.044  10.540  1.00  0.00     0.115 A 
BRANCH  55  56
ATOM     56  O   UNL     1      -4.175  -0.074   9.982  1.00  0.00    -0.508 OA
ATOM     57  H   UNL     1      -4.585  -0.599  10.687  1.00  0.00     0.293 HD
ENDBRANCH  55  56
ENDBRANCH  49  50
ENDBRANCH  48  49
BRANCH  48  58
ATOM     58  C   UNL     1      -2.878   6.726  12.856  1.00  0.00     0.326 C 
ATOM     59  O   UNL     1      -2.458   7.827  13.171  1.00  0.00    -0.250 OA
BRANCH  58  60
ATOM     60  O   UNL     1      -3.875   6.163  13.586  1.00  0.00    -0.480 OA
ATOM     61  H   UNL     1      -4.114   6.870  14.224  1.00  0.00     0.296 HD
ENDBRANCH  58  60
ENDBRANCH  48  58
ENDBRANCH  46  48
ENDBRANCH  34  44
ENDBRANCH  32  34
ENDBRANCH  25  30
ENDBRANCH  23  25
ENDBRANCH   2  23
TORSDOF 28
ENDMDL
MODEL 19
REMARK VINA RESULT:    -6.468      8.922     13.993
REMARK INTER + INTRA:         -20.173
REMARK INTER:                 -16.484
REMARK INTRA:                  -3.689
REMARK UNBOUND:                -4.062
REMARK SMILES CCCCCCC[C@H](N)[C@H](O)C(=O)N[C@H](C)C(=O)N(C)[C@H](CC(C)C)C(=O)N[C@@H](Cc1ccc(O)cc1)C(=O)N[C@@H](Cc1ccc(O)cc1)C(=O)O
REMARK SMILES IDX 18 1 17 2 15 3 16 4 14 5 12 6 13 7 10 9 11 10 8 12 9 13 7 16
REMARK SMILES IDX 6 17 5 18 4 19 3 20 2 21 1 22 19 23 20 24 21 25 22 26 23 27
REMARK SMILES IDX 24 28 25 29 26 30 27 31 28 32 29 34 30 35 31 36 32 37 37 38
REMARK SMILES IDX 33 39 36 40 34 41 35 42 38 44 39 45 40 46 41 48 42 49 43 50
REMARK SMILES IDX 44 51 49 52 45 53 48 54 46 55 47 56 50 58 51 59 52 60
REMARK H PARENT 14 8 11 11 9 14 9 15 28 33 35 43 40 47 47 57 52 61
ROOT
ATOM      1  O   UNL     1     -12.029  11.149  13.491  1.00  0.00    -0.272 OA
ATOM      2  C   UNL     1     -11.547  11.126  12.349  1.00  0.00     0.245 C 
ENDROOT
BRANCH   2   3
ATOM      3  C   UNL     1     -12.166  10.167  11.302  1.00  0.00     0.168 C 
ATOM      4  C   UNL     1     -13.119   9.181  11.968  1.00  0.00     0.041 C 
BRANCH   3   5
ATOM      5  N   UNL     1     -12.778  10.824  10.158  1.00  0.00    -0.342 N 
ATOM      6  C   UNL     1     -13.123  10.129   9.018  1.00  0.00     0.251 C 
ATOM      7  O   UNL     1     -12.907   8.932   8.865  1.00  0.00    -0.272 OA
ATOM      8  H   UNL     1     -12.974  11.822  10.155  1.00  0.00     0.164 HD
BRANCH   6   9
ATOM      9  C   UNL     1     -13.882  10.996   8.001  1.00  0.00     0.219 C 
BRANCH   9  10
ATOM     10  O   UNL     1     -15.017  10.324   7.441  1.00  0.00    -0.382 OA
ATOM     11  H   UNL     1     -15.744  10.537   8.066  1.00  0.00     0.211 HD
ENDBRANCH   9  10
BRANCH   9  12
ATOM     12  C   UNL     1     -14.286  12.383   8.564  1.00  0.00     0.089 C 
BRANCH  12  13
ATOM     13  N   UNL     1     -13.157  13.319   8.357  1.00  0.00    -0.325 NA
ATOM     14  H   UNL     1     -12.705  13.107   7.465  1.00  0.00     0.119 HD
ATOM     15  H   UNL     1     -12.444  13.139   9.067  1.00  0.00     0.119 HD
ENDBRANCH  12  13
BRANCH  12  16
ATOM     16  C   UNL     1     -15.592  12.991   7.997  1.00  0.00     0.022 C 
BRANCH  16  17
ATOM     17  C   UNL     1     -15.862  14.490   8.187  1.00  0.00     0.002 C 
BRANCH  17  18
ATOM     18  C   UNL     1     -16.463  14.871   9.538  1.00  0.00     0.000 C 
BRANCH  18  19
ATOM     19  C   UNL     1     -17.961  14.562   9.664  1.00  0.00    -0.000 C 
BRANCH  19  20
ATOM     20  C   UNL     1     -18.851  15.217   8.603  1.00  0.00    -0.000 C 
BRANCH  20  21
ATOM     21  C   UNL     1     -18.849  16.746   8.680  1.00  0.00    -0.003 C 
ATOM     22  C   UNL     1     -18.866  17.370   7.293  1.00  0.00     0.004 C 
ENDBRANCH  20  21
ENDBRANCH  19  20
ENDBRANCH  18  19
ENDBRANCH  17  18
ENDBRANCH  16  17
ENDBRANCH  12  16
ENDBRANCH   9  12
ENDBRANCH   6   9
ENDBRANCH   3   5
ENDBRANCH   2   3
BRANCH   2  23
ATOM     23  N   UNL     1     -10.555  12.035  11.995  1.00  0.00    -0.332 N 
ATOM     24  C   UNL     1     -10.701  13.481  12.052  1.00  0.00     0.147 C 
BRANCH  23  25
ATOM     25  C   UNL     1      -9.189  11.556  11.644  1.00  0.00     0.174 C 
BRANCH  25  26
ATOM     26  C   UNL     1      -8.100  12.086  12.605  1.00  0.00     0.038 C 
BRANCH  26  27
ATOM     27  C   UNL     1      -7.357  11.040  13.467  1.00  0.00    -0.015 C 
ATOM     28  C   UNL     1      -8.313  10.177  14.290  1.00  0.00     0.007 C 
ATOM     29  C   UNL     1      -6.398  10.164  12.665  1.00  0.00     0.007 C 
ENDBRANCH  26  27
ENDBRANCH  25  26
BRANCH  25  30
ATOM     30  C   UNL     1      -8.894  11.840  10.153  1.00  0.00     0.243 C 
ATOM     31  O   UNL     1      -9.758  11.723   9.286  1.00  0.00    -0.273 OA
ATOM     32  N   UNL     1      -7.609  12.221   9.865  1.00  0.00    -0.342 N 
ATOM     33  H   UNL     1      -6.990  12.432  10.652  1.00  0.00     0.164 HD
BRANCH  32  34
ATOM     34  C   UNL     1      -7.142  12.503   8.505  1.00  0.00     0.175 C 
BRANCH  34  35
ATOM     35  C   UNL     1      -6.384  13.838   8.440  1.00  0.00     0.070 C 
BRANCH  35  36
ATOM     36  C   UNL     1      -6.906  14.756   7.358  1.00  0.00    -0.045 A 
ATOM     37  C   UNL     1      -6.956  16.141   7.577  1.00  0.00     0.007 A 
ATOM     38  C   UNL     1      -7.367  14.241   6.140  1.00  0.00     0.007 A 
ATOM     39  C   UNL     1      -7.450  16.995   6.590  1.00  0.00     0.046 A 
ATOM     40  C   UNL     1      -7.863  15.095   5.151  1.00  0.00     0.046 A 
ATOM     41  C   UNL     1      -7.898  16.466   5.386  1.00  0.00     0.115 A 
BRANCH  41  42
ATOM     42  O   UNL     1      -8.376  17.334   4.449  1.00  0.00    -0.508 OA
ATOM     43  H   UNL     1      -8.856  18.043   4.908  1.00  0.00     0.293 HD
ENDBRANCH  41  42
ENDBRANCH  35  36
ENDBRANCH  34  35
BRANCH  34  44
ATOM     44  C   UNL     1      -6.264  11.318   8.044  1.00  0.00     0.243 C 
ATOM     45  O   UNL     1      -6.055  11.025   6.870  1.00  0.00    -0.273 OA
ATOM     46  N   UNL     1      -5.831  10.520   9.082  1.00  0.00    -0.341 N 
ATOM     47  H   UNL     1      -6.128  10.738  10.030  1.00  0.00     0.164 HD
BRANCH  46  48
ATOM     48  C   UNL     1      -5.042   9.301   8.886  1.00  0.00     0.196 C 
BRANCH  48  49
ATOM     49  C   UNL     1      -3.773   9.310   9.755  1.00  0.00     0.072 C 
BRANCH  49  50
ATOM     50  C   UNL     1      -2.738  10.296   9.263  1.00  0.00    -0.045 A 
ATOM     51  C   UNL     1      -1.627   9.839   8.539  1.00  0.00     0.007 A 
ATOM     52  C   UNL     1      -2.858  11.664   9.536  1.00  0.00     0.007 A 
ATOM     53  C   UNL     1      -0.658  10.737   8.091  1.00  0.00     0.046 A 
ATOM     54  C   UNL     1      -1.888  12.563   9.089  1.00  0.00     0.046 A 
ATOM     55  C   UNL     1      -0.796  12.092   8.368  1.00  0.00     0.115 A 
BRANCH  55  56
ATOM     56  O   UNL     1       0.174  12.937   7.915  1.00  0.00    -0.508 OA
ATOM     57  H   UNL     1       0.377  12.703   6.995  1.00  0.00     0.293 HD
ENDBRANCH  55  56
ENDBRANCH  49  50
ENDBRANCH  48  49
BRANCH  48  58
ATOM     58  C   UNL     1      -5.906   8.085   9.248  1.00  0.00     0.326 C 
ATOM     59  O   UNL     1      -5.736   7.306  10.172  1.00  0.00    -0.250 OA
BRANCH  58  60
ATOM     60  O   UNL     1      -6.970   7.912   8.423  1.00  0.00    -0.480 OA
ATOM     61  H   UNL     1      -7.711   7.742   9.044  1.00  0.00     0.296 HD
ENDBRANCH  58  60
ENDBRANCH  48  58
ENDBRANCH  46  48
ENDBRANCH  34  44
ENDBRANCH  32  34
ENDBRANCH  25  30
ENDBRANCH  23  25
ENDBRANCH   2  23
TORSDOF 28
ENDMDL
MODEL 20
REMARK VINA RESULT:    -6.455     11.866     17.259
REMARK INTER + INTRA:         -20.141
REMARK INTER:                 -14.590
REMARK INTRA:                  -5.551
REMARK UNBOUND:                -4.062
REMARK SMILES CCCCCCC[C@H](N)[C@H](O)C(=O)N[C@H](C)C(=O)N(C)[C@H](CC(C)C)C(=O)N[C@@H](Cc1ccc(O)cc1)C(=O)N[C@@H](Cc1ccc(O)cc1)C(=O)O
REMARK SMILES IDX 18 1 17 2 15 3 16 4 14 5 12 6 13 7 10 9 11 10 8 12 9 13 7 16
REMARK SMILES IDX 6 17 5 18 4 19 3 20 2 21 1 22 19 23 20 24 21 25 22 26 23 27
REMARK SMILES IDX 24 28 25 29 26 30 27 31 28 32 29 34 30 35 31 36 32 37 37 38
REMARK SMILES IDX 33 39 36 40 34 41 35 42 38 44 39 45 40 46 41 48 42 49 43 50
REMARK SMILES IDX 44 51 49 52 45 53 48 54 46 55 47 56 50 58 51 59 52 60
REMARK H PARENT 14 8 11 11 9 14 9 15 28 33 35 43 40 47 47 57 52 61
ROOT
ATOM      1  O   UNL     1      -1.631  -0.926  -7.944  1.00  0.00    -0.272 OA
ATOM      2  C   UNL     1      -1.378  -1.786  -7.088  1.00  0.00     0.245 C 
ENDROOT
BRANCH   2   3
ATOM      3  C   UNL     1      -1.177  -1.334  -5.620  1.00  0.00     0.168 C 
ATOM      4  C   UNL     1      -2.508  -1.294  -4.878  1.00  0.00     0.041 C 
BRANCH   3   5
ATOM      5  N   UNL     1      -0.168  -2.080  -4.884  1.00  0.00    -0.342 N 
ATOM      6  C   UNL     1       0.635  -1.480  -3.937  1.00  0.00     0.251 C 
ATOM      7  O   UNL     1       0.592  -0.282  -3.675  1.00  0.00    -0.272 OA
ATOM      8  H   UNL     1      -0.015  -3.073  -5.040  1.00  0.00     0.164 HD
BRANCH   6   9
ATOM      9  C   UNL     1       1.524  -2.485  -3.188  1.00  0.00     0.219 C 
BRANCH   9  10
ATOM     10  O   UNL     1       2.716  -2.815  -3.912  1.00  0.00    -0.382 OA
ATOM     11  H   UNL     1       2.571  -3.748  -4.182  1.00  0.00     0.211 HD
ENDBRANCH   9  10
BRANCH   9  12
ATOM     12  C   UNL     1       1.864  -2.038  -1.742  1.00  0.00     0.089 C 
BRANCH  12  13
ATOM     13  N   UNL     1       2.664  -0.794  -1.813  1.00  0.00    -0.325 NA
ATOM     14  H   UNL     1       3.655  -1.025  -1.715  1.00  0.00     0.119 HD
ATOM     15  H   UNL     1       2.444  -0.212  -1.002  1.00  0.00     0.119 HD
ENDBRANCH  12  13
BRANCH  12  16
ATOM     16  C   UNL     1       0.659  -1.841  -0.792  1.00  0.00     0.022 C 
BRANCH  16  17
ATOM     17  C   UNL     1       0.194  -3.017   0.078  1.00  0.00     0.002 C 
BRANCH  17  18
ATOM     18  C   UNL     1      -0.379  -4.204  -0.694  1.00  0.00     0.000 C 
BRANCH  18  19
ATOM     19  C   UNL     1      -1.539  -3.839  -1.630  1.00  0.00    -0.000 C 
BRANCH  19  20
ATOM     20  C   UNL     1      -2.757  -3.216  -0.943  1.00  0.00    -0.000 C 
BRANCH  20  21
ATOM     21  C   UNL     1      -3.884  -4.222  -0.693  1.00  0.00    -0.003 C 
ATOM     22  C   UNL     1      -4.890  -3.689   0.315  1.00  0.00     0.004 C 
ENDBRANCH  20  21
ENDBRANCH  19  20
ENDBRANCH  18  19
ENDBRANCH  17  18
ENDBRANCH  16  17
ENDBRANCH  12  16
ENDBRANCH   9  12
ENDBRANCH   6   9
ENDBRANCH   3   5
ENDBRANCH   2   3
BRANCH   2  23
ATOM     23  N   UNL     1      -1.401  -3.134  -7.429  1.00  0.00    -0.332 N 
ATOM     24  C   UNL     1      -2.457  -4.063  -7.056  1.00  0.00     0.147 C 
BRANCH  23  25
ATOM     25  C   UNL     1      -0.365  -3.696  -8.339  1.00  0.00     0.174 C 
BRANCH  25  26
ATOM     26  C   UNL     1      -0.578  -5.199  -8.639  1.00  0.00     0.038 C 
BRANCH  26  27
ATOM     27  C   UNL     1       0.672  -6.020  -9.025  1.00  0.00    -0.015 C 
ATOM     28  C   UNL     1       0.880  -7.231  -8.117  1.00  0.00     0.007 C 
ATOM     29  C   UNL     1       0.693  -6.440 -10.493  1.00  0.00     0.007 C 
ENDBRANCH  26  27
ENDBRANCH  25  26
BRANCH  25  30
ATOM     30  C   UNL     1       1.048  -3.363  -7.807  1.00  0.00     0.243 C 
ATOM     31  O   UNL     1       1.430  -3.736  -6.698  1.00  0.00    -0.273 OA
ATOM     32  N   UNL     1       1.839  -2.623  -8.647  1.00  0.00    -0.342 N 
ATOM     33  H   UNL     1       1.505  -2.474  -9.603  1.00  0.00     0.164 HD
BRANCH  32  34
ATOM     34  C   UNL     1       3.196  -2.192  -8.299  1.00  0.00     0.175 C 
BRANCH  34  35
ATOM     35  C   UNL     1       4.235  -2.783  -9.265  1.00  0.00     0.070 C 
BRANCH  35  36
ATOM     36  C   UNL     1       4.334  -4.288  -9.168  1.00  0.00    -0.045 A 
ATOM     37  C   UNL     1       4.509  -4.902  -7.919  1.00  0.00     0.007 A 
ATOM     38  C   UNL     1       4.276  -5.088 -10.318  1.00  0.00     0.007 A 
ATOM     39  C   UNL     1       4.615  -6.289  -7.821  1.00  0.00     0.046 A 
ATOM     40  C   UNL     1       4.384  -6.477 -10.221  1.00  0.00     0.046 A 
ATOM     41  C   UNL     1       4.551  -7.066  -8.972  1.00  0.00     0.115 A 
BRANCH  41  42
ATOM     42  O   UNL     1       4.662  -8.417  -8.834  1.00  0.00    -0.508 OA
ATOM     43  H   UNL     1       3.792  -8.771  -8.584  1.00  0.00     0.293 HD
ENDBRANCH  41  42
ENDBRANCH  35  36
ENDBRANCH  34  35
BRANCH  34  44
ATOM     44  C   UNL     1       3.221  -0.647  -8.297  1.00  0.00     0.243 C 
ATOM     45  O   UNL     1       4.219   0.030  -8.528  1.00  0.00    -0.273 OA
ATOM     46  N   UNL     1       2.037  -0.079  -7.879  1.00  0.00    -0.341 N 
ATOM     47  H   UNL     1       1.275  -0.686  -7.586  1.00  0.00     0.164 HD
BRANCH  46  48
ATOM     48  C   UNL     1       1.844   1.365  -7.730  1.00  0.00     0.196 C 
BRANCH  48  49
ATOM     49  C   UNL     1       0.770   1.889  -8.699  1.00  0.00     0.072 C 
BRANCH  49  50
ATOM     50  C   UNL     1       1.361   2.485  -9.956  1.00  0.00    -0.045 A 
ATOM     51  C   UNL     1       1.793   1.644 -10.992  1.00  0.00     0.007 A 
ATOM     52  C   UNL     1       1.506   3.871 -10.098  1.00  0.00     0.007 A 
ATOM     53  C   UNL     1       2.352   2.181 -12.151  1.00  0.00     0.046 A 
ATOM     54  C   UNL     1       2.067   4.409 -11.258  1.00  0.00     0.046 A 
ATOM     55  C   UNL     1       2.485   3.559 -12.276  1.00  0.00     0.115 A 
BRANCH  55  56
ATOM     56  O   UNL     1       3.038   4.044 -13.424  1.00  0.00    -0.508 OA
ATOM     57  H   UNL     1       3.118   3.314 -14.058  1.00  0.00     0.293 HD
ENDBRANCH  55  56
ENDBRANCH  49  50
ENDBRANCH  48  49
BRANCH  48  58
ATOM     58  C   UNL     1       1.425   1.667  -6.285  1.00  0.00     0.326 C 
ATOM     59  O   UNL     1       0.367   2.144  -5.906  1.00  0.00    -0.250 OA
BRANCH  58  60
ATOM     60  O   UNL     1       2.367   1.334  -5.367  1.00  0.00    -0.480 OA
ATOM     61  H   UNL     1       1.874   1.354  -4.519  1.00  0.00     0.296 HD
ENDBRANCH  58  60
ENDBRANCH  48  58
ENDBRANCH  46  48
ENDBRANCH  34  44
ENDBRANCH  32  34
ENDBRANCH  25  30
ENDBRANCH  23  25
ENDBRANCH   2  23
TORSDOF 28
ENDMDL
MODEL 21
REMARK VINA RESULT:    -6.442     12.143     16.760
REMARK INTER + INTRA:         -20.109
REMARK INTER:                 -15.692
REMARK INTRA:                  -4.416
REMARK UNBOUND:                -4.062
REMARK SMILES CCCCCCC[C@H](N)[C@H](O)C(=O)N[C@H](C)C(=O)N(C)[C@H](CC(C)C)C(=O)N[C@@H](Cc1ccc(O)cc1)C(=O)N[C@@H](Cc1ccc(O)cc1)C(=O)O
REMARK SMILES IDX 18 1 17 2 15 3 16 4 14 5 12 6 13 7 10 9 11 10 8 12 9 13 7 16
REMARK SMILES IDX 6 17 5 18 4 19 3 20 2 21 1 22 19 23 20 24 21 25 22 26 23 27
REMARK SMILES IDX 24 28 25 29 26 30 27 31 28 32 29 34 30 35 31 36 32 37 37 38
REMARK SMILES IDX 33 39 36 40 34 41 35 42 38 44 39 45 40 46 41 48 42 49 43 50
REMARK SMILES IDX 44 51 49 52 45 53 48 54 46 55 47 56 50 58 51 59 52 60
REMARK H PARENT 14 8 11 11 9 14 9 15 28 33 35 43 40 47 47 57 52 61
ROOT
ATOM      1  O   UNL     1      -0.556   0.140  -5.643  1.00  0.00    -0.272 OA
ATOM      2  C   UNL     1      -1.124  -0.645  -4.868  1.00  0.00     0.245 C 
ENDROOT
BRANCH   2   3
ATOM      3  C   UNL     1      -2.557  -0.304  -4.387  1.00  0.00     0.168 C 
ATOM      4  C   UNL     1      -2.544   0.907  -3.461  1.00  0.00     0.041 C 
BRANCH   3   5
ATOM      5  N   UNL     1      -3.541  -0.164  -5.450  1.00  0.00    -0.342 N 
ATOM      6  C   UNL     1      -4.455  -1.157  -5.731  1.00  0.00     0.251 C 
ATOM      7  O   UNL     1      -4.484  -2.235  -5.147  1.00  0.00    -0.272 OA
ATOM      8  H   UNL     1      -3.591   0.673  -6.026  1.00  0.00     0.164 HD
BRANCH   6   9
ATOM      9  C   UNL     1      -5.484  -0.734  -6.792  1.00  0.00     0.219 C 
BRANCH   9  10
ATOM     10  O   UNL     1      -5.221   0.569  -7.328  1.00  0.00    -0.382 OA
ATOM     11  H   UNL     1      -4.258   0.691  -7.178  1.00  0.00     0.211 HD
ENDBRANCH   9  10
BRANCH   9  12
ATOM     12  C   UNL     1      -5.648  -1.775  -7.930  1.00  0.00     0.089 C 
BRANCH  12  13
ATOM     13  N   UNL     1      -6.794  -1.367  -8.775  1.00  0.00    -0.325 NA
ATOM     14  H   UNL     1      -6.793  -0.351  -8.875  1.00  0.00     0.119 HD
ATOM     15  H   UNL     1      -7.663  -1.585  -8.281  1.00  0.00     0.119 HD
ENDBRANCH  12  13
BRANCH  12  16
ATOM     16  C   UNL     1      -4.399  -2.019  -8.811  1.00  0.00     0.022 C 
BRANCH  16  17
ATOM     17  C   UNL     1      -4.588  -2.462 -10.268  1.00  0.00     0.002 C 
BRANCH  17  18
ATOM     18  C   UNL     1      -3.322  -2.431 -11.121  1.00  0.00     0.000 C 
BRANCH  18  19
ATOM     19  C   UNL     1      -2.025  -2.609 -10.320  1.00  0.00    -0.000 C 
BRANCH  19  20
ATOM     20  C   UNL     1      -0.970  -3.502 -10.980  1.00  0.00    -0.000 C 
BRANCH  20  21
ATOM     21  C   UNL     1      -1.101  -4.976 -10.585  1.00  0.00    -0.003 C 
ATOM     22  C   UNL     1       0.016  -5.398  -9.643  1.00  0.00     0.004 C 
ENDBRANCH  20  21
ENDBRANCH  19  20
ENDBRANCH  18  19
ENDBRANCH  17  18
ENDBRANCH  16  17
ENDBRANCH  12  16
ENDBRANCH   9  12
ENDBRANCH   6   9
ENDBRANCH   3   5
ENDBRANCH   2   3
BRANCH   2  23
ATOM     23  N   UNL     1      -0.526  -1.858  -4.545  1.00  0.00    -0.332 N 
ATOM     24  C   UNL     1      -1.095  -3.164  -4.840  1.00  0.00     0.147 C 
BRANCH  23  25
ATOM     25  C   UNL     1       0.846  -1.889  -3.967  1.00  0.00     0.174 C 
BRANCH  25  26
ATOM     26  C   UNL     1       1.185  -0.618  -3.153  1.00  0.00     0.038 C 
BRANCH  26  27
ATOM     27  C   UNL     1       1.641  -0.823  -1.691  1.00  0.00    -0.015 C 
ATOM     28  C   UNL     1       0.466  -1.017  -0.734  1.00  0.00     0.007 C 
ATOM     29  C   UNL     1       2.660  -1.948  -1.526  1.00  0.00     0.007 C 
ENDBRANCH  26  27
ENDBRANCH  25  26
BRANCH  25  30
ATOM     30  C   UNL     1       1.880  -2.216  -5.068  1.00  0.00     0.243 C 
ATOM     31  O   UNL     1       2.721  -3.102  -4.927  1.00  0.00    -0.273 OA
ATOM     32  N   UNL     1       1.800  -1.451  -6.203  1.00  0.00    -0.342 N 
ATOM     33  H   UNL     1       0.989  -0.835  -6.303  1.00  0.00     0.164 HD
BRANCH  32  34
ATOM     34  C   UNL     1       2.715  -1.602  -7.338  1.00  0.00     0.175 C 
BRANCH  34  35
ATOM     35  C   UNL     1       2.134  -2.545  -8.403  1.00  0.00     0.070 C 
BRANCH  35  36
ATOM     36  C   UNL     1       3.114  -3.612  -8.836  1.00  0.00    -0.045 A 
ATOM     37  C   UNL     1       3.395  -3.795 -10.199  1.00  0.00     0.007 A 
ATOM     38  C   UNL     1       3.735  -4.443  -7.895  1.00  0.00     0.007 A 
ATOM     39  C   UNL     1       4.287  -4.785 -10.609  1.00  0.00     0.046 A 
ATOM     40  C   UNL     1       4.628  -5.436  -8.305  1.00  0.00     0.046 A 
ATOM     41  C   UNL     1       4.897  -5.597  -9.660  1.00  0.00     0.115 A 
BRANCH  41  42
ATOM     42  O   UNL     1       5.760  -6.555 -10.104  1.00  0.00    -0.508 OA
ATOM     43  H   UNL     1       6.564  -6.516  -9.560  1.00  0.00     0.293 HD
ENDBRANCH  41  42
ENDBRANCH  35  36
ENDBRANCH  34  35
BRANCH  34  44
ATOM     44  C   UNL     1       3.005  -0.196  -7.909  1.00  0.00     0.243 C 
ATOM     45  O   UNL     1       4.050   0.123  -8.470  1.00  0.00    -0.273 OA
ATOM     46  N   UNL     1       2.024   0.728  -7.618  1.00  0.00    -0.341 N 
ATOM     47  H   UNL     1       1.230   0.443  -7.049  1.00  0.00     0.164 HD
BRANCH  46  48
ATOM     48  C   UNL     1       2.109   2.141  -7.996  1.00  0.00     0.196 C 
BRANCH  48  49
ATOM     49  C   UNL     1       1.004   2.521  -8.995  1.00  0.00     0.072 C 
BRANCH  49  50
ATOM     50  C   UNL     1       1.552   2.926 -10.344  1.00  0.00    -0.045 A 
ATOM     51  C   UNL     1       0.675   3.294 -11.374  1.00  0.00     0.007 A 
ATOM     52  C   UNL     1       2.931   2.919 -10.593  1.00  0.00     0.007 A 
ATOM     53  C   UNL     1       1.169   3.657 -12.627  1.00  0.00     0.046 A 
ATOM     54  C   UNL     1       3.426   3.280 -11.848  1.00  0.00     0.046 A 
ATOM     55  C   UNL     1       2.539   3.647 -12.855  1.00  0.00     0.115 A 
BRANCH  55  56
ATOM     56  O   UNL     1       2.981   4.006 -14.094  1.00  0.00    -0.508 OA
ATOM     57  H   UNL     1       2.210   4.137 -14.668  1.00  0.00     0.293 HD
ENDBRANCH  55  56
ENDBRANCH  49  50
ENDBRANCH  48  49
BRANCH  48  58
ATOM     58  C   UNL     1       1.982   3.004  -6.733  1.00  0.00     0.326 C 
ATOM     59  O   UNL     1       0.979   3.189  -6.062  1.00  0.00    -0.250 OA
BRANCH  58  60
ATOM     60  O   UNL     1       3.146   3.592  -6.359  1.00  0.00    -0.480 OA
ATOM     61  H   UNL     1       3.505   2.974  -5.686  1.00  0.00     0.296 HD
ENDBRANCH  58  60
ENDBRANCH  48  58
ENDBRANCH  46  48
ENDBRANCH  34  44
ENDBRANCH  32  34
ENDBRANCH  25  30
ENDBRANCH  23  25
ENDBRANCH   2  23
TORSDOF 28
ENDMDL
MODEL 22
REMARK VINA RESULT:    -6.399      9.340     12.628
REMARK INTER + INTRA:         -20.000
REMARK INTER:                 -15.205
REMARK INTRA:                  -4.795
REMARK UNBOUND:                -4.062
REMARK SMILES CCCCCCC[C@H](N)[C@H](O)C(=O)N[C@H](C)C(=O)N(C)[C@H](CC(C)C)C(=O)N[C@@H](Cc1ccc(O)cc1)C(=O)N[C@@H](Cc1ccc(O)cc1)C(=O)O
REMARK SMILES IDX 18 1 17 2 15 3 16 4 14 5 12 6 13 7 10 9 11 10 8 12 9 13 7 16
REMARK SMILES IDX 6 17 5 18 4 19 3 20 2 21 1 22 19 23 20 24 21 25 22 26 23 27
REMARK SMILES IDX 24 28 25 29 26 30 27 31 28 32 29 34 30 35 31 36 32 37 37 38
REMARK SMILES IDX 33 39 36 40 34 41 35 42 38 44 39 45 40 46 41 48 42 49 43 50
REMARK SMILES IDX 44 51 49 52 45 53 48 54 46 55 47 56 50 58 51 59 52 60
REMARK H PARENT 14 8 11 11 9 14 9 15 28 33 35 43 40 47 47 57 52 61
ROOT
ATOM      1  O   UNL     1     -10.153  -3.209  -0.102  1.00  0.00    -0.272 OA
ATOM      2  C   UNL     1      -9.552  -2.472   0.694  1.00  0.00     0.245 C 
ENDROOT
BRANCH   2   3
ATOM      3  C   UNL     1      -8.693  -3.125   1.805  1.00  0.00     0.168 C 
ATOM      4  C   UNL     1      -9.559  -3.963   2.738  1.00  0.00     0.041 C 
BRANCH   3   5
ATOM      5  N   UNL     1      -7.536  -3.866   1.326  1.00  0.00    -0.342 N 
ATOM      6  C   UNL     1      -6.249  -3.414   1.523  1.00  0.00     0.251 C 
ATOM      7  O   UNL     1      -5.982  -2.349   2.069  1.00  0.00    -0.272 OA
ATOM      8  H   UNL     1      -7.634  -4.748   0.827  1.00  0.00     0.164 HD
BRANCH   6   9
ATOM      9  C   UNL     1      -5.187  -4.425   1.062  1.00  0.00     0.219 C 
BRANCH   9  10
ATOM     10  O   UNL     1      -5.553  -5.780   1.348  1.00  0.00    -0.382 OA
ATOM     11  H   UNL     1      -6.388  -5.905   0.845  1.00  0.00     0.211 HD
ENDBRANCH   9  10
BRANCH   9  12
ATOM     12  C   UNL     1      -4.798  -4.263  -0.431  1.00  0.00     0.089 C 
BRANCH  12  13
ATOM     13  N   UNL     1      -6.025  -4.400  -1.250  1.00  0.00    -0.325 NA
ATOM     14  H   UNL     1      -5.839  -5.034  -2.029  1.00  0.00     0.119 HD
ATOM     15  H   UNL     1      -6.234  -3.498  -1.685  1.00  0.00     0.119 HD
ENDBRANCH  12  13
BRANCH  12  16
ATOM     16  C   UNL     1      -4.055  -2.957  -0.800  1.00  0.00     0.022 C 
BRANCH  16  17
ATOM     17  C   UNL     1      -2.530  -2.893  -0.637  1.00  0.00     0.002 C 
BRANCH  17  18
ATOM     18  C   UNL     1      -1.761  -4.017  -1.329  1.00  0.00     0.000 C 
BRANCH  18  19
ATOM     19  C   UNL     1      -0.308  -4.160  -0.858  1.00  0.00    -0.000 C 
BRANCH  19  20
ATOM     20  C   UNL     1       0.380  -2.851  -0.461  1.00  0.00    -0.000 C 
BRANCH  20  21
ATOM     21  C   UNL     1       0.773  -2.805   1.018  1.00  0.00    -0.003 C 
ATOM     22  C   UNL     1       0.041  -1.692   1.753  1.00  0.00     0.004 C 
ENDBRANCH  20  21
ENDBRANCH  19  20
ENDBRANCH  18  19
ENDBRANCH  17  18
ENDBRANCH  16  17
ENDBRANCH  12  16
ENDBRANCH   9  12
ENDBRANCH   6   9
ENDBRANCH   3   5
ENDBRANCH   2   3
BRANCH   2  23
ATOM     23  N   UNL     1      -9.559  -1.094   0.505  1.00  0.00    -0.332 N 
ATOM     24  C   UNL     1     -10.755  -0.265   0.513  1.00  0.00     0.147 C 
BRANCH  23  25
ATOM     25  C   UNL     1      -8.277  -0.343   0.406  1.00  0.00     0.174 C 
BRANCH  25  26
ATOM     26  C   UNL     1      -8.427   1.154   0.768  1.00  0.00     0.038 C 
BRANCH  26  27
ATOM     27  C   UNL     1      -7.511   1.698   1.887  1.00  0.00    -0.015 C 
ATOM     28  C   UNL     1      -6.133   2.108   1.367  1.00  0.00     0.007 C 
ATOM     29  C   UNL     1      -8.142   2.833   2.689  1.00  0.00     0.007 C 
ENDBRANCH  26  27
ENDBRANCH  25  26
BRANCH  25  30
ATOM     30  C   UNL     1      -7.623  -0.587  -0.973  1.00  0.00     0.243 C 
ATOM     31  O   UNL     1      -7.276  -1.709  -1.338  1.00  0.00    -0.273 OA
ATOM     32  N   UNL     1      -7.451   0.527  -1.753  1.00  0.00    -0.342 N 
ATOM     33  H   UNL     1      -7.891   1.397  -1.441  1.00  0.00     0.164 HD
BRANCH  32  34
ATOM     34  C   UNL     1      -6.823   0.490  -3.077  1.00  0.00     0.175 C 
BRANCH  34  35
ATOM     35  C   UNL     1      -7.857   0.711  -4.192  1.00  0.00     0.070 C 
BRANCH  35  36
ATOM     36  C   UNL     1      -7.698  -0.261  -5.338  1.00  0.00    -0.045 A 
ATOM     37  C   UNL     1      -7.269   0.197  -6.593  1.00  0.00     0.007 A 
ATOM     38  C   UNL     1      -7.997  -1.620  -5.175  1.00  0.00     0.007 A 
ATOM     39  C   UNL     1      -7.132  -0.690  -7.661  1.00  0.00     0.046 A 
ATOM     40  C   UNL     1      -7.862  -2.509  -6.244  1.00  0.00     0.046 A 
ATOM     41  C   UNL     1      -7.429  -2.035  -7.478  1.00  0.00     0.115 A 
BRANCH  41  42
ATOM     42  O   UNL     1      -7.285  -2.869  -8.548  1.00  0.00    -0.508 OA
ATOM     43  H   UNL     1      -6.347  -3.108  -8.624  1.00  0.00     0.293 HD
ENDBRANCH  41  42
ENDBRANCH  35  36
ENDBRANCH  34  35
BRANCH  34  44
ATOM     44  C   UNL     1      -5.704   1.555  -3.107  1.00  0.00     0.243 C 
ATOM     45  O   UNL     1      -4.757   1.588  -2.327  1.00  0.00    -0.273 OA
ATOM     46  N   UNL     1      -5.931   2.563  -4.021  1.00  0.00    -0.341 N 
ATOM     47  H   UNL     1      -6.790   2.553  -4.564  1.00  0.00     0.164 HD
BRANCH  46  48
ATOM     48  C   UNL     1      -5.044   3.717  -4.183  1.00  0.00     0.196 C 
BRANCH  48  49
ATOM     49  C   UNL     1      -4.259   3.639  -5.503  1.00  0.00     0.072 C 
BRANCH  49  50
ATOM     50  C   UNL     1      -3.404   2.396  -5.598  1.00  0.00    -0.045 A 
ATOM     51  C   UNL     1      -2.292   2.246  -4.756  1.00  0.00     0.007 A 
ATOM     52  C   UNL     1      -3.691   1.394  -6.533  1.00  0.00     0.007 A 
ATOM     53  C   UNL     1      -1.488   1.109  -4.844  1.00  0.00     0.046 A 
ATOM     54  C   UNL     1      -2.885   0.256  -6.622  1.00  0.00     0.046 A 
ATOM     55  C   UNL     1      -1.790   0.124  -5.775  1.00  0.00     0.115 A 
BRANCH  55  56
ATOM     56  O   UNL     1      -0.979  -0.971  -5.830  1.00  0.00    -0.508 OA
ATOM     57  H   UNL     1      -0.644  -1.148  -4.937  1.00  0.00     0.293 HD
ENDBRANCH  55  56
ENDBRANCH  49  50
ENDBRANCH  48  49
BRANCH  48  58
ATOM     58  C   UNL     1      -5.887   5.000  -4.160  1.00  0.00     0.326 C 
ATOM     59  O   UNL     1      -6.735   5.342  -4.968  1.00  0.00    -0.250 OA
BRANCH  58  60
ATOM     60  O   UNL     1      -5.628   5.799  -3.094  1.00  0.00    -0.480 OA
ATOM     61  H   UNL     1      -5.936   5.265  -2.331  1.00  0.00     0.296 HD
ENDBRANCH  58  60
ENDBRANCH  48  58
ENDBRANCH  46  48
ENDBRANCH  34  44
ENDBRANCH  32  34
ENDBRANCH  25  30
ENDBRANCH  23  25
ENDBRANCH   2  23
TORSDOF 28
ENDMDL
MODEL 23
REMARK VINA RESULT:    -6.388     13.484     18.653
REMARK INTER + INTRA:         -19.972
REMARK INTER:                 -14.876
REMARK INTRA:                  -5.097
REMARK UNBOUND:                -4.062
REMARK SMILES CCCCCCC[C@H](N)[C@H](O)C(=O)N[C@H](C)C(=O)N(C)[C@H](CC(C)C)C(=O)N[C@@H](Cc1ccc(O)cc1)C(=O)N[C@@H](Cc1ccc(O)cc1)C(=O)O
REMARK SMILES IDX 18 1 17 2 15 3 16 4 14 5 12 6 13 7 10 9 11 10 8 12 9 13 7 16
REMARK SMILES IDX 6 17 5 18 4 19 3 20 2 21 1 22 19 23 20 24 21 25 22 26 23 27
REMARK SMILES IDX 24 28 25 29 26 30 27 31 28 32 29 34 30 35 31 36 32 37 37 38
REMARK SMILES IDX 33 39 36 40 34 41 35 42 38 44 39 45 40 46 41 48 42 49 43 50
REMARK SMILES IDX 44 51 49 52 45 53 48 54 46 55 47 56 50 58 51 59 52 60
REMARK H PARENT 14 8 11 11 9 14 9 15 28 33 35 43 40 47 47 57 52 61
ROOT
ATOM      1  O   UNL     1       2.322  -2.588  -6.291  1.00  0.00    -0.272 OA
ATOM      2  C   UNL     1       2.194  -3.156  -7.386  1.00  0.00     0.245 C 
ENDROOT
BRANCH   2   3
ATOM      3  C   UNL     1       1.808  -4.656  -7.403  1.00  0.00     0.168 C 
ATOM      4  C   UNL     1       0.375  -4.840  -7.892  1.00  0.00     0.041 C 
BRANCH   3   5
ATOM      5  N   UNL     1       2.738  -5.519  -8.113  1.00  0.00    -0.342 N 
ATOM      6  C   UNL     1       3.970  -5.849  -7.588  1.00  0.00     0.251 C 
ATOM      7  O   UNL     1       4.389  -5.415  -6.520  1.00  0.00    -0.272 OA
ATOM      8  H   UNL     1       2.516  -5.912  -9.024  1.00  0.00     0.164 HD
BRANCH   6   9
ATOM      9  C   UNL     1       4.722  -6.883  -8.442  1.00  0.00     0.219 C 
BRANCH   9  10
ATOM     10  O   UNL     1       6.093  -7.030  -8.051  1.00  0.00    -0.382 OA
ATOM     11  H   UNL     1       6.212  -6.340  -7.362  1.00  0.00     0.211 HD
ENDBRANCH   9  10
BRANCH   9  12
ATOM     12  C   UNL     1       4.013  -8.261  -8.494  1.00  0.00     0.089 C 
BRANCH  12  13
ATOM     13  N   UNL     1       3.091  -8.356  -7.339  1.00  0.00    -0.325 NA
ATOM     14  H   UNL     1       2.145  -8.543  -7.679  1.00  0.00     0.119 HD
ATOM     15  H   UNL     1       3.035  -7.442  -6.884  1.00  0.00     0.119 HD
ENDBRANCH  12  13
BRANCH  12  16
ATOM     16  C   UNL     1       3.258  -8.586  -9.805  1.00  0.00     0.022 C 
BRANCH  16  17
ATOM     17  C   UNL     1       1.776  -8.208  -9.927  1.00  0.00     0.002 C 
BRANCH  17  18
ATOM     18  C   UNL     1       1.236  -8.167 -11.355  1.00  0.00     0.000 C 
BRANCH  18  19
ATOM     19  C   UNL     1       0.492  -6.871 -11.705  1.00  0.00    -0.000 C 
BRANCH  19  20
ATOM     20  C   UNL     1       1.276  -5.582 -11.444  1.00  0.00    -0.000 C 
BRANCH  20  21
ATOM     21  C   UNL     1       2.463  -5.399 -12.393  1.00  0.00    -0.003 C 
ATOM     22  C   UNL     1       3.782  -5.390 -11.635  1.00  0.00     0.004 C 
ENDBRANCH  20  21
ENDBRANCH  19  20
ENDBRANCH  18  19
ENDBRANCH  17  18
ENDBRANCH  16  17
ENDBRANCH  12  16
ENDBRANCH   9  12
ENDBRANCH   6   9
ENDBRANCH   3   5
ENDBRANCH   2   3
BRANCH   2  23
ATOM     23  N   UNL     1       2.278  -2.421  -8.564  1.00  0.00    -0.332 N 
ATOM     24  C   UNL     1       3.492  -2.253  -9.348  1.00  0.00     0.147 C 
BRANCH  23  25
ATOM     25  C   UNL     1       1.050  -1.847  -9.180  1.00  0.00     0.174 C 
BRANCH  25  26
ATOM     26  C   UNL     1       1.109  -1.817 -10.725  1.00  0.00     0.038 C 
BRANCH  26  27
ATOM     27  C   UNL     1      -0.215  -2.067 -11.482  1.00  0.00    -0.015 C 
ATOM     28  C   UNL     1       0.011  -2.640 -12.881  1.00  0.00     0.007 C 
ATOM     29  C   UNL     1      -1.206  -2.928 -10.703  1.00  0.00     0.007 C 
ENDBRANCH  26  27
ENDBRANCH  25  26
BRANCH  25  30
ATOM     30  C   UNL     1       0.727  -0.476  -8.544  1.00  0.00     0.243 C 
ATOM     31  O   UNL     1      -0.427  -0.133  -8.291  1.00  0.00    -0.273 OA
ATOM     32  N   UNL     1       1.807   0.329  -8.287  1.00  0.00    -0.342 N 
ATOM     33  H   UNL     1       2.738  -0.081  -8.392  1.00  0.00     0.164 HD
BRANCH  32  34
ATOM     34  C   UNL     1       1.688   1.671  -7.712  1.00  0.00     0.175 C 
BRANCH  34  35
ATOM     35  C   UNL     1       2.396   1.761  -6.352  1.00  0.00     0.070 C 
BRANCH  35  36
ATOM     36  C   UNL     1       1.716   0.937  -5.282  1.00  0.00    -0.045 A 
ATOM     37  C   UNL     1       0.318   0.967  -5.156  1.00  0.00     0.007 A 
ATOM     38  C   UNL     1       2.463   0.154  -4.393  1.00  0.00     0.007 A 
ATOM     39  C   UNL     1      -0.318   0.221  -4.163  1.00  0.00     0.046 A 
ATOM     40  C   UNL     1       1.827  -0.592  -3.398  1.00  0.00     0.046 A 
ATOM     41  C   UNL     1       0.441  -0.553  -3.293  1.00  0.00     0.115 A 
BRANCH  41  42
ATOM     42  O   UNL     1      -0.219  -1.265  -2.336  1.00  0.00    -0.508 OA
ATOM     43  H   UNL     1      -0.796  -1.909  -2.779  1.00  0.00     0.293 HD
ENDBRANCH  41  42
ENDBRANCH  35  36
ENDBRANCH  34  35
BRANCH  34  44
ATOM     44  C   UNL     1       2.263   2.681  -8.730  1.00  0.00     0.243 C 
ATOM     45  O   UNL     1       3.369   3.206  -8.638  1.00  0.00    -0.273 OA
ATOM     46  N   UNL     1       1.362   3.051  -9.706  1.00  0.00    -0.341 N 
ATOM     47  H   UNL     1       0.417   2.676  -9.673  1.00  0.00     0.164 HD
BRANCH  46  48
ATOM     48  C   UNL     1       1.656   4.045 -10.740  1.00  0.00     0.196 C 
BRANCH  48  49
ATOM     49  C   UNL     1       0.863   3.766 -12.028  1.00  0.00     0.072 C 
BRANCH  49  50
ATOM     50  C   UNL     1       1.612   2.872 -12.991  1.00  0.00    -0.045 A 
ATOM     51  C   UNL     1       1.370   1.491 -12.995  1.00  0.00     0.007 A 
ATOM     52  C   UNL     1       2.565   3.400 -13.871  1.00  0.00     0.007 A 
ATOM     53  C   UNL     1       2.064   0.655 -13.870  1.00  0.00     0.046 A 
ATOM     54  C   UNL     1       3.261   2.563 -14.746  1.00  0.00     0.046 A 
ATOM     55  C   UNL     1       3.004   1.197 -14.738  1.00  0.00     0.115 A 
BRANCH  55  56
ATOM     56  O   UNL     1       3.662   0.346 -15.576  1.00  0.00    -0.508 OA
ATOM     57  H   UNL     1       4.202   0.874 -16.186  1.00  0.00     0.293 HD
ENDBRANCH  55  56
ENDBRANCH  49  50
ENDBRANCH  48  49
BRANCH  48  58
ATOM     58  C   UNL     1       1.299   5.440 -10.208  1.00  0.00     0.326 C 
ATOM     59  O   UNL     1       0.319   6.110 -10.489  1.00  0.00    -0.250 OA
BRANCH  58  60
ATOM     60  O   UNL     1       2.202   5.927  -9.320  1.00  0.00    -0.480 OA
ATOM     61  H   UNL     1       2.267   5.214  -8.649  1.00  0.00     0.296 HD
ENDBRANCH  58  60
ENDBRANCH  48  58
ENDBRANCH  46  48
ENDBRANCH  34  44
ENDBRANCH  32  34
ENDBRANCH  25  30
ENDBRANCH  23  25
ENDBRANCH   2  23
TORSDOF 28
ENDMDL
MODEL 24
REMARK VINA RESULT:    -6.378     17.273     22.453
REMARK INTER + INTRA:         -19.948
REMARK INTER:                 -14.201
REMARK INTRA:                  -5.748
REMARK UNBOUND:                -4.062
REMARK SMILES CCCCCCC[C@H](N)[C@H](O)C(=O)N[C@H](C)C(=O)N(C)[C@H](CC(C)C)C(=O)N[C@@H](Cc1ccc(O)cc1)C(=O)N[C@@H](Cc1ccc(O)cc1)C(=O)O
REMARK SMILES IDX 18 1 17 2 15 3 16 4 14 5 12 6 13 7 10 9 11 10 8 12 9 13 7 16
REMARK SMILES IDX 6 17 5 18 4 19 3 20 2 21 1 22 19 23 20 24 21 25 22 26 23 27
REMARK SMILES IDX 24 28 25 29 26 30 27 31 28 32 29 34 30 35 31 36 32 37 37 38
REMARK SMILES IDX 33 39 36 40 34 41 35 42 38 44 39 45 40 46 41 48 42 49 43 50
REMARK SMILES IDX 44 51 49 52 45 53 48 54 46 55 47 56 50 58 51 59 52 60
REMARK H PARENT 14 8 11 11 9 14 9 15 28 33 35 43 40 47 47 57 52 61
ROOT
ATOM      1  O   UNL     1       5.347  -4.124  -9.052  1.00  0.00    -0.272 OA
ATOM      2  C   UNL     1       4.296  -4.727  -8.789  1.00  0.00     0.245 C 
ENDROOT
BRANCH   2   3
ATOM      3  C   UNL     1       3.131  -3.938  -8.140  1.00  0.00     0.168 C 
ATOM      4  C   UNL     1       2.595  -4.673  -6.917  1.00  0.00     0.041 C 
BRANCH   3   5
ATOM      5  N   UNL     1       3.425  -2.543  -7.850  1.00  0.00    -0.342 N 
ATOM      6  C   UNL     1       3.268  -1.554  -8.797  1.00  0.00     0.251 C 
ATOM      7  O   UNL     1       2.916  -1.772  -9.951  1.00  0.00    -0.272 OA
ATOM      8  H   UNL     1       3.758  -2.245  -6.936  1.00  0.00     0.164 HD
BRANCH   6   9
ATOM      9  C   UNL     1       3.499  -0.145  -8.228  1.00  0.00     0.219 C 
BRANCH   9  10
ATOM     10  O   UNL     1       4.888   0.178  -8.097  1.00  0.00    -0.382 OA
ATOM     11  H   UNL     1       5.225   0.129  -9.019  1.00  0.00     0.211 HD
ENDBRANCH   9  10
BRANCH   9  12
ATOM     12  C   UNL     1       2.748   0.961  -9.016  1.00  0.00     0.089 C 
BRANCH  12  13
ATOM     13  N   UNL     1       1.305   0.630  -9.025  1.00  0.00    -0.325 NA
ATOM     14  H   UNL     1       1.193  -0.385  -9.003  1.00  0.00     0.119 HD
ATOM     15  H   UNL     1       0.904   0.922  -9.920  1.00  0.00     0.119 HD
ENDBRANCH  12  13
BRANCH  12  16
ATOM     16  C   UNL     1       2.958   2.410  -8.517  1.00  0.00     0.022 C 
BRANCH  16  17
ATOM     17  C   UNL     1       1.801   3.413  -8.626  1.00  0.00     0.002 C 
BRANCH  17  18
ATOM     18  C   UNL     1       1.931   4.427  -9.760  1.00  0.00     0.000 C 
BRANCH  18  19
ATOM     19  C   UNL     1       3.036   4.095 -10.772  1.00  0.00    -0.000 C 
BRANCH  19  20
ATOM     20  C   UNL     1       2.542   3.691 -12.164  1.00  0.00    -0.000 C 
BRANCH  20  21
ATOM     21  C   UNL     1       1.086   3.218 -12.170  1.00  0.00    -0.003 C 
ATOM     22  C   UNL     1       0.376   3.623 -13.452  1.00  0.00     0.004 C 
ENDBRANCH  20  21
ENDBRANCH  19  20
ENDBRANCH  18  19
ENDBRANCH  17  18
ENDBRANCH  16  17
ENDBRANCH  12  16
ENDBRANCH   9  12
ENDBRANCH   6   9
ENDBRANCH   3   5
ENDBRANCH   2   3
BRANCH   2  23
ATOM     23  N   UNL     1       4.136  -6.051  -9.185  1.00  0.00    -0.332 N 
ATOM     24  C   UNL     1       4.786  -7.187  -8.549  1.00  0.00     0.147 C 
BRANCH  23  25
ATOM     25  C   UNL     1       3.153  -6.404 -10.245  1.00  0.00     0.174 C 
BRANCH  25  26
ATOM     26  C   UNL     1       2.455  -7.761  -9.992  1.00  0.00     0.038 C 
BRANCH  26  27
ATOM     27  C   UNL     1       0.997  -7.714  -9.484  1.00  0.00    -0.015 C 
ATOM     28  C   UNL     1       0.823  -8.419  -8.139  1.00  0.00     0.007 C 
ATOM     29  C   UNL     1       0.418  -6.302  -9.429  1.00  0.00     0.007 C 
ENDBRANCH  26  27
ENDBRANCH  25  26
BRANCH  25  30
ATOM     30  C   UNL     1       3.812  -6.294 -11.640  1.00  0.00     0.243 C 
ATOM     31  O   UNL     1       4.899  -6.814 -11.887  1.00  0.00    -0.273 OA
ATOM     32  N   UNL     1       3.108  -5.578 -12.574  1.00  0.00    -0.342 N 
ATOM     33  H   UNL     1       2.153  -5.299 -12.336  1.00  0.00     0.164 HD
BRANCH  32  34
ATOM     34  C   UNL     1       3.591  -5.348 -13.938  1.00  0.00     0.175 C 
BRANCH  34  35
ATOM     35  C   UNL     1       3.207  -6.507 -14.870  1.00  0.00     0.070 C 
BRANCH  35  36
ATOM     36  C   UNL     1       1.774  -6.953 -14.689  1.00  0.00    -0.045 A 
ATOM     37  C   UNL     1       1.485  -8.098 -13.931  1.00  0.00     0.007 A 
ATOM     38  C   UNL     1       0.721  -6.249 -15.288  1.00  0.00     0.007 A 
ATOM     39  C   UNL     1       0.166  -8.524 -13.770  1.00  0.00     0.046 A 
ATOM     40  C   UNL     1      -0.599  -6.676 -15.128  1.00  0.00     0.046 A 
ATOM     41  C   UNL     1      -0.865  -7.811 -14.368  1.00  0.00     0.115 A 
BRANCH  41  42
ATOM     42  O   UNL     1      -2.138  -8.263 -14.189  1.00  0.00    -0.508 OA
ATOM     43  H   UNL     1      -2.386  -8.116 -13.261  1.00  0.00     0.293 HD
ENDBRANCH  41  42
ENDBRANCH  35  36
ENDBRANCH  34  35
BRANCH  34  44
ATOM     44  C   UNL     1       3.018  -3.999 -14.428  1.00  0.00     0.243 C 
ATOM     45  O   UNL     1       3.107  -3.585 -15.580  1.00  0.00    -0.273 OA
ATOM     46  N   UNL     1       2.499  -3.222 -13.413  1.00  0.00    -0.341 N 
ATOM     47  H   UNL     1       2.554  -3.560 -12.455  1.00  0.00     0.164 HD
BRANCH  46  48
ATOM     48  C   UNL     1       1.961  -1.877 -13.623  1.00  0.00     0.196 C 
BRANCH  48  49
ATOM     49  C   UNL     1       0.752  -1.608 -12.711  1.00  0.00     0.072 C 
BRANCH  49  50
ATOM     50  C   UNL     1      -0.337  -2.645 -12.869  1.00  0.00    -0.045 A 
ATOM     51  C   UNL     1      -1.250  -2.544 -13.928  1.00  0.00     0.007 A 
ATOM     52  C   UNL     1      -0.465  -3.701 -11.957  1.00  0.00     0.007 A 
ATOM     53  C   UNL     1      -2.268  -3.487 -14.076  1.00  0.00     0.046 A 
ATOM     54  C   UNL     1      -1.484  -4.644 -12.104  1.00  0.00     0.046 A 
ATOM     55  C   UNL     1      -2.377  -4.530 -13.164  1.00  0.00     0.115 A 
BRANCH  55  56
ATOM     56  O   UNL     1      -3.386  -5.429 -13.343  1.00  0.00    -0.508 OA
ATOM     57  H   UNL     1      -4.192  -4.942 -13.579  1.00  0.00     0.293 HD
ENDBRANCH  55  56
ENDBRANCH  49  50
ENDBRANCH  48  49
BRANCH  48  58
ATOM     58  C   UNL     1       3.062  -0.848 -13.334  1.00  0.00     0.326 C 
ATOM     59  O   UNL     1       4.160  -0.772 -13.863  1.00  0.00    -0.250 OA
BRANCH  58  60
ATOM     60  O   UNL     1       2.719   0.062 -12.388  1.00  0.00    -0.480 OA
ATOM     61  H   UNL     1       1.811   0.330 -12.651  1.00  0.00     0.296 HD
ENDBRANCH  58  60
ENDBRANCH  48  58
ENDBRANCH  46  48
ENDBRANCH  34  44
ENDBRANCH  32  34
ENDBRANCH  25  30
ENDBRANCH  23  25
ENDBRANCH   2  23
TORSDOF 28
ENDMDL
MODEL 25
REMARK VINA RESULT:    -6.378     10.202     14.552
REMARK INTER + INTRA:         -19.948
REMARK INTER:                 -15.825
REMARK INTRA:                  -4.122
REMARK UNBOUND:                -4.062
REMARK SMILES CCCCCCC[C@H](N)[C@H](O)C(=O)N[C@H](C)C(=O)N(C)[C@H](CC(C)C)C(=O)N[C@@H](Cc1ccc(O)cc1)C(=O)N[C@@H](Cc1ccc(O)cc1)C(=O)O
REMARK SMILES IDX 18 1 17 2 15 3 16 4 14 5 12 6 13 7 10 9 11 10 8 12 9 13 7 16
REMARK SMILES IDX 6 17 5 18 4 19 3 20 2 21 1 22 19 23 20 24 21 25 22 26 23 27
REMARK SMILES IDX 24 28 25 29 26 30 27 31 28 32 29 34 30 35 31 36 32 37 37 38
REMARK SMILES IDX 33 39 36 40 34 41 35 42 38 44 39 45 40 46 41 48 42 49 43 50
REMARK SMILES IDX 44 51 49 52 45 53 48 54 46 55 47 56 50 58 51 59 52 60
REMARK H PARENT 14 8 11 11 9 14 9 15 28 33 35 43 40 47 47 57 52 61
ROOT
ATOM      1  O   UNL     1      -4.034   0.197  -6.126  1.00  0.00    -0.272 OA
ATOM      2  C   UNL     1      -4.896   0.390  -5.256  1.00  0.00     0.245 C 
ENDROOT
BRANCH   2   3
ATOM      3  C   UNL     1      -6.337   0.739  -5.705  1.00  0.00     0.168 C 
ATOM      4  C   UNL     1      -6.339   1.955  -6.624  1.00  0.00     0.041 C 
BRANCH   3   5
ATOM      5  N   UNL     1      -7.085  -0.372  -6.274  1.00  0.00    -0.342 N 
ATOM      6  C   UNL     1      -8.056  -1.038  -5.557  1.00  0.00     0.251 C 
ATOM      7  O   UNL     1      -8.332  -0.781  -4.390  1.00  0.00    -0.272 OA
ATOM      8  H   UNL     1      -6.920  -0.699  -7.222  1.00  0.00     0.164 HD
BRANCH   6   9
ATOM      9  C   UNL     1      -8.811  -2.077  -6.402  1.00  0.00     0.219 C 
BRANCH   9  10
ATOM     10  O   UNL     1      -9.115  -3.270  -5.669  1.00  0.00    -0.382 OA
ATOM     11  H   UNL     1      -8.237  -3.693  -5.542  1.00  0.00     0.211 HD
ENDBRANCH   9  10
BRANCH   9  12
ATOM     12  C   UNL     1     -10.086  -1.504  -7.074  1.00  0.00     0.089 C 
BRANCH  12  13
ATOM     13  N   UNL     1     -10.391  -0.193  -6.457  1.00  0.00    -0.325 NA
ATOM     14  H   UNL     1      -9.647   0.050  -5.800  1.00  0.00     0.119 HD
ATOM     15  H   UNL     1     -11.233  -0.286  -5.883  1.00  0.00     0.119 HD
ENDBRANCH  12  13
BRANCH  12  16
ATOM     16  C   UNL     1     -10.036  -1.367  -8.615  1.00  0.00     0.022 C 
BRANCH  16  17
ATOM     17  C   UNL     1      -8.673  -1.268  -9.313  1.00  0.00     0.002 C 
BRANCH  17  18
ATOM     18  C   UNL     1      -8.223  -2.537 -10.033  1.00  0.00     0.000 C 
BRANCH  18  19
ATOM     19  C   UNL     1      -6.826  -3.024  -9.627  1.00  0.00    -0.000 C 
BRANCH  19  20
ATOM     20  C   UNL     1      -5.664  -2.168 -10.141  1.00  0.00    -0.000 C 
BRANCH  20  21
ATOM     21  C   UNL     1      -4.346  -2.941 -10.235  1.00  0.00    -0.003 C 
ATOM     22  C   UNL     1      -3.474  -2.415 -11.364  1.00  0.00     0.004 C 
ENDBRANCH  20  21
ENDBRANCH  19  20
ENDBRANCH  18  19
ENDBRANCH  17  18
ENDBRANCH  16  17
ENDBRANCH  12  16
ENDBRANCH   9  12
ENDBRANCH   6   9
ENDBRANCH   3   5
ENDBRANCH   2   3
BRANCH   2  23
ATOM     23  N   UNL     1      -4.592   0.175  -3.916  1.00  0.00    -0.332 N 
ATOM     24  C   UNL     1      -5.293   0.793  -2.800  1.00  0.00     0.147 C 
BRANCH  23  25
ATOM     25  C   UNL     1      -3.574  -0.840  -3.530  1.00  0.00     0.174 C 
BRANCH  25  26
ATOM     26  C   UNL     1      -4.059  -1.782  -2.403  1.00  0.00     0.038 C 
BRANCH  26  27
ATOM     27  C   UNL     1      -2.997  -2.267  -1.391  1.00  0.00    -0.015 C 
ATOM     28  C   UNL     1      -3.431  -2.054   0.059  1.00  0.00     0.007 C 
ATOM     29  C   UNL     1      -2.561  -3.713  -1.614  1.00  0.00     0.007 C 
ENDBRANCH  26  27
ENDBRANCH  25  26
BRANCH  25  30
ATOM     30  C   UNL     1      -2.224  -0.151  -3.227  1.00  0.00     0.243 C 
ATOM     31  O   UNL     1      -2.161   0.911  -2.609  1.00  0.00    -0.273 OA
ATOM     32  N   UNL     1      -1.109  -0.797  -3.695  1.00  0.00    -0.342 N 
ATOM     33  H   UNL     1      -1.232  -1.740  -4.072  1.00  0.00     0.164 HD
BRANCH  32  34
ATOM     34  C   UNL     1       0.250  -0.277  -3.524  1.00  0.00     0.175 C 
BRANCH  34  35
ATOM     35  C   UNL     1       1.152  -1.295  -2.809  1.00  0.00     0.070 C 
BRANCH  35  36
ATOM     36  C   UNL     1       0.758  -1.512  -1.365  1.00  0.00    -0.045 A 
ATOM     37  C   UNL     1       0.303  -0.433  -0.592  1.00  0.00     0.007 A 
ATOM     38  C   UNL     1       0.863  -2.778  -0.774  1.00  0.00     0.007 A 
ATOM     39  C   UNL     1      -0.049  -0.621   0.745  1.00  0.00     0.046 A 
ATOM     40  C   UNL     1       0.511  -2.967   0.565  1.00  0.00     0.046 A 
ATOM     41  C   UNL     1       0.057  -1.885   1.312  1.00  0.00     0.115 A 
BRANCH  41  42
ATOM     42  O   UNL     1      -0.295  -2.026   2.622  1.00  0.00    -0.508 OA
ATOM     43  H   UNL     1      -0.918  -1.316   2.848  1.00  0.00     0.293 HD
ENDBRANCH  41  42
ENDBRANCH  35  36
ENDBRANCH  34  35
BRANCH  34  44
ATOM     44  C   UNL     1       0.798   0.099  -4.919  1.00  0.00     0.243 C 
ATOM     45  O   UNL     1       1.137  -0.714  -5.774  1.00  0.00    -0.273 OA
ATOM     46  N   UNL     1       1.000   1.454  -5.082  1.00  0.00    -0.341 N 
ATOM     47  H   UNL     1       0.813   2.078  -4.302  1.00  0.00     0.164 HD
BRANCH  46  48
ATOM     48  C   UNL     1       1.574   2.043  -6.294  1.00  0.00     0.196 C 
BRANCH  48  49
ATOM     49  C   UNL     1       0.918   3.393  -6.626  1.00  0.00     0.072 C 
BRANCH  49  50
ATOM     50  C   UNL     1       1.040   3.756  -8.088  1.00  0.00    -0.045 A 
ATOM     51  C   UNL     1       1.231   5.094  -8.463  1.00  0.00     0.007 A 
ATOM     52  C   UNL     1       0.945   2.776  -9.085  1.00  0.00     0.007 A 
ATOM     53  C   UNL     1       1.333   5.442  -9.810  1.00  0.00     0.046 A 
ATOM     54  C   UNL     1       1.045   3.124 -10.433  1.00  0.00     0.046 A 
ATOM     55  C   UNL     1       1.239   4.456 -10.785  1.00  0.00     0.115 A 
BRANCH  55  56
ATOM     56  O   UNL     1       1.341   4.838 -12.089  1.00  0.00    -0.508 OA
ATOM     57  H   UNL     1       0.755   5.598 -12.233  1.00  0.00     0.293 HD
ENDBRANCH  55  56
ENDBRANCH  49  50
ENDBRANCH  48  49
BRANCH  48  58
ATOM     58  C   UNL     1       3.082   2.241  -6.086  1.00  0.00     0.326 C 
ATOM     59  O   UNL     1       3.665   3.287  -5.850  1.00  0.00    -0.250 OA
BRANCH  58  60
ATOM     60  O   UNL     1       3.796   1.090  -6.172  1.00  0.00    -0.480 OA
ATOM     61  H   UNL     1       3.707   0.838  -7.117  1.00  0.00     0.296 HD
ENDBRANCH  58  60
ENDBRANCH  48  58
ENDBRANCH  46  48
ENDBRANCH  34  44
ENDBRANCH  32  34
ENDBRANCH  25  30
ENDBRANCH  23  25
ENDBRANCH   2  23
TORSDOF 28
ENDMDL
MODEL 26
REMARK VINA RESULT:    -6.378     10.444     14.857
REMARK INTER + INTRA:         -19.947
REMARK INTER:                 -14.798
REMARK INTRA:                  -5.149
REMARK UNBOUND:                -4.062
REMARK SMILES CCCCCCC[C@H](N)[C@H](O)C(=O)N[C@H](C)C(=O)N(C)[C@H](CC(C)C)C(=O)N[C@@H](Cc1ccc(O)cc1)C(=O)N[C@@H](Cc1ccc(O)cc1)C(=O)O
REMARK SMILES IDX 18 1 17 2 15 3 16 4 14 5 12 6 13 7 10 9 11 10 8 12 9 13 7 16
REMARK SMILES IDX 6 17 5 18 4 19 3 20 2 21 1 22 19 23 20 24 21 25 22 26 23 27
REMARK SMILES IDX 24 28 25 29 26 30 27 31 28 32 29 34 30 35 31 36 32 37 37 38
REMARK SMILES IDX 33 39 36 40 34 41 35 42 38 44 39 45 40 46 41 48 42 49 43 50
REMARK SMILES IDX 44 51 49 52 45 53 48 54 46 55 47 56 50 58 51 59 52 60
REMARK H PARENT 14 8 11 11 9 14 9 15 28 33 35 43 40 47 47 57 52 61
ROOT
ATOM      1  O   UNL     1       1.353  -0.312  -3.952  1.00  0.00    -0.272 OA
ATOM      2  C   UNL     1       1.046  -1.509  -3.849  1.00  0.00     0.245 C 
ENDROOT
BRANCH   2   3
ATOM      3  C   UNL     1       1.521  -2.291  -2.599  1.00  0.00     0.168 C 
ATOM      4  C   UNL     1       3.021  -2.114  -2.388  1.00  0.00     0.041 C 
BRANCH   3   5
ATOM      5  N   UNL     1       0.767  -2.019  -1.385  1.00  0.00    -0.342 N 
ATOM      6  C   UNL     1      -0.070  -2.959  -0.822  1.00  0.00     0.251 C 
ATOM      7  O   UNL     1      -0.274  -4.064  -1.314  1.00  0.00    -0.272 OA
ATOM      8  H   UNL     1       0.828  -1.124  -0.905  1.00  0.00     0.164 HD
BRANCH   6   9
ATOM      9  C   UNL     1      -0.649  -2.506   0.528  1.00  0.00     0.219 C 
BRANCH   9  10
ATOM     10  O   UNL     1       0.366  -2.228   1.500  1.00  0.00    -0.382 OA
ATOM     11  H   UNL     1       1.083  -1.812   0.972  1.00  0.00     0.211 HD
ENDBRANCH   9  10
BRANCH   9  12
ATOM     12  C   UNL     1      -1.631  -1.312   0.400  1.00  0.00     0.089 C 
BRANCH  12  13
ATOM     13  N   UNL     1      -0.852  -0.102   0.051  1.00  0.00    -0.325 NA
ATOM     14  H   UNL     1      -1.391   0.467  -0.604  1.00  0.00     0.119 HD
ATOM     15  H   UNL     1      -0.016  -0.385  -0.467  1.00  0.00     0.119 HD
ENDBRANCH  12  13
BRANCH  12  16
ATOM     16  C   UNL     1      -2.799  -1.499  -0.598  1.00  0.00     0.022 C 
BRANCH  16  17
ATOM     17  C   UNL     1      -2.876  -0.593  -1.835  1.00  0.00     0.002 C 
BRANCH  17  18
ATOM     18  C   UNL     1      -3.836   0.588  -1.709  1.00  0.00     0.000 C 
BRANCH  18  19
ATOM     19  C   UNL     1      -5.143   0.417  -2.495  1.00  0.00    -0.000 C 
BRANCH  19  20
ATOM     20  C   UNL     1      -5.213  -0.834  -3.375  1.00  0.00    -0.000 C 
BRANCH  20  21
ATOM     21  C   UNL     1      -5.310  -0.512  -4.869  1.00  0.00    -0.003 C 
ATOM     22  C   UNL     1      -4.179  -1.161  -5.651  1.00  0.00     0.004 C 
ENDBRANCH  20  21
ENDBRANCH  19  20
ENDBRANCH  18  19
ENDBRANCH  17  18
ENDBRANCH  16  17
ENDBRANCH  12  16
ENDBRANCH   9  12
ENDBRANCH   6   9
ENDBRANCH   3   5
ENDBRANCH   2   3
BRANCH   2  23
ATOM     23  N   UNL     1       0.190  -2.090  -4.779  1.00  0.00    -0.332 N 
ATOM     24  C   UNL     1      -0.999  -2.858  -4.440  1.00  0.00     0.147 C 
BRANCH  23  25
ATOM     25  C   UNL     1       0.382  -1.842  -6.234  1.00  0.00     0.174 C 
BRANCH  25  26
ATOM     26  C   UNL     1       1.873  -1.751  -6.638  1.00  0.00     0.038 C 
BRANCH  26  27
ATOM     27  C   UNL     1       2.276  -2.407  -7.977  1.00  0.00    -0.015 C 
ATOM     28  C   UNL     1       3.309  -1.582  -8.745  1.00  0.00     0.007 C 
ATOM     29  C   UNL     1       2.747  -3.851  -7.828  1.00  0.00     0.007 C 
ENDBRANCH  26  27
ENDBRANCH  25  26
BRANCH  25  30
ATOM     30  C   UNL     1      -0.458  -0.624  -6.682  1.00  0.00     0.243 C 
ATOM     31  O   UNL     1      -0.868  -0.505  -7.835  1.00  0.00    -0.273 OA
ATOM     32  N   UNL     1      -0.709   0.313  -5.712  1.00  0.00    -0.342 N 
ATOM     33  H   UNL     1      -0.458   0.076  -4.749  1.00  0.00     0.164 HD
BRANCH  32  34
ATOM     34  C   UNL     1      -1.465   1.543  -5.962  1.00  0.00     0.175 C 
BRANCH  34  35
ATOM     35  C   UNL     1      -2.316   1.933  -4.743  1.00  0.00     0.070 C 
BRANCH  35  36
ATOM     36  C   UNL     1      -3.525   2.762  -5.116  1.00  0.00    -0.045 A 
ATOM     37  C   UNL     1      -4.055   3.681  -4.197  1.00  0.00     0.007 A 
ATOM     38  C   UNL     1      -4.143   2.611  -6.364  1.00  0.00     0.007 A 
ATOM     39  C   UNL     1      -5.178   4.440  -4.527  1.00  0.00     0.046 A 
ATOM     40  C   UNL     1      -5.268   3.370  -6.694  1.00  0.00     0.046 A 
ATOM     41  C   UNL     1      -5.775   4.280  -5.771  1.00  0.00     0.115 A 
BRANCH  41  42
ATOM     42  O   UNL     1      -6.873   5.039  -6.052  1.00  0.00    -0.508 OA
ATOM     43  H   UNL     1      -6.604   5.972  -6.059  1.00  0.00     0.293 HD
ENDBRANCH  41  42
ENDBRANCH  35  36
ENDBRANCH  34  35
BRANCH  34  44
ATOM     44  C   UNL     1      -0.460   2.653  -6.343  1.00  0.00     0.243 C 
ATOM     45  O   UNL     1      -0.486   3.796  -5.895  1.00  0.00    -0.273 OA
ATOM     46  N   UNL     1       0.411   2.285  -7.347  1.00  0.00    -0.341 N 
ATOM     47  H   UNL     1       0.317   1.364  -7.768  1.00  0.00     0.164 HD
BRANCH  46  48
ATOM     48  C   UNL     1       1.408   3.191  -7.921  1.00  0.00     0.196 C 
BRANCH  48  49
ATOM     49  C   UNL     1       2.592   2.413  -8.520  1.00  0.00     0.072 C 
BRANCH  49  50
ATOM     50  C   UNL     1       3.750   2.285  -7.557  1.00  0.00    -0.045 A 
ATOM     51  C   UNL     1       3.638   2.797  -6.256  1.00  0.00     0.007 A 
ATOM     52  C   UNL     1       4.951   1.679  -7.950  1.00  0.00     0.007 A 
ATOM     53  C   UNL     1       4.705   2.696  -5.363  1.00  0.00     0.046 A 
ATOM     54  C   UNL     1       6.020   1.580  -7.056  1.00  0.00     0.046 A 
ATOM     55  C   UNL     1       5.887   2.089  -5.769  1.00  0.00     0.115 A 
BRANCH  55  56
ATOM     56  O   UNL     1       6.906   2.013  -4.866  1.00  0.00    -0.508 OA
ATOM     57  H   UNL     1       6.532   2.095  -3.975  1.00  0.00     0.293 HD
ENDBRANCH  55  56
ENDBRANCH  49  50
ENDBRANCH  48  49
BRANCH  48  58
ATOM     58  C   UNL     1       0.742   4.037  -9.015  1.00  0.00     0.326 C 
ATOM     59  O   UNL     1       0.110   3.634  -9.979  1.00  0.00    -0.250 OA
BRANCH  58  60
ATOM     60  O   UNL     1       0.894   5.373  -8.834  1.00  0.00    -0.480 OA
ATOM     61  H   UNL     1       1.842   5.523  -9.040  1.00  0.00     0.296 HD
ENDBRANCH  58  60
ENDBRANCH  48  58
ENDBRANCH  46  48
ENDBRANCH  34  44
ENDBRANCH  32  34
ENDBRANCH  25  30
ENDBRANCH  23  25
ENDBRANCH   2  23
TORSDOF 28
ENDMDL
MODEL 27
REMARK VINA RESULT:    -6.364     10.582     15.057
REMARK INTER + INTRA:         -19.913
REMARK INTER:                 -13.985
REMARK INTRA:                  -5.928
REMARK UNBOUND:                -4.062
REMARK SMILES CCCCCCC[C@H](N)[C@H](O)C(=O)N[C@H](C)C(=O)N(C)[C@H](CC(C)C)C(=O)N[C@@H](Cc1ccc(O)cc1)C(=O)N[C@@H](Cc1ccc(O)cc1)C(=O)O
REMARK SMILES IDX 18 1 17 2 15 3 16 4 14 5 12 6 13 7 10 9 11 10 8 12 9 13 7 16
REMARK SMILES IDX 6 17 5 18 4 19 3 20 2 21 1 22 19 23 20 24 21 25 22 26 23 27
REMARK SMILES IDX 24 28 25 29 26 30 27 31 28 32 29 34 30 35 31 36 32 37 37 38
REMARK SMILES IDX 33 39 36 40 34 41 35 42 38 44 39 45 40 46 41 48 42 49 43 50
REMARK SMILES IDX 44 51 49 52 45 53 48 54 46 55 47 56 50 58 51 59 52 60
REMARK H PARENT 14 8 11 11 9 14 9 15 28 33 35 43 40 47 47 57 52 61
ROOT
ATOM      1  O   UNL     1     -15.661  -4.787   4.028  1.00  0.00    -0.272 OA
ATOM      2  C   UNL     1     -15.051  -4.805   5.107  1.00  0.00     0.245 C 
ENDROOT
BRANCH   2   3
ATOM      3  C   UNL     1     -13.534  -5.116   5.096  1.00  0.00     0.168 C 
ATOM      4  C   UNL     1     -13.276  -6.540   4.616  1.00  0.00     0.041 C 
BRANCH   3   5
ATOM      5  N   UNL     1     -12.717  -4.147   4.381  1.00  0.00    -0.342 N 
ATOM      6  C   UNL     1     -11.885  -3.268   5.042  1.00  0.00     0.251 C 
ATOM      7  O   UNL     1     -11.799  -3.206   6.264  1.00  0.00    -0.272 OA
ATOM      8  H   UNL     1     -12.729  -4.080   3.366  1.00  0.00     0.164 HD
BRANCH   6   9
ATOM      9  C   UNL     1     -11.015  -2.439   4.083  1.00  0.00     0.219 C 
BRANCH   9  10
ATOM     10  O   UNL     1     -10.509  -3.211   2.987  1.00  0.00    -0.382 OA
ATOM     11  H   UNL     1      -9.689  -3.614   3.348  1.00  0.00     0.211 HD
ENDBRANCH   9  10
BRANCH   9  12
ATOM     12  C   UNL     1     -11.723  -1.157   3.573  1.00  0.00     0.089 C 
BRANCH  12  13
ATOM     13  N   UNL     1     -13.148  -1.221   3.971  1.00  0.00    -0.325 NA
ATOM     14  H   UNL     1     -13.277  -1.984   4.637  1.00  0.00     0.119 HD
ATOM     15  H   UNL     1     -13.708  -1.482   3.155  1.00  0.00     0.119 HD
ENDBRANCH  12  13
BRANCH  12  16
ATOM     16  C   UNL     1     -11.104   0.186   4.028  1.00  0.00     0.022 C 
BRANCH  16  17
ATOM     17  C   UNL     1      -9.715   0.186   4.681  1.00  0.00     0.002 C 
BRANCH  17  18
ATOM     18  C   UNL     1      -8.707   1.146   4.053  1.00  0.00     0.000 C 
BRANCH  18  19
ATOM     19  C   UNL     1      -9.308   2.075   2.990  1.00  0.00    -0.000 C 
BRANCH  19  20
ATOM     20  C   UNL     1      -8.448   2.273   1.739  1.00  0.00    -0.000 C 
BRANCH  20  21
ATOM     21  C   UNL     1      -8.598   1.138   0.723  1.00  0.00    -0.003 C 
ATOM     22  C   UNL     1     -10.059   0.781   0.502  1.00  0.00     0.004 C 
ENDBRANCH  20  21
ENDBRANCH  19  20
ENDBRANCH  18  19
ENDBRANCH  17  18
ENDBRANCH  16  17
ENDBRANCH  12  16
ENDBRANCH   9  12
ENDBRANCH   6   9
ENDBRANCH   3   5
ENDBRANCH   2   3
BRANCH   2  23
ATOM     23  N   UNL     1     -15.700  -4.431   6.279  1.00  0.00    -0.332 N 
ATOM     24  C   UNL     1     -17.146  -4.390   6.446  1.00  0.00     0.147 C 
BRANCH  23  25
ATOM     25  C   UNL     1     -14.919  -4.163   7.518  1.00  0.00     0.174 C 
BRANCH  25  26
ATOM     26  C   UNL     1     -15.239  -5.157   8.659  1.00  0.00     0.038 C 
BRANCH  26  27
ATOM     27  C   UNL     1     -14.116  -6.137   9.069  1.00  0.00    -0.015 C 
ATOM     28  C   UNL     1     -14.335  -7.543   8.511  1.00  0.00     0.007 C 
ATOM     29  C   UNL     1     -12.716  -5.634   8.725  1.00  0.00     0.007 C 
ENDBRANCH  26  27
ENDBRANCH  25  26
BRANCH  25  30
ATOM     30  C   UNL     1     -15.064  -2.679   7.927  1.00  0.00     0.243 C 
ATOM     31  O   UNL     1     -15.725  -2.337   8.906  1.00  0.00    -0.273 OA
ATOM     32  N   UNL     1     -14.415  -1.776   7.126  1.00  0.00    -0.342 N 
ATOM     33  H   UNL     1     -13.773  -2.145   6.419  1.00  0.00     0.164 HD
BRANCH  32  34
ATOM     34  C   UNL     1     -14.463  -0.328   7.346  1.00  0.00     0.175 C 
BRANCH  34  35
ATOM     35  C   UNL     1     -13.108   0.329   7.044  1.00  0.00     0.070 C 
BRANCH  35  36
ATOM     36  C   UNL     1     -12.140   0.231   8.201  1.00  0.00    -0.045 A 
ATOM     37  C   UNL     1     -10.941  -0.483   8.055  1.00  0.00     0.007 A 
ATOM     38  C   UNL     1     -12.431   0.828   9.435  1.00  0.00     0.007 A 
ATOM     39  C   UNL     1     -10.048  -0.590   9.121  1.00  0.00     0.046 A 
ATOM     40  C   UNL     1     -11.538   0.720  10.503  1.00  0.00     0.046 A 
ATOM     41  C   UNL     1     -10.353   0.012  10.336  1.00  0.00     0.115 A 
BRANCH  41  42
ATOM     42  O   UNL     1      -9.454  -0.119  11.353  1.00  0.00    -0.508 OA
ATOM     43  H   UNL     1      -9.460   0.702  11.872  1.00  0.00     0.293 HD
ENDBRANCH  41  42
ENDBRANCH  35  36
ENDBRANCH  34  35
BRANCH  34  44
ATOM     44  C   UNL     1     -15.595   0.252   6.468  1.00  0.00     0.243 C 
ATOM     45  O   UNL     1     -16.791   0.172   6.735  1.00  0.00    -0.273 OA
ATOM     46  N   UNL     1     -15.150   0.765   5.268  1.00  0.00    -0.341 N 
ATOM     47  H   UNL     1     -14.161   0.702   5.040  1.00  0.00     0.164 HD
BRANCH  46  48
ATOM     48  C   UNL     1     -16.044   1.307   4.242  1.00  0.00     0.196 C 
BRANCH  48  49
ATOM     49  C   UNL     1     -16.993   0.227   3.698  1.00  0.00     0.072 C 
BRANCH  49  50
ATOM     50  C   UNL     1     -16.703  -0.131   2.258  1.00  0.00    -0.045 A 
ATOM     51  C   UNL     1     -15.898   0.712   1.477  1.00  0.00     0.007 A 
ATOM     52  C   UNL     1     -17.245  -1.285   1.679  1.00  0.00     0.007 A 
ATOM     53  C   UNL     1     -15.634   0.399   0.144  1.00  0.00     0.046 A 
ATOM     54  C   UNL     1     -16.982  -1.598   0.343  1.00  0.00     0.046 A 
ATOM     55  C   UNL     1     -16.177  -0.753  -0.413  1.00  0.00     0.115 A 
BRANCH  55  56
ATOM     56  O   UNL     1     -15.897  -1.021  -1.720  1.00  0.00    -0.508 OA
ATOM     57  H   UNL     1     -16.732  -1.041  -2.214  1.00  0.00     0.293 HD
ENDBRANCH  55  56
ENDBRANCH  49  50
ENDBRANCH  48  49
BRANCH  48  58
ATOM     58  C   UNL     1     -16.864   2.454   4.851  1.00  0.00     0.326 C 
ATOM     59  O   UNL     1     -16.467   3.568   5.150  1.00  0.00    -0.250 OA
BRANCH  58  60
ATOM     60  O   UNL     1     -18.170   2.142   5.043  1.00  0.00    -0.480 OA
ATOM     61  H   UNL     1     -18.475   2.827   5.677  1.00  0.00     0.296 HD
ENDBRANCH  58  60
ENDBRANCH  48  58
ENDBRANCH  46  48
ENDBRANCH  34  44
ENDBRANCH  32  34
ENDBRANCH  25  30
ENDBRANCH  23  25
ENDBRANCH   2  23
TORSDOF 28
ENDMDL
MODEL 28
REMARK VINA RESULT:    -6.361      3.943      9.437
REMARK INTER + INTRA:         -19.905
REMARK INTER:                 -15.439
REMARK INTRA:                  -4.466
REMARK UNBOUND:                -4.062
REMARK SMILES CCCCCCC[C@H](N)[C@H](O)C(=O)N[C@H](C)C(=O)N(C)[C@H](CC(C)C)C(=O)N[C@@H](Cc1ccc(O)cc1)C(=O)N[C@@H](Cc1ccc(O)cc1)C(=O)O
REMARK SMILES IDX 18 1 17 2 15 3 16 4 14 5 12 6 13 7 10 9 11 10 8 12 9 13 7 16
REMARK SMILES IDX 6 17 5 18 4 19 3 20 2 21 1 22 19 23 20 24 21 25 22 26 23 27
REMARK SMILES IDX 24 28 25 29 26 30 27 31 28 32 29 34 30 35 31 36 32 37 37 38
REMARK SMILES IDX 33 39 36 40 34 41 35 42 38 44 39 45 40 46 41 48 42 49 43 50
REMARK SMILES IDX 44 51 49 52 45 53 48 54 46 55 47 56 50 58 51 59 52 60
REMARK H PARENT 14 8 11 11 9 14 9 15 28 33 35 43 40 47 47 57 52 61
ROOT
ATOM      1  O   UNL     1      -4.570   4.168  11.224  1.00  0.00    -0.272 OA
ATOM      2  C   UNL     1      -4.842   3.721  10.100  1.00  0.00     0.245 C 
ENDROOT
BRANCH   2   3
ATOM      3  C   UNL     1      -4.521   4.590   8.859  1.00  0.00     0.168 C 
ATOM      4  C   UNL     1      -4.750   6.068   9.159  1.00  0.00     0.041 C 
BRANCH   3   5
ATOM      5  N   UNL     1      -3.213   4.353   8.269  1.00  0.00    -0.342 N 
ATOM      6  C   UNL     1      -3.065   3.697   7.065  1.00  0.00     0.251 C 
ATOM      7  O   UNL     1      -4.005   3.232   6.429  1.00  0.00    -0.272 OA
ATOM      8  H   UNL     1      -2.356   4.662   8.722  1.00  0.00     0.164 HD
BRANCH   6   9
ATOM      9  C   UNL     1      -1.611   3.687   6.568  1.00  0.00     0.219 C 
BRANCH   9  10
ATOM     10  O   UNL     1      -0.892   4.869   6.940  1.00  0.00    -0.382 OA
ATOM     11  H   UNL     1      -1.600   5.535   7.084  1.00  0.00     0.211 HD
ENDBRANCH   9  10
BRANCH   9  12
ATOM     12  C   UNL     1      -0.832   2.413   6.988  1.00  0.00     0.089 C 
BRANCH  12  13
ATOM     13  N   UNL     1      -1.813   1.359   7.335  1.00  0.00    -0.325 NA
ATOM     14  H   UNL     1      -1.407   0.443   7.135  1.00  0.00     0.119 HD
ATOM     15  H   UNL     1      -2.618   1.436   6.708  1.00  0.00     0.119 HD
ENDBRANCH  12  13
BRANCH  12  16
ATOM     16  C   UNL     1       0.188   1.872   5.957  1.00  0.00     0.022 C 
BRANCH  16  17
ATOM     17  C   UNL     1       1.383   1.046   6.453  1.00  0.00     0.002 C 
BRANCH  17  18
ATOM     18  C   UNL     1       2.020   0.139   5.402  1.00  0.00     0.000 C 
BRANCH  18  19
ATOM     19  C   UNL     1       1.161  -0.061   4.146  1.00  0.00    -0.000 C 
BRANCH  19  20
ATOM     20  C   UNL     1       0.584  -1.468   3.970  1.00  0.00    -0.000 C 
BRANCH  20  21
ATOM     21  C   UNL     1      -0.008  -1.704   2.578  1.00  0.00    -0.003 C 
ATOM     22  C   UNL     1       0.850  -2.662   1.766  1.00  0.00     0.004 C 
ENDBRANCH  20  21
ENDBRANCH  19  20
ENDBRANCH  18  19
ENDBRANCH  17  18
ENDBRANCH  16  17
ENDBRANCH  12  16
ENDBRANCH   9  12
ENDBRANCH   6   9
ENDBRANCH   3   5
ENDBRANCH   2   3
BRANCH   2  23
ATOM     23  N   UNL     1      -5.310   2.418   9.964  1.00  0.00    -0.332 N 
ATOM     24  C   UNL     1      -4.460   1.240   9.877  1.00  0.00     0.147 C 
BRANCH  23  25
ATOM     25  C   UNL     1      -6.770   2.133  10.030  1.00  0.00     0.174 C 
BRANCH  25  26
ATOM     26  C   UNL     1      -7.185   1.414  11.335  1.00  0.00     0.038 C 
BRANCH  26  27
ATOM     27  C   UNL     1      -8.675   1.497  11.737  1.00  0.00    -0.015 C 
ATOM     28  C   UNL     1      -8.920   1.029  13.171  1.00  0.00     0.007 C 
ATOM     29  C   UNL     1      -9.289   2.876  11.509  1.00  0.00     0.007 C 
ENDBRANCH  26  27
ENDBRANCH  25  26
BRANCH  25  30
ATOM     30  C   UNL     1      -7.228   1.405   8.746  1.00  0.00     0.243 C 
ATOM     31  O   UNL     1      -8.155   0.596   8.753  1.00  0.00    -0.273 OA
ATOM     32  N   UNL     1      -6.531   1.715   7.607  1.00  0.00    -0.342 N 
ATOM     33  H   UNL     1      -5.872   2.496   7.653  1.00  0.00     0.164 HD
BRANCH  32  34
ATOM     34  C   UNL     1      -6.808   1.102   6.305  1.00  0.00     0.175 C 
BRANCH  34  35
ATOM     35  C   UNL     1      -6.858   2.157   5.190  1.00  0.00     0.070 C 
BRANCH  35  36
ATOM     36  C   UNL     1      -7.822   1.794   4.083  1.00  0.00    -0.045 A 
ATOM     37  C   UNL     1      -8.916   0.958   4.352  1.00  0.00     0.007 A 
ATOM     38  C   UNL     1      -7.627   2.263   2.777  1.00  0.00     0.007 A 
ATOM     39  C   UNL     1      -9.803   0.606   3.334  1.00  0.00     0.046 A 
ATOM     40  C   UNL     1      -8.514   1.910   1.757  1.00  0.00     0.046 A 
ATOM     41  C   UNL     1      -9.596   1.084   2.046  1.00  0.00     0.115 A 
BRANCH  41  42
ATOM     42  O   UNL     1     -10.484   0.714   1.080  1.00  0.00    -0.508 OA
ATOM     43  H   UNL     1     -11.044   0.005   1.437  1.00  0.00     0.293 HD
ENDBRANCH  41  42
ENDBRANCH  35  36
ENDBRANCH  34  35
BRANCH  34  44
ATOM     44  C   UNL     1      -5.726   0.031   6.039  1.00  0.00     0.243 C 
ATOM     45  O   UNL     1      -5.092  -0.547   6.918  1.00  0.00    -0.273 OA
ATOM     46  N   UNL     1      -5.432  -0.131   4.702  1.00  0.00    -0.341 N 
ATOM     47  H   UNL     1      -5.902   0.456   4.018  1.00  0.00     0.164 HD
BRANCH  46  48
ATOM     48  C   UNL     1      -4.393  -1.040   4.210  1.00  0.00     0.196 C 
BRANCH  48  49
ATOM     49  C   UNL     1      -4.396  -1.114   2.674  1.00  0.00     0.072 C 
BRANCH  49  50
ATOM     50  C   UNL     1      -5.308  -2.198   2.146  1.00  0.00    -0.045 A 
ATOM     51  C   UNL     1      -4.779  -3.451   1.802  1.00  0.00     0.007 A 
ATOM     52  C   UNL     1      -6.679  -1.966   1.974  1.00  0.00     0.007 A 
ATOM     53  C   UNL     1      -5.609  -4.454   1.301  1.00  0.00     0.046 A 
ATOM     54  C   UNL     1      -7.510  -2.971   1.472  1.00  0.00     0.046 A 
ATOM     55  C   UNL     1      -6.967  -4.207   1.141  1.00  0.00     0.115 A 
BRANCH  55  56
ATOM     56  O   UNL     1      -7.743  -5.213   0.647  1.00  0.00    -0.508 OA
ATOM     57  H   UNL     1      -7.161  -5.927   0.340  1.00  0.00     0.293 HD
ENDBRANCH  55  56
ENDBRANCH  49  50
ENDBRANCH  48  49
BRANCH  48  58
ATOM     58  C   UNL     1      -3.025  -0.544   4.699  1.00  0.00     0.326 C 
ATOM     59  O   UNL     1      -2.431   0.460   4.341  1.00  0.00    -0.250 OA
BRANCH  58  60
ATOM     60  O   UNL     1      -2.466  -1.343   5.643  1.00  0.00    -0.480 OA
ATOM     61  H   UNL     1      -3.204  -1.502   6.270  1.00  0.00     0.296 HD
ENDBRANCH  58  60
ENDBRANCH  48  58
ENDBRANCH  46  48
ENDBRANCH  34  44
ENDBRANCH  32  34
ENDBRANCH  25  30
ENDBRANCH  23  25
ENDBRANCH   2  23
TORSDOF 28
ENDMDL
MODEL 29
REMARK VINA RESULT:    -6.359      9.615     14.486
REMARK INTER + INTRA:         -19.901
REMARK INTER:                 -14.505
REMARK INTRA:                  -5.396
REMARK UNBOUND:                -4.062
REMARK SMILES CCCCCCC[C@H](N)[C@H](O)C(=O)N[C@H](C)C(=O)N(C)[C@H](CC(C)C)C(=O)N[C@@H](Cc1ccc(O)cc1)C(=O)N[C@@H](Cc1ccc(O)cc1)C(=O)O
REMARK SMILES IDX 18 1 17 2 15 3 16 4 14 5 12 6 13 7 10 9 11 10 8 12 9 13 7 16
REMARK SMILES IDX 6 17 5 18 4 19 3 20 2 21 1 22 19 23 20 24 21 25 22 26 23 27
REMARK SMILES IDX 24 28 25 29 26 30 27 31 28 32 29 34 30 35 31 36 32 37 37 38
REMARK SMILES IDX 33 39 36 40 34 41 35 42 38 44 39 45 40 46 41 48 42 49 43 50
REMARK SMILES IDX 44 51 49 52 45 53 48 54 46 55 47 56 50 58 51 59 52 60
REMARK H PARENT 14 8 11 11 9 14 9 15 28 33 35 43 40 47 47 57 52 61
ROOT
ATOM      1  O   UNL     1      -4.556  -0.621  -4.962  1.00  0.00    -0.272 OA
ATOM      2  C   UNL     1      -5.134   0.386  -5.398  1.00  0.00     0.245 C 
ENDROOT
BRANCH   2   3
ATOM      3  C   UNL     1      -4.334   1.707  -5.513  1.00  0.00     0.168 C 
ATOM      4  C   UNL     1      -4.913   2.773  -4.589  1.00  0.00     0.041 C 
BRANCH   3   5
ATOM      5  N   UNL     1      -2.896   1.568  -5.346  1.00  0.00    -0.342 N 
ATOM      6  C   UNL     1      -2.001   2.178  -6.200  1.00  0.00     0.251 C 
ATOM      7  O   UNL     1      -2.341   2.840  -7.175  1.00  0.00    -0.272 OA
ATOM      8  H   UNL     1      -2.495   1.015  -4.593  1.00  0.00     0.164 HD
BRANCH   6   9
ATOM      9  C   UNL     1      -0.541   2.011  -5.749  1.00  0.00     0.219 C 
BRANCH   9  10
ATOM     10  O   UNL     1      -0.426   1.673  -4.362  1.00  0.00    -0.382 OA
ATOM     11  H   UNL     1       0.089   0.837  -4.370  1.00  0.00     0.211 HD
ENDBRANCH   9  10
BRANCH   9  12
ATOM     12  C   UNL     1       0.257   1.013  -6.628  1.00  0.00     0.089 C 
BRANCH  12  13
ATOM     13  N   UNL     1      -0.694   0.311  -7.520  1.00  0.00    -0.325 NA
ATOM     14  H   UNL     1      -1.278   1.001  -7.997  1.00  0.00     0.119 HD
ATOM     15  H   UNL     1      -1.342  -0.236  -6.948  1.00  0.00     0.119 HD
ENDBRANCH  12  13
BRANCH  12  16
ATOM     16  C   UNL     1       1.417   1.615  -7.456  1.00  0.00     0.022 C 
BRANCH  16  17
ATOM     17  C   UNL     1       1.752   3.105  -7.298  1.00  0.00     0.002 C 
BRANCH  17  18
ATOM     18  C   UNL     1       1.014   4.037  -8.257  1.00  0.00     0.000 C 
BRANCH  18  19
ATOM     19  C   UNL     1       0.477   3.341  -9.515  1.00  0.00    -0.000 C 
BRANCH  19  20
ATOM     20  C   UNL     1       1.148   3.760 -10.826  1.00  0.00    -0.000 C 
BRANCH  20  21
ATOM     21  C   UNL     1       0.146   4.165 -11.910  1.00  0.00    -0.003 C 
ATOM     22  C   UNL     1       0.510   3.560 -13.257  1.00  0.00     0.004 C 
ENDBRANCH  20  21
ENDBRANCH  19  20
ENDBRANCH  18  19
ENDBRANCH  17  18
ENDBRANCH  16  17
ENDBRANCH  12  16
ENDBRANCH   9  12
ENDBRANCH   6   9
ENDBRANCH   3   5
ENDBRANCH   2   3
BRANCH   2  23
ATOM     23  N   UNL     1      -6.433   0.286  -5.883  1.00  0.00    -0.332 N 
ATOM     24  C   UNL     1      -6.847   0.683  -7.221  1.00  0.00     0.147 C 
BRANCH  23  25
ATOM     25  C   UNL     1      -7.490  -0.376  -5.071  1.00  0.00     0.174 C 
BRANCH  25  26
ATOM     26  C   UNL     1      -8.823  -0.544  -5.838  1.00  0.00     0.038 C 
BRANCH  26  27
ATOM     27  C   UNL     1      -9.408  -1.971  -5.922  1.00  0.00    -0.015 C 
ATOM     28  C   UNL     1     -10.415  -2.124  -7.061  1.00  0.00     0.007 C 
ATOM     29  C   UNL     1      -8.341  -3.061  -5.999  1.00  0.00     0.007 C 
ENDBRANCH  26  27
ENDBRANCH  25  26
BRANCH  25  30
ATOM     30  C   UNL     1      -7.642   0.341  -3.710  1.00  0.00     0.243 C 
ATOM     31  O   UNL     1      -8.329   1.353  -3.581  1.00  0.00    -0.273 OA
ATOM     32  N   UNL     1      -6.958  -0.222  -2.663  1.00  0.00    -0.342 N 
ATOM     33  H   UNL     1      -6.527  -1.138  -2.816  1.00  0.00     0.164 HD
BRANCH  32  34
ATOM     34  C   UNL     1      -6.964   0.336  -1.308  1.00  0.00     0.175 C 
BRANCH  34  35
ATOM     35  C   UNL     1      -7.674  -0.602  -0.320  1.00  0.00     0.070 C 
BRANCH  35  36
ATOM     36  C   UNL     1      -7.829   0.007   1.056  1.00  0.00    -0.045 A 
ATOM     37  C   UNL     1      -7.466  -0.729   2.194  1.00  0.00     0.007 A 
ATOM     38  C   UNL     1      -8.356   1.295   1.216  1.00  0.00     0.007 A 
ATOM     39  C   UNL     1      -7.618  -0.181   3.468  1.00  0.00     0.046 A 
ATOM     40  C   UNL     1      -8.510   1.844   2.492  1.00  0.00     0.046 A 
ATOM     41  C   UNL     1      -8.138   1.100   3.607  1.00  0.00     0.115 A 
BRANCH  41  42
ATOM     42  O   UNL     1      -8.273   1.597   4.869  1.00  0.00    -0.508 OA
ATOM     43  H   UNL     1      -7.482   2.120   5.077  1.00  0.00     0.293 HD
ENDBRANCH  41  42
ENDBRANCH  35  36
ENDBRANCH  34  35
BRANCH  34  44
ATOM     44  C   UNL     1      -5.500   0.608  -0.896  1.00  0.00     0.243 C 
ATOM     45  O   UNL     1      -5.090   1.678  -0.455  1.00  0.00    -0.273 OA
ATOM     46  N   UNL     1      -4.644  -0.433  -1.191  1.00  0.00    -0.341 N 
ATOM     47  H   UNL     1      -5.012  -1.255  -1.664  1.00  0.00     0.164 HD
BRANCH  46  48
ATOM     48  C   UNL     1      -3.200  -0.380  -0.955  1.00  0.00     0.196 C 
BRANCH  48  49
ATOM     49  C   UNL     1      -2.627  -1.780  -0.677  1.00  0.00     0.072 C 
BRANCH  49  50
ATOM     50  C   UNL     1      -3.666  -2.739  -0.143  1.00  0.00    -0.045 A 
ATOM     51  C   UNL     1      -4.106  -3.807  -0.939  1.00  0.00     0.007 A 
ATOM     52  C   UNL     1      -4.218  -2.567   1.133  1.00  0.00     0.007 A 
ATOM     53  C   UNL     1      -5.075  -4.690  -0.462  1.00  0.00     0.046 A 
ATOM     54  C   UNL     1      -5.189  -3.451   1.610  1.00  0.00     0.046 A 
ATOM     55  C   UNL     1      -5.608  -4.506   0.808  1.00  0.00     0.115 A 
BRANCH  55  56
ATOM     56  O   UNL     1      -6.554  -5.391   1.236  1.00  0.00    -0.508 OA
ATOM     57  H   UNL     1      -6.338  -5.653   2.145  1.00  0.00     0.293 HD
ENDBRANCH  55  56
ENDBRANCH  49  50
ENDBRANCH  48  49
BRANCH  48  58
ATOM     58  C   UNL     1      -2.514   0.221  -2.190  1.00  0.00     0.326 C 
ATOM     59  O   UNL     1      -1.983  -0.382  -3.108  1.00  0.00    -0.250 OA
BRANCH  58  60
ATOM     60  O   UNL     1      -2.542   1.578  -2.217  1.00  0.00    -0.480 OA
ATOM     61  H   UNL     1      -1.668   1.829  -1.848  1.00  0.00     0.296 HD
ENDBRANCH  58  60
ENDBRANCH  48  58
ENDBRANCH  46  48
ENDBRANCH  34  44
ENDBRANCH  32  34
ENDBRANCH  25  30
ENDBRANCH  23  25
ENDBRANCH   2  23
TORSDOF 28
ENDMDL
MODEL 30
REMARK VINA RESULT:    -6.347     12.068     18.364
REMARK INTER + INTRA:         -19.871
REMARK INTER:                 -14.544
REMARK INTRA:                  -5.328
REMARK UNBOUND:                -4.062
REMARK SMILES CCCCCCC[C@H](N)[C@H](O)C(=O)N[C@H](C)C(=O)N(C)[C@H](CC(C)C)C(=O)N[C@@H](Cc1ccc(O)cc1)C(=O)N[C@@H](Cc1ccc(O)cc1)C(=O)O
REMARK SMILES IDX 18 1 17 2 15 3 16 4 14 5 12 6 13 7 10 9 11 10 8 12 9 13 7 16
REMARK SMILES IDX 6 17 5 18 4 19 3 20 2 21 1 22 19 23 20 24 21 25 22 26 23 27
REMARK SMILES IDX 24 28 25 29 26 30 27 31 28 32 29 34 30 35 31 36 32 37 37 38
REMARK SMILES IDX 33 39 36 40 34 41 35 42 38 44 39 45 40 46 41 48 42 49 43 50
REMARK SMILES IDX 44 51 49 52 45 53 48 54 46 55 47 56 50 58 51 59 52 60
REMARK H PARENT 14 8 11 11 9 14 9 15 28 33 35 43 40 47 47 57 52 61
ROOT
ATOM      1  O   UNL     1      -0.149  -5.144 -10.222  1.00  0.00    -0.272 OA
ATOM      2  C   UNL     1      -0.105  -4.672  -9.076  1.00  0.00     0.245 C 
ENDROOT
BRANCH   2   3
ATOM      3  C   UNL     1      -1.439  -4.345  -8.358  1.00  0.00     0.168 C 
ATOM      4  C   UNL     1      -2.131  -5.622  -7.895  1.00  0.00     0.041 C 
BRANCH   3   5
ATOM      5  N   UNL     1      -1.332  -3.367  -7.287  1.00  0.00    -0.342 N 
ATOM      6  C   UNL     1      -2.155  -2.263  -7.224  1.00  0.00     0.251 C 
ATOM      7  O   UNL     1      -3.000  -2.000  -8.074  1.00  0.00    -0.272 OA
ATOM      8  H   UNL     1      -0.644  -3.460  -6.543  1.00  0.00     0.164 HD
BRANCH   6   9
ATOM      9  C   UNL     1      -1.960  -1.448  -5.936  1.00  0.00     0.219 C 
BRANCH   9  10
ATOM     10  O   UNL     1      -2.220  -0.052  -6.120  1.00  0.00    -0.382 OA
ATOM     11  H   UNL     1      -1.379   0.377  -5.850  1.00  0.00     0.211 HD
ENDBRANCH   9  10
BRANCH   9  12
ATOM     12  C   UNL     1      -2.770  -2.005  -4.735  1.00  0.00     0.089 C 
BRANCH  12  13
ATOM     13  N   UNL     1      -3.686  -3.054  -5.236  1.00  0.00    -0.325 NA
ATOM     14  H   UNL     1      -3.155  -3.910  -5.408  1.00  0.00     0.119 HD
ATOM     15  H   UNL     1      -4.043  -2.773  -6.152  1.00  0.00     0.119 HD
ENDBRANCH  12  13
BRANCH  12  16
ATOM     16  C   UNL     1      -1.936  -2.548  -3.549  1.00  0.00     0.022 C 
BRANCH  16  17
ATOM     17  C   UNL     1      -2.661  -3.203  -2.365  1.00  0.00     0.002 C 
BRANCH  17  18
ATOM     18  C   UNL     1      -1.747  -3.856  -1.331  1.00  0.00     0.000 C 
BRANCH  18  19
ATOM     19  C   UNL     1      -0.277  -3.942  -1.763  1.00  0.00    -0.000 C 
BRANCH  19  20
ATOM     20  C   UNL     1       0.657  -2.926  -1.099  1.00  0.00    -0.000 C 
BRANCH  20  21
ATOM     21  C   UNL     1       0.081  -2.337   0.192  1.00  0.00    -0.003 C 
ATOM     22  C   UNL     1       0.849  -2.820   1.412  1.00  0.00     0.004 C 
ENDBRANCH  20  21
ENDBRANCH  19  20
ENDBRANCH  18  19
ENDBRANCH  17  18
ENDBRANCH  16  17
ENDBRANCH  12  16
ENDBRANCH   9  12
ENDBRANCH   6   9
ENDBRANCH   3   5
ENDBRANCH   2   3
BRANCH   2  23
ATOM     23  N   UNL     1       1.114  -4.560  -8.416  1.00  0.00    -0.332 N 
ATOM     24  C   UNL     1       1.491  -5.333  -7.242  1.00  0.00     0.147 C 
BRANCH  23  25
ATOM     25  C   UNL     1       2.192  -3.698  -8.972  1.00  0.00     0.174 C 
BRANCH  25  26
ATOM     26  C   UNL     1       3.544  -3.879  -8.242  1.00  0.00     0.038 C 
BRANCH  26  27
ATOM     27  C   UNL     1       4.744  -4.346  -9.096  1.00  0.00    -0.015 C 
ATOM     28  C   UNL     1       4.323  -5.265 -10.243  1.00  0.00     0.007 C 
ATOM     29  C   UNL     1       5.603  -3.196  -9.617  1.00  0.00     0.007 C 
ENDBRANCH  26  27
ENDBRANCH  25  26
BRANCH  25  30
ATOM     30  C   UNL     1       1.716  -2.229  -9.043  1.00  0.00     0.243 C 
ATOM     31  O   UNL     1       1.089  -1.704  -8.124  1.00  0.00    -0.273 OA
ATOM     32  N   UNL     1       2.033  -1.558 -10.196  1.00  0.00    -0.342 N 
ATOM     33  H   UNL     1       2.674  -2.015 -10.849  1.00  0.00     0.164 HD
BRANCH  32  34
ATOM     34  C   UNL     1       1.639  -0.169 -10.449  1.00  0.00     0.175 C 
BRANCH  34  35
ATOM     35  C   UNL     1       2.548   0.815  -9.696  1.00  0.00     0.070 C 
BRANCH  35  36
ATOM     36  C   UNL     1       1.794   1.653  -8.688  1.00  0.00    -0.045 A 
ATOM     37  C   UNL     1       2.497   2.412  -7.741  1.00  0.00     0.007 A 
ATOM     38  C   UNL     1       0.393   1.668  -8.670  1.00  0.00     0.007 A 
ATOM     39  C   UNL     1       1.809   3.178  -6.798  1.00  0.00     0.046 A 
ATOM     40  C   UNL     1      -0.296   2.433  -7.726  1.00  0.00     0.046 A 
ATOM     41  C   UNL     1       0.420   3.183  -6.799  1.00  0.00     0.115 A 
BRANCH  41  42
ATOM     42  O   UNL     1      -0.213   3.942  -5.859  1.00  0.00    -0.508 OA
ATOM     43  H   UNL     1      -0.233   4.861  -6.173  1.00  0.00     0.293 HD
ENDBRANCH  41  42
ENDBRANCH  35  36
ENDBRANCH  34  35
BRANCH  34  44
ATOM     44  C   UNL     1       1.672   0.067 -11.976  1.00  0.00     0.243 C 
ATOM     45  O   UNL     1       1.407  -0.787 -12.816  1.00  0.00    -0.273 OA
ATOM     46  N   UNL     1       2.160   1.308 -12.329  1.00  0.00    -0.341 N 
ATOM     47  H   UNL     1       2.478   1.940 -11.598  1.00  0.00     0.164 HD
BRANCH  46  48
ATOM     48  C   UNL     1       2.348   1.735 -13.717  1.00  0.00     0.196 C 
BRANCH  48  49
ATOM     49  C   UNL     1       1.970   3.214 -13.904  1.00  0.00     0.072 C 
BRANCH  49  50
ATOM     50  C   UNL     1       1.699   3.915 -12.592  1.00  0.00    -0.045 A 
ATOM     51  C   UNL     1       2.763   4.450 -11.852  1.00  0.00     0.007 A 
ATOM     52  C   UNL     1       0.396   4.023 -12.089  1.00  0.00     0.007 A 
ATOM     53  C   UNL     1       2.527   5.088 -10.634  1.00  0.00     0.046 A 
ATOM     54  C   UNL     1       0.159   4.661 -10.869  1.00  0.00     0.046 A 
ATOM     55  C   UNL     1       1.227   5.189 -10.152  1.00  0.00     0.115 A 
BRANCH  55  56
ATOM     56  O   UNL     1       1.039   5.818  -8.957  1.00  0.00    -0.508 OA
ATOM     57  H   UNL     1       1.490   5.306  -8.267  1.00  0.00     0.293 HD
ENDBRANCH  55  56
ENDBRANCH  49  50
ENDBRANCH  48  49
BRANCH  48  58
ATOM     58  C   UNL     1       3.817   1.525 -14.109  1.00  0.00     0.326 C 
ATOM     59  O   UNL     1       4.650   2.386 -14.344  1.00  0.00    -0.250 OA
BRANCH  58  60
ATOM     60  O   UNL     1       4.179   0.219 -14.174  1.00  0.00    -0.480 OA
ATOM     61  H   UNL     1       5.118   0.230 -13.887  1.00  0.00     0.296 HD
ENDBRANCH  58  60
ENDBRANCH  48  58
ENDBRANCH  46  48
ENDBRANCH  34  44
ENDBRANCH  32  34
ENDBRANCH  25  30
ENDBRANCH  23  25
ENDBRANCH   2  23
TORSDOF 28
ENDMDL
MODEL 31
REMARK VINA RESULT:    -6.281      5.106     10.189
REMARK INTER + INTRA:         -19.706
REMARK INTER:                 -14.789
REMARK INTRA:                  -4.917
REMARK UNBOUND:                -4.062
REMARK SMILES CCCCCCC[C@H](N)[C@H](O)C(=O)N[C@H](C)C(=O)N(C)[C@H](CC(C)C)C(=O)N[C@@H](Cc1ccc(O)cc1)C(=O)N[C@@H](Cc1ccc(O)cc1)C(=O)O
REMARK SMILES IDX 18 1 17 2 15 3 16 4 14 5 12 6 13 7 10 9 11 10 8 12 9 13 7 16
REMARK SMILES IDX 6 17 5 18 4 19 3 20 2 21 1 22 19 23 20 24 21 25 22 26 23 27
REMARK SMILES IDX 24 28 25 29 26 30 27 31 28 32 29 34 30 35 31 36 32 37 37 38
REMARK SMILES IDX 33 39 36 40 34 41 35 42 38 44 39 45 40 46 41 48 42 49 43 50
REMARK SMILES IDX 44 51 49 52 45 53 48 54 46 55 47 56 50 58 51 59 52 60
REMARK H PARENT 14 8 11 11 9 14 9 15 28 33 35 43 40 47 47 57 52 61
ROOT
ATOM      1  O   UNL     1      -3.086   3.793  11.802  1.00  0.00    -0.272 OA
ATOM      2  C   UNL     1      -3.488   2.653  11.526  1.00  0.00     0.245 C 
ENDROOT
BRANCH   2   3
ATOM      3  C   UNL     1      -3.985   1.744  12.678  1.00  0.00     0.168 C 
ATOM      4  C   UNL     1      -3.241   2.053  13.972  1.00  0.00     0.041 C 
BRANCH   3   5
ATOM      5  N   UNL     1      -5.427   1.734  12.871  1.00  0.00    -0.342 N 
ATOM      6  C   UNL     1      -6.201   0.648  12.521  1.00  0.00     0.251 C 
ATOM      7  O   UNL     1      -5.749  -0.362  11.991  1.00  0.00    -0.272 OA
ATOM      8  H   UNL     1      -5.920   2.530  13.270  1.00  0.00     0.164 HD
BRANCH   6   9
ATOM      9  C   UNL     1      -7.670   0.804  12.945  1.00  0.00     0.219 C 
BRANCH   9  10
ATOM     10  O   UNL     1      -7.838   1.727  14.028  1.00  0.00    -0.382 OA
ATOM     11  H   UNL     1      -8.301   2.488  13.614  1.00  0.00     0.211 HD
ENDBRANCH   9  10
BRANCH   9  12
ATOM     12  C   UNL     1      -8.610   1.164  11.765  1.00  0.00     0.089 C 
BRANCH  12  13
ATOM     13  N   UNL     1      -7.909   0.850  10.498  1.00  0.00    -0.325 NA
ATOM     14  H   UNL     1      -8.582   0.475   9.826  1.00  0.00     0.119 HD
ATOM     15  H   UNL     1      -7.247   0.090  10.665  1.00  0.00     0.119 HD
ENDBRANCH  12  13
BRANCH  12  16
ATOM     16  C   UNL     1     -10.005   0.495  11.780  1.00  0.00     0.022 C 
BRANCH  16  17
ATOM     17  C   UNL     1     -11.258   1.380  11.739  1.00  0.00     0.002 C 
BRANCH  17  18
ATOM     18  C   UNL     1     -11.272   2.426  10.627  1.00  0.00     0.000 C 
BRANCH  18  19
ATOM     19  C   UNL     1     -12.306   2.154   9.527  1.00  0.00    -0.000 C 
BRANCH  19  20
ATOM     20  C   UNL     1     -12.423   0.690   9.092  1.00  0.00    -0.000 C 
BRANCH  20  21
ATOM     21  C   UNL     1     -11.590   0.365   7.850  1.00  0.00    -0.003 C 
ATOM     22  C   UNL     1     -10.399  -0.515   8.196  1.00  0.00     0.004 C 
ENDBRANCH  20  21
ENDBRANCH  19  20
ENDBRANCH  18  19
ENDBRANCH  17  18
ENDBRANCH  16  17
ENDBRANCH  12  16
ENDBRANCH   9  12
ENDBRANCH   6   9
ENDBRANCH   3   5
ENDBRANCH   2   3
BRANCH   2  23
ATOM     23  N   UNL     1      -3.601   2.258  10.198  1.00  0.00    -0.332 N 
ATOM     24  C   UNL     1      -3.316   0.917   9.708  1.00  0.00     0.147 C 
BRANCH  23  25
ATOM     25  C   UNL     1      -4.164   3.189   9.182  1.00  0.00     0.174 C 
BRANCH  25  26
ATOM     26  C   UNL     1      -5.411   3.952   9.690  1.00  0.00     0.038 C 
BRANCH  26  27
ATOM     27  C   UNL     1      -5.413   5.487   9.514  1.00  0.00    -0.015 C 
ATOM     28  C   UNL     1      -6.345   5.945   8.393  1.00  0.00     0.007 C 
ATOM     29  C   UNL     1      -5.711   6.246  10.804  1.00  0.00     0.007 C 
ENDBRANCH  26  27
ENDBRANCH  25  26
BRANCH  25  30
ATOM     30  C   UNL     1      -4.392   2.446   7.846  1.00  0.00     0.243 C 
ATOM     31  O   UNL     1      -3.577   2.497   6.927  1.00  0.00    -0.273 OA
ATOM     32  N   UNL     1      -5.561   1.735   7.755  1.00  0.00    -0.342 N 
ATOM     33  H   UNL     1      -6.117   1.625   8.607  1.00  0.00     0.164 HD
BRANCH  32  34
ATOM     34  C   UNL     1      -5.956   0.992   6.555  1.00  0.00     0.175 C 
BRANCH  34  35
ATOM     35  C   UNL     1      -6.169   1.933   5.360  1.00  0.00     0.070 C 
BRANCH  35  36
ATOM     36  C   UNL     1      -7.461   1.660   4.623  1.00  0.00    -0.045 A 
ATOM     37  C   UNL     1      -8.296   0.611   5.037  1.00  0.00     0.007 A 
ATOM     38  C   UNL     1      -7.831   2.428   3.512  1.00  0.00     0.007 A 
ATOM     39  C   UNL     1      -9.484   0.342   4.355  1.00  0.00     0.046 A 
ATOM     40  C   UNL     1      -9.019   2.159   2.827  1.00  0.00     0.046 A 
ATOM     41  C   UNL     1      -9.836   1.118   3.257  1.00  0.00     0.115 A 
BRANCH  41  42
ATOM     42  O   UNL     1     -11.003   0.821   2.617  1.00  0.00    -0.508 OA
ATOM     43  H   UNL     1     -10.825   0.117   1.971  1.00  0.00     0.293 HD
ENDBRANCH  41  42
ENDBRANCH  35  36
ENDBRANCH  34  35
BRANCH  34  44
ATOM     44  C   UNL     1      -4.868  -0.068   6.269  1.00  0.00     0.243 C 
ATOM     45  O   UNL     1      -4.585  -0.993   7.024  1.00  0.00    -0.273 OA
ATOM     46  N   UNL     1      -4.137   0.191   5.129  1.00  0.00    -0.341 N 
ATOM     47  H   UNL     1      -4.333   1.035   4.597  1.00  0.00     0.164 HD
BRANCH  46  48
ATOM     48  C   UNL     1      -3.010  -0.635   4.690  1.00  0.00     0.196 C 
BRANCH  48  49
ATOM     49  C   UNL     1      -2.962  -0.747   3.156  1.00  0.00     0.072 C 
BRANCH  49  50
ATOM     50  C   UNL     1      -4.337  -0.731   2.528  1.00  0.00    -0.045 A 
ATOM     51  C   UNL     1      -4.723   0.349   1.721  1.00  0.00     0.007 A 
ATOM     52  C   UNL     1      -5.246  -1.771   2.756  1.00  0.00     0.007 A 
ATOM     53  C   UNL     1      -5.994   0.382   1.146  1.00  0.00     0.046 A 
ATOM     54  C   UNL     1      -6.519  -1.738   2.182  1.00  0.00     0.046 A 
ATOM     55  C   UNL     1      -6.882  -0.662   1.381  1.00  0.00     0.115 A 
BRANCH  55  56
ATOM     56  O   UNL     1      -8.115  -0.591   0.802  1.00  0.00    -0.508 OA
ATOM     57  H   UNL     1      -8.157   0.220   0.270  1.00  0.00     0.293 HD
ENDBRANCH  55  56
ENDBRANCH  49  50
ENDBRANCH  48  49
BRANCH  48  58
ATOM     58  C   UNL     1      -1.705  -0.011   5.202  1.00  0.00     0.326 C 
ATOM     59  O   UNL     1      -0.777  -0.584   5.749  1.00  0.00    -0.250 OA
BRANCH  58  60
ATOM     60  O   UNL     1      -1.621   1.325   4.983  1.00  0.00    -0.480 OA
ATOM     61  H   UNL     1      -1.537   1.697   5.888  1.00  0.00     0.296 HD
ENDBRANCH  58  60
ENDBRANCH  48  58
ENDBRANCH  46  48
ENDBRANCH  34  44
ENDBRANCH  32  34
ENDBRANCH  25  30
ENDBRANCH  23  25
ENDBRANCH   2  23
TORSDOF 28
ENDMDL
MODEL 32
REMARK VINA RESULT:    -6.261     15.144     19.134
REMARK INTER + INTRA:         -19.658
REMARK INTER:                 -14.800
REMARK INTRA:                  -4.858
REMARK UNBOUND:                -4.062
REMARK SMILES CCCCCCC[C@H](N)[C@H](O)C(=O)N[C@H](C)C(=O)N(C)[C@H](CC(C)C)C(=O)N[C@@H](Cc1ccc(O)cc1)C(=O)N[C@@H](Cc1ccc(O)cc1)C(=O)O
REMARK SMILES IDX 18 1 17 2 15 3 16 4 14 5 12 6 13 7 10 9 11 10 8 12 9 13 7 16
REMARK SMILES IDX 6 17 5 18 4 19 3 20 2 21 1 22 19 23 20 24 21 25 22 26 23 27
REMARK SMILES IDX 24 28 25 29 26 30 27 31 28 32 29 34 30 35 31 36 32 37 37 38
REMARK SMILES IDX 33 39 36 40 34 41 35 42 38 44 39 45 40 46 41 48 42 49 43 50
REMARK SMILES IDX 44 51 49 52 45 53 48 54 46 55 47 56 50 58 51 59 52 60
REMARK H PARENT 14 8 11 11 9 14 9 15 28 33 35 43 40 47 47 57 52 61
ROOT
ATOM      1  O   UNL     1       0.346  -5.828 -10.526  1.00  0.00    -0.272 OA
ATOM      2  C   UNL     1       0.041  -4.986  -9.669  1.00  0.00     0.245 C 
ENDROOT
BRANCH   2   3
ATOM      3  C   UNL     1      -1.413  -4.453  -9.638  1.00  0.00     0.168 C 
ATOM      4  C   UNL     1      -2.410  -5.585  -9.860  1.00  0.00     0.041 C 
BRANCH   3   5
ATOM      5  N   UNL     1      -1.748  -3.658  -8.466  1.00  0.00    -0.342 N 
ATOM      6  C   UNL     1      -2.523  -2.521  -8.555  1.00  0.00     0.251 C 
ATOM      7  O   UNL     1      -2.948  -2.073  -9.615  1.00  0.00    -0.272 OA
ATOM      8  H   UNL     1      -1.423  -3.911  -7.536  1.00  0.00     0.164 HD
BRANCH   6   9
ATOM      9  C   UNL     1      -2.866  -1.927  -7.179  1.00  0.00     0.219 C 
BRANCH   9  10
ATOM     10  O   UNL     1      -2.018  -0.828  -6.825  1.00  0.00    -0.382 OA
ATOM     11  H   UNL     1      -1.197  -1.264  -6.507  1.00  0.00     0.211 HD
ENDBRANCH   9  10
BRANCH   9  12
ATOM     12  C   UNL     1      -4.361  -1.536  -7.041  1.00  0.00     0.089 C 
BRANCH  12  13
ATOM     13  N   UNL     1      -4.507  -0.111  -7.415  1.00  0.00    -0.325 NA
ATOM     14  H   UNL     1      -4.541  -0.032  -8.433  1.00  0.00     0.119 HD
ATOM     15  H   UNL     1      -3.662   0.394  -7.137  1.00  0.00     0.119 HD
ENDBRANCH  12  13
BRANCH  12  16
ATOM     16  C   UNL     1      -5.365  -2.401  -7.839  1.00  0.00     0.022 C 
BRANCH  16  17
ATOM     17  C   UNL     1      -6.339  -1.714  -8.806  1.00  0.00     0.002 C 
BRANCH  17  18
ATOM     18  C   UNL     1      -6.973  -2.636  -9.846  1.00  0.00     0.000 C 
BRANCH  18  19
ATOM     19  C   UNL     1      -8.482  -2.428 -10.028  1.00  0.00    -0.000 C 
BRANCH  19  20
ATOM     20  C   UNL     1      -8.986  -1.015  -9.718  1.00  0.00    -0.000 C 
BRANCH  20  21
ATOM     21  C   UNL     1     -10.183  -1.002  -8.764  1.00  0.00    -0.003 C 
ATOM     22  C   UNL     1      -9.735  -0.979  -7.311  1.00  0.00     0.004 C 
ENDBRANCH  20  21
ENDBRANCH  19  20
ENDBRANCH  18  19
ENDBRANCH  17  18
ENDBRANCH  16  17
ENDBRANCH  12  16
ENDBRANCH   9  12
ENDBRANCH   6   9
ENDBRANCH   3   5
ENDBRANCH   2   3
BRANCH   2  23
ATOM     23  N   UNL     1       0.959  -4.629  -8.686  1.00  0.00    -0.332 N 
ATOM     24  C   UNL     1       1.007  -5.208  -7.352  1.00  0.00     0.147 C 
BRANCH  23  25
ATOM     25  C   UNL     1       2.067  -3.686  -9.001  1.00  0.00     0.174 C 
BRANCH  25  26
ATOM     26  C   UNL     1       3.281  -3.846  -8.055  1.00  0.00     0.038 C 
BRANCH  26  27
ATOM     27  C   UNL     1       4.475  -4.673  -8.582  1.00  0.00    -0.015 C 
ATOM     28  C   UNL     1       4.818  -5.851  -7.670  1.00  0.00     0.007 C 
ATOM     29  C   UNL     1       4.298  -5.145 -10.024  1.00  0.00     0.007 C 
ENDBRANCH  26  27
ENDBRANCH  25  26
BRANCH  25  30
ATOM     30  C   UNL     1       1.529  -2.239  -9.082  1.00  0.00     0.243 C 
ATOM     31  O   UNL     1       0.742  -1.791  -8.249  1.00  0.00    -0.273 OA
ATOM     32  N   UNL     1       1.980  -1.496 -10.142  1.00  0.00    -0.342 N 
ATOM     33  H   UNL     1       2.737  -1.889 -10.707  1.00  0.00     0.164 HD
BRANCH  32  34
ATOM     34  C   UNL     1       1.556  -0.116 -10.393  1.00  0.00     0.175 C 
BRANCH  34  35
ATOM     35  C   UNL     1       2.448   0.887  -9.646  1.00  0.00     0.070 C 
BRANCH  35  36
ATOM     36  C   UNL     1       1.685   1.700  -8.624  1.00  0.00    -0.045 A 
ATOM     37  C   UNL     1       2.380   2.467  -7.677  1.00  0.00     0.007 A 
ATOM     38  C   UNL     1       0.284   1.683  -8.592  1.00  0.00     0.007 A 
ATOM     39  C   UNL     1       1.685   3.210  -6.722  1.00  0.00     0.046 A 
ATOM     40  C   UNL     1      -0.412   2.425  -7.635  1.00  0.00     0.046 A 
ATOM     41  C   UNL     1       0.296   3.184  -6.709  1.00  0.00     0.115 A 
BRANCH  41  42
ATOM     42  O   UNL     1      -0.345   3.921  -5.757  1.00  0.00    -0.508 OA
ATOM     43  H   UNL     1       0.016   4.823  -5.777  1.00  0.00     0.293 HD
ENDBRANCH  41  42
ENDBRANCH  35  36
ENDBRANCH  34  35
BRANCH  34  44
ATOM     44  C   UNL     1       1.574   0.120 -11.920  1.00  0.00     0.243 C 
ATOM     45  O   UNL     1       1.170  -0.687 -12.752  1.00  0.00    -0.273 OA
ATOM     46  N   UNL     1       2.213   1.285 -12.287  1.00  0.00    -0.341 N 
ATOM     47  H   UNL     1       2.635   1.865 -11.566  1.00  0.00     0.164 HD
BRANCH  46  48
ATOM     48  C   UNL     1       2.414   1.689 -13.680  1.00  0.00     0.196 C 
BRANCH  48  49
ATOM     49  C   UNL     1       2.289   3.213 -13.845  1.00  0.00     0.072 C 
BRANCH  49  50
ATOM     50  C   UNL     1       1.904   3.908 -12.559  1.00  0.00    -0.045 A 
ATOM     51  C   UNL     1       2.895   4.486 -11.753  1.00  0.00     0.007 A 
ATOM     52  C   UNL     1       0.567   3.967 -12.144  1.00  0.00     0.007 A 
ATOM     53  C   UNL     1       2.553   5.118 -10.557  1.00  0.00     0.046 A 
ATOM     54  C   UNL     1       0.225   4.598 -10.946  1.00  0.00     0.046 A 
ATOM     55  C   UNL     1       1.222   5.170 -10.163  1.00  0.00     0.115 A 
BRANCH  55  56
ATOM     56  O   UNL     1       0.930   5.795  -8.987  1.00  0.00    -0.508 OA
ATOM     57  H   UNL     1       1.752   5.892  -8.480  1.00  0.00     0.293 HD
ENDBRANCH  55  56
ENDBRANCH  49  50
ENDBRANCH  48  49
BRANCH  48  58
ATOM     58  C   UNL     1       3.808   1.235 -14.135  1.00  0.00     0.326 C 
ATOM     59  O   UNL     1       4.225   0.091 -14.212  1.00  0.00    -0.250 OA
BRANCH  58  60
ATOM     60  O   UNL     1       4.622   2.261 -14.493  1.00  0.00    -0.480 OA
ATOM     61  H   UNL     1       4.403   2.403 -15.440  1.00  0.00     0.296 HD
ENDBRANCH  58  60
ENDBRANCH  48  58
ENDBRANCH  46  48
ENDBRANCH  34  44
ENDBRANCH  32  34
ENDBRANCH  25  30
ENDBRANCH  23  25
ENDBRANCH   2  23
TORSDOF 28
ENDMDL
MODEL 33
REMARK VINA RESULT:    -6.242     13.598     17.774
REMARK INTER + INTRA:         -19.609
REMARK INTER:                 -12.310
REMARK INTRA:                  -7.299
REMARK UNBOUND:                -4.062
REMARK SMILES CCCCCCC[C@H](N)[C@H](O)C(=O)N[C@H](C)C(=O)N(C)[C@H](CC(C)C)C(=O)N[C@@H](Cc1ccc(O)cc1)C(=O)N[C@@H](Cc1ccc(O)cc1)C(=O)O
REMARK SMILES IDX 18 1 17 2 15 3 16 4 14 5 12 6 13 7 10 9 11 10 8 12 9 13 7 16
REMARK SMILES IDX 6 17 5 18 4 19 3 20 2 21 1 22 19 23 20 24 21 25 22 26 23 27
REMARK SMILES IDX 24 28 25 29 26 30 27 31 28 32 29 34 30 35 31 36 32 37 37 38
REMARK SMILES IDX 33 39 36 40 34 41 35 42 38 44 39 45 40 46 41 48 42 49 43 50
REMARK SMILES IDX 44 51 49 52 45 53 48 54 46 55 47 56 50 58 51 59 52 60
REMARK H PARENT 14 8 11 11 9 14 9 15 28 33 35 43 40 47 47 57 52 61
ROOT
ATOM      1  O   UNL     1     -18.820  -2.434   8.168  1.00  0.00    -0.272 OA
ATOM      2  C   UNL     1     -19.586  -2.080   7.260  1.00  0.00     0.245 C 
ENDROOT
BRANCH   2   3
ATOM      3  C   UNL     1     -19.750  -0.566   6.977  1.00  0.00     0.168 C 
ATOM      4  C   UNL     1     -20.657   0.085   8.016  1.00  0.00     0.041 C 
BRANCH   3   5
ATOM      5  N   UNL     1     -18.502   0.164   6.814  1.00  0.00    -0.342 N 
ATOM      6  C   UNL     1     -18.341   1.121   5.834  1.00  0.00     0.251 C 
ATOM      7  O   UNL     1     -19.206   1.398   5.010  1.00  0.00    -0.272 OA
ATOM      8  H   UNL     1     -17.700  -0.004   7.416  1.00  0.00     0.164 HD
BRANCH   6   9
ATOM      9  C   UNL     1     -16.997   1.859   5.940  1.00  0.00     0.219 C 
BRANCH   9  10
ATOM     10  O   UNL     1     -16.152   1.325   6.966  1.00  0.00    -0.382 OA
ATOM     11  H   UNL     1     -16.395   1.848   7.761  1.00  0.00     0.211 HD
ENDBRANCH   9  10
BRANCH   9  12
ATOM     12  C   UNL     1     -16.239   1.941   4.589  1.00  0.00     0.089 C 
BRANCH  12  13
ATOM     13  N   UNL     1     -16.878   2.985   3.757  1.00  0.00    -0.325 NA
ATOM     14  H   UNL     1     -17.027   3.822   4.323  1.00  0.00     0.119 HD
ATOM     15  H   UNL     1     -17.815   2.671   3.494  1.00  0.00     0.119 HD
ENDBRANCH  12  13
BRANCH  12  16
ATOM     16  C   UNL     1     -14.715   2.194   4.681  1.00  0.00     0.022 C 
BRANCH  16  17
ATOM     17  C   UNL     1     -13.758   1.288   3.894  1.00  0.00     0.002 C 
BRANCH  17  18
ATOM     18  C   UNL     1     -14.422   0.429   2.820  1.00  0.00     0.000 C 
BRANCH  18  19
ATOM     19  C   UNL     1     -14.075  -1.063   2.910  1.00  0.00    -0.000 C 
BRANCH  19  20
ATOM     20  C   UNL     1     -14.293  -1.699   4.286  1.00  0.00    -0.000 C 
BRANCH  20  21
ATOM     21  C   UNL     1     -15.767  -1.750   4.696  1.00  0.00    -0.003 C 
ATOM     22  C   UNL     1     -15.974  -2.636   5.914  1.00  0.00     0.004 C 
ENDBRANCH  20  21
ENDBRANCH  19  20
ENDBRANCH  18  19
ENDBRANCH  17  18
ENDBRANCH  16  17
ENDBRANCH  12  16
ENDBRANCH   9  12
ENDBRANCH   6   9
ENDBRANCH   3   5
ENDBRANCH   2   3
BRANCH   2  23
ATOM     23  N   UNL     1     -20.183  -3.033   6.442  1.00  0.00    -0.332 N 
ATOM     24  C   UNL     1     -21.615  -3.139   6.205  1.00  0.00     0.147 C 
BRANCH  23  25
ATOM     25  C   UNL     1     -19.344  -3.958   5.632  1.00  0.00     0.174 C 
BRANCH  25  26
ATOM     26  C   UNL     1     -19.954  -4.265   4.244  1.00  0.00     0.038 C 
BRANCH  26  27
ATOM     27  C   UNL     1     -19.239  -3.659   3.015  1.00  0.00    -0.015 C 
ATOM     28  C   UNL     1     -17.835  -4.229   2.817  1.00  0.00     0.007 C 
ATOM     29  C   UNL     1     -20.050  -3.767   1.726  1.00  0.00     0.007 C 
ENDBRANCH  26  27
ENDBRANCH  25  26
BRANCH  25  30
ATOM     30  C   UNL     1     -19.000  -5.222   6.452  1.00  0.00     0.243 C 
ATOM     31  O   UNL     1     -19.790  -6.158   6.566  1.00  0.00    -0.273 OA
ATOM     32  N   UNL     1     -17.764  -5.226   7.047  1.00  0.00    -0.342 N 
ATOM     33  H   UNL     1     -17.113  -4.479   6.791  1.00  0.00     0.164 HD
BRANCH  32  34
ATOM     34  C   UNL     1     -17.280  -6.327   7.884  1.00  0.00     0.175 C 
BRANCH  34  35
ATOM     35  C   UNL     1     -16.455  -7.331   7.064  1.00  0.00     0.070 C 
BRANCH  35  36
ATOM     36  C   UNL     1     -15.437  -6.659   6.170  1.00  0.00    -0.045 A 
ATOM     37  C   UNL     1     -14.301  -6.056   6.731  1.00  0.00     0.007 A 
ATOM     38  C   UNL     1     -15.621  -6.608   4.782  1.00  0.00     0.007 A 
ATOM     39  C   UNL     1     -13.362  -5.422   5.916  1.00  0.00     0.046 A 
ATOM     40  C   UNL     1     -14.683  -5.972   3.966  1.00  0.00     0.046 A 
ATOM     41  C   UNL     1     -13.560  -5.386   4.541  1.00  0.00     0.115 A 
BRANCH  41  42
ATOM     42  O   UNL     1     -12.621  -4.754   3.780  1.00  0.00    -0.508 OA
ATOM     43  H   UNL     1     -12.104  -4.169   4.359  1.00  0.00     0.293 HD
ENDBRANCH  41  42
ENDBRANCH  35  36
ENDBRANCH  34  35
BRANCH  34  44
ATOM     44  C   UNL     1     -16.463  -5.721   9.047  1.00  0.00     0.243 C 
ATOM     45  O   UNL     1     -15.855  -6.381   9.885  1.00  0.00    -0.273 OA
ATOM     46  N   UNL     1     -16.580  -4.351   9.144  1.00  0.00    -0.341 N 
ATOM     47  H   UNL     1     -17.190  -3.860   8.495  1.00  0.00     0.164 HD
BRANCH  46  48
ATOM     48  C   UNL     1     -15.951  -3.562  10.206  1.00  0.00     0.196 C 
BRANCH  48  49
ATOM     49  C   UNL     1     -15.284  -2.296   9.642  1.00  0.00     0.072 C 
BRANCH  49  50
ATOM     50  C   UNL     1     -13.905  -2.564   9.083  1.00  0.00    -0.045 A 
ATOM     51  C   UNL     1     -13.371  -1.716   8.102  1.00  0.00     0.007 A 
ATOM     52  C   UNL     1     -13.154  -3.665   9.514  1.00  0.00     0.007 A 
ATOM     53  C   UNL     1     -12.105  -1.961   7.569  1.00  0.00     0.046 A 
ATOM     54  C   UNL     1     -11.887  -3.912   8.980  1.00  0.00     0.046 A 
ATOM     55  C   UNL     1     -11.373  -3.056   8.012  1.00  0.00     0.115 A 
BRANCH  55  56
ATOM     56  O   UNL     1     -10.142  -3.262   7.464  1.00  0.00    -0.508 OA
ATOM     57  H   UNL     1      -9.886  -4.185   7.623  1.00  0.00     0.293 HD
ENDBRANCH  55  56
ENDBRANCH  49  50
ENDBRANCH  48  49
BRANCH  48  58
ATOM     58  C   UNL     1     -17.020  -3.166  11.233  1.00  0.00     0.326 C 
ATOM     59  O   UNL     1     -17.613  -2.103  11.311  1.00  0.00    -0.250 OA
BRANCH  58  60
ATOM     60  O   UNL     1     -17.308  -4.151  12.121  1.00  0.00    -0.480 OA
ATOM     61  H   UNL     1     -18.289  -4.144  12.157  1.00  0.00     0.296 HD
ENDBRANCH  58  60
ENDBRANCH  48  58
ENDBRANCH  46  48
ENDBRANCH  34  44
ENDBRANCH  32  34
ENDBRANCH  25  30
ENDBRANCH  23  25
ENDBRANCH   2  23
TORSDOF 28
ENDMDL
MODEL 34
REMARK VINA RESULT:    -6.241     13.377     18.061
REMARK INTER + INTRA:         -19.607
REMARK INTER:                 -13.335
REMARK INTRA:                  -6.271
REMARK UNBOUND:                -4.062
REMARK SMILES CCCCCCC[C@H](N)[C@H](O)C(=O)N[C@H](C)C(=O)N(C)[C@H](CC(C)C)C(=O)N[C@@H](Cc1ccc(O)cc1)C(=O)N[C@@H](Cc1ccc(O)cc1)C(=O)O
REMARK SMILES IDX 18 1 17 2 15 3 16 4 14 5 12 6 13 7 10 9 11 10 8 12 9 13 7 16
REMARK SMILES IDX 6 17 5 18 4 19 3 20 2 21 1 22 19 23 20 24 21 25 22 26 23 27
REMARK SMILES IDX 24 28 25 29 26 30 27 31 28 32 29 34 30 35 31 36 32 37 37 38
REMARK SMILES IDX 33 39 36 40 34 41 35 42 38 44 39 45 40 46 41 48 42 49 43 50
REMARK SMILES IDX 44 51 49 52 45 53 48 54 46 55 47 56 50 58 51 59 52 60
REMARK H PARENT 14 8 11 11 9 14 9 15 28 33 35 43 40 47 47 57 52 61
ROOT
ATOM      1  O   UNL     1       0.008  -6.727  -7.261  1.00  0.00    -0.272 OA
ATOM      2  C   UNL     1      -0.276  -6.409  -8.425  1.00  0.00     0.245 C 
ENDROOT
BRANCH   2   3
ATOM      3  C   UNL     1      -1.755  -6.096  -8.767  1.00  0.00     0.168 C 
ATOM      4  C   UNL     1      -2.691  -6.698  -7.726  1.00  0.00     0.041 C 
BRANCH   3   5
ATOM      5  N   UNL     1      -2.042  -4.690  -9.006  1.00  0.00    -0.342 N 
ATOM      6  C   UNL     1      -2.851  -4.278 -10.045  1.00  0.00     0.251 C 
ATOM      7  O   UNL     1      -3.348  -5.048 -10.860  1.00  0.00    -0.272 OA
ATOM      8  H   UNL     1      -1.657  -3.956  -8.416  1.00  0.00     0.164 HD
BRANCH   6   9
ATOM      9  C   UNL     1      -3.129  -2.767 -10.018  1.00  0.00     0.219 C 
BRANCH   9  10
ATOM     10  O   UNL     1      -3.421  -2.236 -11.316  1.00  0.00    -0.382 OA
ATOM     11  H   UNL     1      -2.795  -1.485 -11.405  1.00  0.00     0.211 HD
ENDBRANCH   9  10
BRANCH   9  12
ATOM     12  C   UNL     1      -4.229  -2.368  -9.000  1.00  0.00     0.089 C 
BRANCH  12  13
ATOM     13  N   UNL     1      -4.965  -3.590  -8.605  1.00  0.00    -0.325 NA
ATOM     14  H   UNL     1      -4.325  -4.387  -8.616  1.00  0.00     0.119 HD
ATOM     15  H   UNL     1      -5.666  -3.801  -9.319  1.00  0.00     0.119 HD
ENDBRANCH  12  13
BRANCH  12  16
ATOM     16  C   UNL     1      -3.744  -1.609  -7.741  1.00  0.00     0.022 C 
BRANCH  16  17
ATOM     17  C   UNL     1      -2.239  -1.385  -7.537  1.00  0.00     0.002 C 
BRANCH  17  18
ATOM     18  C   UNL     1      -1.873  -0.091  -6.813  1.00  0.00     0.000 C 
BRANCH  18  19
ATOM     19  C   UNL     1      -0.685   0.657  -7.432  1.00  0.00    -0.000 C 
BRANCH  19  20
ATOM     20  C   UNL     1      -0.761   2.184  -7.343  1.00  0.00    -0.000 C 
BRANCH  20  21
ATOM     21  C   UNL     1      -0.111   2.743  -6.074  1.00  0.00    -0.003 C 
ATOM     22  C   UNL     1      -1.158   3.193  -5.068  1.00  0.00     0.004 C 
ENDBRANCH  20  21
ENDBRANCH  19  20
ENDBRANCH  18  19
ENDBRANCH  17  18
ENDBRANCH  16  17
ENDBRANCH  12  16
ENDBRANCH   9  12
ENDBRANCH   6   9
ENDBRANCH   3   5
ENDBRANCH   2   3
BRANCH   2  23
ATOM     23  N   UNL     1       0.734  -6.220  -9.362  1.00  0.00    -0.332 N 
ATOM     24  C   UNL     1       0.676  -6.678 -10.742  1.00  0.00     0.147 C 
BRANCH  23  25
ATOM     25  C   UNL     1       1.927  -5.396  -9.024  1.00  0.00     0.174 C 
BRANCH  25  26
ATOM     26  C   UNL     1       2.816  -6.042  -7.935  1.00  0.00     0.038 C 
BRANCH  26  27
ATOM     27  C   UNL     1       4.288  -6.326  -8.311  1.00  0.00    -0.015 C 
ATOM     28  C   UNL     1       4.636  -5.840  -9.717  1.00  0.00     0.007 C 
ATOM     29  C   UNL     1       5.289  -5.788  -7.292  1.00  0.00     0.007 C 
ENDBRANCH  26  27
ENDBRANCH  25  26
BRANCH  25  30
ATOM     30  C   UNL     1       1.498  -3.947  -8.698  1.00  0.00     0.243 C 
ATOM     31  O   UNL     1       0.561  -3.401  -9.278  1.00  0.00    -0.273 OA
ATOM     32  N   UNL     1       2.233  -3.315  -7.728  1.00  0.00    -0.342 N 
ATOM     33  H   UNL     1       2.900  -3.880  -7.196  1.00  0.00     0.164 HD
BRANCH  32  34
ATOM     34  C   UNL     1       1.987  -1.933  -7.309  1.00  0.00     0.175 C 
BRANCH  34  35
ATOM     35  C   UNL     1       2.297  -1.737  -5.817  1.00  0.00     0.070 C 
BRANCH  35  36
ATOM     36  C   UNL     1       1.050  -1.640  -4.968  1.00  0.00    -0.045 A 
ATOM     37  C   UNL     1       0.804  -0.484  -4.211  1.00  0.00     0.007 A 
ATOM     38  C   UNL     1       0.139  -2.703  -4.904  1.00  0.00     0.007 A 
ATOM     39  C   UNL     1      -0.337  -0.391  -3.414  1.00  0.00     0.046 A 
ATOM     40  C   UNL     1      -1.003  -2.611  -4.105  1.00  0.00     0.046 A 
ATOM     41  C   UNL     1      -1.231  -1.454  -3.368  1.00  0.00     0.115 A 
BRANCH  41  42
ATOM     42  O   UNL     1      -2.332  -1.324  -2.574  1.00  0.00    -0.508 OA
ATOM     43  H   UNL     1      -2.479  -2.168  -2.116  1.00  0.00     0.293 HD
ENDBRANCH  41  42
ENDBRANCH  35  36
ENDBRANCH  34  35
BRANCH  34  44
ATOM     44  C   UNL     1       2.838  -1.003  -8.203  1.00  0.00     0.243 C 
ATOM     45  O   UNL     1       3.632  -1.394  -9.053  1.00  0.00    -0.273 OA
ATOM     46  N   UNL     1       2.725   0.331  -7.871  1.00  0.00    -0.341 N 
ATOM     47  H   UNL     1       2.143   0.596  -7.081  1.00  0.00     0.164 HD
BRANCH  46  48
ATOM     48  C   UNL     1       3.487   1.393  -8.532  1.00  0.00     0.196 C 
BRANCH  48  49
ATOM     49  C   UNL     1       2.723   2.727  -8.510  1.00  0.00     0.072 C 
BRANCH  49  50
ATOM     50  C   UNL     1       2.020   3.016  -9.818  1.00  0.00    -0.045 A 
ATOM     51  C   UNL     1       2.269   2.211 -10.938  1.00  0.00     0.007 A 
ATOM     52  C   UNL     1       1.135   4.095  -9.936  1.00  0.00     0.007 A 
ATOM     53  C   UNL     1       1.636   2.476 -12.153  1.00  0.00     0.046 A 
ATOM     54  C   UNL     1       0.502   4.362 -11.153  1.00  0.00     0.046 A 
ATOM     55  C   UNL     1       0.758   3.548 -12.251  1.00  0.00     0.115 A 
BRANCH  55  56
ATOM     56  O   UNL     1       0.162   3.775 -13.457  1.00  0.00    -0.508 OA
ATOM     57  H   UNL     1       0.423   3.065 -14.065  1.00  0.00     0.293 HD
ENDBRANCH  55  56
ENDBRANCH  49  50
ENDBRANCH  48  49
BRANCH  48  58
ATOM     58  C   UNL     1       4.835   1.560  -7.817  1.00  0.00     0.326 C 
ATOM     59  O   UNL     1       5.879   0.976  -8.061  1.00  0.00    -0.250 OA
BRANCH  58  60
ATOM     60  O   UNL     1       4.809   2.480  -6.821  1.00  0.00    -0.480 OA
ATOM     61  H   UNL     1       4.194   2.085  -6.164  1.00  0.00     0.296 HD
ENDBRANCH  58  60
ENDBRANCH  48  58
ENDBRANCH  46  48
ENDBRANCH  34  44
ENDBRANCH  32  34
ENDBRANCH  25  30
ENDBRANCH  23  25
ENDBRANCH   2  23
TORSDOF 28
ENDMDL
MODEL 35
REMARK VINA RESULT:    -6.240     15.152     18.380
REMARK INTER + INTRA:         -19.604
REMARK INTER:                 -13.801
REMARK INTRA:                  -5.802
REMARK UNBOUND:                -4.062
REMARK SMILES CCCCCCC[C@H](N)[C@H](O)C(=O)N[C@H](C)C(=O)N(C)[C@H](CC(C)C)C(=O)N[C@@H](Cc1ccc(O)cc1)C(=O)N[C@@H](Cc1ccc(O)cc1)C(=O)O
REMARK SMILES IDX 18 1 17 2 15 3 16 4 14 5 12 6 13 7 10 9 11 10 8 12 9 13 7 16
REMARK SMILES IDX 6 17 5 18 4 19 3 20 2 21 1 22 19 23 20 24 21 25 22 26 23 27
REMARK SMILES IDX 24 28 25 29 26 30 27 31 28 32 29 34 30 35 31 36 32 37 37 38
REMARK SMILES IDX 33 39 36 40 34 41 35 42 38 44 39 45 40 46 41 48 42 49 43 50
REMARK SMILES IDX 44 51 49 52 45 53 48 54 46 55 47 56 50 58 51 59 52 60
REMARK H PARENT 14 8 11 11 9 14 9 15 28 33 35 43 40 47 47 57 52 61
ROOT
ATOM      1  O   UNL     1      -4.078  -2.134  -9.029  1.00  0.00    -0.272 OA
ATOM      2  C   UNL     1      -3.090  -2.698  -8.535  1.00  0.00     0.245 C 
ENDROOT
BRANCH   2   3
ATOM      3  C   UNL     1      -2.953  -2.736  -6.992  1.00  0.00     0.168 C 
ATOM      4  C   UNL     1      -4.068  -3.569  -6.370  1.00  0.00     0.041 C 
BRANCH   3   5
ATOM      5  N   UNL     1      -1.642  -3.135  -6.505  1.00  0.00    -0.342 N 
ATOM      6  C   UNL     1      -0.871  -2.301  -5.723  1.00  0.00     0.251 C 
ATOM      7  O   UNL     1      -1.205  -1.162  -5.417  1.00  0.00    -0.272 OA
ATOM      8  H   UNL     1      -1.243  -4.045  -6.723  1.00  0.00     0.164 HD
BRANCH   6   9
ATOM      9  C   UNL     1       0.407  -2.983  -5.208  1.00  0.00     0.219 C 
BRANCH   9  10
ATOM     10  O   UNL     1       0.132  -4.080  -4.328  1.00  0.00    -0.382 OA
ATOM     11  H   UNL     1       0.358  -4.870  -4.866  1.00  0.00     0.211 HD
ENDBRANCH   9  10
BRANCH   9  12
ATOM     12  C   UNL     1       1.367  -3.417  -6.346  1.00  0.00     0.089 C 
BRANCH  12  13
ATOM     13  N   UNL     1       2.632  -2.661  -6.205  1.00  0.00    -0.325 NA
ATOM     14  H   UNL     1       2.862  -2.574  -5.213  1.00  0.00     0.119 HD
ATOM     15  H   UNL     1       2.482  -1.702  -6.529  1.00  0.00     0.119 HD
ENDBRANCH  12  13
BRANCH  12  16
ATOM     16  C   UNL     1       1.662  -4.933  -6.442  1.00  0.00     0.022 C 
BRANCH  16  17
ATOM     17  C   UNL     1       1.076  -5.736  -7.612  1.00  0.00     0.002 C 
BRANCH  17  18
ATOM     18  C   UNL     1       1.329  -7.241  -7.552  1.00  0.00     0.000 C 
BRANCH  18  19
ATOM     19  C   UNL     1       0.070  -8.094  -7.757  1.00  0.00    -0.000 C 
BRANCH  19  20
ATOM     20  C   UNL     1       0.045  -8.917  -9.048  1.00  0.00    -0.000 C 
BRANCH  20  21
ATOM     21  C   UNL     1      -0.725  -8.234 -10.181  1.00  0.00    -0.003 C 
ATOM     22  C   UNL     1       0.214  -7.500 -11.125  1.00  0.00     0.004 C 
ENDBRANCH  20  21
ENDBRANCH  19  20
ENDBRANCH  18  19
ENDBRANCH  17  18
ENDBRANCH  16  17
ENDBRANCH  12  16
ENDBRANCH   9  12
ENDBRANCH   6   9
ENDBRANCH   3   5
ENDBRANCH   2   3
BRANCH   2  23
ATOM     23  N   UNL     1      -2.199  -3.383  -9.354  1.00  0.00    -0.332 N 
ATOM     24  C   UNL     1      -2.082  -4.832  -9.417  1.00  0.00     0.147 C 
BRANCH  23  25
ATOM     25  C   UNL     1      -1.368  -2.644 -10.343  1.00  0.00     0.174 C 
BRANCH  25  26
ATOM     26  C   UNL     1      -1.235  -3.387 -11.693  1.00  0.00     0.038 C 
BRANCH  26  27
ATOM     27  C   UNL     1      -2.455  -3.343 -12.639  1.00  0.00    -0.015 C 
ATOM     28  C   UNL     1      -2.210  -2.469 -13.869  1.00  0.00     0.007 C 
ATOM     29  C   UNL     1      -2.952  -4.726 -13.054  1.00  0.00     0.007 C 
ENDBRANCH  26  27
ENDBRANCH  25  26
BRANCH  25  30
ATOM     30  C   UNL     1      -0.011  -2.253  -9.712  1.00  0.00     0.243 C 
ATOM     31  O   UNL     1       0.068  -1.438  -8.794  1.00  0.00    -0.273 OA
ATOM     32  N   UNL     1       1.091  -2.869 -10.248  1.00  0.00    -0.342 N 
ATOM     33  H   UNL     1       0.932  -3.635 -10.907  1.00  0.00     0.164 HD
BRANCH  32  34
ATOM     34  C   UNL     1       2.458  -2.601  -9.794  1.00  0.00     0.175 C 
BRANCH  34  35
ATOM     35  C   UNL     1       3.488  -3.360 -10.644  1.00  0.00     0.070 C 
BRANCH  35  36
ATOM     36  C   UNL     1       3.887  -4.685 -10.034  1.00  0.00    -0.045 A 
ATOM     37  C   UNL     1       3.612  -5.882 -10.713  1.00  0.00     0.007 A 
ATOM     38  C   UNL     1       4.511  -4.741  -8.781  1.00  0.00     0.007 A 
ATOM     39  C   UNL     1       3.964  -7.110 -10.152  1.00  0.00     0.046 A 
ATOM     40  C   UNL     1       4.863  -5.970  -8.218  1.00  0.00     0.046 A 
ATOM     41  C   UNL     1       4.586  -7.144  -8.910  1.00  0.00     0.115 A 
BRANCH  41  42
ATOM     42  O   UNL     1       4.911  -8.364  -8.396  1.00  0.00    -0.508 OA
ATOM     43  H   UNL     1       5.794  -8.301  -7.996  1.00  0.00     0.293 HD
ENDBRANCH  41  42
ENDBRANCH  35  36
ENDBRANCH  34  35
BRANCH  34  44
ATOM     44  C   UNL     1       2.687  -1.073  -9.839  1.00  0.00     0.243 C 
ATOM     45  O   UNL     1       2.627  -0.392 -10.859  1.00  0.00    -0.273 OA
ATOM     46  N   UNL     1       3.099  -0.544  -8.634  1.00  0.00    -0.341 N 
ATOM     47  H   UNL     1       3.247  -1.169  -7.845  1.00  0.00     0.164 HD
BRANCH  46  48
ATOM     48  C   UNL     1       3.442   0.868  -8.449  1.00  0.00     0.196 C 
BRANCH  48  49
ATOM     49  C   UNL     1       2.329   1.621  -7.701  1.00  0.00     0.072 C 
BRANCH  49  50
ATOM     50  C   UNL     1       1.869   2.860  -8.436  1.00  0.00    -0.045 A 
ATOM     51  C   UNL     1       1.648   4.050  -7.729  1.00  0.00     0.007 A 
ATOM     52  C   UNL     1       1.639   2.834  -9.818  1.00  0.00     0.007 A 
ATOM     53  C   UNL     1       1.211   5.196  -8.394  1.00  0.00     0.046 A 
ATOM     54  C   UNL     1       1.201   3.981 -10.484  1.00  0.00     0.046 A 
ATOM     55  C   UNL     1       0.991   5.153  -9.766  1.00  0.00     0.115 A 
BRANCH  55  56
ATOM     56  O   UNL     1       0.563   6.294 -10.378  1.00  0.00    -0.508 OA
ATOM     57  H   UNL     1      -0.265   6.575  -9.956  1.00  0.00     0.293 HD
ENDBRANCH  55  56
ENDBRANCH  49  50
ENDBRANCH  48  49
BRANCH  48  58
ATOM     58  C   UNL     1       4.752   0.963  -7.655  1.00  0.00     0.326 C 
ATOM     59  O   UNL     1       5.863   0.609  -8.015  1.00  0.00    -0.250 OA
BRANCH  58  60
ATOM     60  O   UNL     1       4.602   1.524  -6.428  1.00  0.00    -0.480 OA
ATOM     61  H   UNL     1       5.147   2.339  -6.484  1.00  0.00     0.296 HD
ENDBRANCH  58  60
ENDBRANCH  48  58
ENDBRANCH  46  48
ENDBRANCH  34  44
ENDBRANCH  32  34
ENDBRANCH  25  30
ENDBRANCH  23  25
ENDBRANCH   2  23
TORSDOF 28
ENDMDL
MODEL 36
REMARK VINA RESULT:    -6.239     14.500     18.754
REMARK INTER + INTRA:         -19.602
REMARK INTER:                 -13.709
REMARK INTRA:                  -5.893
REMARK UNBOUND:                -4.062
REMARK SMILES CCCCCCC[C@H](N)[C@H](O)C(=O)N[C@H](C)C(=O)N(C)[C@H](CC(C)C)C(=O)N[C@@H](Cc1ccc(O)cc1)C(=O)N[C@@H](Cc1ccc(O)cc1)C(=O)O
REMARK SMILES IDX 18 1 17 2 15 3 16 4 14 5 12 6 13 7 10 9 11 10 8 12 9 13 7 16
REMARK SMILES IDX 6 17 5 18 4 19 3 20 2 21 1 22 19 23 20 24 21 25 22 26 23 27
REMARK SMILES IDX 24 28 25 29 26 30 27 31 28 32 29 34 30 35 31 36 32 37 37 38
REMARK SMILES IDX 33 39 36 40 34 41 35 42 38 44 39 45 40 46 41 48 42 49 43 50
REMARK SMILES IDX 44 51 49 52 45 53 48 54 46 55 47 56 50 58 51 59 52 60
REMARK H PARENT 14 8 11 11 9 14 9 15 28 33 35 43 40 47 47 57 52 61
ROOT
ATOM      1  O   UNL     1       3.100  -5.347  -5.611  1.00  0.00    -0.272 OA
ATOM      2  C   UNL     1       2.750  -5.807  -6.708  1.00  0.00     0.245 C 
ENDROOT
BRANCH   2   3
ATOM      3  C   UNL     1       1.279  -6.262  -6.885  1.00  0.00     0.168 C 
ATOM      4  C   UNL     1       1.055  -7.629  -6.248  1.00  0.00     0.041 C 
BRANCH   3   5
ATOM      5  N   UNL     1       0.284  -5.293  -6.453  1.00  0.00    -0.342 N 
ATOM      6  C   UNL     1      -0.517  -4.622  -7.353  1.00  0.00     0.251 C 
ATOM      7  O   UNL     1      -0.427  -4.755  -8.569  1.00  0.00    -0.272 OA
ATOM      8  H   UNL     1       0.141  -5.072  -5.470  1.00  0.00     0.164 HD
BRANCH   6   9
ATOM      9  C   UNL     1      -1.588  -3.759  -6.667  1.00  0.00     0.219 C 
BRANCH   9  10
ATOM     10  O   UNL     1      -1.118  -2.443  -6.351  1.00  0.00    -0.382 OA
ATOM     11  H   UNL     1      -1.173  -2.407  -5.371  1.00  0.00     0.211 HD
ENDBRANCH   9  10
BRANCH   9  12
ATOM     12  C   UNL     1      -2.918  -3.693  -7.463  1.00  0.00     0.089 C 
BRANCH  12  13
ATOM     13  N   UNL     1      -4.042  -3.787  -6.503  1.00  0.00    -0.325 NA
ATOM     14  H   UNL     1      -3.806  -4.464  -5.775  1.00  0.00     0.119 HD
ATOM     15  H   UNL     1      -4.854  -4.184  -6.982  1.00  0.00     0.119 HD
ENDBRANCH  12  13
BRANCH  12  16
ATOM     16  C   UNL     1      -3.101  -2.457  -8.376  1.00  0.00     0.022 C 
BRANCH  16  17
ATOM     17  C   UNL     1      -4.509  -1.878  -8.576  1.00  0.00     0.002 C 
BRANCH  17  18
ATOM     18  C   UNL     1      -5.240  -2.379  -9.820  1.00  0.00     0.000 C 
BRANCH  18  19
ATOM     19  C   UNL     1      -6.267  -3.484  -9.540  1.00  0.00    -0.000 C 
BRANCH  19  20
ATOM     20  C   UNL     1      -7.625  -3.297 -10.222  1.00  0.00    -0.000 C 
BRANCH  20  21
ATOM     21  C   UNL     1      -8.621  -2.507  -9.368  1.00  0.00    -0.003 C 
ATOM     22  C   UNL     1      -8.873  -1.124  -9.947  1.00  0.00     0.004 C 
ENDBRANCH  20  21
ENDBRANCH  19  20
ENDBRANCH  18  19
ENDBRANCH  17  18
ENDBRANCH  16  17
ENDBRANCH  12  16
ENDBRANCH   9  12
ENDBRANCH   6   9
ENDBRANCH   3   5
ENDBRANCH   2   3
BRANCH   2  23
ATOM     23  N   UNL     1       3.633  -5.794  -7.782  1.00  0.00    -0.332 N 
ATOM     24  C   UNL     1       5.033  -6.182  -7.704  1.00  0.00     0.147 C 
BRANCH  23  25
ATOM     25  C   UNL     1       3.142  -5.489  -9.154  1.00  0.00     0.174 C 
BRANCH  25  26
ATOM     26  C   UNL     1       3.840  -6.335 -10.245  1.00  0.00     0.038 C 
BRANCH  26  27
ATOM     27  C   UNL     1       3.461  -7.831 -10.318  1.00  0.00    -0.015 C 
ATOM     28  C   UNL     1       1.964  -8.066 -10.118  1.00  0.00     0.007 C 
ATOM     29  C   UNL     1       3.947  -8.519 -11.592  1.00  0.00     0.007 C 
ENDBRANCH  26  27
ENDBRANCH  25  26
BRANCH  25  30
ATOM     30  C   UNL     1       3.204  -3.966  -9.415  1.00  0.00     0.243 C 
ATOM     31  O   UNL     1       4.182  -3.436  -9.938  1.00  0.00    -0.273 OA
ATOM     32  N   UNL     1       2.102  -3.252  -9.020  1.00  0.00    -0.342 N 
ATOM     33  H   UNL     1       1.277  -3.779  -8.725  1.00  0.00     0.164 HD
BRANCH  32  34
ATOM     34  C   UNL     1       1.996  -1.797  -9.163  1.00  0.00     0.175 C 
BRANCH  34  35
ATOM     35  C   UNL     1       0.562  -1.374  -9.514  1.00  0.00     0.070 C 
BRANCH  35  36
ATOM     36  C   UNL     1       0.192  -1.690 -10.946  1.00  0.00    -0.045 A 
ATOM     37  C   UNL     1       0.989  -1.215 -11.998  1.00  0.00     0.007 A 
ATOM     38  C   UNL     1      -0.956  -2.436 -11.243  1.00  0.00     0.007 A 
ATOM     39  C   UNL     1       0.649  -1.490 -13.322  1.00  0.00     0.046 A 
ATOM     40  C   UNL     1      -1.299  -2.711 -12.570  1.00  0.00     0.046 A 
ATOM     41  C   UNL     1      -0.491  -2.236 -13.598  1.00  0.00     0.115 A 
BRANCH  41  42
ATOM     42  O   UNL     1      -0.791  -2.480 -14.906  1.00  0.00    -0.508 OA
ATOM     43  H   UNL     1      -0.309  -3.276 -15.185  1.00  0.00     0.293 HD
ENDBRANCH  41  42
ENDBRANCH  35  36
ENDBRANCH  34  35
BRANCH  34  44
ATOM     44  C   UNL     1       2.485  -1.149  -7.848  1.00  0.00     0.243 C 
ATOM     45  O   UNL     1       3.543  -0.540  -7.726  1.00  0.00    -0.273 OA
ATOM     46  N   UNL     1       1.677  -1.429  -6.766  1.00  0.00    -0.341 N 
ATOM     47  H   UNL     1       0.872  -2.037  -6.894  1.00  0.00     0.164 HD
BRANCH  46  48
ATOM     48  C   UNL     1       1.972  -0.981  -5.403  1.00  0.00     0.196 C 
BRANCH  48  49
ATOM     49  C   UNL     1       0.978   0.098  -4.940  1.00  0.00     0.072 C 
BRANCH  49  50
ATOM     50  C   UNL     1       0.874   1.250  -5.914  1.00  0.00    -0.045 A 
ATOM     51  C   UNL     1      -0.283   1.406  -6.691  1.00  0.00     0.007 A 
ATOM     52  C   UNL     1       1.929   2.158  -6.072  1.00  0.00     0.007 A 
ATOM     53  C   UNL     1      -0.385   2.457  -7.603  1.00  0.00     0.046 A 
ATOM     54  C   UNL     1       1.827   3.210  -6.985  1.00  0.00     0.046 A 
ATOM     55  C   UNL     1       0.669   3.351  -7.743  1.00  0.00     0.115 A 
BRANCH  55  56
ATOM     56  O   UNL     1       0.531   4.363  -8.646  1.00  0.00    -0.508 OA
ATOM     57  H   UNL     1      -0.194   4.937  -8.352  1.00  0.00     0.293 HD
ENDBRANCH  55  56
ENDBRANCH  49  50
ENDBRANCH  48  49
BRANCH  48  58
ATOM     58  C   UNL     1       1.903  -2.186  -4.455  1.00  0.00     0.326 C 
ATOM     59  O   UNL     1       1.058  -3.067  -4.441  1.00  0.00    -0.250 OA
BRANCH  58  60
ATOM     60  O   UNL     1       2.925  -2.234  -3.564  1.00  0.00    -0.480 OA
ATOM     61  H   UNL     1       2.913  -3.166  -3.257  1.00  0.00     0.296 HD
ENDBRANCH  58  60
ENDBRANCH  48  58
ENDBRANCH  46  48
ENDBRANCH  34  44
ENDBRANCH  32  34
ENDBRANCH  25  30
ENDBRANCH  23  25
ENDBRANCH   2  23
TORSDOF 28
ENDMDL
MODEL 37
REMARK VINA RESULT:    -6.233      2.151      5.869
REMARK INTER + INTRA:         -19.588
REMARK INTER:                 -15.017
REMARK INTRA:                  -4.571
REMARK UNBOUND:                -4.062
REMARK SMILES CCCCCCC[C@H](N)[C@H](O)C(=O)N[C@H](C)C(=O)N(C)[C@H](CC(C)C)C(=O)N[C@@H](Cc1ccc(O)cc1)C(=O)N[C@@H](Cc1ccc(O)cc1)C(=O)O
REMARK SMILES IDX 18 1 17 2 15 3 16 4 14 5 12 6 13 7 10 9 11 10 8 12 9 13 7 16
REMARK SMILES IDX 6 17 5 18 4 19 3 20 2 21 1 22 19 23 20 24 21 25 22 26 23 27
REMARK SMILES IDX 24 28 25 29 26 30 27 31 28 32 29 34 30 35 31 36 32 37 37 38
REMARK SMILES IDX 33 39 36 40 34 41 35 42 38 44 39 45 40 46 41 48 42 49 43 50
REMARK SMILES IDX 44 51 49 52 45 53 48 54 46 55 47 56 50 58 51 59 52 60
REMARK H PARENT 14 8 11 11 9 14 9 15 28 33 35 43 40 47 47 57 52 61
ROOT
ATOM      1  O   UNL     1      -3.328   5.245   8.648  1.00  0.00    -0.272 OA
ATOM      2  C   UNL     1      -2.937   4.163   9.111  1.00  0.00     0.245 C 
ENDROOT
BRANCH   2   3
ATOM      3  C   UNL     1      -3.944   2.991   9.207  1.00  0.00     0.168 C 
ATOM      4  C   UNL     1      -5.378   3.509   9.234  1.00  0.00     0.041 C 
BRANCH   3   5
ATOM      5  N   UNL     1      -3.764   1.947   8.209  1.00  0.00    -0.342 N 
ATOM      6  C   UNL     1      -3.783   0.610   8.543  1.00  0.00     0.251 C 
ATOM      7  O   UNL     1      -3.908   0.201   9.693  1.00  0.00    -0.272 OA
ATOM      8  H   UNL     1      -3.617   2.165   7.226  1.00  0.00     0.164 HD
BRANCH   6   9
ATOM      9  C   UNL     1      -3.717  -0.311   7.314  1.00  0.00     0.219 C 
BRANCH   9  10
ATOM     10  O   UNL     1      -3.525  -1.687   7.664  1.00  0.00    -0.382 OA
ATOM     11  H   UNL     1      -4.086  -2.170   7.018  1.00  0.00     0.211 HD
ENDBRANCH   9  10
BRANCH   9  12
ATOM     12  C   UNL     1      -4.932  -0.148   6.365  1.00  0.00     0.089 C 
BRANCH  12  13
ATOM     13  N   UNL     1      -6.046   0.455   7.132  1.00  0.00    -0.325 NA
ATOM     14  H   UNL     1      -6.734  -0.268   7.350  1.00  0.00     0.119 HD
ATOM     15  H   UNL     1      -6.539   1.120   6.531  1.00  0.00     0.119 HD
ENDBRANCH  12  13
BRANCH  12  16
ATOM     16  C   UNL     1      -4.679   0.661   5.070  1.00  0.00     0.022 C 
BRANCH  16  17
ATOM     17  C   UNL     1      -4.987   0.014   3.713  1.00  0.00     0.002 C 
BRANCH  17  18
ATOM     18  C   UNL     1      -3.794  -0.096   2.766  1.00  0.00     0.000 C 
BRANCH  18  19
ATOM     19  C   UNL     1      -3.043  -1.431   2.859  1.00  0.00    -0.000 C 
BRANCH  19  20
ATOM     20  C   UNL     1      -2.308  -1.672   4.181  1.00  0.00    -0.000 C 
BRANCH  20  21
ATOM     21  C   UNL     1      -1.150  -0.697   4.409  1.00  0.00    -0.003 C 
ATOM     22  C   UNL     1       0.137  -1.208   3.779  1.00  0.00     0.004 C 
ENDBRANCH  20  21
ENDBRANCH  19  20
ENDBRANCH  18  19
ENDBRANCH  17  18
ENDBRANCH  16  17
ENDBRANCH  12  16
ENDBRANCH   9  12
ENDBRANCH   6   9
ENDBRANCH   3   5
ENDBRANCH   2   3
BRANCH   2  23
ATOM     23  N   UNL     1      -1.592   3.983   9.418  1.00  0.00    -0.332 N 
ATOM     24  C   UNL     1      -1.087   3.617  10.733  1.00  0.00     0.147 C 
BRANCH  23  25
ATOM     25  C   UNL     1      -0.563   4.034   8.344  1.00  0.00     0.174 C 
BRANCH  25  26
ATOM     26  C   UNL     1       0.200   2.699   8.177  1.00  0.00     0.038 C 
BRANCH  26  27
ATOM     27  C   UNL     1       0.006   1.943   6.844  1.00  0.00    -0.015 C 
ATOM     28  C   UNL     1      -0.655   2.810   5.772  1.00  0.00     0.007 C 
ATOM     29  C   UNL     1       1.290   1.315   6.309  1.00  0.00     0.007 C 
ENDBRANCH  26  27
ENDBRANCH  25  26
BRANCH  25  30
ATOM     30  C   UNL     1       0.361   5.257   8.549  1.00  0.00     0.243 C 
ATOM     31  O   UNL     1       1.526   5.135   8.924  1.00  0.00    -0.273 OA
ATOM     32  N   UNL     1      -0.207   6.479   8.294  1.00  0.00    -0.342 N 
ATOM     33  H   UNL     1      -1.130   6.489   7.852  1.00  0.00     0.164 HD
BRANCH  32  34
ATOM     34  C   UNL     1       0.510   7.746   8.460  1.00  0.00     0.175 C 
BRANCH  34  35
ATOM     35  C   UNL     1       1.316   8.102   7.202  1.00  0.00     0.070 C 
BRANCH  35  36
ATOM     36  C   UNL     1       2.805   8.163   7.460  1.00  0.00    -0.045 A 
ATOM     37  C   UNL     1       3.686   8.475   6.413  1.00  0.00     0.007 A 
ATOM     38  C   UNL     1       3.327   7.890   8.731  1.00  0.00     0.007 A 
ATOM     39  C   UNL     1       5.062   8.520   6.638  1.00  0.00     0.046 A 
ATOM     40  C   UNL     1       4.705   7.934   8.957  1.00  0.00     0.046 A 
ATOM     41  C   UNL     1       5.560   8.251   7.907  1.00  0.00     0.115 A 
BRANCH  41  42
ATOM     42  O   UNL     1       6.911   8.303   8.084  1.00  0.00    -0.508 OA
ATOM     43  H   UNL     1       7.318   8.583   7.247  1.00  0.00     0.293 HD
ENDBRANCH  41  42
ENDBRANCH  35  36
ENDBRANCH  34  35
BRANCH  34  44
ATOM     44  C   UNL     1      -0.525   8.839   8.811  1.00  0.00     0.243 C 
ATOM     45  O   UNL     1      -1.092   9.548   7.984  1.00  0.00    -0.273 OA
ATOM     46  N   UNL     1      -0.668   9.044  10.167  1.00  0.00    -0.341 N 
ATOM     47  H   UNL     1      -0.089   8.511  10.811  1.00  0.00     0.164 HD
BRANCH  46  48
ATOM     48  C   UNL     1      -1.540  10.073  10.738  1.00  0.00     0.196 C 
BRANCH  48  49
ATOM     49  C   UNL     1      -2.669   9.448  11.576  1.00  0.00     0.072 C 
BRANCH  49  50
ATOM     50  C   UNL     1      -3.801   8.919  10.725  1.00  0.00    -0.045 A 
ATOM     51  C   UNL     1      -4.223   9.639   9.597  1.00  0.00     0.007 A 
ATOM     52  C   UNL     1      -4.454   7.725  11.056  1.00  0.00     0.007 A 
ATOM     53  C   UNL     1      -5.275   9.167   8.812  1.00  0.00     0.046 A 
ATOM     54  C   UNL     1      -5.509   7.254  10.270  1.00  0.00     0.046 A 
ATOM     55  C   UNL     1      -5.909   7.979   9.153  1.00  0.00     0.115 A 
BRANCH  55  56
ATOM     56  O   UNL     1      -6.934   7.554   8.361  1.00  0.00    -0.508 OA
ATOM     57  H   UNL     1      -7.616   7.159   8.928  1.00  0.00     0.293 HD
ENDBRANCH  55  56
ENDBRANCH  49  50
ENDBRANCH  48  49
BRANCH  48  58
ATOM     58  C   UNL     1      -0.700  11.006  11.621  1.00  0.00     0.326 C 
ATOM     59  O   UNL     1      -1.022  12.101  12.055  1.00  0.00    -0.250 OA
BRANCH  58  60
ATOM     60  O   UNL     1       0.521  10.503  11.932  1.00  0.00    -0.480 OA
ATOM     61  H   UNL     1       1.136  11.218  11.661  1.00  0.00     0.296 HD
ENDBRANCH  58  60
ENDBRANCH  48  58
ENDBRANCH  46  48
ENDBRANCH  34  44
ENDBRANCH  32  34
ENDBRANCH  25  30
ENDBRANCH  23  25
ENDBRANCH   2  23
TORSDOF 28
ENDMDL
MODEL 38
REMARK VINA RESULT:    -6.185     11.832     19.353
REMARK INTER + INTRA:         -19.467
REMARK INTER:                 -14.455
REMARK INTRA:                  -5.013
REMARK UNBOUND:                -4.062
REMARK SMILES CCCCCCC[C@H](N)[C@H](O)C(=O)N[C@H](C)C(=O)N(C)[C@H](CC(C)C)C(=O)N[C@@H](Cc1ccc(O)cc1)C(=O)N[C@@H](Cc1ccc(O)cc1)C(=O)O
REMARK SMILES IDX 18 1 17 2 15 3 16 4 14 5 12 6 13 7 10 9 11 10 8 12 9 13 7 16
REMARK SMILES IDX 6 17 5 18 4 19 3 20 2 21 1 22 19 23 20 24 21 25 22 26 23 27
REMARK SMILES IDX 24 28 25 29 26 30 27 31 28 32 29 34 30 35 31 36 32 37 37 38
REMARK SMILES IDX 33 39 36 40 34 41 35 42 38 44 39 45 40 46 41 48 42 49 43 50
REMARK SMILES IDX 44 51 49 52 45 53 48 54 46 55 47 56 50 58 51 59 52 60
REMARK H PARENT 14 8 11 11 9 14 9 15 28 33 35 43 40 47 47 57 52 61
ROOT
ATOM      1  O   UNL     1       3.506  -3.469  -9.490  1.00  0.00    -0.272 OA
ATOM      2  C   UNL     1       2.884  -4.388  -8.937  1.00  0.00     0.245 C 
ENDROOT
BRANCH   2   3
ATOM      3  C   UNL     1       3.267  -4.775  -7.487  1.00  0.00     0.168 C 
ATOM      4  C   UNL     1       4.690  -5.321  -7.430  1.00  0.00     0.041 C 
BRANCH   3   5
ATOM      5  N   UNL     1       3.047  -3.732  -6.498  1.00  0.00    -0.342 N 
ATOM      6  C   UNL     1       2.146  -3.886  -5.466  1.00  0.00     0.251 C 
ATOM      7  O   UNL     1       1.440  -4.879  -5.327  1.00  0.00    -0.272 OA
ATOM      8  H   UNL     1       3.550  -2.848  -6.530  1.00  0.00     0.164 HD
BRANCH   6   9
ATOM      9  C   UNL     1       2.184  -2.720  -4.465  1.00  0.00     0.219 C 
BRANCH   9  10
ATOM     10  O   UNL     1       2.627  -1.495  -5.060  1.00  0.00    -0.382 OA
ATOM     11  H   UNL     1       3.001  -0.992  -4.303  1.00  0.00     0.211 HD
ENDBRANCH   9  10
BRANCH   9  12
ATOM     12  C   UNL     1       0.840  -2.515  -3.718  1.00  0.00     0.089 C 
BRANCH  12  13
ATOM     13  N   UNL     1       0.681  -3.608  -2.732  1.00  0.00    -0.325 NA
ATOM     14  H   UNL     1       0.210  -4.397  -3.179  1.00  0.00     0.119 HD
ATOM     15  H   UNL     1       0.043  -3.300  -1.995  1.00  0.00     0.119 HD
ENDBRANCH  12  13
BRANCH  12  16
ATOM     16  C   UNL     1       0.652  -1.144  -3.025  1.00  0.00     0.022 C 
BRANCH  16  17
ATOM     17  C   UNL     1       1.359  -0.878  -1.689  1.00  0.00     0.002 C 
BRANCH  17  18
ATOM     18  C   UNL     1       0.432  -0.750  -0.483  1.00  0.00     0.000 C 
BRANCH  18  19
ATOM     19  C   UNL     1      -1.058  -0.695  -0.844  1.00  0.00    -0.000 C 
BRANCH  19  20
ATOM     20  C   UNL     1      -2.019  -0.968   0.317  1.00  0.00    -0.000 C 
BRANCH  20  21
ATOM     21  C   UNL     1      -2.739  -2.314   0.196  1.00  0.00    -0.003 C 
ATOM     22  C   UNL     1      -2.437  -2.986  -1.134  1.00  0.00     0.004 C 
ENDBRANCH  20  21
ENDBRANCH  19  20
ENDBRANCH  18  19
ENDBRANCH  17  18
ENDBRANCH  16  17
ENDBRANCH  12  16
ENDBRANCH   9  12
ENDBRANCH   6   9
ENDBRANCH   3   5
ENDBRANCH   2   3
BRANCH   2  23
ATOM     23  N   UNL     1       1.789  -4.966  -9.571  1.00  0.00    -0.332 N 
ATOM     24  C   UNL     1       0.428  -4.937  -9.056  1.00  0.00     0.147 C 
BRANCH  23  25
ATOM     25  C   UNL     1       1.933  -5.561 -10.928  1.00  0.00     0.174 C 
BRANCH  25  26
ATOM     26  C   UNL     1       2.995  -6.684 -10.982  1.00  0.00     0.038 C 
BRANCH  26  27
ATOM     27  C   UNL     1       2.640  -8.017 -10.287  1.00  0.00    -0.015 C 
ATOM     28  C   UNL     1       2.466  -9.166 -11.280  1.00  0.00     0.007 C 
ATOM     29  C   UNL     1       3.619  -8.406  -9.183  1.00  0.00     0.007 C 
ENDBRANCH  26  27
ENDBRANCH  25  26
BRANCH  25  30
ATOM     30  C   UNL     1       2.153  -4.447 -11.977  1.00  0.00     0.243 C 
ATOM     31  O   UNL     1       3.041  -4.518 -12.824  1.00  0.00    -0.273 OA
ATOM     32  N   UNL     1       1.299  -3.377 -11.894  1.00  0.00    -0.342 N 
ATOM     33  H   UNL     1       0.501  -3.456 -11.257  1.00  0.00     0.164 HD
BRANCH  32  34
ATOM     34  C   UNL     1       1.376  -2.218 -12.787  1.00  0.00     0.175 C 
BRANCH  34  35
ATOM     35  C   UNL     1       0.010  -1.906 -13.417  1.00  0.00     0.070 C 
BRANCH  35  36
ATOM     36  C   UNL     1      -1.094  -2.794 -12.890  1.00  0.00    -0.045 A 
ATOM     37  C   UNL     1      -1.703  -2.501 -11.660  1.00  0.00     0.007 A 
ATOM     38  C   UNL     1      -1.508  -3.927 -13.602  1.00  0.00     0.007 A 
ATOM     39  C   UNL     1      -2.713  -3.323 -11.158  1.00  0.00     0.046 A 
ATOM     40  C   UNL     1      -2.518  -4.751 -13.100  1.00  0.00     0.046 A 
ATOM     41  C   UNL     1      -3.113  -4.440 -11.882  1.00  0.00     0.115 A 
BRANCH  41  42
ATOM     42  O   UNL     1      -4.101  -5.218 -11.356  1.00  0.00    -0.508 OA
ATOM     43  H   UNL     1      -4.406  -4.806 -10.530  1.00  0.00     0.293 HD
ENDBRANCH  41  42
ENDBRANCH  35  36
ENDBRANCH  34  35
BRANCH  34  44
ATOM     44  C   UNL     1       1.924  -1.023 -11.975  1.00  0.00     0.243 C 
ATOM     45  O   UNL     1       2.658  -0.152 -12.432  1.00  0.00    -0.273 OA
ATOM     46  N   UNL     1       1.619  -1.087 -10.631  1.00  0.00    -0.341 N 
ATOM     47  H   UNL     1       1.106  -1.891 -10.279  1.00  0.00     0.164 HD
BRANCH  46  48
ATOM     48  C   UNL     1       2.086  -0.104  -9.651  1.00  0.00     0.196 C 
BRANCH  48  49
ATOM     49  C   UNL     1       1.133   1.099  -9.567  1.00  0.00     0.072 C 
BRANCH  49  50
ATOM     50  C   UNL     1       1.765   2.379 -10.064  1.00  0.00    -0.045 A 
ATOM     51  C   UNL     1       0.958   3.482 -10.377  1.00  0.00     0.007 A 
ATOM     52  C   UNL     1       3.152   2.478 -10.238  1.00  0.00     0.007 A 
ATOM     53  C   UNL     1       1.529   4.664 -10.849  1.00  0.00     0.046 A 
ATOM     54  C   UNL     1       3.723   3.661 -10.711  1.00  0.00     0.046 A 
ATOM     55  C   UNL     1       2.906   4.745 -11.012  1.00  0.00     0.115 A 
BRANCH  55  56
ATOM     56  O   UNL     1       3.425   5.917 -11.478  1.00  0.00    -0.508 OA
ATOM     57  H   UNL     1       4.155   6.182 -10.895  1.00  0.00     0.293 HD
ENDBRANCH  55  56
ENDBRANCH  49  50
ENDBRANCH  48  49
BRANCH  48  58
ATOM     58  C   UNL     1       2.188  -0.779  -8.277  1.00  0.00     0.326 C 
ATOM     59  O   UNL     1       1.269  -1.186  -7.584  1.00  0.00    -0.250 OA
BRANCH  58  60
ATOM     60  O   UNL     1       3.463  -0.926  -7.838  1.00  0.00    -0.480 OA
ATOM     61  H   UNL     1       3.963  -1.126  -8.659  1.00  0.00     0.296 HD
ENDBRANCH  58  60
ENDBRANCH  48  58
ENDBRANCH  46  48
ENDBRANCH  34  44
ENDBRANCH  32  34
ENDBRANCH  25  30
ENDBRANCH  23  25
ENDBRANCH   2  23
TORSDOF 28
ENDMDL
MODEL 39
REMARK VINA RESULT:    -6.178     10.307     17.886
REMARK INTER + INTRA:         -19.451
REMARK INTER:                 -14.649
REMARK INTRA:                  -4.802
REMARK UNBOUND:                -4.062
REMARK SMILES CCCCCCC[C@H](N)[C@H](O)C(=O)N[C@H](C)C(=O)N(C)[C@H](CC(C)C)C(=O)N[C@@H](Cc1ccc(O)cc1)C(=O)N[C@@H](Cc1ccc(O)cc1)C(=O)O
REMARK SMILES IDX 18 1 17 2 15 3 16 4 14 5 12 6 13 7 10 9 11 10 8 12 9 13 7 16
REMARK SMILES IDX 6 17 5 18 4 19 3 20 2 21 1 22 19 23 20 24 21 25 22 26 23 27
REMARK SMILES IDX 24 28 25 29 26 30 27 31 28 32 29 34 30 35 31 36 32 37 37 38
REMARK SMILES IDX 33 39 36 40 34 41 35 42 38 44 39 45 40 46 41 48 42 49 43 50
REMARK SMILES IDX 44 51 49 52 45 53 48 54 46 55 47 56 50 58 51 59 52 60
REMARK H PARENT 14 8 11 11 9 14 9 15 28 33 35 43 40 47 47 57 52 61
ROOT
ATOM      1  O   UNL     1       3.397  -4.706  -5.467  1.00  0.00    -0.272 OA
ATOM      2  C   UNL     1       2.691  -3.964  -6.166  1.00  0.00     0.245 C 
ENDROOT
BRANCH   2   3
ATOM      3  C   UNL     1       2.205  -2.622  -5.564  1.00  0.00     0.168 C 
ATOM      4  C   UNL     1       2.447  -2.584  -4.059  1.00  0.00     0.041 C 
BRANCH   3   5
ATOM      5  N   UNL     1       2.719  -1.433  -6.226  1.00  0.00    -0.342 N 
ATOM      6  C   UNL     1       1.881  -0.474  -6.753  1.00  0.00     0.251 C 
ATOM      7  O   UNL     1       0.657  -0.564  -6.743  1.00  0.00    -0.272 OA
ATOM      8  H   UNL     1       3.717  -1.265  -6.327  1.00  0.00     0.164 HD
BRANCH   6   9
ATOM      9  C   UNL     1       2.640   0.757  -7.275  1.00  0.00     0.219 C 
BRANCH   9  10
ATOM     10  O   UNL     1       3.891   0.959  -6.607  1.00  0.00    -0.382 OA
ATOM     11  H   UNL     1       3.698   1.680  -5.969  1.00  0.00     0.211 HD
ENDBRANCH   9  10
BRANCH   9  12
ATOM     12  C   UNL     1       2.833   0.746  -8.814  1.00  0.00     0.089 C 
BRANCH  12  13
ATOM     13  N   UNL     1       1.937  -0.283  -9.390  1.00  0.00    -0.325 NA
ATOM     14  H   UNL     1       1.078  -0.327  -8.839  1.00  0.00     0.119 HD
ATOM     15  H   UNL     1       2.373  -1.201  -9.277  1.00  0.00     0.119 HD
ENDBRANCH  12  13
BRANCH  12  16
ATOM     16  C   UNL     1       2.619   2.099  -9.533  1.00  0.00     0.022 C 
BRANCH  16  17
ATOM     17  C   UNL     1       1.478   2.233 -10.551  1.00  0.00     0.002 C 
BRANCH  17  18
ATOM     18  C   UNL     1       0.680   3.531 -10.458  1.00  0.00     0.000 C 
BRANCH  18  19
ATOM     19  C   UNL     1       0.273   4.113 -11.818  1.00  0.00    -0.000 C 
BRANCH  19  20
ATOM     20  C   UNL     1       1.040   3.554 -13.020  1.00  0.00    -0.000 C 
BRANCH  20  21
ATOM     21  C   UNL     1       0.133   3.223 -14.209  1.00  0.00    -0.003 C 
ATOM     22  C   UNL     1       0.465   4.086 -15.416  1.00  0.00     0.004 C 
ENDBRANCH  20  21
ENDBRANCH  19  20
ENDBRANCH  18  19
ENDBRANCH  17  18
ENDBRANCH  16  17
ENDBRANCH  12  16
ENDBRANCH   9  12
ENDBRANCH   6   9
ENDBRANCH   3   5
ENDBRANCH   2   3
BRANCH   2  23
ATOM     23  N   UNL     1       2.451  -4.284  -7.498  1.00  0.00    -0.332 N 
ATOM     24  C   UNL     1       3.428  -4.150  -8.568  1.00  0.00     0.147 C 
BRANCH  23  25
ATOM     25  C   UNL     1       1.169  -4.926  -7.897  1.00  0.00     0.174 C 
BRANCH  25  26
ATOM     26  C   UNL     1       1.320  -5.867  -9.116  1.00  0.00     0.038 C 
BRANCH  26  27
ATOM     27  C   UNL     1       1.616  -7.354  -8.820  1.00  0.00    -0.015 C 
ATOM     28  C   UNL     1       0.440  -8.265  -9.171  1.00  0.00     0.007 C 
ATOM     29  C   UNL     1       2.900  -7.859  -9.472  1.00  0.00     0.007 C 
ENDBRANCH  26  27
ENDBRANCH  25  26
BRANCH  25  30
ATOM     30  C   UNL     1       0.069  -3.854  -8.072  1.00  0.00     0.243 C 
ATOM     31  O   UNL     1       0.167  -2.951  -8.902  1.00  0.00    -0.273 OA
ATOM     32  N   UNL     1      -1.015  -3.975  -7.240  1.00  0.00    -0.342 N 
ATOM     33  H   UNL     1      -1.089  -4.828  -6.680  1.00  0.00     0.164 HD
BRANCH  32  34
ATOM     34  C   UNL     1      -2.139  -3.035  -7.247  1.00  0.00     0.175 C 
BRANCH  34  35
ATOM     35  C   UNL     1      -3.345  -3.611  -8.005  1.00  0.00     0.070 C 
BRANCH  35  36
ATOM     36  C   UNL     1      -3.126  -3.659  -9.501  1.00  0.00    -0.045 A 
ATOM     37  C   UNL     1      -2.808  -4.874 -10.125  1.00  0.00     0.007 A 
ATOM     38  C   UNL     1      -3.215  -2.496 -10.278  1.00  0.00     0.007 A 
ATOM     39  C   UNL     1      -2.591  -4.926 -11.502  1.00  0.00     0.046 A 
ATOM     40  C   UNL     1      -2.997  -2.547 -11.657  1.00  0.00     0.046 A 
ATOM     41  C   UNL     1      -2.688  -3.764 -12.257  1.00  0.00     0.115 A 
BRANCH  41  42
ATOM     42  O   UNL     1      -2.466  -3.857 -13.599  1.00  0.00    -0.508 OA
ATOM     43  H   UNL     1      -2.516  -2.964 -13.979  1.00  0.00     0.293 HD
ENDBRANCH  41  42
ENDBRANCH  35  36
ENDBRANCH  34  35
BRANCH  34  44
ATOM     44  C   UNL     1      -2.487  -2.695  -5.780  1.00  0.00     0.243 C 
ATOM     45  O   UNL     1      -3.597  -2.848  -5.278  1.00  0.00    -0.273 OA
ATOM     46  N   UNL     1      -1.461  -2.072  -5.102  1.00  0.00    -0.341 N 
ATOM     47  H   UNL     1      -0.598  -1.861  -5.597  1.00  0.00     0.164 HD
BRANCH  46  48
ATOM     48  C   UNL     1      -1.579  -1.596  -3.722  1.00  0.00     0.196 C 
BRANCH  48  49
ATOM     49  C   UNL     1      -0.926  -2.576  -2.734  1.00  0.00     0.072 C 
BRANCH  49  50
ATOM     50  C   UNL     1      -1.098  -2.150  -1.293  1.00  0.00    -0.045 A 
ATOM     51  C   UNL     1       0.027  -1.994  -0.471  1.00  0.00     0.007 A 
ATOM     52  C   UNL     1      -2.372  -1.929  -0.754  1.00  0.00     0.007 A 
ATOM     53  C   UNL     1      -0.120  -1.614   0.863  1.00  0.00     0.046 A 
ATOM     54  C   UNL     1      -2.520  -1.550   0.582  1.00  0.00     0.046 A 
ATOM     55  C   UNL     1      -1.391  -1.395   1.380  1.00  0.00     0.115 A 
BRANCH  55  56
ATOM     56  O   UNL     1      -1.492  -1.027   2.689  1.00  0.00    -0.508 OA
ATOM     57  H   UNL     1      -2.432  -1.014   2.931  1.00  0.00     0.293 HD
ENDBRANCH  55  56
ENDBRANCH  49  50
ENDBRANCH  48  49
BRANCH  48  58
ATOM     58  C   UNL     1      -0.903  -0.223  -3.609  1.00  0.00     0.326 C 
ATOM     59  O   UNL     1       0.294   0.015  -3.620  1.00  0.00    -0.250 OA
BRANCH  58  60
ATOM     60  O   UNL     1      -1.782   0.806  -3.499  1.00  0.00    -0.480 OA
ATOM     61  H   UNL     1      -1.203   1.580  -3.326  1.00  0.00     0.296 HD
ENDBRANCH  58  60
ENDBRANCH  48  58
ENDBRANCH  46  48
ENDBRANCH  34  44
ENDBRANCH  32  34
ENDBRANCH  25  30
ENDBRANCH  23  25
ENDBRANCH   2  23
TORSDOF 28
ENDMDL
MODEL 40
REMARK VINA RESULT:    -6.156      7.852     13.754
REMARK INTER + INTRA:         -19.395
REMARK INTER:                 -13.742
REMARK INTRA:                  -5.654
REMARK UNBOUND:                -4.062
REMARK SMILES CCCCCCC[C@H](N)[C@H](O)C(=O)N[C@H](C)C(=O)N(C)[C@H](CC(C)C)C(=O)N[C@@H](Cc1ccc(O)cc1)C(=O)N[C@@H](Cc1ccc(O)cc1)C(=O)O
REMARK SMILES IDX 18 1 17 2 15 3 16 4 14 5 12 6 13 7 10 9 11 10 8 12 9 13 7 16
REMARK SMILES IDX 6 17 5 18 4 19 3 20 2 21 1 22 19 23 20 24 21 25 22 26 23 27
REMARK SMILES IDX 24 28 25 29 26 30 27 31 28 32 29 34 30 35 31 36 32 37 37 38
REMARK SMILES IDX 33 39 36 40 34 41 35 42 38 44 39 45 40 46 41 48 42 49 43 50
REMARK SMILES IDX 44 51 49 52 45 53 48 54 46 55 47 56 50 58 51 59 52 60
REMARK H PARENT 14 8 11 11 9 14 9 15 28 33 35 43 40 47 47 57 52 61
ROOT
ATOM      1  O   UNL     1     -11.331  -5.041  -0.133  1.00  0.00    -0.272 OA
ATOM      2  C   UNL     1     -10.700  -4.167   0.479  1.00  0.00     0.245 C 
ENDROOT
BRANCH   2   3
ATOM      3  C   UNL     1      -9.364  -3.660  -0.121  1.00  0.00     0.168 C 
ATOM      4  C   UNL     1      -9.478  -2.199  -0.539  1.00  0.00     0.041 C 
BRANCH   3   5
ATOM      5  N   UNL     1      -8.193  -3.897   0.709  1.00  0.00    -0.342 N 
ATOM      6  C   UNL     1      -7.093  -4.581   0.237  1.00  0.00     0.251 C 
ATOM      7  O   UNL     1      -7.032  -5.072  -0.886  1.00  0.00    -0.272 OA
ATOM      8  H   UNL     1      -8.141  -3.567   1.670  1.00  0.00     0.164 HD
BRANCH   6   9
ATOM      9  C   UNL     1      -5.923  -4.587   1.234  1.00  0.00     0.219 C 
BRANCH   9  10
ATOM     10  O   UNL     1      -5.253  -5.851   1.293  1.00  0.00    -0.382 OA
ATOM     11  H   UNL     1      -5.629  -6.348   0.533  1.00  0.00     0.211 HD
ENDBRANCH   9  10
BRANCH   9  12
ATOM     12  C   UNL     1      -4.911  -3.437   0.992  1.00  0.00     0.089 C 
BRANCH  12  13
ATOM     13  N   UNL     1      -5.380  -2.636  -0.162  1.00  0.00    -0.325 NA
ATOM     14  H   UNL     1      -5.409  -3.229  -0.993  1.00  0.00     0.119 HD
ATOM     15  H   UNL     1      -4.684  -1.917  -0.371  1.00  0.00     0.119 HD
ENDBRANCH  12  13
BRANCH  12  16
ATOM     16  C   UNL     1      -4.631  -2.514   2.202  1.00  0.00     0.022 C 
BRANCH  16  17
ATOM     17  C   UNL     1      -5.570  -1.329   2.470  1.00  0.00     0.002 C 
BRANCH  17  18
ATOM     18  C   UNL     1      -4.957   0.048   2.223  1.00  0.00     0.000 C 
BRANCH  18  19
ATOM     19  C   UNL     1      -5.912   1.046   1.555  1.00  0.00    -0.000 C 
BRANCH  19  20
ATOM     20  C   UNL     1      -7.364   0.574   1.432  1.00  0.00    -0.000 C 
BRANCH  20  21
ATOM     21  C   UNL     1      -8.369   1.728   1.404  1.00  0.00    -0.003 C 
ATOM     22  C   UNL     1      -9.701   1.288   0.816  1.00  0.00     0.004 C 
ENDBRANCH  20  21
ENDBRANCH  19  20
ENDBRANCH  18  19
ENDBRANCH  17  18
ENDBRANCH  16  17
ENDBRANCH  12  16
ENDBRANCH   9  12
ENDBRANCH   6   9
ENDBRANCH   3   5
ENDBRANCH   2   3
BRANCH   2  23
ATOM     23  N   UNL     1     -11.250  -3.576   1.612  1.00  0.00    -0.332 N 
ATOM     24  C   UNL     1     -12.241  -2.511   1.589  1.00  0.00     0.147 C 
BRANCH  23  25
ATOM     25  C   UNL     1     -10.934  -4.109   2.965  1.00  0.00     0.174 C 
BRANCH  25  26
ATOM     26  C   UNL     1     -12.197  -4.504   3.767  1.00  0.00     0.038 C 
BRANCH  26  27
ATOM     27  C   UNL     1     -12.518  -6.011   3.870  1.00  0.00    -0.015 C 
ATOM     28  C   UNL     1     -14.002  -6.309   3.658  1.00  0.00     0.007 C 
ATOM     29  C   UNL     1     -11.660  -6.879   2.952  1.00  0.00     0.007 C 
ENDBRANCH  26  27
ENDBRANCH  25  26
BRANCH  25  30
ATOM     30  C   UNL     1     -10.001  -3.133   3.717  1.00  0.00     0.243 C 
ATOM     31  O   UNL     1      -8.839  -2.941   3.362  1.00  0.00    -0.273 OA
ATOM     32  N   UNL     1     -10.551  -2.504   4.804  1.00  0.00    -0.342 N 
ATOM     33  H   UNL     1     -11.559  -2.606   4.950  1.00  0.00     0.164 HD
BRANCH  32  34
ATOM     34  C   UNL     1      -9.808  -1.567   5.651  1.00  0.00     0.175 C 
BRANCH  34  35
ATOM     35  C   UNL     1      -9.581  -0.226   4.935  1.00  0.00     0.070 C 
BRANCH  35  36
ATOM     36  C   UNL     1      -8.189   0.323   5.151  1.00  0.00    -0.045 A 
ATOM     37  C   UNL     1      -7.170  -0.514   5.629  1.00  0.00     0.007 A 
ATOM     38  C   UNL     1      -7.902   1.672   4.901  1.00  0.00     0.007 A 
ATOM     39  C   UNL     1      -5.886  -0.013   5.844  1.00  0.00     0.046 A 
ATOM     40  C   UNL     1      -6.616   2.175   5.118  1.00  0.00     0.046 A 
ATOM     41  C   UNL     1      -5.619   1.326   5.586  1.00  0.00     0.115 A 
BRANCH  41  42
ATOM     42  O   UNL     1      -4.352   1.777   5.813  1.00  0.00    -0.508 OA
ATOM     43  H   UNL     1      -3.959   1.239   6.520  1.00  0.00     0.293 HD
ENDBRANCH  41  42
ENDBRANCH  35  36
ENDBRANCH  34  35
BRANCH  34  44
ATOM     44  C   UNL     1     -10.589  -1.391   6.972  1.00  0.00     0.243 C 
ATOM     45  O   UNL     1     -10.218  -0.692   7.910  1.00  0.00    -0.273 OA
ATOM     46  N   UNL     1     -11.700  -2.204   7.065  1.00  0.00    -0.341 N 
ATOM     47  H   UNL     1     -11.902  -2.853   6.308  1.00  0.00     0.164 HD
BRANCH  46  48
ATOM     48  C   UNL     1     -12.558  -2.262   8.250  1.00  0.00     0.196 C 
BRANCH  48  49
ATOM     49  C   UNL     1     -13.972  -2.753   7.894  1.00  0.00     0.072 C 
BRANCH  49  50
ATOM     50  C   UNL     1     -14.144  -4.239   8.115  1.00  0.00    -0.045 A 
ATOM     51  C   UNL     1     -14.832  -4.702   9.246  1.00  0.00     0.007 A 
ATOM     52  C   UNL     1     -13.609  -5.169   7.214  1.00  0.00     0.007 A 
ATOM     53  C   UNL     1     -14.986  -6.071   9.467  1.00  0.00     0.046 A 
ATOM     54  C   UNL     1     -13.762  -6.539   7.437  1.00  0.00     0.046 A 
ATOM     55  C   UNL     1     -14.451  -6.978   8.562  1.00  0.00     0.115 A 
BRANCH  55  56
ATOM     56  O   UNL     1     -14.622  -8.307   8.815  1.00  0.00    -0.508 OA
ATOM     57  H   UNL     1     -14.734  -8.424   9.772  1.00  0.00     0.293 HD
ENDBRANCH  55  56
ENDBRANCH  49  50
ENDBRANCH  48  49
BRANCH  48  58
ATOM     58  C   UNL     1     -11.927  -3.212   9.277  1.00  0.00     0.326 C 
ATOM     59  O   UNL     1     -11.226  -4.186   9.051  1.00  0.00    -0.250 OA
BRANCH  58  60
ATOM     60  O   UNL     1     -12.201  -2.878  10.563  1.00  0.00    -0.480 OA
ATOM     61  H   UNL     1     -11.843  -1.967  10.641  1.00  0.00     0.296 HD
ENDBRANCH  58  60
ENDBRANCH  48  58
ENDBRANCH  46  48
ENDBRANCH  34  44
ENDBRANCH  32  34
ENDBRANCH  25  30
ENDBRANCH  23  25
ENDBRANCH   2  23
TORSDOF 28
ENDMDL
MODEL 41
REMARK VINA RESULT:    -6.136     11.189     14.704
REMARK INTER + INTRA:         -19.345
REMARK INTER:                 -12.632
REMARK INTRA:                  -6.713
REMARK UNBOUND:                -4.062
REMARK SMILES CCCCCCC[C@H](N)[C@H](O)C(=O)N[C@H](C)C(=O)N(C)[C@H](CC(C)C)C(=O)N[C@@H](Cc1ccc(O)cc1)C(=O)N[C@@H](Cc1ccc(O)cc1)C(=O)O
REMARK SMILES IDX 18 1 17 2 15 3 16 4 14 5 12 6 13 7 10 9 11 10 8 12 9 13 7 16
REMARK SMILES IDX 6 17 5 18 4 19 3 20 2 21 1 22 19 23 20 24 21 25 22 26 23 27
REMARK SMILES IDX 24 28 25 29 26 30 27 31 28 32 29 34 30 35 31 36 32 37 37 38
REMARK SMILES IDX 33 39 36 40 34 41 35 42 38 44 39 45 40 46 41 48 42 49 43 50
REMARK SMILES IDX 44 51 49 52 45 53 48 54 46 55 47 56 50 58 51 59 52 60
REMARK H PARENT 14 8 11 11 9 14 9 15 28 33 35 43 40 47 47 57 52 61
ROOT
ATOM      1  O   UNL     1      -5.355  -0.910  -0.681  1.00  0.00    -0.272 OA
ATOM      2  C   UNL     1      -5.733  -2.090  -0.656  1.00  0.00     0.245 C 
ENDROOT
BRANCH   2   3
ATOM      3  C   UNL     1      -7.247  -2.387  -0.799  1.00  0.00     0.168 C 
ATOM      4  C   UNL     1      -8.042  -1.093  -0.934  1.00  0.00     0.041 C 
BRANCH   3   5
ATOM      5  N   UNL     1      -7.586  -3.343  -1.841  1.00  0.00    -0.342 N 
ATOM      6  C   UNL     1      -7.953  -4.640  -1.548  1.00  0.00     0.251 C 
ATOM      7  O   UNL     1      -7.980  -5.094  -0.409  1.00  0.00    -0.272 OA
ATOM      8  H   UNL     1      -7.566  -3.092  -2.827  1.00  0.00     0.164 HD
BRANCH   6   9
ATOM      9  C   UNL     1      -8.404  -5.425  -2.790  1.00  0.00     0.219 C 
BRANCH   9  10
ATOM     10  O   UNL     1      -8.323  -6.844  -2.606  1.00  0.00    -0.382 OA
ATOM     11  H   UNL     1      -9.115  -7.184  -3.079  1.00  0.00     0.211 HD
ENDBRANCH   9  10
BRANCH   9  12
ATOM     12  C   UNL     1      -9.813  -5.014  -3.292  1.00  0.00     0.089 C 
BRANCH  12  13
ATOM     13  N   UNL     1     -10.555  -4.415  -2.160  1.00  0.00    -0.325 NA
ATOM     14  H   UNL     1     -10.894  -5.160  -1.548  1.00  0.00     0.119 HD
ATOM     15  H   UNL     1     -11.399  -3.962  -2.520  1.00  0.00     0.119 HD
ENDBRANCH  12  13
BRANCH  12  16
ATOM     16  C   UNL     1      -9.847  -4.064  -4.513  1.00  0.00     0.022 C 
BRANCH  16  17
ATOM     17  C   UNL     1      -9.277  -4.549  -5.853  1.00  0.00     0.002 C 
BRANCH  17  18
ATOM     18  C   UNL     1      -7.837  -4.124  -6.133  1.00  0.00     0.000 C 
BRANCH  18  19
ATOM     19  C   UNL     1      -7.491  -4.035  -7.625  1.00  0.00    -0.000 C 
BRANCH  19  20
ATOM     20  C   UNL     1      -6.028  -3.703  -7.934  1.00  0.00    -0.000 C 
BRANCH  20  21
ATOM     21  C   UNL     1      -5.038  -4.565  -7.147  1.00  0.00    -0.003 C 
ATOM     22  C   UNL     1      -3.753  -4.787  -7.928  1.00  0.00     0.004 C 
ENDBRANCH  20  21
ENDBRANCH  19  20
ENDBRANCH  18  19
ENDBRANCH  17  18
ENDBRANCH  16  17
ENDBRANCH  12  16
ENDBRANCH   9  12
ENDBRANCH   6   9
ENDBRANCH   3   5
ENDBRANCH   2   3
BRANCH   2  23
ATOM     23  N   UNL     1      -4.798  -3.120  -0.623  1.00  0.00    -0.332 N 
ATOM     24  C   UNL     1      -4.734  -4.144   0.408  1.00  0.00     0.147 C 
BRANCH  23  25
ATOM     25  C   UNL     1      -3.852  -3.310  -1.757  1.00  0.00     0.174 C 
BRANCH  25  26
ATOM     26  C   UNL     1      -2.542  -2.506  -1.589  1.00  0.00     0.038 C 
BRANCH  26  27
ATOM     27  C   UNL     1      -1.483  -3.086  -0.624  1.00  0.00    -0.015 C 
ATOM     28  C   UNL     1      -0.651  -4.194  -1.268  1.00  0.00     0.007 C 
ATOM     29  C   UNL     1      -0.577  -2.023  -0.008  1.00  0.00     0.007 C 
ENDBRANCH  26  27
ENDBRANCH  25  26
BRANCH  25  30
ATOM     30  C   UNL     1      -4.572  -3.053  -3.100  1.00  0.00     0.243 C 
ATOM     31  O   UNL     1      -5.166  -3.946  -3.701  1.00  0.00    -0.273 OA
ATOM     32  N   UNL     1      -4.497  -1.769  -3.576  1.00  0.00    -0.342 N 
ATOM     33  H   UNL     1      -4.110  -1.055  -2.955  1.00  0.00     0.164 HD
BRANCH  32  34
ATOM     34  C   UNL     1      -5.096  -1.349  -4.846  1.00  0.00     0.175 C 
BRANCH  34  35
ATOM     35  C   UNL     1      -6.179  -0.281  -4.627  1.00  0.00     0.070 C 
BRANCH  35  36
ATOM     36  C   UNL     1      -7.334  -0.412  -5.593  1.00  0.00    -0.045 A 
ATOM     37  C   UNL     1      -8.636  -0.610  -5.108  1.00  0.00     0.007 A 
ATOM     38  C   UNL     1      -7.123  -0.363  -6.977  1.00  0.00     0.007 A 
ATOM     39  C   UNL     1      -9.707  -0.746  -5.992  1.00  0.00     0.046 A 
ATOM     40  C   UNL     1      -8.195  -0.500  -7.863  1.00  0.00     0.046 A 
ATOM     41  C   UNL     1      -9.478  -0.690  -7.361  1.00  0.00     0.115 A 
BRANCH  41  42
ATOM     42  O   UNL     1     -10.551  -0.831  -8.191  1.00  0.00    -0.508 OA
ATOM     43  H   UNL     1     -10.833  -1.760  -8.169  1.00  0.00     0.293 HD
ENDBRANCH  41  42
ENDBRANCH  35  36
ENDBRANCH  34  35
BRANCH  34  44
ATOM     44  C   UNL     1      -3.963  -0.842  -5.766  1.00  0.00     0.243 C 
ATOM     45  O   UNL     1      -3.632  -1.378  -6.820  1.00  0.00    -0.273 OA
ATOM     46  N   UNL     1      -3.251   0.211  -5.230  1.00  0.00    -0.341 N 
ATOM     47  H   UNL     1      -3.490   0.546  -4.300  1.00  0.00     0.164 HD
BRANCH  46  48
ATOM     48  C   UNL     1      -2.090   0.816  -5.887  1.00  0.00     0.196 C 
BRANCH  48  49
ATOM     49  C   UNL     1      -2.436   2.192  -6.480  1.00  0.00     0.072 C 
BRANCH  49  50
ATOM     50  C   UNL     1      -3.762   2.723  -5.984  1.00  0.00    -0.045 A 
ATOM     51  C   UNL     1      -3.855   3.280  -4.700  1.00  0.00     0.007 A 
ATOM     52  C   UNL     1      -4.911   2.650  -6.781  1.00  0.00     0.007 A 
ATOM     53  C   UNL     1      -5.076   3.761  -4.226  1.00  0.00     0.046 A 
ATOM     54  C   UNL     1      -6.134   3.131  -6.306  1.00  0.00     0.046 A 
ATOM     55  C   UNL     1      -6.205   3.684  -5.032  1.00  0.00     0.115 A 
BRANCH  55  56
ATOM     56  O   UNL     1      -7.379   4.163  -4.531  1.00  0.00    -0.508 OA
ATOM     57  H   UNL     1      -7.794   4.723  -5.207  1.00  0.00     0.293 HD
ENDBRANCH  55  56
ENDBRANCH  49  50
ENDBRANCH  48  49
BRANCH  48  58
ATOM     58  C   UNL     1      -0.959   0.968  -4.860  1.00  0.00     0.326 C 
ATOM     59  O   UNL     1       0.214   1.217  -5.085  1.00  0.00    -0.250 OA
BRANCH  58  60
ATOM     60  O   UNL     1      -1.369   0.810  -3.576  1.00  0.00    -0.480 OA
ATOM     61  H   UNL     1      -2.249   0.386  -3.670  1.00  0.00     0.296 HD
ENDBRANCH  58  60
ENDBRANCH  48  58
ENDBRANCH  46  48
ENDBRANCH  34  44
ENDBRANCH  32  34
ENDBRANCH  25  30
ENDBRANCH  23  25
ENDBRANCH   2  23
TORSDOF 28
ENDMDL
MODEL 42
REMARK VINA RESULT:    -6.120      5.032     10.037
REMARK INTER + INTRA:         -19.306
REMARK INTER:                 -14.894
REMARK INTRA:                  -4.412
REMARK UNBOUND:                -4.062
REMARK SMILES CCCCCCC[C@H](N)[C@H](O)C(=O)N[C@H](C)C(=O)N(C)[C@H](CC(C)C)C(=O)N[C@@H](Cc1ccc(O)cc1)C(=O)N[C@@H](Cc1ccc(O)cc1)C(=O)O
REMARK SMILES IDX 18 1 17 2 15 3 16 4 14 5 12 6 13 7 10 9 11 10 8 12 9 13 7 16
REMARK SMILES IDX 6 17 5 18 4 19 3 20 2 21 1 22 19 23 20 24 21 25 22 26 23 27
REMARK SMILES IDX 24 28 25 29 26 30 27 31 28 32 29 34 30 35 31 36 32 37 37 38
REMARK SMILES IDX 33 39 36 40 34 41 35 42 38 44 39 45 40 46 41 48 42 49 43 50
REMARK SMILES IDX 44 51 49 52 45 53 48 54 46 55 47 56 50 58 51 59 52 60
REMARK H PARENT 14 8 11 11 9 14 9 15 28 33 35 43 40 47 47 57 52 61
ROOT
ATOM      1  O   UNL     1      -7.170   0.979   0.724  1.00  0.00    -0.272 OA
ATOM      2  C   UNL     1      -7.079   0.485   1.857  1.00  0.00     0.245 C 
ENDROOT
BRANCH   2   3
ATOM      3  C   UNL     1      -7.775   1.205   3.038  1.00  0.00     0.168 C 
ATOM      4  C   UNL     1      -8.110   2.647   2.672  1.00  0.00     0.041 C 
BRANCH   3   5
ATOM      5  N   UNL     1      -8.925   0.505   3.589  1.00  0.00    -0.342 N 
ATOM      6  C   UNL     1      -9.144   0.420   4.948  1.00  0.00     0.251 C 
ATOM      7  O   UNL     1      -8.378   0.883   5.786  1.00  0.00    -0.272 OA
ATOM      8  H   UNL     1      -9.613   0.050   2.992  1.00  0.00     0.164 HD
BRANCH   6   9
ATOM      9  C   UNL     1     -10.489  -0.239   5.294  1.00  0.00     0.219 C 
BRANCH   9  10
ATOM     10  O   UNL     1     -11.357  -0.351   4.159  1.00  0.00    -0.382 OA
ATOM     11  H   UNL     1     -11.500  -1.320   4.073  1.00  0.00     0.211 HD
ENDBRANCH   9  10
BRANCH   9  12
ATOM     12  C   UNL     1     -10.331  -1.609   6.004  1.00  0.00     0.089 C 
BRANCH  12  13
ATOM     13  N   UNL     1      -8.940  -2.080   5.808  1.00  0.00    -0.325 NA
ATOM     14  H   UNL     1      -8.298  -1.298   5.951  1.00  0.00     0.119 HD
ATOM     15  H   UNL     1      -8.818  -2.350   4.829  1.00  0.00     0.119 HD
ENDBRANCH  12  13
BRANCH  12  16
ATOM     16  C   UNL     1     -10.695  -1.639   7.508  1.00  0.00     0.022 C 
BRANCH  16  17
ATOM     17  C   UNL     1      -9.950  -0.709   8.475  1.00  0.00     0.002 C 
BRANCH  17  18
ATOM     18  C   UNL     1     -10.485  -0.705   9.905  1.00  0.00     0.000 C 
BRANCH  18  19
ATOM     19  C   UNL     1     -12.009  -0.856  10.003  1.00  0.00    -0.000 C 
BRANCH  19  20
ATOM     20  C   UNL     1     -12.760   0.401  10.451  1.00  0.00    -0.000 C 
BRANCH  20  21
ATOM     21  C   UNL     1     -12.484   1.615   9.560  1.00  0.00    -0.003 C 
ATOM     22  C   UNL     1     -11.835   2.744  10.345  1.00  0.00     0.004 C 
ENDBRANCH  20  21
ENDBRANCH  19  20
ENDBRANCH  18  19
ENDBRANCH  17  18
ENDBRANCH  16  17
ENDBRANCH  12  16
ENDBRANCH   9  12
ENDBRANCH   6   9
ENDBRANCH   3   5
ENDBRANCH   2   3
BRANCH   2  23
ATOM     23  N   UNL     1      -6.468  -0.753   2.029  1.00  0.00    -0.332 N 
ATOM     24  C   UNL     1      -7.181  -2.018   2.137  1.00  0.00     0.147 C 
BRANCH  23  25
ATOM     25  C   UNL     1      -4.985  -0.871   1.983  1.00  0.00     0.174 C 
BRANCH  25  26
ATOM     26  C   UNL     1      -4.498  -1.975   1.015  1.00  0.00     0.038 C 
BRANCH  26  27
ATOM     27  C   UNL     1      -3.173  -1.714   0.265  1.00  0.00    -0.015 C 
ATOM     28  C   UNL     1      -3.331  -0.693  -0.862  1.00  0.00     0.007 C 
ATOM     29  C   UNL     1      -2.020  -1.323   1.186  1.00  0.00     0.007 C 
ENDBRANCH  26  27
ENDBRANCH  25  26
BRANCH  25  30
ATOM     30  C   UNL     1      -4.418  -1.006   3.415  1.00  0.00     0.243 C 
ATOM     31  O   UNL     1      -4.308  -2.098   3.970  1.00  0.00    -0.273 OA
ATOM     32  N   UNL     1      -4.055   0.168   4.022  1.00  0.00    -0.342 N 
ATOM     33  H   UNL     1      -4.043   1.015   3.447  1.00  0.00     0.164 HD
BRANCH  32  34
ATOM     34  C   UNL     1      -3.524   0.235   5.387  1.00  0.00     0.175 C 
BRANCH  34  35
ATOM     35  C   UNL     1      -2.055   0.686   5.394  1.00  0.00     0.070 C 
BRANCH  35  36
ATOM     36  C   UNL     1      -1.090  -0.463   5.204  1.00  0.00    -0.045 A 
ATOM     37  C   UNL     1       0.101  -0.268   4.488  1.00  0.00     0.007 A 
ATOM     38  C   UNL     1      -1.377  -1.735   5.715  1.00  0.00     0.007 A 
ATOM     39  C   UNL     1       0.991  -1.325   4.296  1.00  0.00     0.046 A 
ATOM     40  C   UNL     1      -0.487  -2.794   5.522  1.00  0.00     0.046 A 
ATOM     41  C   UNL     1       0.691  -2.578   4.815  1.00  0.00     0.115 A 
BRANCH  41  42
ATOM     42  O   UNL     1       1.585  -3.585   4.602  1.00  0.00    -0.508 OA
ATOM     43  H   UNL     1       1.097  -4.424   4.568  1.00  0.00     0.293 HD
ENDBRANCH  41  42
ENDBRANCH  35  36
ENDBRANCH  34  35
BRANCH  34  44
ATOM     44  C   UNL     1      -4.425   1.188   6.204  1.00  0.00     0.243 C 
ATOM     45  O   UNL     1      -5.366   1.823   5.738  1.00  0.00    -0.273 OA
ATOM     46  N   UNL     1      -3.995   1.370   7.502  1.00  0.00    -0.341 N 
ATOM     47  H   UNL     1      -3.140   0.912   7.808  1.00  0.00     0.164 HD
BRANCH  46  48
ATOM     48  C   UNL     1      -4.648   2.280   8.446  1.00  0.00     0.196 C 
BRANCH  48  49
ATOM     49  C   UNL     1      -4.317   1.908   9.901  1.00  0.00     0.072 C 
BRANCH  49  50
ATOM     50  C   UNL     1      -5.540   1.500  10.690  1.00  0.00    -0.045 A 
ATOM     51  C   UNL     1      -6.798   2.016  10.346  1.00  0.00     0.007 A 
ATOM     52  C   UNL     1      -5.437   0.625  11.780  1.00  0.00     0.007 A 
ATOM     53  C   UNL     1      -7.932   1.657  11.075  1.00  0.00     0.046 A 
ATOM     54  C   UNL     1      -6.572   0.267  12.510  1.00  0.00     0.046 A 
ATOM     55  C   UNL     1      -7.811   0.785  12.150  1.00  0.00     0.115 A 
BRANCH  55  56
ATOM     56  O   UNL     1      -8.943   0.461  12.838  1.00  0.00    -0.508 OA
ATOM     57  H   UNL     1      -9.530  -0.035  12.245  1.00  0.00     0.293 HD
ENDBRANCH  55  56
ENDBRANCH  49  50
ENDBRANCH  48  49
BRANCH  48  58
ATOM     58  C   UNL     1      -4.180   3.714   8.163  1.00  0.00     0.326 C 
ATOM     59  O   UNL     1      -3.232   4.295   8.665  1.00  0.00    -0.250 OA
BRANCH  58  60
ATOM     60  O   UNL     1      -4.933   4.355   7.233  1.00  0.00    -0.480 OA
ATOM     61  H   UNL     1      -4.271   4.651   6.572  1.00  0.00     0.296 HD
ENDBRANCH  58  60
ENDBRANCH  48  58
ENDBRANCH  46  48
ENDBRANCH  34  44
ENDBRANCH  32  34
ENDBRANCH  25  30
ENDBRANCH  23  25
ENDBRANCH   2  23
TORSDOF 28
ENDMDL
MODEL 43
REMARK VINA RESULT:    -6.079      2.523      6.081
REMARK INTER + INTRA:         -19.202
REMARK INTER:                 -15.360
REMARK INTRA:                  -3.843
REMARK UNBOUND:                -4.062
REMARK SMILES CCCCCCC[C@H](N)[C@H](O)C(=O)N[C@H](C)C(=O)N(C)[C@H](CC(C)C)C(=O)N[C@@H](Cc1ccc(O)cc1)C(=O)N[C@@H](Cc1ccc(O)cc1)C(=O)O
REMARK SMILES IDX 18 1 17 2 15 3 16 4 14 5 12 6 13 7 10 9 11 10 8 12 9 13 7 16
REMARK SMILES IDX 6 17 5 18 4 19 3 20 2 21 1 22 19 23 20 24 21 25 22 26 23 27
REMARK SMILES IDX 24 28 25 29 26 30 27 31 28 32 29 34 30 35 31 36 32 37 37 38
REMARK SMILES IDX 33 39 36 40 34 41 35 42 38 44 39 45 40 46 41 48 42 49 43 50
REMARK SMILES IDX 44 51 49 52 45 53 48 54 46 55 47 56 50 58 51 59 52 60
REMARK H PARENT 14 8 11 11 9 14 9 15 28 33 35 43 40 47 47 57 52 61
ROOT
ATOM      1  O   UNL     1      -3.610   6.537   9.504  1.00  0.00    -0.272 OA
ATOM      2  C   UNL     1      -3.800   5.320   9.367  1.00  0.00     0.245 C 
ENDROOT
BRANCH   2   3
ATOM      3  C   UNL     1      -5.190   4.837   8.881  1.00  0.00     0.168 C 
ATOM      4  C   UNL     1      -6.154   6.011   8.746  1.00  0.00     0.041 C 
BRANCH   3   5
ATOM      5  N   UNL     1      -5.166   4.014   7.682  1.00  0.00    -0.342 N 
ATOM      6  C   UNL     1      -5.675   2.733   7.668  1.00  0.00     0.251 C 
ATOM      7  O   UNL     1      -6.141   2.180   8.659  1.00  0.00    -0.272 OA
ATOM      8  H   UNL     1      -4.773   4.353   6.807  1.00  0.00     0.164 HD
BRANCH   6   9
ATOM      9  C   UNL     1      -5.674   2.108   6.264  1.00  0.00     0.219 C 
BRANCH   9  10
ATOM     10  O   UNL     1      -4.823   2.808   5.348  1.00  0.00    -0.382 OA
ATOM     11  H   UNL     1      -4.733   2.185   4.594  1.00  0.00     0.211 HD
ENDBRANCH   9  10
BRANCH   9  12
ATOM     12  C   UNL     1      -5.346   0.592   6.272  1.00  0.00     0.089 C 
BRANCH  12  13
ATOM     13  N   UNL     1      -6.614  -0.159   6.417  1.00  0.00    -0.325 NA
ATOM     14  H   UNL     1      -7.350   0.320   5.895  1.00  0.00     0.119 HD
ATOM     15  H   UNL     1      -6.912  -0.121   7.395  1.00  0.00     0.119 HD
ENDBRANCH  12  13
BRANCH  12  16
ATOM     16  C   UNL     1      -4.551   0.064   5.054  1.00  0.00     0.022 C 
BRANCH  16  17
ATOM     17  C   UNL     1      -3.618  -1.141   5.237  1.00  0.00     0.002 C 
BRANCH  17  18
ATOM     18  C   UNL     1      -2.256  -1.010   4.559  1.00  0.00     0.000 C 
BRANCH  18  19
ATOM     19  C   UNL     1      -1.212  -2.020   5.054  1.00  0.00    -0.000 C 
BRANCH  19  20
ATOM     20  C   UNL     1       0.152  -1.423   5.412  1.00  0.00    -0.000 C 
BRANCH  20  21
ATOM     21  C   UNL     1       0.389  -0.047   4.783  1.00  0.00    -0.003 C 
ATOM     22  C   UNL     1       1.827   0.409   4.972  1.00  0.00     0.004 C 
ENDBRANCH  20  21
ENDBRANCH  19  20
ENDBRANCH  18  19
ENDBRANCH  17  18
ENDBRANCH  16  17
ENDBRANCH  12  16
ENDBRANCH   9  12
ENDBRANCH   6   9
ENDBRANCH   3   5
ENDBRANCH   2   3
BRANCH   2  23
ATOM     23  N   UNL     1      -2.745   4.428   9.529  1.00  0.00    -0.332 N 
ATOM     24  C   UNL     1      -2.767   3.277  10.419  1.00  0.00     0.147 C 
BRANCH  23  25
ATOM     25  C   UNL     1      -1.533   4.535   8.672  1.00  0.00     0.174 C 
BRANCH  25  26
ATOM     26  C   UNL     1      -0.703   3.230   8.638  1.00  0.00     0.038 C 
BRANCH  26  27
ATOM     27  C   UNL     1      -0.737   2.412   7.327  1.00  0.00    -0.015 C 
ATOM     28  C   UNL     1      -2.045   1.642   7.153  1.00  0.00     0.007 C 
ATOM     29  C   UNL     1      -0.435   3.245   6.084  1.00  0.00     0.007 C 
ENDBRANCH  26  27
ENDBRANCH  25  26
BRANCH  25  30
ATOM     30  C   UNL     1      -0.711   5.784   9.066  1.00  0.00     0.243 C 
ATOM     31  O   UNL     1      -0.105   5.853  10.134  1.00  0.00    -0.273 OA
ATOM     32  N   UNL     1      -0.710   6.805   8.151  1.00  0.00    -0.342 N 
ATOM     33  H   UNL     1      -1.117   6.618   7.231  1.00  0.00     0.164 HD
BRANCH  32  34
ATOM     34  C   UNL     1      -0.008   8.074   8.367  1.00  0.00     0.175 C 
BRANCH  34  35
ATOM     35  C   UNL     1       0.764   8.506   7.111  1.00  0.00     0.070 C 
BRANCH  35  36
ATOM     36  C   UNL     1       2.263   8.488   7.311  1.00  0.00    -0.045 A 
ATOM     37  C   UNL     1       3.113   8.923   6.284  1.00  0.00     0.007 A 
ATOM     38  C   UNL     1       2.823   8.018   8.506  1.00  0.00     0.007 A 
ATOM     39  C   UNL     1       4.498   8.897   6.454  1.00  0.00     0.046 A 
ATOM     40  C   UNL     1       4.209   7.990   8.677  1.00  0.00     0.046 A 
ATOM     41  C   UNL     1       5.034   8.432   7.649  1.00  0.00     0.115 A 
BRANCH  41  42
ATOM     42  O   UNL     1       6.392   8.420   7.773  1.00  0.00    -0.508 OA
ATOM     43  H   UNL     1       6.662   9.227   8.242  1.00  0.00     0.293 HD
ENDBRANCH  41  42
ENDBRANCH  35  36
ENDBRANCH  34  35
BRANCH  34  44
ATOM     44  C   UNL     1      -1.052   9.130   8.795  1.00  0.00     0.243 C 
ATOM     45  O   UNL     1      -1.571   9.182   9.907  1.00  0.00    -0.273 OA
ATOM     46  N   UNL     1      -1.457   9.951   7.764  1.00  0.00    -0.341 N 
ATOM     47  H   UNL     1      -1.083   9.793   6.831  1.00  0.00     0.164 HD
BRANCH  46  48
ATOM     48  C   UNL     1      -2.485  10.983   7.912  1.00  0.00     0.196 C 
BRANCH  48  49
ATOM     49  C   UNL     1      -3.788  10.397   8.482  1.00  0.00     0.072 C 
BRANCH  49  50
ATOM     50  C   UNL     1      -5.020  11.104   7.963  1.00  0.00    -0.045 A 
ATOM     51  C   UNL     1      -6.044  11.466   8.850  1.00  0.00     0.007 A 
ATOM     52  C   UNL     1      -5.167  11.388   6.599  1.00  0.00     0.007 A 
ATOM     53  C   UNL     1      -7.191  12.107   8.380  1.00  0.00     0.046 A 
ATOM     54  C   UNL     1      -6.316  12.028   6.129  1.00  0.00     0.046 A 
ATOM     55  C   UNL     1      -7.318  12.384   7.025  1.00  0.00     0.115 A 
BRANCH  55  56
ATOM     56  O   UNL     1      -8.455  13.009   6.606  1.00  0.00    -0.508 OA
ATOM     57  H   UNL     1      -9.194  12.701   7.155  1.00  0.00     0.293 HD
ENDBRANCH  55  56
ENDBRANCH  49  50
ENDBRANCH  48  49
BRANCH  48  58
ATOM     58  C   UNL     1      -1.961  12.080   8.849  1.00  0.00     0.326 C 
ATOM     59  O   UNL     1      -1.166  12.966   8.579  1.00  0.00    -0.250 OA
BRANCH  58  60
ATOM     60  O   UNL     1      -2.482  12.017  10.100  1.00  0.00    -0.480 OA
ATOM     61  H   UNL     1      -2.189  12.860  10.510  1.00  0.00     0.296 HD
ENDBRANCH  58  60
ENDBRANCH  48  58
ENDBRANCH  46  48
ENDBRANCH  34  44
ENDBRANCH  32  34
ENDBRANCH  25  30
ENDBRANCH  23  25
ENDBRANCH   2  23
TORSDOF 28
ENDMDL
MODEL 44
REMARK VINA RESULT:    -6.059     10.745     15.927
REMARK INTER + INTRA:         -19.154
REMARK INTER:                 -12.469
REMARK INTRA:                  -6.684
REMARK UNBOUND:                -4.062
REMARK SMILES CCCCCCC[C@H](N)[C@H](O)C(=O)N[C@H](C)C(=O)N(C)[C@H](CC(C)C)C(=O)N[C@@H](Cc1ccc(O)cc1)C(=O)N[C@@H](Cc1ccc(O)cc1)C(=O)O
REMARK SMILES IDX 18 1 17 2 15 3 16 4 14 5 12 6 13 7 10 9 11 10 8 12 9 13 7 16
REMARK SMILES IDX 6 17 5 18 4 19 3 20 2 21 1 22 19 23 20 24 21 25 22 26 23 27
REMARK SMILES IDX 24 28 25 29 26 30 27 31 28 32 29 34 30 35 31 36 32 37 37 38
REMARK SMILES IDX 33 39 36 40 34 41 35 42 38 44 39 45 40 46 41 48 42 49 43 50
REMARK SMILES IDX 44 51 49 52 45 53 48 54 46 55 47 56 50 58 51 59 52 60
REMARK H PARENT 14 8 11 11 9 14 9 15 28 33 35 43 40 47 47 57 52 61
ROOT
ATOM      1  O   UNL     1      -7.853  -3.447  -9.855  1.00  0.00    -0.272 OA
ATOM      2  C   UNL     1      -7.274  -2.695  -9.056  1.00  0.00     0.245 C 
ENDROOT
BRANCH   2   3
ATOM      3  C   UNL     1      -7.835  -1.267  -8.844  1.00  0.00     0.168 C 
ATOM      4  C   UNL     1      -8.983  -0.987  -9.808  1.00  0.00     0.041 C 
BRANCH   3   5
ATOM      5  N   UNL     1      -8.192  -0.948  -7.470  1.00  0.00    -0.342 N 
ATOM      6  C   UNL     1      -7.814   0.237  -6.877  1.00  0.00     0.251 C 
ATOM      7  O   UNL     1      -7.124   1.084  -7.435  1.00  0.00    -0.272 OA
ATOM      8  H   UNL     1      -8.733  -1.589  -6.895  1.00  0.00     0.164 HD
BRANCH   6   9
ATOM      9  C   UNL     1      -8.421   0.421  -5.476  1.00  0.00     0.219 C 
BRANCH   9  10
ATOM     10  O   UNL     1      -9.764  -0.069  -5.388  1.00  0.00    -0.382 OA
ATOM     11  H   UNL     1      -9.902  -0.192  -4.423  1.00  0.00     0.211 HD
ENDBRANCH   9  10
BRANCH   9  12
ATOM     12  C   UNL     1      -7.541  -0.178  -4.348  1.00  0.00     0.089 C 
BRANCH  12  13
ATOM     13  N   UNL     1      -6.764  -1.307  -4.910  1.00  0.00    -0.325 NA
ATOM     14  H   UNL     1      -6.021  -1.561  -4.258  1.00  0.00     0.119 HD
ATOM     15  H   UNL     1      -6.281  -0.988  -5.754  1.00  0.00     0.119 HD
ENDBRANCH  12  13
BRANCH  12  16
ATOM     16  C   UNL     1      -6.594   0.812  -3.629  1.00  0.00     0.022 C 
BRANCH  16  17
ATOM     17  C   UNL     1      -5.239   1.147  -4.266  1.00  0.00     0.002 C 
BRANCH  17  18
ATOM     18  C   UNL     1      -5.112   2.572  -4.799  1.00  0.00     0.000 C 
BRANCH  18  19
ATOM     19  C   UNL     1      -3.679   2.972  -5.178  1.00  0.00    -0.000 C 
BRANCH  19  20
ATOM     20  C   UNL     1      -2.823   1.845  -5.762  1.00  0.00    -0.000 C 
BRANCH  20  21
ATOM     21  C   UNL     1      -1.322   2.146  -5.713  1.00  0.00    -0.003 C 
ATOM     22  C   UNL     1      -1.045   3.478  -5.033  1.00  0.00     0.004 C 
ENDBRANCH  20  21
ENDBRANCH  19  20
ENDBRANCH  18  19
ENDBRANCH  17  18
ENDBRANCH  16  17
ENDBRANCH  12  16
ENDBRANCH   9  12
ENDBRANCH   6   9
ENDBRANCH   3   5
ENDBRANCH   2   3
BRANCH   2  23
ATOM     23  N   UNL     1      -6.222  -3.177  -8.284  1.00  0.00    -0.332 N 
ATOM     24  C   UNL     1      -6.342  -4.238  -7.295  1.00  0.00     0.147 C 
BRANCH  23  25
ATOM     25  C   UNL     1      -4.833  -2.700  -8.527  1.00  0.00     0.174 C 
BRANCH  25  26
ATOM     26  C   UNL     1      -3.874  -3.834  -8.959  1.00  0.00     0.038 C 
BRANCH  26  27
ATOM     27  C   UNL     1      -3.602  -3.982 -10.473  1.00  0.00    -0.015 C 
ATOM     28  C   UNL     1      -4.597  -4.919 -11.157  1.00  0.00     0.007 C 
ATOM     29  C   UNL     1      -3.529  -2.647 -11.210  1.00  0.00     0.007 C 
ENDBRANCH  26  27
ENDBRANCH  25  26
BRANCH  25  30
ATOM     30  C   UNL     1      -4.329  -1.890  -7.310  1.00  0.00     0.243 C 
ATOM     31  O   UNL     1      -4.550  -0.686  -7.195  1.00  0.00    -0.273 OA
ATOM     32  N   UNL     1      -3.617  -2.601  -6.378  1.00  0.00    -0.342 N 
ATOM     33  H   UNL     1      -3.597  -3.619  -6.473  1.00  0.00     0.164 HD
BRANCH  32  34
ATOM     34  C   UNL     1      -3.040  -1.993  -5.177  1.00  0.00     0.175 C 
BRANCH  34  35
ATOM     35  C   UNL     1      -3.458  -2.754  -3.909  1.00  0.00     0.070 C 
BRANCH  35  36
ATOM     36  C   UNL     1      -3.754  -1.834  -2.746  1.00  0.00    -0.045 A 
ATOM     37  C   UNL     1      -2.966  -0.692  -2.537  1.00  0.00     0.007 A 
ATOM     38  C   UNL     1      -4.794  -2.118  -1.852  1.00  0.00     0.007 A 
ATOM     39  C   UNL     1      -3.223   0.155  -1.458  1.00  0.00     0.046 A 
ATOM     40  C   UNL     1      -5.051  -1.271  -0.771  1.00  0.00     0.046 A 
ATOM     41  C   UNL     1      -4.263  -0.140  -0.584  1.00  0.00     0.115 A 
BRANCH  41  42
ATOM     42  O   UNL     1      -4.478   0.711   0.458  1.00  0.00    -0.508 OA
ATOM     43  H   UNL     1      -5.381   0.569   0.787  1.00  0.00     0.293 HD
ENDBRANCH  41  42
ENDBRANCH  35  36
ENDBRANCH  34  35
BRANCH  34  44
ATOM     44  C   UNL     1      -1.504  -1.957  -5.348  1.00  0.00     0.243 C 
ATOM     45  O   UNL     1      -0.917  -1.307  -6.208  1.00  0.00    -0.273 OA
ATOM     46  N   UNL     1      -0.839  -2.836  -4.520  1.00  0.00    -0.341 N 
ATOM     47  H   UNL     1      -1.379  -3.440  -3.905  1.00  0.00     0.164 HD
BRANCH  46  48
ATOM     48  C   UNL     1       0.612  -3.029  -4.549  1.00  0.00     0.196 C 
BRANCH  48  49
ATOM     49  C   UNL     1       1.135  -3.551  -3.200  1.00  0.00     0.072 C 
BRANCH  49  50
ATOM     50  C   UNL     1       0.501  -2.850  -2.020  1.00  0.00    -0.045 A 
ATOM     51  C   UNL     1       0.902  -1.550  -1.681  1.00  0.00     0.007 A 
ATOM     52  C   UNL     1      -0.473  -3.489  -1.241  1.00  0.00     0.007 A 
ATOM     53  C   UNL     1       0.333  -0.899  -0.586  1.00  0.00     0.046 A 
ATOM     54  C   UNL     1      -1.042  -2.837  -0.145  1.00  0.00     0.046 A 
ATOM     55  C   UNL     1      -0.634  -1.546   0.173  1.00  0.00     0.115 A 
BRANCH  55  56
ATOM     56  O   UNL     1      -1.164  -0.876   1.236  1.00  0.00    -0.508 OA
ATOM     57  H   UNL     1      -0.720  -0.015   1.306  1.00  0.00     0.293 HD
ENDBRANCH  55  56
ENDBRANCH  49  50
ENDBRANCH  48  49
BRANCH  48  58
ATOM     58  C   UNL     1       0.961  -4.031  -5.659  1.00  0.00     0.326 C 
ATOM     59  O   UNL     1       1.254  -3.779  -6.816  1.00  0.00    -0.250 OA
BRANCH  58  60
ATOM     60  O   UNL     1       0.938  -5.324  -5.247  1.00  0.00    -0.480 OA
ATOM     61  H   UNL     1       1.795  -5.679  -5.569  1.00  0.00     0.296 HD
ENDBRANCH  58  60
ENDBRANCH  48  58
ENDBRANCH  46  48
ENDBRANCH  34  44
ENDBRANCH  32  34
ENDBRANCH  25  30
ENDBRANCH  23  25
ENDBRANCH   2  23
TORSDOF 28
ENDMDL
MODEL 45
REMARK VINA RESULT:    -6.044     10.242     14.029
REMARK INTER + INTRA:         -19.117
REMARK INTER:                 -12.974
REMARK INTRA:                  -6.144
REMARK UNBOUND:                -4.062
REMARK SMILES CCCCCCC[C@H](N)[C@H](O)C(=O)N[C@H](C)C(=O)N(C)[C@H](CC(C)C)C(=O)N[C@@H](Cc1ccc(O)cc1)C(=O)N[C@@H](Cc1ccc(O)cc1)C(=O)O
REMARK SMILES IDX 18 1 17 2 15 3 16 4 14 5 12 6 13 7 10 9 11 10 8 12 9 13 7 16
REMARK SMILES IDX 6 17 5 18 4 19 3 20 2 21 1 22 19 23 20 24 21 25 22 26 23 27
REMARK SMILES IDX 24 28 25 29 26 30 27 31 28 32 29 34 30 35 31 36 32 37 37 38
REMARK SMILES IDX 33 39 36 40 34 41 35 42 38 44 39 45 40 46 41 48 42 49 43 50
REMARK SMILES IDX 44 51 49 52 45 53 48 54 46 55 47 56 50 58 51 59 52 60
REMARK H PARENT 14 8 11 11 9 14 9 15 28 33 35 43 40 47 47 57 52 61
ROOT
ATOM      1  O   UNL     1      -4.695  -3.641  -4.991  1.00  0.00    -0.272 OA
ATOM      2  C   UNL     1      -4.492  -2.541  -5.526  1.00  0.00     0.245 C 
ENDROOT
BRANCH   2   3
ATOM      3  C   UNL     1      -3.123  -1.851  -5.305  1.00  0.00     0.168 C 
ATOM      4  C   UNL     1      -3.285  -0.337  -5.234  1.00  0.00     0.041 C 
BRANCH   3   5
ATOM      5  N   UNL     1      -2.352  -2.367  -4.184  1.00  0.00    -0.342 N 
ATOM      6  C   UNL     1      -1.042  -2.771  -4.327  1.00  0.00     0.251 C 
ATOM      7  O   UNL     1      -0.445  -2.768  -5.398  1.00  0.00    -0.272 OA
ATOM      8  H   UNL     1      -2.751  -2.450  -3.252  1.00  0.00     0.164 HD
BRANCH   6   9
ATOM      9  C   UNL     1      -0.386  -3.143  -2.987  1.00  0.00     0.219 C 
BRANCH   9  10
ATOM     10  O   UNL     1       0.395  -4.342  -3.068  1.00  0.00    -0.382 OA
ATOM     11  H   UNL     1       0.483  -4.624  -2.131  1.00  0.00     0.211 HD
ENDBRANCH   9  10
BRANCH   9  12
ATOM     12  C   UNL     1       0.444  -1.986  -2.373  1.00  0.00     0.089 C 
BRANCH  12  13
ATOM     13  N   UNL     1       0.160  -0.750  -3.138  1.00  0.00    -0.325 NA
ATOM     14  H   UNL     1      -0.449  -0.145  -2.585  1.00  0.00     0.119 HD
ATOM     15  H   UNL     1      -0.387  -0.993  -3.968  1.00  0.00     0.119 HD
ENDBRANCH  12  13
BRANCH  12  16
ATOM     16  C   UNL     1       0.240  -1.733  -0.860  1.00  0.00     0.022 C 
BRANCH  16  17
ATOM     17  C   UNL     1      -1.016  -0.985  -0.391  1.00  0.00     0.002 C 
BRANCH  17  18
ATOM     18  C   UNL     1      -1.733  -1.615   0.801  1.00  0.00     0.000 C 
BRANCH  18  19
ATOM     19  C   UNL     1      -2.943  -0.812   1.298  1.00  0.00    -0.000 C 
BRANCH  19  20
ATOM     20  C   UNL     1      -4.019  -1.634   2.012  1.00  0.00    -0.000 C 
BRANCH  20  21
ATOM     21  C   UNL     1      -5.358  -0.900   2.123  1.00  0.00    -0.003 C 
ATOM     22  C   UNL     1      -5.219   0.567   1.750  1.00  0.00     0.004 C 
ENDBRANCH  20  21
ENDBRANCH  19  20
ENDBRANCH  18  19
ENDBRANCH  17  18
ENDBRANCH  16  17
ENDBRANCH  12  16
ENDBRANCH   9  12
ENDBRANCH   6   9
ENDBRANCH   3   5
ENDBRANCH   2   3
BRANCH   2  23
ATOM     23  N   UNL     1      -5.432  -2.010  -6.402  1.00  0.00    -0.332 N 
ATOM     24  C   UNL     1      -5.144  -1.582  -7.763  1.00  0.00     0.147 C 
BRANCH  23  25
ATOM     25  C   UNL     1      -6.871  -1.964  -6.022  1.00  0.00     0.174 C 
BRANCH  25  26
ATOM     26  C   UNL     1      -7.818  -2.217  -7.219  1.00  0.00     0.038 C 
BRANCH  26  27
ATOM     27  C   UNL     1      -8.956  -3.240  -7.006  1.00  0.00    -0.015 C 
ATOM     28  C   UNL     1      -8.536  -4.404  -6.109  1.00  0.00     0.007 C 
ATOM     29  C   UNL     1     -10.251  -2.612  -6.498  1.00  0.00     0.007 C 
ENDBRANCH  26  27
ENDBRANCH  25  26
BRANCH  25  30
ATOM     30  C   UNL     1      -7.177  -0.658  -5.253  1.00  0.00     0.243 C 
ATOM     31  O   UNL     1      -7.798   0.270  -5.768  1.00  0.00    -0.273 OA
ATOM     32  N   UNL     1      -6.706  -0.604  -3.966  1.00  0.00    -0.342 N 
ATOM     33  H   UNL     1      -6.327  -1.465  -3.564  1.00  0.00     0.164 HD
BRANCH  32  34
ATOM     34  C   UNL     1      -6.879   0.564  -3.097  1.00  0.00     0.175 C 
BRANCH  34  35
ATOM     35  C   UNL     1      -6.825   0.169  -1.613  1.00  0.00     0.070 C 
BRANCH  35  36
ATOM     36  C   UNL     1      -6.336  -1.246  -1.402  1.00  0.00    -0.045 A 
ATOM     37  C   UNL     1      -4.991  -1.566  -1.638  1.00  0.00     0.007 A 
ATOM     38  C   UNL     1      -7.216  -2.256  -0.992  1.00  0.00     0.007 A 
ATOM     39  C   UNL     1      -4.533  -2.872  -1.459  1.00  0.00     0.046 A 
ATOM     40  C   UNL     1      -6.759  -3.565  -0.813  1.00  0.00     0.046 A 
ATOM     41  C   UNL     1      -5.420  -3.860  -1.048  1.00  0.00     0.115 A 
BRANCH  41  42
ATOM     42  O   UNL     1      -4.934  -5.124  -0.887  1.00  0.00    -0.508 OA
ATOM     43  H   UNL     1      -5.482  -5.580  -0.227  1.00  0.00     0.293 HD
ENDBRANCH  41  42
ENDBRANCH  35  36
ENDBRANCH  34  35
BRANCH  34  44
ATOM     44  C   UNL     1      -5.788   1.596  -3.461  1.00  0.00     0.243 C 
ATOM     45  O   UNL     1      -4.745   1.753  -2.832  1.00  0.00    -0.273 OA
ATOM     46  N   UNL     1      -6.147   2.433  -4.496  1.00  0.00    -0.341 N 
ATOM     47  H   UNL     1      -7.072   2.339  -4.909  1.00  0.00     0.164 HD
BRANCH  46  48
ATOM     48  C   UNL     1      -5.306   3.533  -4.972  1.00  0.00     0.196 C 
BRANCH  48  49
ATOM     49  C   UNL     1      -4.601   3.168  -6.290  1.00  0.00     0.072 C 
BRANCH  49  50
ATOM     50  C   UNL     1      -3.107   3.004  -6.125  1.00  0.00    -0.045 A 
ATOM     51  C   UNL     1      -2.332   2.539  -7.197  1.00  0.00     0.007 A 
ATOM     52  C   UNL     1      -2.481   3.289  -4.905  1.00  0.00     0.007 A 
ATOM     53  C   UNL     1      -0.955   2.371  -7.053  1.00  0.00     0.046 A 
ATOM     54  C   UNL     1      -1.102   3.120  -4.759  1.00  0.00     0.046 A 
ATOM     55  C   UNL     1      -0.350   2.663  -5.836  1.00  0.00     0.115 A 
BRANCH  55  56
ATOM     56  O   UNL     1       0.997   2.483  -5.735  1.00  0.00    -0.508 OA
ATOM     57  H   UNL     1       1.245   1.717  -6.277  1.00  0.00     0.293 HD
ENDBRANCH  55  56
ENDBRANCH  49  50
ENDBRANCH  48  49
BRANCH  48  58
ATOM     58  C   UNL     1      -6.181   4.776  -5.183  1.00  0.00     0.326 C 
ATOM     59  O   UNL     1      -6.299   5.431  -6.206  1.00  0.00    -0.250 OA
BRANCH  58  60
ATOM     60  O   UNL     1      -6.888   5.133  -4.082  1.00  0.00    -0.480 OA
ATOM     61  H   UNL     1      -7.245   6.017  -4.319  1.00  0.00     0.296 HD
ENDBRANCH  58  60
ENDBRANCH  48  58
ENDBRANCH  46  48
ENDBRANCH  34  44
ENDBRANCH  32  34
ENDBRANCH  25  30
ENDBRANCH  23  25
ENDBRANCH   2  23
TORSDOF 28
ENDMDL
MODEL 46
REMARK VINA RESULT:    -6.025     12.933     16.818
REMARK INTER + INTRA:         -19.070
REMARK INTER:                 -14.371
REMARK INTRA:                  -4.699
REMARK UNBOUND:                -4.062
REMARK SMILES CCCCCCC[C@H](N)[C@H](O)C(=O)N[C@H](C)C(=O)N(C)[C@H](CC(C)C)C(=O)N[C@@H](Cc1ccc(O)cc1)C(=O)N[C@@H](Cc1ccc(O)cc1)C(=O)O
REMARK SMILES IDX 18 1 17 2 15 3 16 4 14 5 12 6 13 7 10 9 11 10 8 12 9 13 7 16
REMARK SMILES IDX 6 17 5 18 4 19 3 20 2 21 1 22 19 23 20 24 21 25 22 26 23 27
REMARK SMILES IDX 24 28 25 29 26 30 27 31 28 32 29 34 30 35 31 36 32 37 37 38
REMARK SMILES IDX 33 39 36 40 34 41 35 42 38 44 39 45 40 46 41 48 42 49 43 50
REMARK SMILES IDX 44 51 49 52 45 53 48 54 46 55 47 56 50 58 51 59 52 60
REMARK H PARENT 14 8 11 11 9 14 9 15 28 33 35 43 40 47 47 57 52 61
ROOT
ATOM      1  O   UNL     1      -4.070  -3.217  -5.191  1.00  0.00    -0.272 OA
ATOM      2  C   UNL     1      -3.938  -2.714  -6.316  1.00  0.00     0.245 C 
ENDROOT
BRANCH   2   3
ATOM      3  C   UNL     1      -4.216  -1.200  -6.489  1.00  0.00     0.168 C 
ATOM      4  C   UNL     1      -5.487  -0.972  -7.300  1.00  0.00     0.041 C 
BRANCH   3   5
ATOM      5  N   UNL     1      -4.218  -0.435  -5.252  1.00  0.00    -0.342 N 
ATOM      6  C   UNL     1      -3.820   0.885  -5.212  1.00  0.00     0.251 C 
ATOM      7  O   UNL     1      -3.401   1.495  -6.190  1.00  0.00    -0.272 OA
ATOM      8  H   UNL     1      -4.512  -0.844  -4.368  1.00  0.00     0.164 HD
BRANCH   6   9
ATOM      9  C   UNL     1      -4.039   1.530  -3.834  1.00  0.00     0.219 C 
BRANCH   9  10
ATOM     10  O   UNL     1      -2.860   2.169  -3.329  1.00  0.00    -0.382 OA
ATOM     11  H   UNL     1      -2.525   2.678  -4.100  1.00  0.00     0.211 HD
ENDBRANCH   9  10
BRANCH   9  12
ATOM     12  C   UNL     1      -5.248   2.502  -3.802  1.00  0.00     0.089 C 
BRANCH  12  13
ATOM     13  N   UNL     1      -4.847   3.769  -4.455  1.00  0.00    -0.325 NA
ATOM     14  H   UNL     1      -4.527   3.571  -5.405  1.00  0.00     0.119 HD
ATOM     15  H   UNL     1      -4.029   4.146  -3.971  1.00  0.00     0.119 HD
ENDBRANCH  12  13
BRANCH  12  16
ATOM     16  C   UNL     1      -6.560   1.973  -4.430  1.00  0.00     0.022 C 
BRANCH  16  17
ATOM     17  C   UNL     1      -7.375   0.914  -3.676  1.00  0.00     0.002 C 
BRANCH  17  18
ATOM     18  C   UNL     1      -7.797  -0.292  -4.512  1.00  0.00     0.000 C 
BRANCH  18  19
ATOM     19  C   UNL     1      -9.189  -0.158  -5.144  1.00  0.00    -0.000 C 
BRANCH  19  20
ATOM     20  C   UNL     1      -9.958  -1.472  -5.307  1.00  0.00    -0.000 C 
BRANCH  20  21
ATOM     21  C   UNL     1      -9.852  -2.058  -6.717  1.00  0.00    -0.003 C 
ATOM     22  C   UNL     1     -10.365  -1.081  -7.764  1.00  0.00     0.004 C 
ENDBRANCH  20  21
ENDBRANCH  19  20
ENDBRANCH  18  19
ENDBRANCH  17  18
ENDBRANCH  16  17
ENDBRANCH  12  16
ENDBRANCH   9  12
ENDBRANCH   6   9
ENDBRANCH   3   5
ENDBRANCH   2   3
BRANCH   2  23
ATOM     23  N   UNL     1      -3.433  -3.477  -7.364  1.00  0.00    -0.332 N 
ATOM     24  C   UNL     1      -3.879  -4.822  -7.697  1.00  0.00     0.147 C 
BRANCH  23  25
ATOM     25  C   UNL     1      -2.456  -2.886  -8.320  1.00  0.00     0.174 C 
BRANCH  25  26
ATOM     26  C   UNL     1      -2.577  -3.474  -9.745  1.00  0.00     0.038 C 
BRANCH  26  27
ATOM     27  C   UNL     1      -3.178  -2.555 -10.833  1.00  0.00    -0.015 C 
ATOM     28  C   UNL     1      -2.813  -3.006 -12.246  1.00  0.00     0.007 C 
ATOM     29  C   UNL     1      -4.687  -2.365 -10.702  1.00  0.00     0.007 C 
ENDBRANCH  26  27
ENDBRANCH  25  26
BRANCH  25  30
ATOM     30  C   UNL     1      -1.027  -2.963  -7.735  1.00  0.00     0.243 C 
ATOM     31  O   UNL     1      -0.690  -3.854  -6.956  1.00  0.00    -0.273 OA
ATOM     32  N   UNL     1      -0.167  -1.974  -8.138  1.00  0.00    -0.342 N 
ATOM     33  H   UNL     1      -0.476  -1.356  -8.892  1.00  0.00     0.164 HD
BRANCH  32  34
ATOM     34  C   UNL     1       1.216  -1.872  -7.665  1.00  0.00     0.175 C 
BRANCH  34  35
ATOM     35  C   UNL     1       2.200  -2.465  -8.686  1.00  0.00     0.070 C 
BRANCH  35  36
ATOM     36  C   UNL     1       2.584  -3.892  -8.367  1.00  0.00    -0.045 A 
ATOM     37  C   UNL     1       3.010  -4.233  -7.074  1.00  0.00     0.007 A 
ATOM     38  C   UNL     1       2.544  -4.885  -9.355  1.00  0.00     0.007 A 
ATOM     39  C   UNL     1       3.379  -5.544  -6.774  1.00  0.00     0.046 A 
ATOM     40  C   UNL     1       2.915  -6.198  -9.056  1.00  0.00     0.046 A 
ATOM     41  C   UNL     1       3.329  -6.516  -7.766  1.00  0.00     0.115 A 
BRANCH  41  42
ATOM     42  O   UNL     1       3.701  -7.784  -7.433  1.00  0.00    -0.508 OA
ATOM     43  H   UNL     1       3.002  -8.393  -7.722  1.00  0.00     0.293 HD
ENDBRANCH  41  42
ENDBRANCH  35  36
ENDBRANCH  34  35
BRANCH  34  44
ATOM     44  C   UNL     1       1.514  -0.385  -7.372  1.00  0.00     0.243 C 
ATOM     45  O   UNL     1       2.635   0.116  -7.398  1.00  0.00    -0.273 OA
ATOM     46  N   UNL     1       0.411   0.322  -6.944  1.00  0.00    -0.341 N 
ATOM     47  H   UNL     1      -0.474  -0.166  -6.827  1.00  0.00     0.164 HD
BRANCH  46  48
ATOM     48  C   UNL     1       0.461   1.730  -6.543  1.00  0.00     0.196 C 
BRANCH  48  49
ATOM     49  C   UNL     1      -0.351   2.615  -7.503  1.00  0.00     0.072 C 
BRANCH  49  50
ATOM     50  C   UNL     1       0.521   3.552  -8.309  1.00  0.00    -0.045 A 
ATOM     51  C   UNL     1       0.912   4.784  -7.765  1.00  0.00     0.007 A 
ATOM     52  C   UNL     1       0.930   3.218  -9.607  1.00  0.00     0.007 A 
ATOM     53  C   UNL     1       1.705   5.662  -8.504  1.00  0.00     0.046 A 
ATOM     54  C   UNL     1       1.723   4.098 -10.347  1.00  0.00     0.046 A 
ATOM     55  C   UNL     1       2.105   5.313  -9.788  1.00  0.00     0.115 A 
BRANCH  55  56
ATOM     56  O   UNL     1       2.878   6.199 -10.478  1.00  0.00    -0.508 OA
ATOM     57  H   UNL     1       2.813   7.065 -10.043  1.00  0.00     0.293 HD
ENDBRANCH  55  56
ENDBRANCH  49  50
ENDBRANCH  48  49
BRANCH  48  58
ATOM     58  C   UNL     1      -0.100   1.864  -5.121  1.00  0.00     0.326 C 
ATOM     59  O   UNL     1      -0.314   0.966  -4.323  1.00  0.00    -0.250 OA
BRANCH  58  60
ATOM     60  O   UNL     1      -0.355   3.147  -4.758  1.00  0.00    -0.480 OA
ATOM     61  H   UNL     1      -1.267   3.102  -4.397  1.00  0.00     0.296 HD
ENDBRANCH  58  60
ENDBRANCH  48  58
ENDBRANCH  46  48
ENDBRANCH  34  44
ENDBRANCH  32  34
ENDBRANCH  25  30
ENDBRANCH  23  25
ENDBRANCH   2  23
TORSDOF 28
ENDMDL
MODEL 47
REMARK VINA RESULT:    -6.007      4.245      9.645
REMARK INTER + INTRA:         -19.025
REMARK INTER:                 -14.114
REMARK INTRA:                  -4.910
REMARK UNBOUND:                -4.062
REMARK SMILES CCCCCCC[C@H](N)[C@H](O)C(=O)N[C@H](C)C(=O)N(C)[C@H](CC(C)C)C(=O)N[C@@H](Cc1ccc(O)cc1)C(=O)N[C@@H](Cc1ccc(O)cc1)C(=O)O
REMARK SMILES IDX 18 1 17 2 15 3 16 4 14 5 12 6 13 7 10 9 11 10 8 12 9 13 7 16
REMARK SMILES IDX 6 17 5 18 4 19 3 20 2 21 1 22 19 23 20 24 21 25 22 26 23 27
REMARK SMILES IDX 24 28 25 29 26 30 27 31 28 32 29 34 30 35 31 36 32 37 37 38
REMARK SMILES IDX 33 39 36 40 34 41 35 42 38 44 39 45 40 46 41 48 42 49 43 50
REMARK SMILES IDX 44 51 49 52 45 53 48 54 46 55 47 56 50 58 51 59 52 60
REMARK H PARENT 14 8 11 11 9 14 9 15 28 33 35 43 40 47 47 57 52 61
ROOT
ATOM      1  O   UNL     1      -3.698   4.434  12.432  1.00  0.00    -0.272 OA
ATOM      2  C   UNL     1      -3.742   3.583  11.531  1.00  0.00     0.245 C 
ENDROOT
BRANCH   2   3
ATOM      3  C   UNL     1      -4.630   2.330  11.737  1.00  0.00     0.168 C 
ATOM      4  C   UNL     1      -3.995   1.376  12.743  1.00  0.00     0.041 C 
BRANCH   3   5
ATOM      5  N   UNL     1      -6.020   2.612  12.061  1.00  0.00    -0.342 N 
ATOM      6  C   UNL     1      -7.061   2.043  11.358  1.00  0.00     0.251 C 
ATOM      7  O   UNL     1      -6.901   1.300  10.396  1.00  0.00    -0.272 OA
ATOM      8  H   UNL     1      -6.277   3.241  12.818  1.00  0.00     0.164 HD
BRANCH   6   9
ATOM      9  C   UNL     1      -8.435   2.370  11.964  1.00  0.00     0.219 C 
BRANCH   9  10
ATOM     10  O   UNL     1      -9.230   3.204  11.112  1.00  0.00    -0.382 OA
ATOM     11  H   UNL     1      -9.799   3.700  11.741  1.00  0.00     0.211 HD
ENDBRANCH   9  10
BRANCH   9  12
ATOM     12  C   UNL     1      -9.228   1.107  12.393  1.00  0.00     0.089 C 
BRANCH  12  13
ATOM     13  N   UNL     1      -9.882   1.385  13.692  1.00  0.00    -0.325 NA
ATOM     14  H   UNL     1     -10.023   0.506  14.192  1.00  0.00     0.119 HD
ATOM     15  H   UNL     1     -10.823   1.747  13.518  1.00  0.00     0.119 HD
ENDBRANCH  12  13
BRANCH  12  16
ATOM     16  C   UNL     1     -10.268   0.582  11.375  1.00  0.00     0.022 C 
BRANCH  16  17
ATOM     17  C   UNL     1      -9.808  -0.365  10.258  1.00  0.00     0.002 C 
BRANCH  17  18
ATOM     18  C   UNL     1     -10.317  -0.011   8.863  1.00  0.00     0.000 C 
BRANCH  18  19
ATOM     19  C   UNL     1     -11.326  -1.017   8.292  1.00  0.00    -0.000 C 
BRANCH  19  20
ATOM     20  C   UNL     1     -10.858  -2.475   8.286  1.00  0.00    -0.000 C 
BRANCH  20  21
ATOM     21  C   UNL     1     -11.585  -3.343   9.316  1.00  0.00    -0.003 C 
ATOM     22  C   UNL     1     -12.456  -4.392   8.641  1.00  0.00     0.004 C 
ENDBRANCH  20  21
ENDBRANCH  19  20
ENDBRANCH  18  19
ENDBRANCH  17  18
ENDBRANCH  16  17
ENDBRANCH  12  16
ENDBRANCH   9  12
ENDBRANCH   6   9
ENDBRANCH   3   5
ENDBRANCH   2   3
BRANCH   2  23
ATOM     23  N   UNL     1      -3.103   3.820  10.318  1.00  0.00    -0.332 N 
ATOM     24  C   UNL     1      -1.768   3.349   9.982  1.00  0.00     0.147 C 
BRANCH  23  25
ATOM     25  C   UNL     1      -3.830   4.491   9.205  1.00  0.00     0.174 C 
BRANCH  25  26
ATOM     26  C   UNL     1      -5.123   5.200   9.671  1.00  0.00     0.038 C 
BRANCH  26  27
ATOM     27  C   UNL     1      -5.031   6.720   9.935  1.00  0.00    -0.015 C 
ATOM     28  C   UNL     1      -3.592   7.233   9.904  1.00  0.00     0.007 C 
ATOM     29  C   UNL     1      -5.918   7.551   9.012  1.00  0.00     0.007 C 
ENDBRANCH  26  27
ENDBRANCH  25  26
BRANCH  25  30
ATOM     30  C   UNL     1      -4.050   3.498   8.040  1.00  0.00     0.243 C 
ATOM     31  O   UNL     1      -3.398   3.563   6.999  1.00  0.00    -0.273 OA
ATOM     32  N   UNL     1      -5.021   2.552   8.243  1.00  0.00    -0.342 N 
ATOM     33  H   UNL     1      -5.418   2.474   9.183  1.00  0.00     0.164 HD
BRANCH  32  34
ATOM     34  C   UNL     1      -5.385   1.548   7.239  1.00  0.00     0.175 C 
BRANCH  34  35
ATOM     35  C   UNL     1      -5.755   2.205   5.901  1.00  0.00     0.070 C 
BRANCH  35  36
ATOM     36  C   UNL     1      -7.045   1.669   5.323  1.00  0.00    -0.045 A 
ATOM     37  C   UNL     1      -7.585   2.240   4.161  1.00  0.00     0.007 A 
ATOM     38  C   UNL     1      -7.730   0.617   5.946  1.00  0.00     0.007 A 
ATOM     39  C   UNL     1      -8.782   1.761   3.628  1.00  0.00     0.046 A 
ATOM     40  C   UNL     1      -8.929   0.138   5.414  1.00  0.00     0.046 A 
ATOM     41  C   UNL     1      -9.444   0.714   4.258  1.00  0.00     0.115 A 
BRANCH  41  42
ATOM     42  O   UNL     1     -10.612   0.278   3.707  1.00  0.00    -0.508 OA
ATOM     43  H   UNL     1     -10.443  -0.574   3.270  1.00  0.00     0.293 HD
ENDBRANCH  41  42
ENDBRANCH  35  36
ENDBRANCH  34  35
BRANCH  34  44
ATOM     44  C   UNL     1      -4.200   0.567   7.092  1.00  0.00     0.243 C 
ATOM     45  O   UNL     1      -3.858  -0.242   7.951  1.00  0.00    -0.273 OA
ATOM     46  N   UNL     1      -3.461   0.766   5.945  1.00  0.00    -0.341 N 
ATOM     47  H   UNL     1      -3.715   1.527   5.320  1.00  0.00     0.164 HD
BRANCH  46  48
ATOM     48  C   UNL     1      -2.253   0.004   5.622  1.00  0.00     0.196 C 
BRANCH  48  49
ATOM     49  C   UNL     1      -2.266  -0.472   4.160  1.00  0.00     0.072 C 
BRANCH  49  50
ATOM     50  C   UNL     1      -3.666  -0.619   3.608  1.00  0.00    -0.045 A 
ATOM     51  C   UNL     1      -4.094   0.208   2.559  1.00  0.00     0.007 A 
ATOM     52  C   UNL     1      -4.557  -1.558   4.143  1.00  0.00     0.007 A 
ATOM     53  C   UNL     1      -5.388   0.091   2.051  1.00  0.00     0.046 A 
ATOM     54  C   UNL     1      -5.853  -1.674   3.634  1.00  0.00     0.046 A 
ATOM     55  C   UNL     1      -6.257  -0.849   2.591  1.00  0.00     0.115 A 
BRANCH  55  56
ATOM     56  O   UNL     1      -7.513  -0.930   2.067  1.00  0.00    -0.508 OA
ATOM     57  H   UNL     1      -7.825  -0.031   1.878  1.00  0.00     0.293 HD
ENDBRANCH  55  56
ENDBRANCH  49  50
ENDBRANCH  48  49
BRANCH  48  58
ATOM     58  C   UNL     1      -1.024   0.890   5.864  1.00  0.00     0.326 C 
ATOM     59  O   UNL     1      -0.602   1.292   6.937  1.00  0.00    -0.250 OA
BRANCH  58  60
ATOM     60  O   UNL     1      -0.363   1.221   4.727  1.00  0.00    -0.480 OA
ATOM     61  H   UNL     1      -0.175   0.351   4.313  1.00  0.00     0.296 HD
ENDBRANCH  58  60
ENDBRANCH  48  58
ENDBRANCH  46  48
ENDBRANCH  34  44
ENDBRANCH  32  34
ENDBRANCH  25  30
ENDBRANCH  23  25
ENDBRANCH   2  23
TORSDOF 28
ENDMDL
MODEL 48
REMARK VINA RESULT:    -6.000     10.589     15.052
REMARK INTER + INTRA:         -19.007
REMARK INTER:                 -12.639
REMARK INTRA:                  -6.368
REMARK UNBOUND:                -4.062
REMARK SMILES CCCCCCC[C@H](N)[C@H](O)C(=O)N[C@H](C)C(=O)N(C)[C@H](CC(C)C)C(=O)N[C@@H](Cc1ccc(O)cc1)C(=O)N[C@@H](Cc1ccc(O)cc1)C(=O)O
REMARK SMILES IDX 18 1 17 2 15 3 16 4 14 5 12 6 13 7 10 9 11 10 8 12 9 13 7 16
REMARK SMILES IDX 6 17 5 18 4 19 3 20 2 21 1 22 19 23 20 24 21 25 22 26 23 27
REMARK SMILES IDX 24 28 25 29 26 30 27 31 28 32 29 34 30 35 31 36 32 37 37 38
REMARK SMILES IDX 33 39 36 40 34 41 35 42 38 44 39 45 40 46 41 48 42 49 43 50
REMARK SMILES IDX 44 51 49 52 45 53 48 54 46 55 47 56 50 58 51 59 52 60
REMARK H PARENT 14 8 11 11 9 14 9 15 28 33 35 43 40 47 47 57 52 61
ROOT
ATOM      1  O   UNL     1     -11.424  -3.962   8.616  1.00  0.00    -0.272 OA
ATOM      2  C   UNL     1     -12.630  -4.242   8.683  1.00  0.00     0.245 C 
ENDROOT
BRANCH   2   3
ATOM      3  C   UNL     1     -13.575  -3.275   9.440  1.00  0.00     0.168 C 
ATOM      4  C   UNL     1     -12.883  -2.692  10.667  1.00  0.00     0.041 C 
BRANCH   3   5
ATOM      5  N   UNL     1     -14.178  -2.240   8.615  1.00  0.00    -0.342 N 
ATOM      6  C   UNL     1     -15.524  -2.240   8.315  1.00  0.00     0.251 C 
ATOM      7  O   UNL     1     -16.298  -3.119   8.679  1.00  0.00    -0.272 OA
ATOM      8  H   UNL     1     -13.630  -1.476   8.226  1.00  0.00     0.164 HD
BRANCH   6   9
ATOM      9  C   UNL     1     -15.964  -0.980   7.553  1.00  0.00     0.219 C 
BRANCH   9  10
ATOM     10  O   UNL     1     -14.913  -0.422   6.755  1.00  0.00    -0.382 OA
ATOM     11  H   UNL     1     -15.302  -0.387   5.853  1.00  0.00     0.211 HD
ENDBRANCH   9  10
BRANCH   9  12
ATOM     12  C   UNL     1     -17.244  -1.196   6.706  1.00  0.00     0.089 C 
BRANCH  12  13
ATOM     13  N   UNL     1     -18.301  -0.292   7.216  1.00  0.00    -0.325 NA
ATOM     14  H   UNL     1     -19.215  -0.715   7.046  1.00  0.00     0.119 HD
ATOM     15  H   UNL     1     -18.297   0.568   6.662  1.00  0.00     0.119 HD
ENDBRANCH  12  13
BRANCH  12  16
ATOM     16  C   UNL     1     -17.084  -1.016   5.177  1.00  0.00     0.022 C 
BRANCH  16  17
ATOM     17  C   UNL     1     -17.811  -1.982   4.231  1.00  0.00     0.002 C 
BRANCH  17  18
ATOM     18  C   UNL     1     -18.278  -1.366   2.915  1.00  0.00     0.000 C 
BRANCH  18  19
ATOM     19  C   UNL     1     -17.146  -0.764   2.071  1.00  0.00    -0.000 C 
BRANCH  19  20
ATOM     20  C   UNL     1     -16.925  -1.432   0.710  1.00  0.00    -0.000 C 
BRANCH  20  21
ATOM     21  C   UNL     1     -16.222  -0.519  -0.298  1.00  0.00    -0.003 C 
ATOM     22  C   UNL     1     -15.824  -1.281  -1.553  1.00  0.00     0.004 C 
ENDBRANCH  20  21
ENDBRANCH  19  20
ENDBRANCH  18  19
ENDBRANCH  17  18
ENDBRANCH  16  17
ENDBRANCH  12  16
ENDBRANCH   9  12
ENDBRANCH   6   9
ENDBRANCH   3   5
ENDBRANCH   2   3
BRANCH   2  23
ATOM     23  N   UNL     1     -13.130  -5.337   7.986  1.00  0.00    -0.332 N 
ATOM     24  C   UNL     1     -13.056  -6.715   8.450  1.00  0.00     0.147 C 
BRANCH  23  25
ATOM     25  C   UNL     1     -13.912  -5.138   6.735  1.00  0.00     0.174 C 
BRANCH  25  26
ATOM     26  C   UNL     1     -14.485  -6.458   6.167  1.00  0.00     0.038 C 
BRANCH  26  27
ATOM     27  C   UNL     1     -16.023  -6.604   6.153  1.00  0.00    -0.015 C 
ATOM     28  C   UNL     1     -16.733  -5.283   5.859  1.00  0.00     0.007 C 
ATOM     29  C   UNL     1     -16.519  -7.701   5.214  1.00  0.00     0.007 C 
ENDBRANCH  26  27
ENDBRANCH  25  26
BRANCH  25  30
ATOM     30  C   UNL     1     -13.082  -4.329   5.712  1.00  0.00     0.243 C 
ATOM     31  O   UNL     1     -11.967  -4.696   5.344  1.00  0.00    -0.273 OA
ATOM     32  N   UNL     1     -13.667  -3.178   5.250  1.00  0.00    -0.342 N 
ATOM     33  H   UNL     1     -14.648  -3.016   5.493  1.00  0.00     0.164 HD
BRANCH  32  34
ATOM     34  C   UNL     1     -13.016  -2.274   4.299  1.00  0.00     0.175 C 
BRANCH  34  35
ATOM     35  C   UNL     1     -14.007  -1.774   3.236  1.00  0.00     0.070 C 
BRANCH  35  36
ATOM     36  C   UNL     1     -13.366  -1.588   1.880  1.00  0.00    -0.045 A 
ATOM     37  C   UNL     1     -13.170  -2.694   1.038  1.00  0.00     0.007 A 
ATOM     38  C   UNL     1     -12.939  -0.323   1.453  1.00  0.00     0.007 A 
ATOM     39  C   UNL     1     -12.566  -2.534  -0.209  1.00  0.00     0.046 A 
ATOM     40  C   UNL     1     -12.333  -0.163   0.205  1.00  0.00     0.046 A 
ATOM     41  C   UNL     1     -12.153  -1.271  -0.616  1.00  0.00     0.115 A 
BRANCH  41  42
ATOM     42  O   UNL     1     -11.565  -1.159  -1.841  1.00  0.00    -0.508 OA
ATOM     43  H   UNL     1     -10.606  -1.264  -1.729  1.00  0.00     0.293 HD
ENDBRANCH  41  42
ENDBRANCH  35  36
ENDBRANCH  34  35
BRANCH  34  44
ATOM     44  C   UNL     1     -12.389  -1.109   5.097  1.00  0.00     0.243 C 
ATOM     45  O   UNL     1     -12.800   0.048   5.074  1.00  0.00    -0.273 OA
ATOM     46  N   UNL     1     -11.227  -1.456   5.752  1.00  0.00    -0.341 N 
ATOM     47  H   UNL     1     -10.862  -2.399   5.646  1.00  0.00     0.164 HD
BRANCH  46  48
ATOM     48  C   UNL     1     -10.418  -0.504   6.518  1.00  0.00     0.196 C 
BRANCH  48  49
ATOM     49  C   UNL     1     -10.022  -1.080   7.887  1.00  0.00     0.072 C 
BRANCH  49  50
ATOM     50  C   UNL     1     -10.599  -0.290   9.040  1.00  0.00    -0.045 A 
ATOM     51  C   UNL     1     -11.780   0.446   8.861  1.00  0.00     0.007 A 
ATOM     52  C   UNL     1      -9.960  -0.261  10.286  1.00  0.00     0.007 A 
ATOM     53  C   UNL     1     -12.315   1.189   9.914  1.00  0.00     0.046 A 
ATOM     54  C   UNL     1     -10.495   0.485  11.339  1.00  0.00     0.046 A 
ATOM     55  C   UNL     1     -11.669   1.203  11.144  1.00  0.00     0.115 A 
BRANCH  55  56
ATOM     56  O   UNL     1     -12.223   1.944  12.146  1.00  0.00    -0.508 OA
ATOM     57  H   UNL     1     -13.128   1.627  12.296  1.00  0.00     0.293 HD
ENDBRANCH  55  56
ENDBRANCH  49  50
ENDBRANCH  48  49
BRANCH  48  58
ATOM     58  C   UNL     1      -9.154  -0.165   5.716  1.00  0.00     0.326 C 
ATOM     59  O   UNL     1      -9.004   0.750   4.923  1.00  0.00    -0.250 OA
BRANCH  58  60
ATOM     60  O   UNL     1      -8.114  -1.001   5.967  1.00  0.00    -0.480 OA
ATOM     61  H   UNL     1      -7.410  -0.672   5.367  1.00  0.00     0.296 HD
ENDBRANCH  58  60
ENDBRANCH  48  58
ENDBRANCH  46  48
ENDBRANCH  34  44
ENDBRANCH  32  34
ENDBRANCH  25  30
ENDBRANCH  23  25
ENDBRANCH   2  23
TORSDOF 28
ENDMDL
MODEL 49
REMARK VINA RESULT:    -5.991      8.350     15.724
REMARK INTER + INTRA:         -18.984
REMARK INTER:                 -13.773
REMARK INTRA:                  -5.211
REMARK UNBOUND:                -4.062
REMARK SMILES CCCCCCC[C@H](N)[C@H](O)C(=O)N[C@H](C)C(=O)N(C)[C@H](CC(C)C)C(=O)N[C@@H](Cc1ccc(O)cc1)C(=O)N[C@@H](Cc1ccc(O)cc1)C(=O)O
REMARK SMILES IDX 18 1 17 2 15 3 16 4 14 5 12 6 13 7 10 9 11 10 8 12 9 13 7 16
REMARK SMILES IDX 6 17 5 18 4 19 3 20 2 21 1 22 19 23 20 24 21 25 22 26 23 27
REMARK SMILES IDX 24 28 25 29 26 30 27 31 28 32 29 34 30 35 31 36 32 37 37 38
REMARK SMILES IDX 33 39 36 40 34 41 35 42 38 44 39 45 40 46 41 48 42 49 43 50
REMARK SMILES IDX 44 51 49 52 45 53 48 54 46 55 47 56 50 58 51 59 52 60
REMARK H PARENT 14 8 11 11 9 14 9 15 28 33 35 43 40 47 47 57 52 61
ROOT
ATOM      1  O   UNL     1       2.938   0.558  -3.944  1.00  0.00    -0.272 OA
ATOM      2  C   UNL     1       2.046  -0.252  -4.237  1.00  0.00     0.245 C 
ENDROOT
BRANCH   2   3
ATOM      3  C   UNL     1       1.614  -1.295  -3.177  1.00  0.00     0.168 C 
ATOM      4  C   UNL     1       2.822  -2.058  -2.645  1.00  0.00     0.041 C 
BRANCH   3   5
ATOM      5  N   UNL     1       0.790  -0.768  -2.100  1.00  0.00    -0.342 N 
ATOM      6  C   UNL     1      -0.580  -0.928  -2.087  1.00  0.00     0.251 C 
ATOM      7  O   UNL     1      -1.205  -1.481  -2.986  1.00  0.00    -0.272 OA
ATOM      8  H   UNL     1       1.192  -0.260  -1.316  1.00  0.00     0.164 HD
BRANCH   6   9
ATOM      9  C   UNL     1      -1.225  -0.417  -0.789  1.00  0.00     0.219 C 
BRANCH   9  10
ATOM     10  O   UNL     1      -2.483   0.231  -1.015  1.00  0.00    -0.382 OA
ATOM     11  H   UNL     1      -2.541   0.884  -0.283  1.00  0.00     0.211 HD
ENDBRANCH   9  10
BRANCH   9  12
ATOM     12  C   UNL     1      -1.360  -1.516   0.297  1.00  0.00     0.089 C 
BRANCH  12  13
ATOM     13  N   UNL     1      -1.681  -2.798  -0.371  1.00  0.00    -0.325 NA
ATOM     14  H   UNL     1      -2.401  -2.637  -1.078  1.00  0.00     0.119 HD
ATOM     15  H   UNL     1      -2.111  -3.428   0.309  1.00  0.00     0.119 HD
ENDBRANCH  12  13
BRANCH  12  16
ATOM     16  C   UNL     1      -0.141  -1.696   1.234  1.00  0.00     0.022 C 
BRANCH  16  17
ATOM     17  C   UNL     1      -0.297  -1.386   2.730  1.00  0.00     0.002 C 
BRANCH  17  18
ATOM     18  C   UNL     1       0.717  -2.077   3.640  1.00  0.00     0.000 C 
BRANCH  18  19
ATOM     19  C   UNL     1       0.872  -1.417   5.016  1.00  0.00    -0.000 C 
BRANCH  19  20
ATOM     20  C   UNL     1       1.730  -0.148   5.036  1.00  0.00    -0.000 C 
BRANCH  20  21
ATOM     21  C   UNL     1       1.221   0.905   6.024  1.00  0.00    -0.003 C 
ATOM     22  C   UNL     1       0.090   1.726   5.425  1.00  0.00     0.004 C 
ENDBRANCH  20  21
ENDBRANCH  19  20
ENDBRANCH  18  19
ENDBRANCH  17  18
ENDBRANCH  16  17
ENDBRANCH  12  16
ENDBRANCH   9  12
ENDBRANCH   6   9
ENDBRANCH   3   5
ENDBRANCH   2   3
BRANCH   2  23
ATOM     23  N   UNL     1       1.371  -0.135  -5.448  1.00  0.00    -0.332 N 
ATOM     24  C   UNL     1       1.182   1.114  -6.171  1.00  0.00     0.147 C 
BRANCH  23  25
ATOM     25  C   UNL     1       0.893  -1.351  -6.162  1.00  0.00     0.174 C 
BRANCH  25  26
ATOM     26  C   UNL     1       1.970  -1.970  -7.083  1.00  0.00     0.038 C 
BRANCH  26  27
ATOM     27  C   UNL     1       2.011  -3.512  -7.174  1.00  0.00    -0.015 C 
ATOM     28  C   UNL     1       3.196  -4.017  -7.996  1.00  0.00     0.007 C 
ATOM     29  C   UNL     1       1.968  -4.202  -5.814  1.00  0.00     0.007 C 
ENDBRANCH  26  27
ENDBRANCH  25  26
BRANCH  25  30
ATOM     30  C   UNL     1      -0.444  -1.055  -6.879  1.00  0.00     0.243 C 
ATOM     31  O   UNL     1      -0.525  -0.999  -8.105  1.00  0.00    -0.273 OA
ATOM     32  N   UNL     1      -1.525  -0.856  -6.060  1.00  0.00    -0.342 N 
ATOM     33  H   UNL     1      -1.409  -1.058  -5.064  1.00  0.00     0.164 HD
BRANCH  32  34
ATOM     34  C   UNL     1      -2.865  -0.538  -6.564  1.00  0.00     0.175 C 
BRANCH  34  35
ATOM     35  C   UNL     1      -3.912  -1.526  -6.026  1.00  0.00     0.070 C 
BRANCH  35  36
ATOM     36  C   UNL     1      -4.687  -2.213  -7.128  1.00  0.00    -0.045 A 
ATOM     37  C   UNL     1      -4.619  -1.726  -8.442  1.00  0.00     0.007 A 
ATOM     38  C   UNL     1      -5.498  -3.322  -6.853  1.00  0.00     0.007 A 
ATOM     39  C   UNL     1      -5.342  -2.345  -9.463  1.00  0.00     0.046 A 
ATOM     40  C   UNL     1      -6.223  -3.941  -7.874  1.00  0.00     0.046 A 
ATOM     41  C   UNL     1      -6.137  -3.447  -9.171  1.00  0.00     0.115 A 
BRANCH  41  42
ATOM     42  O   UNL     1      -6.829  -4.020 -10.196  1.00  0.00    -0.508 OA
ATOM     43  H   UNL     1      -7.120  -3.316 -10.799  1.00  0.00     0.293 HD
ENDBRANCH  41  42
ENDBRANCH  35  36
ENDBRANCH  34  35
BRANCH  34  44
ATOM     44  C   UNL     1      -3.191   0.920  -6.170  1.00  0.00     0.243 C 
ATOM     45  O   UNL     1      -2.667   1.909  -6.676  1.00  0.00    -0.273 OA
ATOM     46  N   UNL     1      -4.043   1.020  -5.091  1.00  0.00    -0.341 N 
ATOM     47  H   UNL     1      -4.360   0.170  -4.631  1.00  0.00     0.164 HD
BRANCH  46  48
ATOM     48  C   UNL     1      -4.443   2.297  -4.495  1.00  0.00     0.196 C 
BRANCH  48  49
ATOM     49  C   UNL     1      -5.973   2.439  -4.450  1.00  0.00     0.072 C 
BRANCH  49  50
ATOM     50  C   UNL     1      -6.680   1.390  -5.278  1.00  0.00    -0.045 A 
ATOM     51  C   UNL     1      -7.307   0.306  -4.645  1.00  0.00     0.007 A 
ATOM     52  C   UNL     1      -6.703   1.470  -6.676  1.00  0.00     0.007 A 
ATOM     53  C   UNL     1      -7.951  -0.675  -5.400  1.00  0.00     0.046 A 
ATOM     54  C   UNL     1      -7.347   0.487  -7.431  1.00  0.00     0.046 A 
ATOM     55  C   UNL     1      -7.966  -0.578  -6.785  1.00  0.00     0.115 A 
BRANCH  55  56
ATOM     56  O   UNL     1      -8.604  -1.558  -7.486  1.00  0.00    -0.508 OA
ATOM     57  H   UNL     1      -8.774  -1.232  -8.384  1.00  0.00     0.293 HD
ENDBRANCH  55  56
ENDBRANCH  49  50
ENDBRANCH  48  49
BRANCH  48  58
ATOM     58  C   UNL     1      -3.875   2.382  -3.072  1.00  0.00     0.326 C 
ATOM     59  O   UNL     1      -4.451   2.116  -2.029  1.00  0.00    -0.250 OA
BRANCH  58  60
ATOM     60  O   UNL     1      -2.582   2.792  -3.028  1.00  0.00    -0.480 OA
ATOM     61  H   UNL     1      -2.141   2.093  -2.499  1.00  0.00     0.296 HD
ENDBRANCH  58  60
ENDBRANCH  48  58
ENDBRANCH  46  48
ENDBRANCH  34  44
ENDBRANCH  32  34
ENDBRANCH  25  30
ENDBRANCH  23  25
ENDBRANCH   2  23
TORSDOF 28
ENDMDL
MODEL 50
REMARK VINA RESULT:    -5.978      2.954      6.225
REMARK INTER + INTRA:         -18.952
REMARK INTER:                 -14.312
REMARK INTRA:                  -4.639
REMARK UNBOUND:                -4.062
REMARK SMILES CCCCCCC[C@H](N)[C@H](O)C(=O)N[C@H](C)C(=O)N(C)[C@H](CC(C)C)C(=O)N[C@@H](Cc1ccc(O)cc1)C(=O)N[C@@H](Cc1ccc(O)cc1)C(=O)O
REMARK SMILES IDX 18 1 17 2 15 3 16 4 14 5 12 6 13 7 10 9 11 10 8 12 9 13 7 16
REMARK SMILES IDX 6 17 5 18 4 19 3 20 2 21 1 22 19 23 20 24 21 25 22 26 23 27
REMARK SMILES IDX 24 28 25 29 26 30 27 31 28 32 29 34 30 35 31 36 32 37 37 38
REMARK SMILES IDX 33 39 36 40 34 41 35 42 38 44 39 45 40 46 41 48 42 49 43 50
REMARK SMILES IDX 44 51 49 52 45 53 48 54 46 55 47 56 50 58 51 59 52 60
REMARK H PARENT 14 8 11 11 9 14 9 15 28 33 35 43 40 47 47 57 52 61
ROOT
ATOM      1  O   UNL     1      -4.371   5.873   9.096  1.00  0.00    -0.272 OA
ATOM      2  C   UNL     1      -3.992   4.692   9.112  1.00  0.00     0.245 C 
ENDROOT
BRANCH   2   3
ATOM      3  C   UNL     1      -4.894   3.615   8.461  1.00  0.00     0.168 C 
ATOM      4  C   UNL     1      -5.845   4.245   7.449  1.00  0.00     0.041 C 
BRANCH   3   5
ATOM      5  N   UNL     1      -4.182   2.478   7.900  1.00  0.00    -0.342 N 
ATOM      6  C   UNL     1      -4.154   1.252   8.531  1.00  0.00     0.251 C 
ATOM      7  O   UNL     1      -4.684   1.039   9.616  1.00  0.00    -0.272 OA
ATOM      8  H   UNL     1      -3.675   2.544   7.020  1.00  0.00     0.164 HD
BRANCH   6   9
ATOM      9  C   UNL     1      -3.466   0.166   7.690  1.00  0.00     0.219 C 
BRANCH   9  10
ATOM     10  O   UNL     1      -3.616  -1.145   8.250  1.00  0.00    -0.382 OA
ATOM     11  H   UNL     1      -3.488  -1.741   7.479  1.00  0.00     0.211 HD
ENDBRANCH   9  10
BRANCH   9  12
ATOM     12  C   UNL     1      -3.900   0.181   6.201  1.00  0.00     0.089 C 
BRANCH  12  13
ATOM     13  N   UNL     1      -2.683   0.124   5.358  1.00  0.00    -0.325 NA
ATOM     14  H   UNL     1      -1.913  -0.264   5.907  1.00  0.00     0.119 HD
ATOM     15  H   UNL     1      -2.394   1.078   5.129  1.00  0.00     0.119 HD
ENDBRANCH  12  13
BRANCH  12  16
ATOM     16  C   UNL     1      -4.895  -0.924   5.773  1.00  0.00     0.022 C 
BRANCH  16  17
ATOM     17  C   UNL     1      -6.365  -0.552   5.531  1.00  0.00     0.002 C 
BRANCH  17  18
ATOM     18  C   UNL     1      -6.709   0.914   5.783  1.00  0.00     0.000 C 
BRANCH  18  19
ATOM     19  C   UNL     1      -8.111   1.317   5.307  1.00  0.00    -0.000 C 
BRANCH  19  20
ATOM     20  C   UNL     1      -8.352   1.177   3.801  1.00  0.00    -0.000 C 
BRANCH  20  21
ATOM     21  C   UNL     1      -7.899   2.403   3.005  1.00  0.00    -0.003 C 
ATOM     22  C   UNL     1      -6.739   2.067   2.080  1.00  0.00     0.004 C 
ENDBRANCH  20  21
ENDBRANCH  19  20
ENDBRANCH  18  19
ENDBRANCH  17  18
ENDBRANCH  16  17
ENDBRANCH  12  16
ENDBRANCH   9  12
ENDBRANCH   6   9
ENDBRANCH   3   5
ENDBRANCH   2   3
BRANCH   2  23
ATOM     23  N   UNL     1      -2.727   4.374   9.597  1.00  0.00    -0.332 N 
ATOM     24  C   UNL     1      -2.472   3.733  10.878  1.00  0.00     0.147 C 
BRANCH  23  25
ATOM     25  C   UNL     1      -1.525   4.566   8.741  1.00  0.00     0.174 C 
BRANCH  25  26
ATOM     26  C   UNL     1      -0.625   3.309   8.676  1.00  0.00     0.038 C 
BRANCH  26  27
ATOM     27  C   UNL     1      -0.586   2.544   7.334  1.00  0.00    -0.015 C 
ATOM     28  C   UNL     1      -1.143   3.370   6.175  1.00  0.00     0.007 C 
ATOM     29  C   UNL     1       0.796   1.996   6.988  1.00  0.00     0.007 C 
ENDBRANCH  26  27
ENDBRANCH  25  26
BRANCH  25  30
ATOM     30  C   UNL     1      -0.771   5.848   9.161  1.00  0.00     0.243 C 
ATOM     31  O   UNL     1       0.430   5.840   9.425  1.00  0.00    -0.273 OA
ATOM     32  N   UNL     1      -1.531   6.988   9.226  1.00  0.00    -0.342 N 
ATOM     33  H   UNL     1      -2.484   6.944   8.857  1.00  0.00     0.164 HD
BRANCH  32  34
ATOM     34  C   UNL     1      -0.991   8.289   9.632  1.00  0.00     0.175 C 
BRANCH  34  35
ATOM     35  C   UNL     1      -0.902   9.254   8.439  1.00  0.00     0.070 C 
BRANCH  35  36
ATOM     36  C   UNL     1       0.502   9.381   7.894  1.00  0.00    -0.045 A 
ATOM     37  C   UNL     1       1.329  10.430   8.324  1.00  0.00     0.007 A 
ATOM     38  C   UNL     1       0.989   8.476   6.942  1.00  0.00     0.007 A 
ATOM     39  C   UNL     1       2.622  10.564   7.816  1.00  0.00     0.046 A 
ATOM     40  C   UNL     1       2.283   8.610   6.433  1.00  0.00     0.046 A 
ATOM     41  C   UNL     1       3.089   9.654   6.876  1.00  0.00     0.115 A 
BRANCH  41  42
ATOM     42  O   UNL     1       4.356   9.822   6.403  1.00  0.00    -0.508 OA
ATOM     43  H   UNL     1       4.551  10.774   6.386  1.00  0.00     0.293 HD
ENDBRANCH  41  42
ENDBRANCH  35  36
ENDBRANCH  34  35
BRANCH  34  44
ATOM     44  C   UNL     1      -1.887   8.847  10.760  1.00  0.00     0.243 C 
ATOM     45  O   UNL     1      -1.464   9.390  11.778  1.00  0.00    -0.273 OA
ATOM     46  N   UNL     1      -3.226   8.566  10.589  1.00  0.00    -0.341 N 
ATOM     47  H   UNL     1      -3.515   8.011   9.787  1.00  0.00     0.164 HD
BRANCH  46  48
ATOM     48  C   UNL     1      -4.258   8.934  11.561  1.00  0.00     0.196 C 
BRANCH  48  49
ATOM     49  C   UNL     1      -5.254   9.942  10.965  1.00  0.00     0.072 C 
BRANCH  49  50
ATOM     50  C   UNL     1      -4.751  10.571   9.685  1.00  0.00    -0.045 A 
ATOM     51  C   UNL     1      -3.895  11.680   9.741  1.00  0.00     0.007 A 
ATOM     52  C   UNL     1      -5.143  10.074   8.435  1.00  0.00     0.007 A 
ATOM     53  C   UNL     1      -3.434  12.277   8.567  1.00  0.00     0.046 A 
ATOM     54  C   UNL     1      -4.683  10.672   7.260  1.00  0.00     0.046 A 
ATOM     55  C   UNL     1      -3.831  11.769   7.336  1.00  0.00     0.115 A 
BRANCH  55  56
ATOM     56  O   UNL     1      -3.360  12.381   6.213  1.00  0.00    -0.508 OA
ATOM     57  H   UNL     1      -3.529  11.800   5.454  1.00  0.00     0.293 HD
ENDBRANCH  55  56
ENDBRANCH  49  50
ENDBRANCH  48  49
BRANCH  48  58
ATOM     58  C   UNL     1      -5.007   7.667  11.997  1.00  0.00     0.326 C 
ATOM     59  O   UNL     1      -4.521   6.597  12.324  1.00  0.00    -0.250 OA
BRANCH  58  60
ATOM     60  O   UNL     1      -6.356   7.815  12.015  1.00  0.00    -0.480 OA
ATOM     61  H   UNL     1      -6.673   7.066  11.465  1.00  0.00     0.296 HD
ENDBRANCH  58  60
ENDBRANCH  48  58
ENDBRANCH  46  48
ENDBRANCH  34  44
ENDBRANCH  32  34
ENDBRANCH  25  30
ENDBRANCH  23  25
ENDBRANCH   2  23
TORSDOF 28
ENDMDL
