MODEL 1
REMARK VINA RESULT:    -7.286      0.000      0.000
REMARK INTER + INTRA:         -30.569
REMARK INTER:                 -21.768
REMARK INTRA:                  -8.801
REMARK UNBOUND:                -8.801
REMARK SMILES C=C1C(=O)N[C@H](C)C(=O)N[C@@H](CC(C)C)C(=O)N[C@@H](C(=O)O)[C@H](C)C(=O)N[C@@H](CCCN=C(N)N)C(=O)N[C@@H](/C=C/C(C)=C/[C@H](C)[C@H](Cc2ccccc2)OC)[C@H](C)C(=O)N[C@@H](C(=O)O)CCC(=O)N1C
REMARK SMILES IDX 39 1 38 2 37 3 36 4 28 6 27 7 25 8 26 9 23 11 24 12 19 13
REMARK SMILES IDX 18 14 16 15 17 16 11 18 10 19 8 20 9 21 12 24 13 25 14 26
REMARK SMILES IDX 15 27 20 28 21 29 22 30 29 32 30 33 31 34 32 35 33 36 34 37
REMARK SMILES IDX 35 38 57 43 58 44 59 45 60 46 61 47 62 49 66 50 67 51 68 52
REMARK SMILES IDX 69 53 70 54 71 55 2 56 1 57 3 58 4 59 5 60 6 62 7 63 63 65
REMARK SMILES IDX 64 66 65 67 40 69 41 70 42 71 44 72 43 73 45 74 46 75 47 76
REMARK SMILES IDX 55 77 56 78 48 79 49 80 50 81 54 82 51 83 53 84 52 85
REMARK H PARENT 38 5 27 10 18 17 10 22 22 31 34 39 34 40 35 41 35 42 61 48
REMARK H PARENT 5 61 65 68
REMARK Flexibility Score:  369.900
ROOT
ATOM      1  C   UNL     1     -11.362   4.153   7.429  1.00  0.00     0.117 C 
ENDROOT
BRANCH   1   2
ATOM      2  N   UNL     1     -12.724   4.383   7.912  1.00  0.00    -0.347 N 
ATOM      3  O   UNL     1     -13.794   2.860   6.569  1.00  0.00    -0.273 OA
ATOM      4  C   UNL     1     -13.822   3.650   7.507  1.00  0.00     0.243 C 
ATOM      5  H   UNL     1     -12.885   5.082   8.622  1.00  0.00     0.164 HD
BRANCH   4   6
ATOM      6  C   UNL     1     -15.134   4.038   8.236  1.00  0.00     0.171 C 
BRANCH   6   7
ATOM      7  N   UNL     1     -16.132   2.965   8.105  1.00  0.00    -0.344 N 
ATOM      8  C   UNL     1     -17.253   3.139   7.321  1.00  0.00     0.226 C 
ATOM      9  O   UNL     1     -17.484   4.183   6.723  1.00  0.00    -0.275 OA
ATOM     10  H   UNL     1     -16.009   2.113   8.637  1.00  0.00     0.164 HD
BRANCH   8  11
ATOM     11  C   UNL     1     -18.158   1.922   7.244  1.00  0.00     0.109 C 
ATOM     12  C   UNL     1     -18.509   1.619   5.788  1.00  0.00     0.021 C 
BRANCH  11  13
ATOM     13  C   UNL     1     -17.520   0.749   8.015  1.00  0.00     0.204 C 
BRANCH  13  14
ATOM     14  N   UNL     1     -18.519  -0.049   8.732  1.00  0.00    -0.340 N 
ATOM     15  C   UNL     1     -18.939   0.252  10.010  1.00  0.00     0.243 C 
ATOM     16  O   UNL     1     -18.548   1.247  10.617  1.00  0.00    -0.273 OA
ATOM     17  H   UNL     1     -18.768  -0.965   8.349  1.00  0.00     0.164 HD
BRANCH  15  18
ATOM     18  C   UNL     1     -19.837  -0.842  10.639  1.00  0.00     0.171 C 
BRANCH  18  19
ATOM     19  N   UNL     1     -19.820  -0.618  12.083  1.00  0.00    -0.343 N 
ATOM     20  C   UNL     1     -19.158  -1.472  12.945  1.00  0.00     0.242 CG0
ATOM     21  O   UNL     1     -18.667  -2.528  12.553  1.00  0.00    -0.273 OA
ATOM     22  H   UNL     1     -20.310   0.180  12.469  1.00  0.00     0.164 HD
ATOM     23  G   UNL     1     -19.183  -1.031  14.423  1.00  0.00     0.000 G0
ENDBRANCH  18  19
BRANCH  18  24
ATOM     24  C   UNL     1     -21.261  -0.763  10.076  1.00  0.00     0.038 C 
BRANCH  24  25
ATOM     25  C   UNL     1     -21.917  -2.130   9.787  1.00  0.00    -0.015 C 
ATOM     26  C   UNL     1     -22.500  -2.776  11.044  1.00  0.00     0.007 C 
ATOM     27  C   UNL     1     -20.888  -3.071   9.154  1.00  0.00     0.007 C 
ENDBRANCH  24  25
ENDBRANCH  18  24
ENDBRANCH  15  18
ENDBRANCH  13  14
BRANCH  13  28
ATOM     28  C   UNL     1     -16.736  -0.210   7.113  1.00  0.00     0.327 C 
ATOM     29  O   UNL     1     -17.084  -1.332   6.776  1.00  0.00    -0.250 OA
BRANCH  28  30
ATOM     30  O   UNL     1     -15.512   0.251   6.787  1.00  0.00    -0.480 OA
ATOM     31  H   UNL     1     -14.957  -0.554   6.731  1.00  0.00     0.296 HD
ENDBRANCH  28  30
ENDBRANCH  13  28
ENDBRANCH  11  13
ENDBRANCH   8  11
ENDBRANCH   6   7
BRANCH   6  32
ATOM     32  C   UNL     1     -14.826   4.322   9.710  1.00  0.00     0.037 C 
BRANCH  32  33
ATOM     33  C   UNL     1     -15.651   3.437  10.655  1.00  0.00     0.026 C 
BRANCH  33  34
ATOM     34  C   UNL     1     -14.806   2.358  11.334  1.00  0.00     0.146 C 
BRANCH  34  35
ATOM     35  N   UNL     1     -14.974   1.105  10.611  1.00  0.00    -0.254 NA
ATOM     36  C   UNL     1     -13.936   0.530  10.130  1.00  0.00     0.185 C 
ATOM     37  N   UNL     1     -14.079  -0.628   9.466  1.00  0.00    -0.370 N 
ATOM     38  N   UNL     1     -12.650   0.921  10.187  1.00  0.00    -0.370 N 
ATOM     39  H   UNL     1     -15.019  -0.995   9.389  1.00  0.00     0.159 HD
ATOM     40  H   UNL     1     -13.308  -1.223   9.214  1.00  0.00     0.159 HD
ATOM     41  H   UNL     1     -11.939   0.453   9.649  1.00  0.00     0.159 HD
ATOM     42  H   UNL     1     -12.397   1.783  10.643  1.00  0.00     0.159 HD
ENDBRANCH  34  35
ENDBRANCH  33  34
ENDBRANCH  32  33
ENDBRANCH   6  32
ENDBRANCH   4   6
ENDBRANCH   1   2
BRANCH   1  43
ATOM     43  C   UNL     1     -10.412   4.047   8.657  1.00  0.00     0.102 C 
ATOM     44  C   UNL     1      -9.303   5.113   8.666  1.00  0.00     0.020 C 
BRANCH  43  45
ATOM     45  C   UNL     1      -9.899   2.615   8.833  1.00  0.00     0.225 C 
ATOM     46  O   UNL     1      -9.664   2.117   9.930  1.00  0.00    -0.275 OA
ATOM     47  N   UNL     1      -9.622   1.937   7.668  1.00  0.00    -0.342 N 
ATOM     48  H   UNL     1      -9.960   2.298   6.787  1.00  0.00     0.164 HD
BRANCH  47  49
ATOM     49  C   UNL     1      -9.158   0.547   7.682  1.00  0.00     0.192 C 
BRANCH  49  50
ATOM     50  C   UNL     1      -8.005   0.379   6.690  1.00  0.00     0.047 C 
BRANCH  50  51
ATOM     51  C   UNL     1      -7.223   1.683   6.480  1.00  0.00     0.103 C 
BRANCH  51  52
ATOM     52  C   UNL     1      -6.782   1.860   5.029  1.00  0.00     0.226 C 
ATOM     53  O   UNL     1      -6.596   0.868   4.322  1.00  0.00    -0.275 OA
BRANCH  52  54
ATOM     54  N   UNL     1      -6.686   3.184   4.561  1.00  0.00    -0.311 N 
ATOM     55  C   UNL     1      -7.839   3.852   3.942  1.00  0.00     0.153 C 
BRANCH  54  56
ATOM     56  C   UNL     1      -5.492   3.916   4.671  1.00  0.00     0.102 C 
ATOM     57  C   UNL     1      -5.131   4.640   5.743  1.00  0.00     0.043 C 
BRANCH  56  58
ATOM     58  C   UNL     1      -4.468   3.899   3.561  1.00  0.00     0.268 C 
ATOM     59  O   UNL     1      -4.009   2.868   3.088  1.00  0.00    -0.268 OA
ATOM     60  N   UNL     1      -4.156   5.154   3.095  1.00  0.00    -0.339 N 
ATOM     61  H   UNL     1      -4.572   5.959   3.548  1.00  0.00     0.164 HD
BRANCH  60  62
ATOM     62  C   UNL     1      -3.233   5.365   1.981  1.00  0.00     0.168 CG0
ATOM     63  C   UNL     1      -3.252   6.817   1.521  1.00  0.00     0.041 C 
ATOM     64  G   UNL     1      -3.602   4.420   0.818  1.00  0.00     0.000 G0
ENDBRANCH  60  62
ENDBRANCH  56  58
ENDBRANCH  54  56
ENDBRANCH  52  54
ENDBRANCH  51  52
ENDBRANCH  50  51
ENDBRANCH  49  50
BRANCH  49  65
ATOM     65  C   UNL     1     -10.287  -0.431   7.320  1.00  0.00     0.326 C 
ATOM     66  O   UNL     1     -11.218  -0.743   8.049  1.00  0.00    -0.250 OA
BRANCH  65  67
ATOM     67  O   UNL     1     -10.165  -1.009   6.105  1.00  0.00    -0.480 OA
ATOM     68  H   UNL     1      -9.522  -0.433   5.638  1.00  0.00     0.296 HD
ENDBRANCH  65  67
ENDBRANCH  49  65
ENDBRANCH  47  49
ENDBRANCH  43  45
ENDBRANCH   1  43
BRANCH   1  69
ATOM     69  C   UNL     1     -11.096   5.223   6.386  1.00  0.00    -0.001 C 
ATOM     70  C   UNL     1     -11.064   5.072   5.050  1.00  0.00     0.001 C 
BRANCH  70  71
ATOM     71  C   UNL     1     -10.827   6.117   4.052  1.00  0.00    -0.055 C 
ATOM     72  C   UNL     1     -10.022   7.144   4.398  1.00  0.00    -0.018 C 
ATOM     73  C   UNL     1     -11.492   5.968   2.708  1.00  0.00     0.044 C 
BRANCH  72  74
ATOM     74  C   UNL     1      -9.600   8.354   3.577  1.00  0.00     0.038 C 
ATOM     75  C   UNL     1      -8.373   7.939   2.757  1.00  0.00     0.015 C 
BRANCH  74  76
ATOM     76  C   UNL     1      -9.365   9.555   4.541  1.00  0.00     0.128 C 
BRANCH  76  77
ATOM     77  O   UNL     1      -8.416  10.469   3.964  1.00  0.00    -0.381 OA
ATOM     78  C   UNL     1      -8.396  11.743   4.593  1.00  0.00     0.195 C 
ENDBRANCH  76  77
BRANCH  76  79
ATOM     79  C   UNL     1     -10.668  10.256   5.002  1.00  0.00     0.068 C 
BRANCH  79  80
ATOM     80  C   UNL     1     -11.603   9.487   5.904  1.00  0.00    -0.045 A 
ATOM     81  C   UNL     1     -11.202   9.085   7.185  1.00  0.00     0.004 A 
ATOM     82  C   UNL     1     -12.886   9.136   5.458  1.00  0.00     0.004 A 
ATOM     83  C   UNL     1     -12.068   8.362   8.008  1.00  0.00     0.000 A 
ATOM     84  C   UNL     1     -13.751   8.411   6.282  1.00  0.00     0.000 A 
ATOM     85  C   UNL     1     -13.343   8.026   7.556  1.00  0.00     0.000 A 
ENDBRANCH  79  80
ENDBRANCH  76  79
ENDBRANCH  74  76
ENDBRANCH  72  74
ENDBRANCH  70  71
ENDBRANCH   1  69
TORSDOF 17
ENDMDL
MODEL 2
REMARK VINA RESULT:    -7.168      2.828      6.349
REMARK INTER + INTRA:         -30.215
REMARK INTER:                 -23.587
REMARK INTRA:                  -6.628
REMARK UNBOUND:                -8.801
REMARK SMILES C=C1C(=O)N[C@H](C)C(=O)N[C@@H](CC(C)C)C(=O)N[C@@H](C(=O)O)[C@H](C)C(=O)N[C@@H](CCCN=C(N)N)C(=O)N[C@@H](/C=C/C(C)=C/[C@H](C)[C@H](Cc2ccccc2)OC)[C@H](C)C(=O)N[C@@H](C(=O)O)CCC(=O)N1C
REMARK SMILES IDX 39 1 38 2 37 3 36 4 28 6 27 7 25 8 26 9 23 11 24 12 19 13
REMARK SMILES IDX 18 14 16 15 17 16 11 18 10 19 8 20 9 21 12 24 13 25 14 26
REMARK SMILES IDX 15 27 20 28 21 29 22 30 29 32 30 33 31 34 32 35 33 36 34 37
REMARK SMILES IDX 35 38 57 43 58 44 59 45 60 46 61 47 62 49 66 50 67 51 68 52
REMARK SMILES IDX 69 53 70 54 71 55 2 56 1 57 3 58 4 59 5 60 6 62 7 63 63 65
REMARK SMILES IDX 64 66 65 67 40 69 41 70 42 71 44 72 43 73 45 74 46 75 47 76
REMARK SMILES IDX 55 77 56 78 48 79 49 80 50 81 54 82 51 83 53 84 52 85
REMARK H PARENT 38 5 27 10 18 17 10 22 22 31 34 39 34 40 35 41 35 42 61 48
REMARK H PARENT 5 61 65 68
REMARK Flexibility Score:  369.900
ROOT
ATOM      1  C   UNL     1     -11.535   3.522   9.861  1.00  0.00     0.117 C 
ENDROOT
BRANCH   1   2
ATOM      2  N   UNL     1     -12.428   2.786   8.965  1.00  0.00    -0.347 N 
ATOM      3  O   UNL     1     -12.634   0.879  10.225  1.00  0.00    -0.273 OA
ATOM      4  C   UNL     1     -12.980   1.556   9.263  1.00  0.00     0.243 C 
ATOM      5  H   UNL     1     -12.709   3.207   8.092  1.00  0.00     0.164 HD
BRANCH   4   6
ATOM      6  C   UNL     1     -13.960   1.034   8.181  1.00  0.00     0.171 C 
BRANCH   6   7
ATOM      7  N   UNL     1     -14.789   2.134   7.664  1.00  0.00    -0.344 N 
ATOM      8  C   UNL     1     -16.046   1.888   7.155  1.00  0.00     0.226 C 
ATOM      9  O   UNL     1     -16.521   0.760   7.086  1.00  0.00    -0.275 OA
ATOM     10  H   UNL     1     -14.404   3.070   7.642  1.00  0.00     0.164 HD
BRANCH   8  11
ATOM     11  C   UNL     1     -16.796   3.131   6.713  1.00  0.00     0.109 C 
ATOM     12  C   UNL     1     -17.408   2.912   5.329  1.00  0.00     0.021 C 
BRANCH  11  13
ATOM     13  C   UNL     1     -17.799   3.552   7.806  1.00  0.00     0.204 C 
BRANCH  13  14
ATOM     14  N   UNL     1     -17.827   2.603   8.923  1.00  0.00    -0.340 N 
ATOM     15  C   UNL     1     -18.861   1.716   9.126  1.00  0.00     0.243 C 
ATOM     16  O   UNL     1     -19.808   1.615   8.347  1.00  0.00    -0.273 OA
ATOM     17  H   UNL     1     -17.155   2.736   9.684  1.00  0.00     0.164 HD
BRANCH  15  18
ATOM     18  C   UNL     1     -18.775   0.963  10.477  1.00  0.00     0.171 C 
BRANCH  18  19
ATOM     19  N   UNL     1     -19.357  -0.360  10.256  1.00  0.00    -0.343 N 
ATOM     20  C   UNL     1     -20.373  -0.851  11.053  1.00  0.00     0.242 CG0
ATOM     21  O   UNL     1     -20.743  -0.257  12.063  1.00  0.00    -0.273 OA
ATOM     22  H   UNL     1     -19.004  -0.939   9.503  1.00  0.00     0.164 HD
ATOM     23  G   UNL     1     -20.911  -2.230  10.620  1.00  0.00     0.000 G0
ENDBRANCH  18  19
BRANCH  18  24
ATOM     24  C   UNL     1     -17.320   0.866  10.950  1.00  0.00     0.038 C 
BRANCH  24  25
ATOM     25  C   UNL     1     -17.068   1.408  12.373  1.00  0.00    -0.015 C 
ATOM     26  C   UNL     1     -15.668   2.002  12.534  1.00  0.00     0.007 C 
ATOM     27  C   UNL     1     -17.272   0.287  13.395  1.00  0.00     0.007 C 
ENDBRANCH  24  25
ENDBRANCH  18  24
ENDBRANCH  15  18
ENDBRANCH  13  14
BRANCH  13  28
ATOM     28  C   UNL     1     -17.507   4.936   8.393  1.00  0.00     0.327 C 
ATOM     29  O   UNL     1     -17.823   6.010   7.904  1.00  0.00    -0.250 OA
BRANCH  28  30
ATOM     30  O   UNL     1     -16.732   4.890   9.496  1.00  0.00    -0.480 OA
ATOM     31  H   UNL     1     -17.191   5.471  10.137  1.00  0.00     0.296 HD
ENDBRANCH  28  30
ENDBRANCH  13  28
ENDBRANCH  11  13
ENDBRANCH   8  11
ENDBRANCH   6   7
BRANCH   6  32
ATOM     32  C   UNL     1     -13.158   0.376   7.052  1.00  0.00     0.037 C 
BRANCH  32  33
ATOM     33  C   UNL     1     -13.070  -1.148   7.216  1.00  0.00     0.026 C 
BRANCH  33  34
ATOM     34  C   UNL     1     -11.804  -1.732   6.589  1.00  0.00     0.146 C 
BRANCH  34  35
ATOM     35  N   UNL     1     -11.808  -1.437   5.163  1.00  0.00    -0.254 NA
ATOM     36  C   UNL     1     -11.480  -2.365   4.342  1.00  0.00     0.185 C 
ATOM     37  N   UNL     1     -11.485  -2.105   3.026  1.00  0.00    -0.370 N 
ATOM     38  N   UNL     1     -11.112  -3.632   4.603  1.00  0.00    -0.370 N 
ATOM     39  H   UNL     1     -11.762  -1.172   2.748  1.00  0.00     0.159 HD
ATOM     40  H   UNL     1     -11.412  -2.816   2.318  1.00  0.00     0.159 HD
ATOM     41  H   UNL     1     -10.744  -4.227   3.879  1.00  0.00     0.159 HD
ATOM     42  H   UNL     1     -11.049  -3.962   5.553  1.00  0.00     0.159 HD
ENDBRANCH  34  35
ENDBRANCH  33  34
ENDBRANCH  32  33
ENDBRANCH   6  32
ENDBRANCH   4   6
ENDBRANCH   1   2
BRANCH   1  43
ATOM     43  C   UNL     1     -12.209   4.875  10.230  1.00  0.00     0.102 C 
ATOM     44  C   UNL     1     -12.808   4.896  11.647  1.00  0.00     0.020 C 
BRANCH  43  45
ATOM     45  C   UNL     1     -13.186   5.319   9.136  1.00  0.00     0.225 C 
ATOM     46  O   UNL     1     -14.131   4.631   8.761  1.00  0.00    -0.275 OA
ATOM     47  N   UNL     1     -12.885   6.513   8.522  1.00  0.00    -0.342 N 
ATOM     48  H   UNL     1     -12.203   7.132   8.939  1.00  0.00     0.164 HD
BRANCH  47  49
ATOM     49  C   UNL     1     -13.750   7.080   7.483  1.00  0.00     0.192 C 
BRANCH  49  50
ATOM     50  C   UNL     1     -12.925   7.985   6.565  1.00  0.00     0.047 C 
BRANCH  50  51
ATOM     51  C   UNL     1     -11.521   8.257   7.123  1.00  0.00     0.103 C 
BRANCH  51  52
ATOM     52  C   UNL     1     -10.429   7.634   6.256  1.00  0.00     0.226 C 
ATOM     53  O   UNL     1      -9.753   6.705   6.700  1.00  0.00    -0.275 OA
BRANCH  52  54
ATOM     54  N   UNL     1     -10.314   8.128   4.943  1.00  0.00    -0.311 N 
ATOM     55  C   UNL     1     -10.704   7.306   3.789  1.00  0.00     0.153 C 
BRANCH  54  56
ATOM     56  C   UNL     1      -9.828   9.421   4.686  1.00  0.00     0.102 C 
ATOM     57  C   UNL     1     -10.477  10.558   4.984  1.00  0.00     0.043 C 
BRANCH  56  58
ATOM     58  C   UNL     1      -8.464   9.629   4.071  1.00  0.00     0.268 C 
ATOM     59  O   UNL     1      -7.688   8.712   3.839  1.00  0.00    -0.268 OA
ATOM     60  N   UNL     1      -8.215  10.940   3.741  1.00  0.00    -0.339 N 
ATOM     61  H   UNL     1      -8.906  11.642   3.977  1.00  0.00     0.164 HD
BRANCH  60  62
ATOM     62  C   UNL     1      -6.980  11.354   3.078  1.00  0.00     0.168 CG0
ATOM     63  C   UNL     1      -6.981  10.942   1.611  1.00  0.00     0.041 C 
ATOM     64  G   UNL     1      -5.768  10.747   3.815  1.00  0.00     0.000 G0
ENDBRANCH  60  62
ENDBRANCH  56  58
ENDBRANCH  54  56
ENDBRANCH  52  54
ENDBRANCH  51  52
ENDBRANCH  50  51
ENDBRANCH  49  50
BRANCH  49  65
ATOM     65  C   UNL     1     -14.908   7.889   8.089  1.00  0.00     0.326 C 
ATOM     66  O   UNL     1     -15.430   8.871   7.582  1.00  0.00    -0.250 OA
BRANCH  65  67
ATOM     67  O   UNL     1     -15.309   7.472   9.310  1.00  0.00    -0.480 OA
ATOM     68  H   UNL     1     -15.852   6.678   9.116  1.00  0.00     0.296 HD
ENDBRANCH  65  67
ENDBRANCH  49  65
ENDBRANCH  47  49
ENDBRANCH  43  45
ENDBRANCH   1  43
BRANCH   1  69
ATOM     69  C   UNL     1     -10.176   3.539   9.186  1.00  0.00    -0.001 C 
ATOM     70  C   UNL     1      -9.285   2.535   9.119  1.00  0.00     0.001 C 
BRANCH  70  71
ATOM     71  C   UNL     1      -7.984   2.556   8.446  1.00  0.00    -0.055 C 
ATOM     72  C   UNL     1      -7.560   3.733   7.939  1.00  0.00    -0.018 C 
ATOM     73  C   UNL     1      -7.210   1.267   8.373  1.00  0.00     0.044 C 
BRANCH  72  74
ATOM     74  C   UNL     1      -6.268   4.053   7.201  1.00  0.00     0.038 C 
ATOM     75  C   UNL     1      -5.578   5.188   7.967  1.00  0.00     0.015 C 
BRANCH  74  76
ATOM     76  C   UNL     1      -6.607   4.380   5.716  1.00  0.00     0.128 C 
BRANCH  76  77
ATOM     77  O   UNL     1      -8.018   4.222   5.489  1.00  0.00    -0.381 OA
ATOM     78  C   UNL     1      -8.395   4.357   4.126  1.00  0.00     0.195 C 
ENDBRANCH  76  77
BRANCH  76  79
ATOM     79  C   UNL     1      -6.072   5.752   5.235  1.00  0.00     0.068 C 
BRANCH  79  80
ATOM     80  C   UNL     1      -5.089   5.765   4.089  1.00  0.00    -0.045 A 
ATOM     81  C   UNL     1      -4.707   4.577   3.452  1.00  0.00     0.004 A 
ATOM     82  C   UNL     1      -4.519   6.974   3.661  1.00  0.00     0.004 A 
ATOM     83  C   UNL     1      -3.786   4.597   2.402  1.00  0.00     0.000 A 
ATOM     84  C   UNL     1      -3.598   6.992   2.611  1.00  0.00     0.000 A 
ATOM     85  C   UNL     1      -3.233   5.804   1.981  1.00  0.00     0.000 A 
ENDBRANCH  79  80
ENDBRANCH  76  79
ENDBRANCH  74  76
ENDBRANCH  72  74
ENDBRANCH  70  71
ENDBRANCH   1  69
TORSDOF 17
ENDMDL
MODEL 3
REMARK VINA RESULT:    -7.122      2.312      3.549
REMARK INTER + INTRA:         -30.079
REMARK INTER:                 -23.072
REMARK INTRA:                  -7.007
REMARK UNBOUND:                -8.801
REMARK SMILES C=C1C(=O)N[C@H](C)C(=O)N[C@@H](CC(C)C)C(=O)N[C@@H](C(=O)O)[C@H](C)C(=O)N[C@@H](CCCN=C(N)N)C(=O)N[C@@H](/C=C/C(C)=C/[C@H](C)[C@H](Cc2ccccc2)OC)[C@H](C)C(=O)N[C@@H](C(=O)O)CCC(=O)N1C
REMARK SMILES IDX 39 1 38 2 37 3 36 4 28 6 27 7 25 8 26 9 23 11 24 12 19 13
REMARK SMILES IDX 18 14 16 15 17 16 11 18 10 19 8 20 9 21 12 24 13 25 14 26
REMARK SMILES IDX 15 27 20 28 21 29 22 30 29 32 30 33 31 34 32 35 33 36 34 37
REMARK SMILES IDX 35 38 57 43 58 44 59 45 60 46 61 47 62 49 66 50 67 51 68 52
REMARK SMILES IDX 69 53 70 54 71 55 2 56 1 57 3 58 4 59 5 60 6 62 7 63 63 65
REMARK SMILES IDX 64 66 65 67 40 69 41 70 42 71 44 72 43 73 45 74 46 75 47 76
REMARK SMILES IDX 55 77 56 78 48 79 49 80 50 81 54 82 51 83 53 84 52 85
REMARK H PARENT 38 5 27 10 18 17 10 22 22 31 34 39 34 40 35 41 35 42 61 48
REMARK H PARENT 5 61 65 68
REMARK Flexibility Score:  369.900
ROOT
ATOM      1  C   UNL     1     -12.510   2.494   4.950  1.00  0.00     0.117 C 
ENDROOT
BRANCH   1   2
ATOM      2  N   UNL     1     -13.229   3.055   6.095  1.00  0.00    -0.347 N 
ATOM      3  O   UNL     1     -15.363   2.621   5.367  1.00  0.00    -0.273 OA
ATOM      4  C   UNL     1     -14.600   2.990   6.254  1.00  0.00     0.243 C 
ATOM      5  H   UNL     1     -12.707   3.474   6.849  1.00  0.00     0.164 HD
BRANCH   4   6
ATOM      6  C   UNL     1     -15.100   3.583   7.596  1.00  0.00     0.171 C 
BRANCH   6   7
ATOM      7  N   UNL     1     -15.368   2.509   8.565  1.00  0.00    -0.344 N 
ATOM      8  C   UNL     1     -16.645   2.020   8.737  1.00  0.00     0.226 C 
ATOM      9  O   UNL     1     -17.609   2.460   8.123  1.00  0.00    -0.275 OA
ATOM     10  H   UNL     1     -14.608   2.166   9.140  1.00  0.00     0.164 HD
BRANCH   8  11
ATOM     11  C   UNL     1     -16.748   0.877   9.732  1.00  0.00     0.109 C 
ATOM     12  C   UNL     1     -15.357   0.493  10.238  1.00  0.00     0.021 C 
BRANCH  11  13
ATOM     13  C   UNL     1     -17.763   1.236  10.835  1.00  0.00     0.204 C 
BRANCH  13  14
ATOM     14  N   UNL     1     -18.737   0.163  11.059  1.00  0.00    -0.340 N 
ATOM     15  C   UNL     1     -19.896   0.039  10.325  1.00  0.00     0.243 C 
ATOM     16  O   UNL     1     -20.166   0.787   9.387  1.00  0.00    -0.273 OA
ATOM     17  H   UNL     1     -18.649  -0.395  11.913  1.00  0.00     0.164 HD
BRANCH  15  18
ATOM     18  C   UNL     1     -20.864  -1.037  10.874  1.00  0.00     0.171 C 
BRANCH  18  19
ATOM     19  N   UNL     1     -20.386  -2.325  10.374  1.00  0.00    -0.343 N 
ATOM     20  C   UNL     1     -20.950  -2.932   9.269  1.00  0.00     0.242 CG0
ATOM     21  O   UNL     1     -21.963  -2.486   8.736  1.00  0.00    -0.273 OA
ATOM     22  H   UNL     1     -19.624  -2.792  10.852  1.00  0.00     0.164 HD
ATOM     23  G   UNL     1     -20.262  -4.246   8.844  1.00  0.00     0.000 G0
ENDBRANCH  18  19
BRANCH  18  24
ATOM     24  C   UNL     1     -20.896  -1.006  12.407  1.00  0.00     0.038 C 
BRANCH  24  25
ATOM     25  C   UNL     1     -20.996  -2.392  13.078  1.00  0.00    -0.015 C 
ATOM     26  C   UNL     1     -22.259  -2.541  13.928  1.00  0.00     0.007 C 
ATOM     27  C   UNL     1     -19.759  -2.635  13.946  1.00  0.00     0.007 C 
ENDBRANCH  24  25
ENDBRANCH  18  24
ENDBRANCH  15  18
ENDBRANCH  13  14
BRANCH  13  28
ATOM     28  C   UNL     1     -17.105   1.541  12.185  1.00  0.00     0.327 C 
ATOM     29  O   UNL     1     -16.607   2.604  12.522  1.00  0.00    -0.250 OA
BRANCH  28  30
ATOM     30  O   UNL     1     -17.008   0.458  12.982  1.00  0.00    -0.480 OA
ATOM     31  H   UNL     1     -17.769   0.540  13.594  1.00  0.00     0.296 HD
ENDBRANCH  28  30
ENDBRANCH  13  28
ENDBRANCH  11  13
ENDBRANCH   8  11
ENDBRANCH   6   7
BRANCH   6  32
ATOM     32  C   UNL     1     -14.050   4.560   8.137  1.00  0.00     0.037 C 
BRANCH  32  33
ATOM     33  C   UNL     1     -14.487   6.023   7.983  1.00  0.00     0.026 C 
BRANCH  33  34
ATOM     34  C   UNL     1     -15.586   6.413   8.972  1.00  0.00     0.146 C 
BRANCH  34  35
ATOM     35  N   UNL     1     -15.965   7.799   8.731  1.00  0.00    -0.254 NA
ATOM     36  C   UNL     1     -17.158   8.050   8.337  1.00  0.00     0.185 C 
ATOM     37  N   UNL     1     -17.520   9.323   8.117  1.00  0.00    -0.370 N 
ATOM     38  N   UNL     1     -18.166   7.193   8.096  1.00  0.00    -0.370 N 
ATOM     39  H   UNL     1     -16.817  10.031   8.287  1.00  0.00     0.159 HD
ATOM     40  H   UNL     1     -18.472   9.615   7.978  1.00  0.00     0.159 HD
ATOM     41  H   UNL     1     -19.017   7.500   7.655  1.00  0.00     0.159 HD
ATOM     42  H   UNL     1     -18.031   6.199   8.205  1.00  0.00     0.159 HD
ENDBRANCH  34  35
ENDBRANCH  33  34
ENDBRANCH  32  33
ENDBRANCH   6  32
ENDBRANCH   4   6
ENDBRANCH   1   2
BRANCH   1  43
ATOM     43  C   UNL     1     -11.617   1.323   5.452  1.00  0.00     0.102 C 
ATOM     44  C   UNL     1     -12.304  -0.051   5.363  1.00  0.00     0.020 C 
BRANCH  43  45
ATOM     45  C   UNL     1     -11.025   1.633   6.829  1.00  0.00     0.225 C 
ATOM     46  O   UNL     1     -11.663   1.529   7.873  1.00  0.00    -0.275 OA
ATOM     47  N   UNL     1      -9.743   2.134   6.823  1.00  0.00    -0.342 N 
ATOM     48  H   UNL     1      -9.185   2.070   5.984  1.00  0.00     0.164 HD
BRANCH  47  49
ATOM     49  C   UNL     1      -9.035   2.443   8.070  1.00  0.00     0.192 C 
BRANCH  49  50
ATOM     50  C   UNL     1      -8.034   3.575   7.826  1.00  0.00     0.047 C 
BRANCH  50  51
ATOM     51  C   UNL     1      -8.127   4.137   6.401  1.00  0.00     0.103 C 
BRANCH  51  52
ATOM     52  C   UNL     1      -7.073   3.532   5.475  1.00  0.00     0.226 C 
ATOM     53  O   UNL     1      -6.683   2.379   5.667  1.00  0.00    -0.275 OA
BRANCH  52  54
ATOM     54  N   UNL     1      -6.661   4.328   4.390  1.00  0.00    -0.311 N 
ATOM     55  C   UNL     1      -7.453   4.390   3.155  1.00  0.00     0.153 C 
BRANCH  54  56
ATOM     56  C   UNL     1      -5.485   5.094   4.449  1.00  0.00     0.102 C 
ATOM     57  C   UNL     1      -5.105   5.839   5.500  1.00  0.00     0.043 C 
BRANCH  56  58
ATOM     58  C   UNL     1      -4.503   5.096   3.301  1.00  0.00     0.268 C 
ATOM     59  O   UNL     1      -3.991   4.077   2.856  1.00  0.00    -0.268 OA
ATOM     60  N   UNL     1      -4.297   6.346   2.768  1.00  0.00    -0.339 N 
ATOM     61  H   UNL     1      -4.751   7.141   3.202  1.00  0.00     0.164 HD
BRANCH  60  62
ATOM     62  C   UNL     1      -3.432   6.566   1.610  1.00  0.00     0.168 CG0
ATOM     63  C   UNL     1      -2.870   7.983   1.608  1.00  0.00     0.041 C 
ATOM     64  G   UNL     1      -4.223   6.291   0.315  1.00  0.00     0.000 G0
ENDBRANCH  60  62
ENDBRANCH  56  58
ENDBRANCH  54  56
ENDBRANCH  52  54
ENDBRANCH  51  52
ENDBRANCH  50  51
ENDBRANCH  49  50
BRANCH  49  65
ATOM     65  C   UNL     1      -8.291   1.215   8.618  1.00  0.00     0.326 C 
ATOM     66  O   UNL     1      -8.104   0.968   9.801  1.00  0.00    -0.250 OA
BRANCH  65  67
ATOM     67  O   UNL     1      -7.773   0.401   7.673  1.00  0.00    -0.480 OA
ATOM     68  H   UNL     1      -6.895   0.797   7.483  1.00  0.00     0.296 HD
ENDBRANCH  65  67
ENDBRANCH  49  65
ENDBRANCH  47  49
ENDBRANCH  43  45
ENDBRANCH   1  43
BRANCH   1  69
ATOM     69  C   UNL     1     -11.853   3.667   4.246  1.00  0.00    -0.001 C 
ATOM     70  C   UNL     1     -11.686   4.915   4.720  1.00  0.00     0.001 C 
BRANCH  70  71
ATOM     71  C   UNL     1     -11.031   6.034   4.039  1.00  0.00    -0.055 C 
ATOM     72  C   UNL     1     -10.357   6.923   4.799  1.00  0.00    -0.018 C 
ATOM     73  C   UNL     1     -11.149   6.109   2.539  1.00  0.00     0.044 C 
BRANCH  72  74
ATOM     74  C   UNL     1      -9.588   8.165   4.373  1.00  0.00     0.038 C 
ATOM     75  C   UNL     1      -8.116   7.759   4.232  1.00  0.00     0.015 C 
BRANCH  74  76
ATOM     76  C   UNL     1      -9.856   9.299   5.406  1.00  0.00     0.128 C 
BRANCH  76  77
ATOM     77  O   UNL     1     -10.111  10.537   4.721  1.00  0.00    -0.381 OA
ATOM     78  C   UNL     1      -8.967  11.374   4.610  1.00  0.00     0.195 C 
ENDBRANCH  76  77
BRANCH  76  79
ATOM     79  C   UNL     1     -10.949   8.954   6.449  1.00  0.00     0.068 C 
BRANCH  79  80
ATOM     80  C   UNL     1     -12.327   9.537   6.247  1.00  0.00    -0.045 A 
ATOM     81  C   UNL     1     -12.626  10.844   6.656  1.00  0.00     0.004 A 
ATOM     82  C   UNL     1     -13.344   8.763   5.668  1.00  0.00     0.004 A 
ATOM     83  C   UNL     1     -13.907  11.370   6.478  1.00  0.00     0.000 A 
ATOM     84  C   UNL     1     -14.625   9.290   5.492  1.00  0.00     0.000 A 
ATOM     85  C   UNL     1     -14.906  10.594   5.895  1.00  0.00     0.000 A 
ENDBRANCH  79  80
ENDBRANCH  76  79
ENDBRANCH  74  76
ENDBRANCH  72  74
ENDBRANCH  70  71
ENDBRANCH   1  69
TORSDOF 17
ENDMDL
MODEL 4
REMARK VINA RESULT:    -7.002      2.859      6.399
REMARK INTER + INTRA:         -29.721
REMARK INTER:                 -22.342
REMARK INTRA:                  -7.379
REMARK UNBOUND:                -8.801
REMARK SMILES C=C1C(=O)N[C@H](C)C(=O)N[C@@H](CC(C)C)C(=O)N[C@@H](C(=O)O)[C@H](C)C(=O)N[C@@H](CCCN=C(N)N)C(=O)N[C@@H](/C=C/C(C)=C/[C@H](C)[C@H](Cc2ccccc2)OC)[C@H](C)C(=O)N[C@@H](C(=O)O)CCC(=O)N1C
REMARK SMILES IDX 39 1 38 2 37 3 36 4 28 6 27 7 25 8 26 9 23 11 24 12 19 13
REMARK SMILES IDX 18 14 16 15 17 16 11 18 10 19 8 20 9 21 12 24 13 25 14 26
REMARK SMILES IDX 15 27 20 28 21 29 22 30 29 32 30 33 31 34 32 35 33 36 34 37
REMARK SMILES IDX 35 38 57 43 58 44 59 45 60 46 61 47 62 49 66 50 67 51 68 52
REMARK SMILES IDX 69 53 70 54 71 55 2 56 1 57 3 58 4 59 5 60 6 62 7 63 63 65
REMARK SMILES IDX 64 66 65 67 40 69 41 70 42 71 44 72 43 73 45 74 46 75 47 76
REMARK SMILES IDX 55 77 56 78 48 79 49 80 50 81 54 82 51 83 53 84 52 85
REMARK H PARENT 38 5 27 10 18 17 10 22 22 31 34 39 34 40 35 41 35 42 61 48
REMARK H PARENT 5 61 65 68
REMARK Flexibility Score:  369.900
ROOT
ATOM      1  C   UNL     1     -11.387   4.165   9.382  1.00  0.00     0.117 C 
ENDROOT
BRANCH   1   2
ATOM      2  N   UNL     1     -12.086   3.253   8.476  1.00  0.00    -0.347 N 
ATOM      3  O   UNL     1     -13.041   1.901  10.066  1.00  0.00    -0.273 OA
ATOM      4  C   UNL     1     -12.934   2.246   8.894  1.00  0.00     0.243 C 
ATOM      5  H   UNL     1     -11.996   3.381   7.479  1.00  0.00     0.164 HD
BRANCH   4   6
ATOM      6  C   UNL     1     -13.614   1.480   7.731  1.00  0.00     0.171 C 
BRANCH   6   7
ATOM      7  N   UNL     1     -14.749   2.253   7.200  1.00  0.00    -0.344 N 
ATOM      8  C   UNL     1     -15.958   1.643   6.948  1.00  0.00     0.226 C 
ATOM      9  O   UNL     1     -16.143   0.445   7.127  1.00  0.00    -0.275 OA
ATOM     10  H   UNL     1     -14.614   3.231   6.976  1.00  0.00     0.164 HD
BRANCH   8  11
ATOM     11  C   UNL     1     -17.043   2.584   6.456  1.00  0.00     0.109 C 
ATOM     12  C   UNL     1     -17.836   1.928   5.326  1.00  0.00     0.021 C 
BRANCH  11  13
ATOM     13  C   UNL     1     -17.893   3.069   7.648  1.00  0.00     0.204 C 
BRANCH  13  14
ATOM     14  N   UNL     1     -17.826   2.145   8.785  1.00  0.00    -0.340 N 
ATOM     15  C   UNL     1     -18.926   1.467   9.264  1.00  0.00     0.243 C 
ATOM     16  O   UNL     1     -20.032   1.543   8.732  1.00  0.00    -0.273 OA
ATOM     17  H   UNL     1     -16.980   2.154   9.361  1.00  0.00     0.164 HD
BRANCH  15  18
ATOM     18  C   UNL     1     -18.659   0.716  10.592  1.00  0.00     0.171 C 
BRANCH  18  19
ATOM     19  N   UNL     1     -19.312  -0.586  10.475  1.00  0.00    -0.343 N 
ATOM     20  C   UNL     1     -20.411  -0.922  11.242  1.00  0.00     0.242 CG0
ATOM     21  O   UNL     1     -20.808  -0.196  12.150  1.00  0.00    -0.273 OA
ATOM     22  H   UNL     1     -18.948  -1.267   9.818  1.00  0.00     0.164 HD
ATOM     23  G   UNL     1     -21.010  -2.307  10.923  1.00  0.00     0.000 G0
ENDBRANCH  18  19
BRANCH  18  24
ATOM     24  C   UNL     1     -17.153   0.570  10.838  1.00  0.00     0.038 C 
BRANCH  24  25
ATOM     25  C   UNL     1     -16.673   1.072  12.217  1.00  0.00    -0.015 C 
ATOM     26  C   UNL     1     -17.498   0.498  13.368  1.00  0.00     0.007 C 
ATOM     27  C   UNL     1     -16.730   2.602  12.255  1.00  0.00     0.007 C 
ENDBRANCH  24  25
ENDBRANCH  18  24
ENDBRANCH  15  18
ENDBRANCH  13  14
BRANCH  13  28
ATOM     28  C   UNL     1     -17.480   4.452   8.161  1.00  0.00     0.327 C 
ATOM     29  O   UNL     1     -17.724   5.523   7.628  1.00  0.00    -0.250 OA
BRANCH  28  30
ATOM     30  O   UNL     1     -16.684   4.396   9.248  1.00  0.00    -0.480 OA
ATOM     31  H   UNL     1     -17.288   4.575   9.999  1.00  0.00     0.296 HD
ENDBRANCH  28  30
ENDBRANCH  13  28
ENDBRANCH  11  13
ENDBRANCH   8  11
ENDBRANCH   6   7
BRANCH   6  32
ATOM     32  C   UNL     1     -12.578   1.206   6.635  1.00  0.00     0.037 C 
BRANCH  32  33
ATOM     33  C   UNL     1     -12.553  -0.271   6.218  1.00  0.00     0.026 C 
BRANCH  33  34
ATOM     34  C   UNL     1     -12.851  -1.213   7.384  1.00  0.00     0.146 C 
BRANCH  34  35
ATOM     35  N   UNL     1     -11.674  -1.291   8.238  1.00  0.00    -0.254 NA
ATOM     36  C   UNL     1     -11.837  -1.307   9.509  1.00  0.00     0.185 C 
ATOM     37  N   UNL     1     -10.759  -1.383  10.305  1.00  0.00    -0.370 N 
ATOM     38  N   UNL     1     -12.980  -1.258  10.215  1.00  0.00    -0.370 N 
ATOM     39  H   UNL     1      -9.858  -1.434   9.847  1.00  0.00     0.159 HD
ATOM     40  H   UNL     1     -10.809  -1.575  11.291  1.00  0.00     0.159 HD
ATOM     41  H   UNL     1     -12.971  -1.137  11.214  1.00  0.00     0.159 HD
ATOM     42  H   UNL     1     -13.870  -1.183   9.746  1.00  0.00     0.159 HD
ENDBRANCH  34  35
ENDBRANCH  33  34
ENDBRANCH  32  33
ENDBRANCH   6  32
ENDBRANCH   4   6
ENDBRANCH   1   2
BRANCH   1  43
ATOM     43  C   UNL     1     -11.983   5.591   9.205  1.00  0.00     0.102 C 
ATOM     44  C   UNL     1     -13.346   5.775   9.892  1.00  0.00     0.020 C 
BRANCH  43  45
ATOM     45  C   UNL     1     -11.966   6.016   7.734  1.00  0.00     0.225 C 
ATOM     46  O   UNL     1     -12.735   5.555   6.894  1.00  0.00    -0.275 OA
ATOM     47  N   UNL     1     -10.963   6.889   7.380  1.00  0.00    -0.342 N 
ATOM     48  H   UNL     1     -10.442   7.370   8.099  1.00  0.00     0.164 HD
BRANCH  47  49
ATOM     49  C   UNL     1     -10.846   7.409   6.014  1.00  0.00     0.192 C 
BRANCH  49  50
ATOM     50  C   UNL     1      -9.389   7.780   5.728  1.00  0.00     0.047 C 
BRANCH  50  51
ATOM     51  C   UNL     1      -9.121   7.975   4.230  1.00  0.00     0.103 C 
BRANCH  51  52
ATOM     52  C   UNL     1      -8.480   9.330   3.933  1.00  0.00     0.226 C 
ATOM     53  O   UNL     1      -8.409  10.179   4.823  1.00  0.00    -0.275 OA
BRANCH  52  54
ATOM     54  N   UNL     1      -7.931   9.495   2.648  1.00  0.00    -0.311 N 
ATOM     55  C   UNL     1      -8.445   8.735   1.502  1.00  0.00     0.153 C 
BRANCH  54  56
ATOM     56  C   UNL     1      -6.877  10.394   2.413  1.00  0.00     0.102 C 
ATOM     57  C   UNL     1      -5.574  10.070   2.421  1.00  0.00     0.043 C 
BRANCH  56  58
ATOM     58  C   UNL     1      -7.153  11.841   2.075  1.00  0.00     0.268 C 
ATOM     59  O   UNL     1      -8.106  12.463   2.525  1.00  0.00    -0.268 OA
ATOM     60  N   UNL     1      -6.192  12.400   1.268  1.00  0.00    -0.339 N 
ATOM     61  H   UNL     1      -5.439  11.814   0.929  1.00  0.00     0.164 HD
BRANCH  60  62
ATOM     62  C   UNL     1      -6.231  13.807   0.871  1.00  0.00     0.168 CG0
ATOM     63  C   UNL     1      -4.974  14.193   0.101  1.00  0.00     0.041 C 
ATOM     64  G   UNL     1      -6.399  14.693   2.122  1.00  0.00     0.000 G0
ENDBRANCH  60  62
ENDBRANCH  56  58
ENDBRANCH  54  56
ENDBRANCH  52  54
ENDBRANCH  51  52
ENDBRANCH  50  51
ENDBRANCH  49  50
BRANCH  49  65
ATOM     65  C   UNL     1     -11.737   8.642   5.799  1.00  0.00     0.326 C 
ATOM     66  O   UNL     1     -11.420   9.798   6.037  1.00  0.00    -0.250 OA
BRANCH  65  67
ATOM     67  O   UNL     1     -12.985   8.366   5.359  1.00  0.00    -0.480 OA
ATOM     68  H   UNL     1     -13.563   8.715   6.072  1.00  0.00     0.296 HD
ENDBRANCH  65  67
ENDBRANCH  49  65
ENDBRANCH  47  49
ENDBRANCH  43  45
ENDBRANCH   1  43
BRANCH   1  69
ATOM     69  C   UNL     1      -9.904   3.953   9.136  1.00  0.00    -0.001 C 
ATOM     70  C   UNL     1      -9.332   3.059   8.311  1.00  0.00     0.001 C 
BRANCH  70  71
ATOM     71  C   UNL     1      -7.900   2.878   8.066  1.00  0.00    -0.055 C 
ATOM     72  C   UNL     1      -7.259   3.834   7.360  1.00  0.00    -0.018 C 
ATOM     73  C   UNL     1      -7.242   1.644   8.625  1.00  0.00     0.044 C 
BRANCH  72  74
ATOM     74  C   UNL     1      -5.793   3.915   6.960  1.00  0.00     0.038 C 
ATOM     75  C   UNL     1      -5.236   5.219   7.544  1.00  0.00     0.015 C 
BRANCH  74  76
ATOM     76  C   UNL     1      -5.689   3.795   5.411  1.00  0.00     0.128 C 
BRANCH  76  77
ATOM     77  O   UNL     1      -6.476   2.684   4.950  1.00  0.00    -0.381 OA
ATOM     78  C   UNL     1      -5.894   1.986   3.858  1.00  0.00     0.195 C 
ENDBRANCH  76  77
BRANCH  76  79
ATOM     79  C   UNL     1      -6.008   5.110   4.656  1.00  0.00     0.068 C 
BRANCH  79  80
ATOM     80  C   UNL     1      -4.898   5.759   3.865  1.00  0.00    -0.045 A 
ATOM     81  C   UNL     1      -4.392   7.015   4.226  1.00  0.00     0.004 A 
ATOM     82  C   UNL     1      -4.371   5.120   2.732  1.00  0.00     0.004 A 
ATOM     83  C   UNL     1      -3.375   7.614   3.480  1.00  0.00     0.000 A 
ATOM     84  C   UNL     1      -3.354   5.721   1.987  1.00  0.00     0.000 A 
ATOM     85  C   UNL     1      -2.855   6.966   2.362  1.00  0.00     0.000 A 
ENDBRANCH  79  80
ENDBRANCH  76  79
ENDBRANCH  74  76
ENDBRANCH  72  74
ENDBRANCH  70  71
ENDBRANCH   1  69
TORSDOF 17
ENDMDL
MODEL 5
REMARK VINA RESULT:    -6.889      3.641      8.143
REMARK INTER + INTRA:         -29.382
REMARK INTER:                 -22.136
REMARK INTRA:                  -7.246
REMARK UNBOUND:                -8.801
REMARK SMILES C=C1C(=O)N[C@H](C)C(=O)N[C@@H](CC(C)C)C(=O)N[C@@H](C(=O)O)[C@H](C)C(=O)N[C@@H](CCCN=C(N)N)C(=O)N[C@@H](/C=C/C(C)=C/[C@H](C)[C@H](Cc2ccccc2)OC)[C@H](C)C(=O)N[C@@H](C(=O)O)CCC(=O)N1C
REMARK SMILES IDX 39 1 38 2 37 3 36 4 28 6 27 7 25 8 26 9 23 11 24 12 19 13
REMARK SMILES IDX 18 14 16 15 17 16 11 18 10 19 8 20 9 21 12 24 13 25 14 26
REMARK SMILES IDX 15 27 20 28 21 29 22 30 29 32 30 33 31 34 32 35 33 36 34 37
REMARK SMILES IDX 35 38 57 43 58 44 59 45 60 46 61 47 62 49 66 50 67 51 68 52
REMARK SMILES IDX 69 53 70 54 71 55 2 56 1 57 3 58 4 59 5 60 6 62 7 63 63 65
REMARK SMILES IDX 64 66 65 67 40 69 41 70 42 71 44 72 43 73 45 74 46 75 47 76
REMARK SMILES IDX 55 77 56 78 48 79 49 80 50 81 54 82 51 83 53 84 52 85
REMARK H PARENT 38 5 27 10 18 17 10 22 22 31 34 39 34 40 35 41 35 42 61 48
REMARK H PARENT 5 61 65 68
REMARK Flexibility Score:  369.900
ROOT
ATOM      1  C   UNL     1     -11.714   3.782   8.678  1.00  0.00     0.117 C 
ENDROOT
BRANCH   1   2
ATOM      2  N   UNL     1     -12.244   2.419   8.701  1.00  0.00    -0.347 N 
ATOM      3  O   UNL     1     -12.455   2.203  10.977  1.00  0.00    -0.273 OA
ATOM      4  C   UNL     1     -12.660   1.769   9.848  1.00  0.00     0.243 C 
ATOM      5  H   UNL     1     -12.368   1.922   7.832  1.00  0.00     0.164 HD
BRANCH   4   6
ATOM      6  C   UNL     1     -13.261   0.365   9.586  1.00  0.00     0.171 C 
BRANCH   6   7
ATOM      7  N   UNL     1     -14.051   0.367   8.345  1.00  0.00    -0.344 N 
ATOM      8  C   UNL     1     -15.422   0.503   8.385  1.00  0.00     0.226 C 
ATOM      9  O   UNL     1     -16.045   0.603   9.435  1.00  0.00    -0.275 OA
ATOM     10  H   UNL     1     -13.579   0.219   7.462  1.00  0.00     0.164 HD
BRANCH   8  11
ATOM     11  C   UNL     1     -16.087   0.541   7.020  1.00  0.00     0.109 C 
ATOM     12  C   UNL     1     -16.938  -0.712   6.814  1.00  0.00     0.021 C 
BRANCH  11  13
ATOM     13  C   UNL     1     -16.843   1.874   6.846  1.00  0.00     0.204 C 
BRANCH  13  14
ATOM     14  N   UNL     1     -16.268   2.945   7.666  1.00  0.00    -0.340 N 
ATOM     15  C   UNL     1     -17.038   3.880   8.323  1.00  0.00     0.243 C 
ATOM     16  O   UNL     1     -18.268   3.844   8.318  1.00  0.00    -0.273 OA
ATOM     17  H   UNL     1     -15.263   3.122   7.589  1.00  0.00     0.164 HD
BRANCH  15  18
ATOM     18  C   UNL     1     -16.214   5.031   8.950  1.00  0.00     0.171 C 
BRANCH  18  19
ATOM     19  N   UNL     1     -16.716   6.272   8.365  1.00  0.00    -0.343 N 
ATOM     20  C   UNL     1     -15.877   7.328   8.064  1.00  0.00     0.242 CG0
ATOM     21  O   UNL     1     -14.694   7.324   8.395  1.00  0.00    -0.273 OA
ATOM     22  H   UNL     1     -17.708   6.369   8.180  1.00  0.00     0.164 HD
ATOM     23  G   UNL     1     -16.576   8.522   7.381  1.00  0.00     0.000 G0
ENDBRANCH  18  19
BRANCH  18  24
ATOM     24  C   UNL     1     -16.357   5.030  10.477  1.00  0.00     0.038 C 
BRANCH  24  25
ATOM     25  C   UNL     1     -15.475   3.994  11.206  1.00  0.00    -0.015 C 
ATOM     26  C   UNL     1     -16.299   2.970  11.987  1.00  0.00     0.007 C 
ATOM     27  C   UNL     1     -14.515   4.715  12.157  1.00  0.00     0.007 C 
ENDBRANCH  24  25
ENDBRANCH  18  24
ENDBRANCH  15  18
ENDBRANCH  13  14
BRANCH  13  28
ATOM     28  C   UNL     1     -16.863   2.371   5.398  1.00  0.00     0.327 C 
ATOM     29  O   UNL     1     -15.986   2.203   4.564  1.00  0.00    -0.250 OA
BRANCH  28  30
ATOM     30  O   UNL     1     -17.928   3.151   5.121  1.00  0.00    -0.480 OA
ATOM     31  H   UNL     1     -18.624   2.833   5.732  1.00  0.00     0.296 HD
ENDBRANCH  28  30
ENDBRANCH  13  28
ENDBRANCH  11  13
ENDBRANCH   8  11
ENDBRANCH   6   7
BRANCH   6  32
ATOM     32  C   UNL     1     -12.125  -0.662   9.510  1.00  0.00     0.037 C 
BRANCH  32  33
ATOM     33  C   UNL     1     -12.077  -1.373   8.150  1.00  0.00     0.026 C 
BRANCH  33  34
ATOM     34  C   UNL     1     -11.038  -0.764   7.208  1.00  0.00     0.146 C 
BRANCH  34  35
ATOM     35  N   UNL     1     -11.659  -0.528   5.912  1.00  0.00    -0.254 NA
ATOM     36  C   UNL     1     -10.975   0.055   4.999  1.00  0.00     0.185 C 
ATOM     37  N   UNL     1     -11.536   0.273   3.800  1.00  0.00    -0.370 N 
ATOM     38  N   UNL     1      -9.711   0.510   5.052  1.00  0.00    -0.370 N 
ATOM     39  H   UNL     1     -12.487  -0.052   3.677  1.00  0.00     0.159 HD
ATOM     40  H   UNL     1     -11.018   0.561   2.988  1.00  0.00     0.159 HD
ATOM     41  H   UNL     1      -9.330   1.077   4.312  1.00  0.00     0.159 HD
ATOM     42  H   UNL     1      -9.171   0.428   5.900  1.00  0.00     0.159 HD
ENDBRANCH  34  35
ENDBRANCH  33  34
ENDBRANCH  32  33
ENDBRANCH   6  32
ENDBRANCH   4   6
ENDBRANCH   1   2
BRANCH   1  43
ATOM     43  C   UNL     1     -12.497   4.600   7.610  1.00  0.00     0.102 C 
ATOM     44  C   UNL     1     -13.050   3.737   6.464  1.00  0.00     0.020 C 
BRANCH  43  45
ATOM     45  C   UNL     1     -11.685   5.811   7.141  1.00  0.00     0.225 C 
ATOM     46  O   UNL     1     -11.221   6.647   7.911  1.00  0.00    -0.275 OA
ATOM     47  N   UNL     1     -11.582   5.963   5.777  1.00  0.00    -0.342 N 
ATOM     48  H   UNL     1     -11.834   5.197   5.168  1.00  0.00     0.164 HD
BRANCH  47  49
ATOM     49  C   UNL     1     -10.805   7.055   5.184  1.00  0.00     0.192 C 
BRANCH  49  50
ATOM     50  C   UNL     1     -11.664   8.322   5.122  1.00  0.00     0.047 C 
BRANCH  50  51
ATOM     51  C   UNL     1     -11.075   9.466   5.958  1.00  0.00     0.103 C 
BRANCH  51  52
ATOM     52  C   UNL     1     -12.159  10.274   6.669  1.00  0.00     0.226 C 
ATOM     53  O   UNL     1     -12.245  10.230   7.897  1.00  0.00    -0.275 OA
BRANCH  52  54
ATOM     54  N   UNL     1     -12.962  11.096   5.857  1.00  0.00    -0.311 N 
ATOM     55  C   UNL     1     -12.406  11.763   4.672  1.00  0.00     0.153 C 
BRANCH  54  56
ATOM     56  C   UNL     1     -14.321  11.305   6.144  1.00  0.00     0.102 C 
ATOM     57  C   UNL     1     -14.860  12.484   6.494  1.00  0.00     0.043 C 
BRANCH  56  58
ATOM     58  C   UNL     1     -15.320  10.178   6.028  1.00  0.00     0.268 C 
ATOM     59  O   UNL     1     -15.719   9.744   4.956  1.00  0.00    -0.268 OA
ATOM     60  N   UNL     1     -15.681   9.648   7.244  1.00  0.00    -0.339 N 
ATOM     61  H   UNL     1     -15.313  10.072   8.088  1.00  0.00     0.164 HD
BRANCH  60  62
ATOM     62  C   UNL     1     -16.589   8.508   7.359  1.00  0.00     0.168 CG0
ATOM     63  C   UNL     1     -17.860   8.894   8.105  1.00  0.00     0.041 C 
ATOM     64  G   UNL     1     -15.870   7.344   8.072  1.00  0.00     0.000 G0
ENDBRANCH  60  62
ENDBRANCH  56  58
ENDBRANCH  54  56
ENDBRANCH  52  54
ENDBRANCH  51  52
ENDBRANCH  50  51
ENDBRANCH  49  50
BRANCH  49  65
ATOM     65  C   UNL     1     -10.317   6.702   3.771  1.00  0.00     0.326 C 
ATOM     66  O   UNL     1     -10.011   7.506   2.902  1.00  0.00    -0.250 OA
BRANCH  65  67
ATOM     67  O   UNL     1     -10.293   5.378   3.498  1.00  0.00    -0.480 OA
ATOM     68  H   UNL     1     -10.910   5.287   2.740  1.00  0.00     0.296 HD
ENDBRANCH  65  67
ENDBRANCH  49  65
ENDBRANCH  47  49
ENDBRANCH  43  45
ENDBRANCH   1  43
BRANCH   1  69
ATOM     69  C   UNL     1     -10.208   3.650   8.542  1.00  0.00    -0.001 C 
ATOM     70  C   UNL     1      -9.528   2.684   7.900  1.00  0.00     0.001 C 
BRANCH  70  71
ATOM     71  C   UNL     1      -8.075   2.579   7.757  1.00  0.00    -0.055 C 
ATOM     72  C   UNL     1      -7.450   3.503   6.997  1.00  0.00    -0.018 C 
ATOM     73  C   UNL     1      -7.378   1.452   8.474  1.00  0.00     0.044 C 
BRANCH  72  74
ATOM     74  C   UNL     1      -5.969   3.644   6.676  1.00  0.00     0.038 C 
ATOM     75  C   UNL     1      -5.440   4.831   7.490  1.00  0.00     0.015 C 
BRANCH  74  76
ATOM     76  C   UNL     1      -5.802   3.785   5.134  1.00  0.00     0.128 C 
BRANCH  76  77
ATOM     77  O   UNL     1      -6.657   2.846   4.460  1.00  0.00    -0.381 OA
ATOM     78  C   UNL     1      -5.957   1.764   3.861  1.00  0.00     0.195 C 
ENDBRANCH  76  77
BRANCH  76  79
ATOM     79  C   UNL     1      -5.973   5.233   4.611  1.00  0.00     0.068 C 
BRANCH  79  80
ATOM     80  C   UNL     1      -4.944   5.761   3.641  1.00  0.00    -0.045 A 
ATOM     81  C   UNL     1      -4.759   7.138   3.462  1.00  0.00     0.004 A 
ATOM     82  C   UNL     1      -4.172   4.873   2.876  1.00  0.00     0.004 A 
ATOM     83  C   UNL     1      -3.815   7.618   2.552  1.00  0.00     0.000 A 
ATOM     84  C   UNL     1      -3.229   5.354   1.966  1.00  0.00     0.000 A 
ATOM     85  C   UNL     1      -3.050   6.725   1.805  1.00  0.00     0.000 A 
ENDBRANCH  79  80
ENDBRANCH  76  79
ENDBRANCH  74  76
ENDBRANCH  72  74
ENDBRANCH  70  71
ENDBRANCH   1  69
TORSDOF 17
ENDMDL
MODEL 6
REMARK VINA RESULT:    -6.780      3.812      7.602
REMARK INTER + INTRA:         -29.056
REMARK INTER:                 -20.403
REMARK INTRA:                  -8.653
REMARK UNBOUND:                -8.801
REMARK SMILES C=C1C(=O)N[C@H](C)C(=O)N[C@@H](CC(C)C)C(=O)N[C@@H](C(=O)O)[C@H](C)C(=O)N[C@@H](CCCN=C(N)N)C(=O)N[C@@H](/C=C/C(C)=C/[C@H](C)[C@H](Cc2ccccc2)OC)[C@H](C)C(=O)N[C@@H](C(=O)O)CCC(=O)N1C
REMARK SMILES IDX 39 1 38 2 37 3 36 4 28 6 27 7 25 8 26 9 23 11 24 12 19 13
REMARK SMILES IDX 18 14 16 15 17 16 11 18 10 19 8 20 9 21 12 24 13 25 14 26
REMARK SMILES IDX 15 27 20 28 21 29 22 30 29 32 30 33 31 34 32 35 33 36 34 37
REMARK SMILES IDX 35 38 57 43 58 44 59 45 60 46 61 47 62 49 66 50 67 51 68 52
REMARK SMILES IDX 69 53 70 54 71 55 2 56 1 57 3 58 4 59 5 60 6 62 7 63 63 65
REMARK SMILES IDX 64 66 65 67 40 69 41 70 42 71 44 72 43 73 45 74 46 75 47 76
REMARK SMILES IDX 55 77 56 78 48 79 49 80 50 81 54 82 51 83 53 84 52 85
REMARK H PARENT 38 5 27 10 18 17 10 22 22 31 34 39 34 40 35 41 35 42 61 48
REMARK H PARENT 5 61 65 68
REMARK Flexibility Score:  369.900
ROOT
ATOM      1  C   UNL     1      -9.347   3.349   9.396  1.00  0.00     0.117 C 
ENDROOT
BRANCH   1   2
ATOM      2  N   UNL     1     -10.080   2.107   9.143  1.00  0.00    -0.347 N 
ATOM      3  O   UNL     1      -9.896   1.202  11.245  1.00  0.00    -0.273 OA
ATOM      4  C   UNL     1     -10.375   1.172  10.116  1.00  0.00     0.243 C 
ATOM      5  H   UNL     1     -10.443   1.927   8.219  1.00  0.00     0.164 HD
BRANCH   4   6
ATOM      6  C   UNL     1     -11.237  -0.010   9.603  1.00  0.00     0.171 C 
BRANCH   6   7
ATOM      7  N   UNL     1     -12.217   0.461   8.612  1.00  0.00    -0.344 N 
ATOM      8  C   UNL     1     -13.549   0.582   8.944  1.00  0.00     0.226 C 
ATOM      9  O   UNL     1     -13.983   0.289  10.052  1.00  0.00    -0.275 OA
ATOM     10  H   UNL     1     -11.908   0.648   7.666  1.00  0.00     0.164 HD
BRANCH   8  11
ATOM     11  C   UNL     1     -14.424   1.131   7.831  1.00  0.00     0.109 C 
ATOM     12  C   UNL     1     -14.784   0.018   6.847  1.00  0.00     0.021 C 
BRANCH  11  13
ATOM     13  C   UNL     1     -15.631   1.876   8.436  1.00  0.00     0.204 C 
BRANCH  13  14
ATOM     14  N   UNL     1     -15.224   3.074   9.177  1.00  0.00    -0.340 N 
ATOM     15  C   UNL     1     -15.953   3.587  10.228  1.00  0.00     0.243 C 
ATOM     16  O   UNL     1     -16.967   3.040  10.658  1.00  0.00    -0.273 OA
ATOM     17  H   UNL     1     -14.484   3.657   8.779  1.00  0.00     0.164 HD
BRANCH  15  18
ATOM     18  C   UNL     1     -15.446   4.966  10.718  1.00  0.00     0.171 C 
BRANCH  18  19
ATOM     19  N   UNL     1     -15.909   5.952   9.745  1.00  0.00    -0.343 N 
ATOM     20  C   UNL     1     -15.027   6.700   8.989  1.00  0.00     0.242 CG0
ATOM     21  O   UNL     1     -13.816   6.667   9.194  1.00  0.00    -0.273 OA
ATOM     22  H   UNL     1     -16.905   6.100   9.621  1.00  0.00     0.164 HD
ATOM     23  G   UNL     1     -15.701   7.631   7.960  1.00  0.00     0.000 G0
ENDBRANCH  18  19
BRANCH  18  24
ATOM     24  C   UNL     1     -15.979   5.270  12.124  1.00  0.00     0.038 C 
BRANCH  24  25
ATOM     25  C   UNL     1     -15.362   4.410  13.247  1.00  0.00    -0.015 C 
ATOM     26  C   UNL     1     -15.958   4.725  14.620  1.00  0.00     0.007 C 
ATOM     27  C   UNL     1     -13.846   4.621  13.283  1.00  0.00     0.007 C 
ENDBRANCH  24  25
ENDBRANCH  18  24
ENDBRANCH  15  18
ENDBRANCH  13  14
BRANCH  13  28
ATOM     28  C   UNL     1     -16.655   2.318   7.386  1.00  0.00     0.327 C 
ATOM     29  O   UNL     1     -17.772   1.851   7.225  1.00  0.00    -0.250 OA
BRANCH  28  30
ATOM     30  O   UNL     1     -16.170   3.238   6.528  1.00  0.00    -0.480 OA
ATOM     31  H   UNL     1     -16.711   3.122   5.719  1.00  0.00     0.296 HD
ENDBRANCH  28  30
ENDBRANCH  13  28
ENDBRANCH  11  13
ENDBRANCH   8  11
ENDBRANCH   6   7
BRANCH   6  32
ATOM     32  C   UNL     1     -10.317  -1.077   8.999  1.00  0.00     0.037 C 
BRANCH  32  33
ATOM     33  C   UNL     1     -10.728  -1.453   7.569  1.00  0.00     0.026 C 
BRANCH  33  34
ATOM     34  C   UNL     1      -9.959  -0.659   6.512  1.00  0.00     0.146 C 
BRANCH  34  35
ATOM     35  N   UNL     1     -10.862   0.305   5.899  1.00  0.00    -0.254 NA
ATOM     36  C   UNL     1     -11.507  -0.039   4.848  1.00  0.00     0.185 C 
ATOM     37  N   UNL     1     -12.346   0.840   4.278  1.00  0.00    -0.370 N 
ATOM     38  N   UNL     1     -11.479  -1.209   4.185  1.00  0.00    -0.370 N 
ATOM     39  H   UNL     1     -12.431   1.743   4.727  1.00  0.00     0.159 HD
ATOM     40  H   UNL     1     -13.011   0.592   3.565  1.00  0.00     0.159 HD
ATOM     41  H   UNL     1     -11.928  -1.311   3.289  1.00  0.00     0.159 HD
ATOM     42  H   UNL     1     -10.879  -1.958   4.492  1.00  0.00     0.159 HD
ENDBRANCH  34  35
ENDBRANCH  33  34
ENDBRANCH  32  33
ENDBRANCH   6  32
ENDBRANCH   4   6
ENDBRANCH   1   2
BRANCH   1  43
ATOM     43  C   UNL     1     -10.345   4.539   9.313  1.00  0.00     0.102 C 
ATOM     44  C   UNL     1     -11.310   4.612  10.509  1.00  0.00     0.020 C 
BRANCH  43  45
ATOM     45  C   UNL     1     -11.042   4.580   7.950  1.00  0.00     0.225 C 
ATOM     46  O   UNL     1     -12.044   3.920   7.688  1.00  0.00    -0.275 OA
ATOM     47  N   UNL     1     -10.416   5.339   6.988  1.00  0.00    -0.342 N 
ATOM     48  H   UNL     1      -9.689   5.987   7.257  1.00  0.00     0.164 HD
BRANCH  47  49
ATOM     49  C   UNL     1     -10.987   5.499   5.647  1.00  0.00     0.192 C 
BRANCH  49  50
ATOM     50  C   UNL     1     -12.291   6.296   5.735  1.00  0.00     0.047 C 
BRANCH  50  51
ATOM     51  C   UNL     1     -12.131   7.732   5.218  1.00  0.00     0.103 C 
BRANCH  51  52
ATOM     52  C   UNL     1     -12.104   8.751   6.356  1.00  0.00     0.226 C 
ATOM     53  O   UNL     1     -11.676   8.418   7.463  1.00  0.00    -0.275 OA
BRANCH  52  54
ATOM     54  N   UNL     1     -12.510  10.059   6.036  1.00  0.00    -0.311 N 
ATOM     55  C   UNL     1     -11.595  10.993   5.366  1.00  0.00     0.153 C 
BRANCH  54  56
ATOM     56  C   UNL     1     -13.803  10.519   6.337  1.00  0.00     0.102 C 
ATOM     57  C   UNL     1     -14.158  11.811   6.424  1.00  0.00     0.043 C 
BRANCH  56  58
ATOM     58  C   UNL     1     -14.941   9.548   6.550  1.00  0.00     0.268 C 
ATOM     59  O   UNL     1     -15.920   9.494   5.818  1.00  0.00    -0.268 OA
ATOM     60  N   UNL     1     -14.731   8.693   7.605  1.00  0.00    -0.339 N 
ATOM     61  H   UNL     1     -13.898   8.811   8.170  1.00  0.00     0.164 HD
BRANCH  60  62
ATOM     62  C   UNL     1     -15.678   7.633   7.949  1.00  0.00     0.168 CG0
ATOM     63  C   UNL     1     -16.991   8.216   8.458  1.00  0.00     0.041 C 
ATOM     64  G   UNL     1     -15.049   6.700   9.004  1.00  0.00     0.000 G0
ENDBRANCH  60  62
ENDBRANCH  56  58
ENDBRANCH  54  56
ENDBRANCH  52  54
ENDBRANCH  51  52
ENDBRANCH  50  51
ENDBRANCH  49  50
BRANCH  49  65
ATOM     65  C   UNL     1     -11.263   4.141   4.983  1.00  0.00     0.326 C 
ATOM     66  O   UNL     1     -12.208   3.888   4.249  1.00  0.00    -0.250 OA
BRANCH  65  67
ATOM     67  O   UNL     1     -10.391   3.163   5.314  1.00  0.00    -0.480 OA
ATOM     68  H   UNL     1      -9.532   3.633   5.381  1.00  0.00     0.296 HD
ENDBRANCH  65  67
ENDBRANCH  49  65
ENDBRANCH  47  49
ENDBRANCH  43  45
ENDBRANCH   1  43
BRANCH   1  69
ATOM     69  C   UNL     1      -8.149   3.331   8.464  1.00  0.00    -0.001 C 
ATOM     70  C   UNL     1      -7.191   4.267   8.347  1.00  0.00     0.001 C 
BRANCH  70  71
ATOM     71  C   UNL     1      -6.027   4.229   7.458  1.00  0.00    -0.055 C 
ATOM     72  C   UNL     1      -6.123   4.862   6.270  1.00  0.00    -0.018 C 
ATOM     73  C   UNL     1      -4.803   3.493   7.937  1.00  0.00     0.044 C 
BRANCH  72  74
ATOM     74  C   UNL     1      -5.089   4.991   5.161  1.00  0.00     0.038 C 
ATOM     75  C   UNL     1      -4.733   6.478   5.045  1.00  0.00     0.015 C 
BRANCH  74  76
ATOM     76  C   UNL     1      -5.665   4.354   3.862  1.00  0.00     0.128 C 
BRANCH  76  77
ATOM     77  O   UNL     1      -4.864   3.227   3.470  1.00  0.00    -0.381 OA
ATOM     78  C   UNL     1      -5.624   2.072   3.144  1.00  0.00     0.195 C 
ENDBRANCH  76  77
BRANCH  76  79
ATOM     79  C   UNL     1      -7.175   4.017   3.943  1.00  0.00     0.068 C 
BRANCH  79  80
ATOM     80  C   UNL     1      -8.146   4.953   3.266  1.00  0.00    -0.045 A 
ATOM     81  C   UNL     1      -9.007   4.496   2.259  1.00  0.00     0.004 A 
ATOM     82  C   UNL     1      -8.182   6.311   3.618  1.00  0.00     0.004 A 
ATOM     83  C   UNL     1      -9.893   5.372   1.627  1.00  0.00     0.000 A 
ATOM     84  C   UNL     1      -9.067   7.186   2.985  1.00  0.00     0.000 A 
ATOM     85  C   UNL     1      -9.923   6.717   1.992  1.00  0.00     0.000 A 
ENDBRANCH  79  80
ENDBRANCH  76  79
ENDBRANCH  74  76
ENDBRANCH  72  74
ENDBRANCH  70  71
ENDBRANCH   1  69
TORSDOF 17
ENDMDL
MODEL 7
REMARK VINA RESULT:    -6.767      2.465      4.291
REMARK INTER + INTRA:         -29.020
REMARK INTER:                 -22.774
REMARK INTRA:                  -6.246
REMARK UNBOUND:                -8.801
REMARK SMILES C=C1C(=O)N[C@H](C)C(=O)N[C@@H](CC(C)C)C(=O)N[C@@H](C(=O)O)[C@H](C)C(=O)N[C@@H](CCCN=C(N)N)C(=O)N[C@@H](/C=C/C(C)=C/[C@H](C)[C@H](Cc2ccccc2)OC)[C@H](C)C(=O)N[C@@H](C(=O)O)CCC(=O)N1C
REMARK SMILES IDX 39 1 38 2 37 3 36 4 28 6 27 7 25 8 26 9 23 11 24 12 19 13
REMARK SMILES IDX 18 14 16 15 17 16 11 18 10 19 8 20 9 21 12 24 13 25 14 26
REMARK SMILES IDX 15 27 20 28 21 29 22 30 29 32 30 33 31 34 32 35 33 36 34 37
REMARK SMILES IDX 35 38 57 43 58 44 59 45 60 46 61 47 62 49 66 50 67 51 68 52
REMARK SMILES IDX 69 53 70 54 71 55 2 56 1 57 3 58 4 59 5 60 6 62 7 63 63 65
REMARK SMILES IDX 64 66 65 67 40 69 41 70 42 71 44 72 43 73 45 74 46 75 47 76
REMARK SMILES IDX 55 77 56 78 48 79 49 80 50 81 54 82 51 83 53 84 52 85
REMARK H PARENT 38 5 27 10 18 17 10 22 22 31 34 39 34 40 35 41 35 42 61 48
REMARK H PARENT 5 61 65 68
REMARK Flexibility Score:  369.900
ROOT
ATOM      1  C   UNL     1     -13.637   3.008   6.574  1.00  0.00     0.117 C 
ENDROOT
BRANCH   1   2
ATOM      2  N   UNL     1     -14.696   3.368   7.518  1.00  0.00    -0.347 N 
ATOM      3  O   UNL     1     -16.481   3.110   6.098  1.00  0.00    -0.273 OA
ATOM      4  C   UNL     1     -16.045   3.301   7.228  1.00  0.00     0.243 C 
ATOM      5  H   UNL     1     -14.450   3.636   8.459  1.00  0.00     0.164 HD
BRANCH   4   6
ATOM      6  C   UNL     1     -16.959   3.653   8.430  1.00  0.00     0.171 C 
BRANCH   6   7
ATOM      7  N   UNL     1     -16.713   2.730   9.550  1.00  0.00    -0.344 N 
ATOM      8  C   UNL     1     -17.303   1.485   9.577  1.00  0.00     0.226 C 
ATOM      9  O   UNL     1     -18.065   1.097   8.699  1.00  0.00    -0.275 OA
ATOM     10  H   UNL     1     -16.143   3.042  10.326  1.00  0.00     0.164 HD
BRANCH   8  11
ATOM     11  C   UNL     1     -16.908   0.632  10.769  1.00  0.00     0.109 C 
ATOM     12  C   UNL     1     -15.679   1.226  11.458  1.00  0.00     0.021 C 
BRANCH  11  13
ATOM     13  C   UNL     1     -18.129   0.423  11.688  1.00  0.00     0.204 C 
BRANCH  13  14
ATOM     14  N   UNL     1     -19.056  -0.580  11.155  1.00  0.00    -0.340 N 
ATOM     15  C   UNL     1     -20.345  -0.279  10.772  1.00  0.00     0.243 C 
ATOM     16  O   UNL     1     -20.790   0.868  10.795  1.00  0.00    -0.273 OA
ATOM     17  H   UNL     1     -18.803  -1.567  11.251  1.00  0.00     0.164 HD
BRANCH  15  18
ATOM     18  C   UNL     1     -21.199  -1.527  10.440  1.00  0.00     0.171 C 
BRANCH  18  19
ATOM     19  N   UNL     1     -20.304  -2.489   9.800  1.00  0.00    -0.343 N 
ATOM     20  C   UNL     1     -20.710  -3.263   8.731  1.00  0.00     0.242 CG0
ATOM     21  O   UNL     1     -21.880  -3.276   8.353  1.00  0.00    -0.273 OA
ATOM     22  H   UNL     1     -19.359  -2.598  10.152  1.00  0.00     0.164 HD
ATOM     23  G   UNL     1     -19.605  -4.161   8.139  1.00  0.00     0.000 G0
ENDBRANCH  18  19
BRANCH  18  24
ATOM     24  C   UNL     1     -21.830  -2.106  11.713  1.00  0.00     0.038 C 
BRANCH  24  25
ATOM     25  C   UNL     1     -20.968  -3.163  12.435  1.00  0.00    -0.015 C 
ATOM     26  C   UNL     1     -21.674  -4.514  12.552  1.00  0.00     0.007 C 
ATOM     27  C   UNL     1     -20.594  -2.655  13.830  1.00  0.00     0.007 C 
ENDBRANCH  24  25
ENDBRANCH  18  24
ENDBRANCH  15  18
ENDBRANCH  13  14
BRANCH  13  28
ATOM     28  C   UNL     1     -17.749  -0.018  13.105  1.00  0.00     0.327 C 
ATOM     29  O   UNL     1     -17.247  -1.086  13.419  1.00  0.00    -0.250 OA
BRANCH  28  30
ATOM     30  O   UNL     1     -18.132   0.862  14.053  1.00  0.00    -0.480 OA
ATOM     31  H   UNL     1     -18.798   0.373  14.580  1.00  0.00     0.296 HD
ENDBRANCH  28  30
ENDBRANCH  13  28
ENDBRANCH  11  13
ENDBRANCH   8  11
ENDBRANCH   6   7
BRANCH   6  32
ATOM     32  C   UNL     1     -16.701   5.104   8.850  1.00  0.00     0.037 C 
BRANCH  32  33
ATOM     33  C   UNL     1     -17.480   6.105   7.985  1.00  0.00     0.026 C 
BRANCH  33  34
ATOM     34  C   UNL     1     -17.709   7.439   8.696  1.00  0.00     0.146 C 
BRANCH  34  35
ATOM     35  N   UNL     1     -18.510   8.299   7.835  1.00  0.00    -0.254 NA
ATOM     36  C   UNL     1     -17.916   9.192   7.135  1.00  0.00     0.185 C 
ATOM     37  N   UNL     1     -18.644   9.987   6.335  1.00  0.00    -0.370 N 
ATOM     38  N   UNL     1     -16.604   9.480   7.069  1.00  0.00    -0.370 N 
ATOM     39  H   UNL     1     -19.643   9.825   6.321  1.00  0.00     0.159 HD
ATOM     40  H   UNL     1     -18.244  10.586   5.633  1.00  0.00     0.159 HD
ATOM     41  H   UNL     1     -16.274  10.299   6.586  1.00  0.00     0.159 HD
ATOM     42  H   UNL     1     -15.939   8.971   7.631  1.00  0.00     0.159 HD
ENDBRANCH  34  35
ENDBRANCH  33  34
ENDBRANCH  32  33
ENDBRANCH   6  32
ENDBRANCH   4   6
ENDBRANCH   1   2
BRANCH   1  43
ATOM     43  C   UNL     1     -13.017   1.652   7.018  1.00  0.00     0.102 C 
ATOM     44  C   UNL     1     -13.300   1.302   8.489  1.00  0.00     0.020 C 
BRANCH  43  45
ATOM     45  C   UNL     1     -11.537   1.571   6.634  1.00  0.00     0.225 C 
ATOM     46  O   UNL     1     -11.150   1.198   5.530  1.00  0.00    -0.275 OA
ATOM     47  N   UNL     1     -10.646   1.857   7.643  1.00  0.00    -0.342 N 
ATOM     48  H   UNL     1     -10.974   2.304   8.488  1.00  0.00     0.164 HD
BRANCH  47  49
ATOM     49  C   UNL     1      -9.199   1.854   7.411  1.00  0.00     0.192 C 
BRANCH  49  50
ATOM     50  C   UNL     1      -8.887   2.580   6.100  1.00  0.00     0.047 C 
BRANCH  50  51
ATOM     51  C   UNL     1      -7.391   2.888   5.946  1.00  0.00     0.103 C 
BRANCH  51  52
ATOM     52  C   UNL     1      -6.868   2.513   4.561  1.00  0.00     0.226 C 
ATOM     53  O   UNL     1      -6.484   1.362   4.344  1.00  0.00    -0.275 OA
BRANCH  52  54
ATOM     54  N   UNL     1      -6.930   3.516   3.575  1.00  0.00    -0.311 N 
ATOM     55  C   UNL     1      -7.829   3.386   2.421  1.00  0.00     0.153 C 
BRANCH  54  56
ATOM     56  C   UNL     1      -6.143   4.676   3.660  1.00  0.00     0.102 C 
ATOM     57  C   UNL     1      -6.525   5.823   4.244  1.00  0.00     0.043 C 
BRANCH  56  58
ATOM     58  C   UNL     1      -4.734   4.698   3.115  1.00  0.00     0.268 C 
ATOM     59  O   UNL     1      -4.018   3.707   3.069  1.00  0.00    -0.268 OA
ATOM     60  N   UNL     1      -4.367   5.925   2.617  1.00  0.00    -0.339 N 
ATOM     61  H   UNL     1      -5.014   6.700   2.702  1.00  0.00     0.164 HD
BRANCH  60  62
ATOM     62  C   UNL     1      -3.067   6.153   1.985  1.00  0.00     0.168 CG0
ATOM     63  C   UNL     1      -3.229   6.494   0.509  1.00  0.00     0.041 C 
ATOM     64  G   UNL     1      -2.181   4.903   2.163  1.00  0.00     0.000 G0
ENDBRANCH  60  62
ENDBRANCH  56  58
ENDBRANCH  54  56
ENDBRANCH  52  54
ENDBRANCH  51  52
ENDBRANCH  50  51
ENDBRANCH  49  50
BRANCH  49  65
ATOM     65  C   UNL     1      -8.637   0.425   7.347  1.00  0.00     0.326 C 
ATOM     66  O   UNL     1      -8.188  -0.205   8.293  1.00  0.00    -0.250 OA
BRANCH  65  67
ATOM     67  O   UNL     1      -8.609  -0.115   6.109  1.00  0.00    -0.480 OA
ATOM     68  H   UNL     1      -8.267  -1.022   6.259  1.00  0.00     0.296 HD
ENDBRANCH  65  67
ENDBRANCH  49  65
ENDBRANCH  47  49
ENDBRANCH  43  45
ENDBRANCH   1  43
BRANCH   1  69
ATOM     69  C   UNL     1     -12.736   4.225   6.464  1.00  0.00    -0.001 C 
ATOM     70  C   UNL     1     -12.340   5.041   7.457  1.00  0.00     0.001 C 
BRANCH  70  71
ATOM     71  C   UNL     1     -11.453   6.200   7.342  1.00  0.00    -0.055 C 
ATOM     72  C   UNL     1     -12.023   7.421   7.258  1.00  0.00    -0.018 C 
ATOM     73  C   UNL     1      -9.968   5.950   7.334  1.00  0.00     0.044 C 
BRANCH  72  74
ATOM     74  C   UNL     1     -11.362   8.786   7.135  1.00  0.00     0.038 C 
ATOM     75  C   UNL     1     -12.175   9.762   7.994  1.00  0.00     0.015 C 
BRANCH  74  76
ATOM     76  C   UNL     1     -11.270   9.164   5.627  1.00  0.00     0.128 C 
BRANCH  76  77
ATOM     77  O   UNL     1     -11.422  10.585   5.467  1.00  0.00    -0.381 OA
ATOM     78  C   UNL     1     -10.353  11.197   4.757  1.00  0.00     0.195 C 
ENDBRANCH  76  77
BRANCH  76  79
ATOM     79  C   UNL     1     -10.009   8.612   4.915  1.00  0.00     0.068 C 
BRANCH  79  80
ATOM     80  C   UNL     1     -10.207   7.603   3.810  1.00  0.00    -0.045 A 
ATOM     81  C   UNL     1      -9.344   7.563   2.707  1.00  0.00     0.004 A 
ATOM     82  C   UNL     1     -11.281   6.702   3.858  1.00  0.00     0.004 A 
ATOM     83  C   UNL     1      -9.542   6.635   1.681  1.00  0.00     0.000 A 
ATOM     84  C   UNL     1     -11.479   5.776   2.832  1.00  0.00     0.000 A 
ATOM     85  C   UNL     1     -10.608   5.741   1.745  1.00  0.00     0.000 A 
ENDBRANCH  79  80
ENDBRANCH  76  79
ENDBRANCH  74  76
ENDBRANCH  72  74
ENDBRANCH  70  71
ENDBRANCH   1  69
TORSDOF 17
ENDMDL
MODEL 8
REMARK VINA RESULT:    -6.695      3.361      7.514
REMARK INTER + INTRA:         -28.805
REMARK INTER:                 -22.489
REMARK INTRA:                  -6.316
REMARK UNBOUND:                -8.801
REMARK SMILES C=C1C(=O)N[C@H](C)C(=O)N[C@@H](CC(C)C)C(=O)N[C@@H](C(=O)O)[C@H](C)C(=O)N[C@@H](CCCN=C(N)N)C(=O)N[C@@H](/C=C/C(C)=C/[C@H](C)[C@H](Cc2ccccc2)OC)[C@H](C)C(=O)N[C@@H](C(=O)O)CCC(=O)N1C
REMARK SMILES IDX 39 1 38 2 37 3 36 4 28 6 27 7 25 8 26 9 23 11 24 12 19 13
REMARK SMILES IDX 18 14 16 15 17 16 11 18 10 19 8 20 9 21 12 24 13 25 14 26
REMARK SMILES IDX 15 27 20 28 21 29 22 30 29 32 30 33 31 34 32 35 33 36 34 37
REMARK SMILES IDX 35 38 57 43 58 44 59 45 60 46 61 47 62 49 66 50 67 51 68 52
REMARK SMILES IDX 69 53 70 54 71 55 2 56 1 57 3 58 4 59 5 60 6 62 7 63 63 65
REMARK SMILES IDX 64 66 65 67 40 69 41 70 42 71 44 72 43 73 45 74 46 75 47 76
REMARK SMILES IDX 55 77 56 78 48 79 49 80 50 81 54 82 51 83 53 84 52 85
REMARK H PARENT 38 5 27 10 18 17 10 22 22 31 34 39 34 40 35 41 35 42 61 48
REMARK H PARENT 5 61 65 68
REMARK Flexibility Score:  369.900
ROOT
ATOM      1  C   UNL     1     -11.617   7.159   7.938  1.00  0.00     0.117 C 
ENDROOT
BRANCH   1   2
ATOM      2  N   UNL     1     -13.021   6.744   7.932  1.00  0.00    -0.347 N 
ATOM      3  O   UNL     1     -13.141   6.018  10.106  1.00  0.00    -0.273 OA
ATOM      4  C   UNL     1     -13.697   6.290   9.048  1.00  0.00     0.243 C 
ATOM      5  H   UNL     1     -13.559   6.833   7.084  1.00  0.00     0.164 HD
BRANCH   4   6
ATOM      6  C   UNL     1     -15.198   5.998   8.791  1.00  0.00     0.171 C 
BRANCH   6   7
ATOM      7  N   UNL     1     -15.501   4.585   9.066  1.00  0.00    -0.344 N 
ATOM      8  C   UNL     1     -16.495   3.931   8.371  1.00  0.00     0.226 C 
ATOM      9  O   UNL     1     -17.180   4.486   7.519  1.00  0.00    -0.275 OA
ATOM     10  H   UNL     1     -15.003   4.112   9.810  1.00  0.00     0.164 HD
BRANCH   8  11
ATOM     11  C   UNL     1     -16.650   2.464   8.731  1.00  0.00     0.109 C 
ATOM     12  C   UNL     1     -18.059   2.199   9.261  1.00  0.00     0.021 C 
BRANCH  11  13
ATOM     13  C   UNL     1     -16.231   1.586   7.535  1.00  0.00     0.204 C 
BRANCH  13  14
ATOM     14  N   UNL     1     -15.040   0.784   7.830  1.00  0.00    -0.340 N 
ATOM     15  C   UNL     1     -13.768   1.315   7.858  1.00  0.00     0.243 C 
ATOM     16  O   UNL     1     -13.550   2.514   7.697  1.00  0.00    -0.273 OA
ATOM     17  H   UNL     1     -15.133  -0.236   7.823  1.00  0.00     0.164 HD
BRANCH  15  18
ATOM     18  C   UNL     1     -12.654   0.246   7.983  1.00  0.00     0.171 C 
BRANCH  18  19
ATOM     19  N   UNL     1     -11.942   0.233   6.707  1.00  0.00    -0.343 N 
ATOM     20  C   UNL     1     -12.036  -0.830   5.831  1.00  0.00     0.242 CG0
ATOM     21  O   UNL     1     -12.615  -1.869   6.140  1.00  0.00    -0.273 OA
ATOM     22  H   UNL     1     -11.356   1.022   6.457  1.00  0.00     0.164 HD
ATOM     23  G   UNL     1     -11.278  -0.629   4.502  1.00  0.00     0.000 G0
ENDBRANCH  18  19
BRANCH  18  24
ATOM     24  C   UNL     1     -11.714   0.578   9.149  1.00  0.00     0.038 C 
BRANCH  24  25
ATOM     25  C   UNL     1     -11.047  -0.648   9.807  1.00  0.00    -0.015 C 
ATOM     26  C   UNL     1      -9.774  -1.083   9.080  1.00  0.00     0.007 C 
ATOM     27  C   UNL     1     -12.039  -1.813   9.850  1.00  0.00     0.007 C 
ENDBRANCH  24  25
ENDBRANCH  18  24
ENDBRANCH  15  18
ENDBRANCH  13  14
BRANCH  13  28
ATOM     28  C   UNL     1     -17.329   0.618   7.083  1.00  0.00     0.327 C 
ATOM     29  O   UNL     1     -17.911  -0.194   7.786  1.00  0.00    -0.250 OA
BRANCH  28  30
ATOM     30  O   UNL     1     -17.544   0.647   5.752  1.00  0.00    -0.480 OA
ATOM     31  H   UNL     1     -17.865   1.557   5.580  1.00  0.00     0.296 HD
ENDBRANCH  28  30
ENDBRANCH  13  28
ENDBRANCH  11  13
ENDBRANCH   8  11
ENDBRANCH   6   7
BRANCH   6  32
ATOM     32  C   UNL     1     -16.048   6.922   9.670  1.00  0.00     0.037 C 
BRANCH  32  33
ATOM     33  C   UNL     1     -17.261   7.484   8.915  1.00  0.00     0.026 C 
BRANCH  33  34
ATOM     34  C   UNL     1     -16.859   8.329   7.706  1.00  0.00     0.146 C 
BRANCH  34  35
ATOM     35  N   UNL     1     -18.045   8.987   7.177  1.00  0.00    -0.254 NA
ATOM     36  C   UNL     1     -17.905   9.838   6.230  1.00  0.00     0.185 C 
ATOM     37  N   UNL     1     -18.992  10.447   5.732  1.00  0.00    -0.370 N 
ATOM     38  N   UNL     1     -16.778  10.244   5.619  1.00  0.00    -0.370 N 
ATOM     39  H   UNL     1     -19.883  10.186   6.134  1.00  0.00     0.159 HD
ATOM     40  H   UNL     1     -18.987  10.988   4.884  1.00  0.00     0.159 HD
ATOM     41  H   UNL     1     -16.782  11.024   4.982  1.00  0.00     0.159 HD
ATOM     42  H   UNL     1     -15.881   9.881   5.903  1.00  0.00     0.159 HD
ENDBRANCH  34  35
ENDBRANCH  33  34
ENDBRANCH  32  33
ENDBRANCH   6  32
ENDBRANCH   4   6
ENDBRANCH   1   2
BRANCH   1  43
ATOM     43  C   UNL     1     -11.461   8.389   6.997  1.00  0.00     0.102 C 
ATOM     44  C   UNL     1     -12.661   9.349   7.041  1.00  0.00     0.020 C 
BRANCH  43  45
ATOM     45  C   UNL     1     -11.066   7.953   5.583  1.00  0.00     0.225 C 
ATOM     46  O   UNL     1     -11.809   7.310   4.847  1.00  0.00    -0.275 OA
ATOM     47  N   UNL     1      -9.773   8.247   5.212  1.00  0.00    -0.342 N 
ATOM     48  H   UNL     1      -9.232   8.900   5.760  1.00  0.00     0.164 HD
BRANCH  47  49
ATOM     49  C   UNL     1      -9.267   7.922   3.875  1.00  0.00     0.192 C 
BRANCH  49  50
ATOM     50  C   UNL     1      -8.556   6.567   3.910  1.00  0.00     0.047 C 
BRANCH  50  51
ATOM     51  C   UNL     1      -8.723   5.788   2.597  1.00  0.00     0.103 C 
BRANCH  51  52
ATOM     52  C   UNL     1     -10.033   5.005   2.557  1.00  0.00     0.226 C 
ATOM     53  O   UNL     1     -11.072   5.572   2.213  1.00  0.00    -0.275 OA
BRANCH  52  54
ATOM     54  N   UNL     1      -9.952   3.631   2.852  1.00  0.00    -0.311 N 
ATOM     55  C   UNL     1      -9.236   2.708   1.961  1.00  0.00     0.153 C 
BRANCH  54  56
ATOM     56  C   UNL     1     -10.544   3.094   4.007  1.00  0.00     0.102 C 
ATOM     57  C   UNL     1     -11.409   3.745   4.801  1.00  0.00     0.043 C 
BRANCH  56  58
ATOM     58  C   UNL     1     -10.269   1.669   4.427  1.00  0.00     0.268 C 
ATOM     59  O   UNL     1      -9.253   1.329   5.019  1.00  0.00    -0.268 OA
ATOM     60  N   UNL     1     -11.303   0.811   4.137  1.00  0.00    -0.339 N 
ATOM     61  H   UNL     1     -12.107   1.170   3.635  1.00  0.00     0.164 HD
BRANCH  60  62
ATOM     62  C   UNL     1     -11.273  -0.601   4.513  1.00  0.00     0.168 CG0
ATOM     63  C   UNL     1     -11.855  -1.474   3.408  1.00  0.00     0.041 C 
ATOM     64  G   UNL     1     -12.047  -0.802   5.832  1.00  0.00     0.000 G0
ENDBRANCH  60  62
ENDBRANCH  56  58
ENDBRANCH  54  56
ENDBRANCH  52  54
ENDBRANCH  51  52
ENDBRANCH  50  51
ENDBRANCH  49  50
BRANCH  49  65
ATOM     65  C   UNL     1      -8.294   8.994   3.361  1.00  0.00     0.326 C 
ATOM     66  O   UNL     1      -7.581   8.892   2.374  1.00  0.00    -0.250 OA
BRANCH  65  67
ATOM     67  O   UNL     1      -8.217  10.101   4.132  1.00  0.00    -0.480 OA
ATOM     68  H   UNL     1      -9.006  10.035   4.712  1.00  0.00     0.296 HD
ENDBRANCH  65  67
ENDBRANCH  49  65
ENDBRANCH  47  49
ENDBRANCH  43  45
ENDBRANCH   1  43
BRANCH   1  69
ATOM     69  C   UNL     1     -10.805   5.909   7.652  1.00  0.00    -0.001 C 
ATOM     70  C   UNL     1      -9.603   5.582   8.160  1.00  0.00     0.001 C 
BRANCH  70  71
ATOM     71  C   UNL     1      -8.838   4.363   7.894  1.00  0.00    -0.055 C 
ATOM     72  C   UNL     1      -7.698   4.480   7.181  1.00  0.00    -0.018 C 
ATOM     73  C   UNL     1      -9.372   3.065   8.441  1.00  0.00     0.044 C 
BRANCH  72  74
ATOM     74  C   UNL     1      -6.710   3.402   6.760  1.00  0.00     0.038 C 
ATOM     75  C   UNL     1      -5.777   3.152   7.951  1.00  0.00     0.015 C 
BRANCH  74  76
ATOM     76  C   UNL     1      -5.994   3.861   5.455  1.00  0.00     0.128 C 
BRANCH  76  77
ATOM     77  O   UNL     1      -6.706   3.372   4.306  1.00  0.00    -0.381 OA
ATOM     78  C   UNL     1      -6.244   2.110   3.842  1.00  0.00     0.195 C 
ENDBRANCH  76  77
BRANCH  76  79
ATOM     79  C   UNL     1      -5.723   5.385   5.388  1.00  0.00     0.068 C 
BRANCH  79  80
ATOM     80  C   UNL     1      -4.855   5.900   4.266  1.00  0.00    -0.045 A 
ATOM     81  C   UNL     1      -4.395   5.044   3.257  1.00  0.00     0.004 A 
ATOM     82  C   UNL     1      -4.469   7.249   4.233  1.00  0.00     0.004 A 
ATOM     83  C   UNL     1      -3.580   5.526   2.231  1.00  0.00     0.000 A 
ATOM     84  C   UNL     1      -3.654   7.730   3.206  1.00  0.00     0.000 A 
ATOM     85  C   UNL     1      -3.211   6.869   2.205  1.00  0.00     0.000 A 
ENDBRANCH  79  80
ENDBRANCH  76  79
ENDBRANCH  74  76
ENDBRANCH  72  74
ENDBRANCH  70  71
ENDBRANCH   1  69
TORSDOF 17
ENDMDL
MODEL 9
REMARK VINA RESULT:    -6.611      2.198      3.233
REMARK INTER + INTRA:         -28.552
REMARK INTER:                 -21.353
REMARK INTRA:                  -7.199
REMARK UNBOUND:                -8.801
REMARK SMILES C=C1C(=O)N[C@H](C)C(=O)N[C@@H](CC(C)C)C(=O)N[C@@H](C(=O)O)[C@H](C)C(=O)N[C@@H](CCCN=C(N)N)C(=O)N[C@@H](/C=C/C(C)=C/[C@H](C)[C@H](Cc2ccccc2)OC)[C@H](C)C(=O)N[C@@H](C(=O)O)CCC(=O)N1C
REMARK SMILES IDX 39 1 38 2 37 3 36 4 28 6 27 7 25 8 26 9 23 11 24 12 19 13
REMARK SMILES IDX 18 14 16 15 17 16 11 18 10 19 8 20 9 21 12 24 13 25 14 26
REMARK SMILES IDX 15 27 20 28 21 29 22 30 29 32 30 33 31 34 32 35 33 36 34 37
REMARK SMILES IDX 35 38 57 43 58 44 59 45 60 46 61 47 62 49 66 50 67 51 68 52
REMARK SMILES IDX 69 53 70 54 71 55 2 56 1 57 3 58 4 59 5 60 6 62 7 63 63 65
REMARK SMILES IDX 64 66 65 67 40 69 41 70 42 71 44 72 43 73 45 74 46 75 47 76
REMARK SMILES IDX 55 77 56 78 48 79 49 80 50 81 54 82 51 83 53 84 52 85
REMARK H PARENT 38 5 27 10 18 17 10 22 22 31 34 39 34 40 35 41 35 42 61 48
REMARK H PARENT 5 61 65 68
REMARK Flexibility Score:  369.900
ROOT
ATOM      1  C   UNL     1     -12.121   2.334   4.692  1.00  0.00     0.117 C 
ENDROOT
BRANCH   1   2
ATOM      2  N   UNL     1     -12.968   2.924   5.730  1.00  0.00    -0.347 N 
ATOM      3  O   UNL     1     -15.003   2.326   4.852  1.00  0.00    -0.273 OA
ATOM      4  C   UNL     1     -14.342   2.793   5.774  1.00  0.00     0.243 C 
ATOM      5  H   UNL     1     -12.538   3.420   6.496  1.00  0.00     0.164 HD
BRANCH   4   6
ATOM      6  C   UNL     1     -14.990   3.440   7.024  1.00  0.00     0.171 C 
BRANCH   6   7
ATOM      7  N   UNL     1     -15.282   2.416   8.040  1.00  0.00    -0.344 N 
ATOM      8  C   UNL     1     -16.583   2.060   8.325  1.00  0.00     0.226 C 
ATOM      9  O   UNL     1     -17.546   2.582   7.776  1.00  0.00    -0.275 OA
ATOM     10  H   UNL     1     -14.516   2.011   8.563  1.00  0.00     0.164 HD
BRANCH   8  11
ATOM     11  C   UNL     1     -16.716   0.952   9.356  1.00  0.00     0.109 C 
ATOM     12  C   UNL     1     -15.339   0.568   9.896  1.00  0.00     0.021 C 
BRANCH  11  13
ATOM     13  C   UNL     1     -17.743   1.361  10.430  1.00  0.00     0.204 C 
BRANCH  13  14
ATOM     14  N   UNL     1     -18.698   0.286  10.718  1.00  0.00    -0.340 N 
ATOM     15  C   UNL     1     -19.970   0.253  10.189  1.00  0.00     0.243 C 
ATOM     16  O   UNL     1     -20.374   1.094   9.388  1.00  0.00    -0.273 OA
ATOM     17  H   UNL     1     -18.483  -0.355  11.487  1.00  0.00     0.164 HD
BRANCH  15  18
ATOM     18  C   UNL     1     -20.863  -0.857  10.794  1.00  0.00     0.171 C 
BRANCH  18  19
ATOM     19  N   UNL     1     -20.561  -2.084  10.060  1.00  0.00    -0.343 N 
ATOM     20  C   UNL     1     -21.542  -2.798   9.398  1.00  0.00     0.242 CG0
ATOM     21  O   UNL     1     -22.731  -2.509   9.505  1.00  0.00    -0.273 OA
ATOM     22  H   UNL     1     -19.608  -2.429  10.038  1.00  0.00     0.164 HD
ATOM     23  G   UNL     1     -21.021  -4.020   8.614  1.00  0.00     0.000 G0
ENDBRANCH  18  19
BRANCH  18  24
ATOM     24  C   UNL     1     -20.587  -1.017  12.294  1.00  0.00     0.038 C 
BRANCH  24  25
ATOM     25  C   UNL     1     -20.801  -2.445  12.841  1.00  0.00    -0.015 C 
ATOM     26  C   UNL     1     -21.938  -2.516  13.861  1.00  0.00     0.007 C 
ATOM     27  C   UNL     1     -19.505  -2.953  13.477  1.00  0.00     0.007 C 
ENDBRANCH  24  25
ENDBRANCH  18  24
ENDBRANCH  15  18
ENDBRANCH  13  14
BRANCH  13  28
ATOM     28  C   UNL     1     -17.098   1.763  11.760  1.00  0.00     0.327 C 
ATOM     29  O   UNL     1     -16.729   2.884  12.075  1.00  0.00    -0.250 OA
BRANCH  28  30
ATOM     30  O   UNL     1     -16.848   0.711  12.566  1.00  0.00    -0.480 OA
ATOM     31  H   UNL     1     -17.718   0.498  12.962  1.00  0.00     0.296 HD
ENDBRANCH  28  30
ENDBRANCH  13  28
ENDBRANCH  11  13
ENDBRANCH   8  11
ENDBRANCH   6   7
BRANCH   6  32
ATOM     32  C   UNL     1     -14.048   4.512   7.582  1.00  0.00     0.037 C 
BRANCH  32  33
ATOM     33  C   UNL     1     -13.692   4.260   9.054  1.00  0.00     0.026 C 
BRANCH  33  34
ATOM     34  C   UNL     1     -12.192   4.388   9.324  1.00  0.00     0.146 C 
BRANCH  34  35
ATOM     35  N   UNL     1     -11.793   3.347  10.261  1.00  0.00    -0.254 NA
ATOM     36  C   UNL     1     -11.310   3.693  11.396  1.00  0.00     0.185 C 
ATOM     37  N   UNL     1     -10.944   2.742  12.269  1.00  0.00    -0.370 N 
ATOM     38  N   UNL     1     -11.099   4.929  11.882  1.00  0.00    -0.370 N 
ATOM     39  H   UNL     1     -11.082   1.782  11.979  1.00  0.00     0.159 HD
ATOM     40  H   UNL     1     -10.723   2.927  13.232  1.00  0.00     0.159 HD
ATOM     41  H   UNL     1     -10.583   5.073  12.734  1.00  0.00     0.159 HD
ATOM     42  H   UNL     1     -11.314   5.742  11.326  1.00  0.00     0.159 HD
ENDBRANCH  34  35
ENDBRANCH  33  34
ENDBRANCH  32  33
ENDBRANCH   6  32
ENDBRANCH   4   6
ENDBRANCH   1   2
BRANCH   1  43
ATOM     43  C   UNL     1     -11.368   1.116   5.300  1.00  0.00     0.102 C 
ATOM     44  C   UNL     1     -12.018  -0.236   4.962  1.00  0.00     0.020 C 
BRANCH  43  45
ATOM     45  C   UNL     1     -11.106   1.322   6.795  1.00  0.00     0.225 C 
ATOM     46  O   UNL     1     -11.972   1.184   7.654  1.00  0.00    -0.275 OA
ATOM     47  N   UNL     1      -9.845   1.770   7.119  1.00  0.00    -0.342 N 
ATOM     48  H   UNL     1      -9.109   1.733   6.428  1.00  0.00     0.164 HD
BRANCH  47  49
ATOM     49  C   UNL     1      -9.441   1.978   8.512  1.00  0.00     0.192 C 
BRANCH  49  50
ATOM     50  C   UNL     1      -8.075   2.669   8.554  1.00  0.00     0.047 C 
BRANCH  50  51
ATOM     51  C   UNL     1      -8.196   4.187   8.737  1.00  0.00     0.103 C 
BRANCH  51  52
ATOM     52  C   UNL     1      -7.969   4.943   7.429  1.00  0.00     0.226 C 
ATOM     53  O   UNL     1      -8.812   5.751   7.037  1.00  0.00    -0.275 OA
BRANCH  52  54
ATOM     54  N   UNL     1      -6.742   4.715   6.779  1.00  0.00    -0.311 N 
ATOM     55  C   UNL     1      -5.466   5.010   7.445  1.00  0.00     0.153 C 
BRANCH  54  56
ATOM     56  C   UNL     1      -6.690   4.192   5.476  1.00  0.00     0.102 C 
ATOM     57  C   UNL     1      -7.700   3.554   4.863  1.00  0.00     0.043 C 
BRANCH  56  58
ATOM     58  C   UNL     1      -5.454   4.359   4.623  1.00  0.00     0.268 C 
ATOM     59  O   UNL     1      -4.584   3.503   4.530  1.00  0.00    -0.268 OA
ATOM     60  N   UNL     1      -5.442   5.536   3.914  1.00  0.00    -0.339 N 
ATOM     61  H   UNL     1      -6.196   6.197   4.055  1.00  0.00     0.164 HD
BRANCH  60  62
ATOM     62  C   UNL     1      -4.369   5.871   2.979  1.00  0.00     0.168 CG0
ATOM     63  C   UNL     1      -4.098   7.371   2.972  1.00  0.00     0.041 C 
ATOM     64  G   UNL     1      -4.742   5.377   1.566  1.00  0.00     0.000 G0
ENDBRANCH  60  62
ENDBRANCH  56  58
ENDBRANCH  54  56
ENDBRANCH  52  54
ENDBRANCH  51  52
ENDBRANCH  50  51
ENDBRANCH  49  50
BRANCH  49  65
ATOM     65  C   UNL     1      -9.363   0.651   9.284  1.00  0.00     0.326 C 
ATOM     66  O   UNL     1      -8.543  -0.235   9.093  1.00  0.00    -0.250 OA
BRANCH  65  67
ATOM     67  O   UNL     1     -10.340   0.475  10.201  1.00  0.00    -0.480 OA
ATOM     68  H   UNL     1     -10.002   0.948  10.992  1.00  0.00     0.296 HD
ENDBRANCH  65  67
ENDBRANCH  49  65
ENDBRANCH  47  49
ENDBRANCH  43  45
ENDBRANCH   1  43
BRANCH   1  69
ATOM     69  C   UNL     1     -11.314   3.477   4.104  1.00  0.00    -0.001 C 
ATOM     70  C   UNL     1     -11.622   4.785   4.114  1.00  0.00     0.001 C 
BRANCH  70  71
ATOM     71  C   UNL     1     -10.824   5.881   3.561  1.00  0.00    -0.055 C 
ATOM     72  C   UNL     1     -10.431   6.859   4.405  1.00  0.00    -0.018 C 
ATOM     73  C   UNL     1     -10.490   5.837   2.093  1.00  0.00     0.044 C 
BRANCH  72  74
ATOM     74  C   UNL     1      -9.602   8.103   4.118  1.00  0.00     0.038 C 
ATOM     75  C   UNL     1      -8.132   7.667   4.071  1.00  0.00     0.015 C 
BRANCH  74  76
ATOM     76  C   UNL     1      -9.929   9.181   5.193  1.00  0.00     0.128 C 
BRANCH  76  77
ATOM     77  O   UNL     1     -10.166  10.450   4.559  1.00  0.00    -0.381 OA
ATOM     78  C   UNL     1      -9.050  11.328   4.606  1.00  0.00     0.195 C 
ENDBRANCH  76  77
BRANCH  76  79
ATOM     79  C   UNL     1     -11.065   8.776   6.166  1.00  0.00     0.068 C 
BRANCH  79  80
ATOM     80  C   UNL     1     -12.395   9.477   6.032  1.00  0.00    -0.045 A 
ATOM     81  C   UNL     1     -12.604  10.742   6.598  1.00  0.00     0.004 A 
ATOM     82  C   UNL     1     -13.457   8.856   5.358  1.00  0.00     0.004 A 
ATOM     83  C   UNL     1     -13.842  11.378   6.482  1.00  0.00     0.000 A 
ATOM     84  C   UNL     1     -14.695   9.493   5.243  1.00  0.00     0.000 A 
ATOM     85  C   UNL     1     -14.886  10.754   5.803  1.00  0.00     0.000 A 
ENDBRANCH  79  80
ENDBRANCH  76  79
ENDBRANCH  74  76
ENDBRANCH  72  74
ENDBRANCH  70  71
ENDBRANCH   1  69
TORSDOF 17
ENDMDL
MODEL 10
REMARK VINA RESULT:    -6.481      2.447      3.824
REMARK INTER + INTRA:         -28.164
REMARK INTER:                 -21.110
REMARK INTRA:                  -7.053
REMARK UNBOUND:                -8.801
REMARK SMILES C=C1C(=O)N[C@H](C)C(=O)N[C@@H](CC(C)C)C(=O)N[C@@H](C(=O)O)[C@H](C)C(=O)N[C@@H](CCCN=C(N)N)C(=O)N[C@@H](/C=C/C(C)=C/[C@H](C)[C@H](Cc2ccccc2)OC)[C@H](C)C(=O)N[C@@H](C(=O)O)CCC(=O)N1C
REMARK SMILES IDX 39 1 38 2 37 3 36 4 28 6 27 7 25 8 26 9 23 11 24 12 19 13
REMARK SMILES IDX 18 14 16 15 17 16 11 18 10 19 8 20 9 21 12 24 13 25 14 26
REMARK SMILES IDX 15 27 20 28 21 29 22 30 29 32 30 33 31 34 32 35 33 36 34 37
REMARK SMILES IDX 35 38 57 43 58 44 59 45 60 46 61 47 62 49 66 50 67 51 68 52
REMARK SMILES IDX 69 53 70 54 71 55 2 56 1 57 3 58 4 59 5 60 6 62 7 63 63 65
REMARK SMILES IDX 64 66 65 67 40 69 41 70 42 71 44 72 43 73 45 74 46 75 47 76
REMARK SMILES IDX 55 77 56 78 48 79 49 80 50 81 54 82 51 83 53 84 52 85
REMARK H PARENT 38 5 27 10 18 17 10 22 22 31 34 39 34 40 35 41 35 42 61 48
REMARK H PARENT 5 61 65 68
REMARK Flexibility Score:  369.900
ROOT
ATOM      1  C   UNL     1     -13.590   1.820   6.523  1.00  0.00     0.117 C 
ENDROOT
BRANCH   1   2
ATOM      2  N   UNL     1     -14.732   2.305   7.298  1.00  0.00    -0.347 N 
ATOM      3  O   UNL     1     -16.394   1.611   5.875  1.00  0.00    -0.273 OA
ATOM      4  C   UNL     1     -16.051   2.080   6.955  1.00  0.00     0.243 C 
ATOM      5  H   UNL     1     -14.569   2.794   8.165  1.00  0.00     0.164 HD
BRANCH   4   6
ATOM      6  C   UNL     1     -17.067   2.626   7.991  1.00  0.00     0.171 C 
BRANCH   6   7
ATOM      7  N   UNL     1     -16.717   2.167   9.345  1.00  0.00    -0.344 N 
ATOM      8  C   UNL     1     -17.079   0.909   9.775  1.00  0.00     0.226 C 
ATOM      9  O   UNL     1     -17.717   0.130   9.077  1.00  0.00    -0.275 OA
ATOM     10  H   UNL     1     -16.249   2.807   9.975  1.00  0.00     0.164 HD
BRANCH   8  11
ATOM     11  C   UNL     1     -16.598   0.564  11.174  1.00  0.00     0.109 C 
ATOM     12  C   UNL     1     -15.550   1.577  11.635  1.00  0.00     0.021 C 
BRANCH  11  13
ATOM     13  C   UNL     1     -17.808   0.409  12.118  1.00  0.00     0.204 C 
BRANCH  13  14
ATOM     14  N   UNL     1     -18.611  -0.774  11.794  1.00  0.00    -0.340 N 
ATOM     15  C   UNL     1     -19.917  -0.696  11.362  1.00  0.00     0.243 C 
ATOM     16  O   UNL     1     -20.483   0.377  11.159  1.00  0.00    -0.273 OA
ATOM     17  H   UNL     1     -18.256  -1.690  12.083  1.00  0.00     0.164 HD
BRANCH  15  18
ATOM     18  C   UNL     1     -20.626  -2.071  11.284  1.00  0.00     0.171 C 
BRANCH  18  19
ATOM     19  N   UNL     1     -20.502  -2.528   9.901  1.00  0.00    -0.343 N 
ATOM     20  C   UNL     1     -21.608  -2.843   9.135  1.00  0.00     0.242 CG0
ATOM     21  O   UNL     1     -22.736  -2.882   9.620  1.00  0.00    -0.273 OA
ATOM     22  H   UNL     1     -19.580  -2.623   9.490  1.00  0.00     0.164 HD
ATOM     23  G   UNL     1     -21.283  -3.230   7.677  1.00  0.00     0.000 G0
ENDBRANCH  18  19
BRANCH  18  24
ATOM     24  C   UNL     1     -19.990  -3.065  12.263  1.00  0.00     0.038 C 
BRANCH  24  25
ATOM     25  C   UNL     1     -20.887  -3.456  13.457  1.00  0.00    -0.015 C 
ATOM     26  C   UNL     1     -20.824  -2.436  14.595  1.00  0.00     0.007 C 
ATOM     27  C   UNL     1     -20.477  -4.835  13.979  1.00  0.00     0.007 C 
ENDBRANCH  24  25
ENDBRANCH  18  24
ENDBRANCH  15  18
ENDBRANCH  13  14
BRANCH  13  28
ATOM     28  C   UNL     1     -17.412   0.299  13.593  1.00  0.00     0.327 C 
ATOM     29  O   UNL     1     -16.829  -0.638  14.117  1.00  0.00    -0.250 OA
BRANCH  28  30
ATOM     30  O   UNL     1     -17.877   1.318  14.343  1.00  0.00    -0.480 OA
ATOM     31  H   UNL     1     -18.196   1.973  13.688  1.00  0.00     0.296 HD
ENDBRANCH  28  30
ENDBRANCH  13  28
ENDBRANCH  11  13
ENDBRANCH   8  11
ENDBRANCH   6   7
BRANCH   6  32
ATOM     32  C   UNL     1     -17.084   4.157   7.920  1.00  0.00     0.037 C 
BRANCH  32  33
ATOM     33  C   UNL     1     -16.729   4.804   9.266  1.00  0.00     0.026 C 
BRANCH  33  34
ATOM     34  C   UNL     1     -15.316   5.388   9.279  1.00  0.00     0.146 C 
BRANCH  34  35
ATOM     35  N   UNL     1     -14.395   4.381   9.788  1.00  0.00    -0.254 NA
ATOM     36  C   UNL     1     -13.304   4.768  10.338  1.00  0.00     0.185 C 
ATOM     37  N   UNL     1     -12.451   3.848  10.815  1.00  0.00    -0.370 N 
ATOM     38  N   UNL     1     -12.851   6.020  10.526  1.00  0.00    -0.370 N 
ATOM     39  H   UNL     1     -12.728   2.880  10.720  1.00  0.00     0.159 HD
ATOM     40  H   UNL     1     -11.670   4.070  11.408  1.00  0.00     0.159 HD
ATOM     41  H   UNL     1     -11.911   6.191  10.846  1.00  0.00     0.159 HD
ATOM     42  H   UNL     1     -13.383   6.812  10.202  1.00  0.00     0.159 HD
ENDBRANCH  34  35
ENDBRANCH  33  34
ENDBRANCH  32  33
ENDBRANCH   6  32
ENDBRANCH   4   6
ENDBRANCH   1   2
BRANCH   1  43
ATOM     43  C   UNL     1     -12.796   0.805   7.394  1.00  0.00     0.102 C 
ATOM     44  C   UNL     1     -13.083   0.934   8.899  1.00  0.00     0.020 C 
BRANCH  43  45
ATOM     45  C   UNL     1     -11.305   0.826   7.042  1.00  0.00     0.225 C 
ATOM     46  O   UNL     1     -10.839   0.251   6.063  1.00  0.00    -0.275 OA
ATOM     47  N   UNL     1     -10.490   1.459   7.953  1.00  0.00    -0.342 N 
ATOM     48  H   UNL     1     -10.899   2.050   8.663  1.00  0.00     0.164 HD
BRANCH  47  49
ATOM     49  C   UNL     1      -9.047   1.588   7.730  1.00  0.00     0.192 C 
BRANCH  49  50
ATOM     50  C   UNL     1      -8.794   2.311   6.405  1.00  0.00     0.047 C 
BRANCH  50  51
ATOM     51  C   UNL     1      -8.638   3.827   6.590  1.00  0.00     0.103 C 
BRANCH  51  52
ATOM     52  C   UNL     1      -7.617   4.420   5.621  1.00  0.00     0.226 C 
ATOM     53  O   UNL     1      -7.925   5.393   4.930  1.00  0.00    -0.275 OA
BRANCH  52  54
ATOM     54  N   UNL     1      -6.331   3.848   5.637  1.00  0.00    -0.311 N 
ATOM     55  C   UNL     1      -5.510   3.868   6.855  1.00  0.00     0.153 C 
BRANCH  54  56
ATOM     56  C   UNL     1      -5.789   3.233   4.497  1.00  0.00     0.102 C 
ATOM     57  C   UNL     1      -6.089   1.993   4.076  1.00  0.00     0.043 C 
BRANCH  56  58
ATOM     58  C   UNL     1      -4.825   3.974   3.601  1.00  0.00     0.268 C 
ATOM     59  O   UNL     1      -3.981   3.413   2.916  1.00  0.00    -0.268 OA
ATOM     60  N   UNL     1      -5.036   5.332   3.586  1.00  0.00    -0.339 N 
ATOM     61  H   UNL     1      -5.750   5.721   4.191  1.00  0.00     0.164 HD
BRANCH  60  62
ATOM     62  C   UNL     1      -4.255   6.233   2.739  1.00  0.00     0.168 CG0
ATOM     63  C   UNL     1      -4.549   7.690   3.074  1.00  0.00     0.041 C 
ATOM     64  G   UNL     1      -4.560   5.941   1.255  1.00  0.00     0.000 G0
ENDBRANCH  60  62
ENDBRANCH  56  58
ENDBRANCH  54  56
ENDBRANCH  52  54
ENDBRANCH  51  52
ENDBRANCH  50  51
ENDBRANCH  49  50
BRANCH  49  65
ATOM     65  C   UNL     1      -8.353   0.217   7.702  1.00  0.00     0.326 C 
ATOM     66  O   UNL     1      -8.126  -0.484   8.678  1.00  0.00    -0.250 OA
BRANCH  65  67
ATOM     67  O   UNL     1      -7.930  -0.176   6.481  1.00  0.00    -0.480 OA
ATOM     68  H   UNL     1      -8.749  -0.490   6.042  1.00  0.00     0.296 HD
ENDBRANCH  65  67
ENDBRANCH  49  65
ENDBRANCH  47  49
ENDBRANCH  43  45
ENDBRANCH   1  43
BRANCH   1  69
ATOM     69  C   UNL     1     -12.877   3.054   6.001  1.00  0.00    -0.001 C 
ATOM     70  C   UNL     1     -12.971   4.311   6.469  1.00  0.00     0.001 C 
BRANCH  70  71
ATOM     71  C   UNL     1     -12.261   5.491   5.970  1.00  0.00    -0.055 C 
ATOM     72  C   UNL     1     -12.381   6.638   6.671  1.00  0.00    -0.018 C 
ATOM     73  C   UNL     1     -11.441   5.339   4.716  1.00  0.00     0.044 C 
BRANCH  72  74
ATOM     74  C   UNL     1     -11.763   8.003   6.398  1.00  0.00     0.038 C 
ATOM     75  C   UNL     1     -10.423   8.050   7.142  1.00  0.00     0.015 C 
BRANCH  74  76
ATOM     76  C   UNL     1     -12.781   9.105   6.815  1.00  0.00     0.128 C 
BRANCH  76  77
ATOM     77  O   UNL     1     -12.127  10.385   6.858  1.00  0.00    -0.381 OA
ATOM     78  C   UNL     1     -11.973  10.990   5.581  1.00  0.00     0.195 C 
ENDBRANCH  76  77
BRANCH  76  79
ATOM     79  C   UNL     1     -14.075   9.121   5.964  1.00  0.00     0.068 C 
BRANCH  79  80
ATOM     80  C   UNL     1     -15.390   9.310   6.681  1.00  0.00    -0.045 A 
ATOM     81  C   UNL     1     -15.907   8.311   7.517  1.00  0.00     0.004 A 
ATOM     82  C   UNL     1     -16.134  10.486   6.497  1.00  0.00     0.004 A 
ATOM     83  C   UNL     1     -17.131   8.487   8.165  1.00  0.00     0.000 A 
ATOM     84  C   UNL     1     -17.358  10.661   7.146  1.00  0.00     0.000 A 
ATOM     85  C   UNL     1     -17.856   9.663   7.980  1.00  0.00     0.000 A 
ENDBRANCH  79  80
ENDBRANCH  76  79
ENDBRANCH  74  76
ENDBRANCH  72  74
ENDBRANCH  70  71
ENDBRANCH   1  69
TORSDOF 17
ENDMDL
