MODEL 1
REMARK VINA RESULT:    -6.686      0.000      0.000
REMARK INTER + INTRA:         -20.797
REMARK INTER:                 -16.654
REMARK INTRA:                  -4.143
REMARK UNBOUND:                -4.143
REMARK SMILES CCCCCCC[C@H](N)[C@H](O)C(=O)N[C@H](C)C(=O)N(C)[C@H](CC(C)C)C(=O)N[C@@H](Cc1ccc(O)cc1)C(=O)N[C@@H](Cc1ccc(O)cc1)C(=O)O
REMARK SMILES IDX 18 1 17 2 15 3 16 4 14 5 12 6 13 7 10 9 11 10 8 12 9 13 7 16
REMARK SMILES IDX 6 17 5 18 4 19 3 20 2 21 1 22 19 23 20 24 21 25 22 26 23 27
REMARK SMILES IDX 24 28 25 29 26 30 27 31 28 32 29 34 30 35 31 36 32 37 37 38
REMARK SMILES IDX 33 39 36 40 34 41 35 42 38 44 39 45 40 46 41 48 42 49 43 50
REMARK SMILES IDX 44 51 49 52 45 53 48 54 46 55 47 56 50 58 51 59 52 60
REMARK H PARENT 14 8 11 11 9 14 9 15 28 33 35 43 40 47 47 57 52 61
ROOT
ATOM      1  O   UNL     1      -9.609  -5.149  -4.230  1.00  0.00    -0.272 OA
ATOM      2  C   UNL     1      -8.535  -4.614  -3.918  1.00  0.00     0.245 C 
ENDROOT
BRANCH   2   3
ATOM      3  C   UNL     1      -8.443  -3.068  -3.944  1.00  0.00     0.168 C 
ATOM      4  C   UNL     1      -9.758  -2.454  -4.411  1.00  0.00     0.041 C 
BRANCH   3   5
ATOM      5  N   UNL     1      -7.970  -2.462  -2.709  1.00  0.00    -0.342 N 
ATOM      6  C   UNL     1      -7.134  -1.366  -2.708  1.00  0.00     0.251 C 
ATOM      7  O   UNL     1      -6.696  -0.849  -3.731  1.00  0.00    -0.272 OA
ATOM      8  H   UNL     1      -8.238  -2.826  -1.797  1.00  0.00     0.164 HD
BRANCH   6   9
ATOM      9  C   UNL     1      -6.881  -0.812  -1.297  1.00  0.00     0.219 C 
BRANCH   9  10
ATOM     10  O   UNL     1      -5.603  -0.177  -1.174  1.00  0.00    -0.382 OA
ATOM     11  H   UNL     1      -5.227  -0.570  -0.356  1.00  0.00     0.211 HD
ENDBRANCH   9  10
BRANCH   9  12
ATOM     12  C   UNL     1      -8.012   0.125  -0.799  1.00  0.00     0.089 C 
BRANCH  12  13
ATOM     13  N   UNL     1      -8.916  -0.657   0.075  1.00  0.00    -0.325 NA
ATOM     14  H   UNL     1      -9.536  -0.017   0.575  1.00  0.00     0.119 HD
ATOM     15  H   UNL     1      -8.360  -1.113   0.802  1.00  0.00     0.119 HD
ENDBRANCH  12  13
BRANCH  12  16
ATOM     16  C   UNL     1      -7.555   1.414  -0.074  1.00  0.00     0.022 C 
BRANCH  16  17
ATOM     17  C   UNL     1      -8.531   2.593   0.040  1.00  0.00     0.002 C 
BRANCH  17  18
ATOM     18  C   UNL     1      -8.400   3.646  -1.058  1.00  0.00     0.000 C 
BRANCH  18  19
ATOM     19  C   UNL     1      -8.158   5.068  -0.534  1.00  0.00    -0.000 C 
BRANCH  19  20
ATOM     20  C   UNL     1      -9.391   5.976  -0.527  1.00  0.00    -0.000 C 
BRANCH  20  21
ATOM     21  C   UNL     1      -9.897   6.290   0.884  1.00  0.00    -0.003 C 
ATOM     22  C   UNL     1      -8.908   5.828   1.943  1.00  0.00     0.004 C 
ENDBRANCH  20  21
ENDBRANCH  19  20
ENDBRANCH  18  19
ENDBRANCH  17  18
ENDBRANCH  16  17
ENDBRANCH  12  16
ENDBRANCH   9  12
ENDBRANCH   6   9
ENDBRANCH   3   5
ENDBRANCH   2   3
BRANCH   2  23
ATOM     23  N   UNL     1      -7.485  -5.389  -3.438  1.00  0.00    -0.332 N 
ATOM     24  C   UNL     1      -6.967  -5.328  -2.079  1.00  0.00     0.147 C 
BRANCH  23  25
ATOM     25  C   UNL     1      -6.892  -6.458  -4.287  1.00  0.00     0.174 C 
BRANCH  25  26
ATOM     26  C   UNL     1      -5.608  -7.069  -3.677  1.00  0.00     0.038 C 
BRANCH  26  27
ATOM     27  C   UNL     1      -5.602  -8.596  -3.443  1.00  0.00    -0.015 C 
ATOM     28  C   UNL     1      -6.618  -9.030  -2.387  1.00  0.00     0.007 C 
ATOM     29  C   UNL     1      -5.781  -9.407  -4.724  1.00  0.00     0.007 C 
ENDBRANCH  26  27
ENDBRANCH  25  26
BRANCH  25  30
ATOM     30  C   UNL     1      -6.709  -5.948  -5.735  1.00  0.00     0.243 C 
ATOM     31  O   UNL     1      -7.353  -6.413  -6.674  1.00  0.00    -0.273 OA
ATOM     32  N   UNL     1      -5.783  -4.951  -5.900  1.00  0.00    -0.342 N 
ATOM     33  H   UNL     1      -5.394  -4.521  -5.057  1.00  0.00     0.164 HD
BRANCH  32  34
ATOM     34  C   UNL     1      -5.459  -4.365  -7.204  1.00  0.00     0.175 C 
BRANCH  34  35
ATOM     35  C   UNL     1      -6.334  -3.137  -7.497  1.00  0.00     0.070 C 
BRANCH  35  36
ATOM     36  C   UNL     1      -7.209  -3.320  -8.716  1.00  0.00    -0.045 A 
ATOM     37  C   UNL     1      -6.948  -4.364  -9.617  1.00  0.00     0.007 A 
ATOM     38  C   UNL     1      -8.271  -2.444  -8.977  1.00  0.00     0.007 A 
ATOM     39  C   UNL     1      -7.742  -4.532 -10.752  1.00  0.00     0.046 A 
ATOM     40  C   UNL     1      -9.066  -2.612 -10.114  1.00  0.00     0.046 A 
ATOM     41  C   UNL     1      -8.794  -3.656 -10.991  1.00  0.00     0.115 A 
BRANCH  41  42
ATOM     42  O   UNL     1      -9.543  -3.854 -12.113  1.00  0.00    -0.508 OA
ATOM     43  H   UNL     1      -9.987  -4.715 -12.035  1.00  0.00     0.293 HD
ENDBRANCH  41  42
ENDBRANCH  35  36
ENDBRANCH  34  35
BRANCH  34  44
ATOM     44  C   UNL     1      -3.953  -4.017  -7.212  1.00  0.00     0.243 C 
ATOM     45  O   UNL     1      -3.053  -4.824  -6.997  1.00  0.00    -0.273 OA
ATOM     46  N   UNL     1      -3.702  -2.669  -7.356  1.00  0.00    -0.341 N 
ATOM     47  H   UNL     1      -4.487  -2.024  -7.414  1.00  0.00     0.164 HD
BRANCH  46  48
ATOM     48  C   UNL     1      -2.357  -2.092  -7.325  1.00  0.00     0.196 C 
BRANCH  48  49
ATOM     49  C   UNL     1      -2.066  -1.281  -8.600  1.00  0.00     0.072 C 
BRANCH  49  50
ATOM     50  C   UNL     1      -3.299  -1.067  -9.447  1.00  0.00    -0.045 A 
ATOM     51  C   UNL     1      -4.160   0.005  -9.170  1.00  0.00     0.007 A 
ATOM     52  C   UNL     1      -3.612  -1.938 -10.499  1.00  0.00     0.007 A 
ATOM     53  C   UNL     1      -5.308   0.204  -9.937  1.00  0.00     0.046 A 
ATOM     54  C   UNL     1      -4.762  -1.739 -11.266  1.00  0.00     0.046 A 
ATOM     55  C   UNL     1      -5.600  -0.668 -10.978  1.00  0.00     0.115 A 
BRANCH  55  56
ATOM     56  O   UNL     1      -6.733  -0.439 -11.702  1.00  0.00    -0.508 OA
ATOM     57  H   UNL     1      -7.398  -0.046 -11.114  1.00  0.00     0.293 HD
ENDBRANCH  55  56
ENDBRANCH  49  50
ENDBRANCH  48  49
BRANCH  48  58
ATOM     58  C   UNL     1      -2.232  -1.181  -6.096  1.00  0.00     0.326 C 
ATOM     59  O   UNL     1      -3.004  -0.304  -5.745  1.00  0.00    -0.250 OA
BRANCH  58  60
ATOM     60  O   UNL     1      -1.129  -1.431  -5.347  1.00  0.00    -0.480 OA
ATOM     61  H   UNL     1      -1.375  -1.087  -4.461  1.00  0.00     0.296 HD
ENDBRANCH  58  60
ENDBRANCH  48  58
ENDBRANCH  46  48
ENDBRANCH  34  44
ENDBRANCH  32  34
ENDBRANCH  25  30
ENDBRANCH  23  25
ENDBRANCH   2  23
TORSDOF 28
ENDMDL
MODEL 2
REMARK VINA RESULT:    -6.592     11.244     15.491
REMARK INTER + INTRA:         -20.561
REMARK INTER:                 -16.378
REMARK INTRA:                  -4.184
REMARK UNBOUND:                -4.143
REMARK SMILES CCCCCCC[C@H](N)[C@H](O)C(=O)N[C@H](C)C(=O)N(C)[C@H](CC(C)C)C(=O)N[C@@H](Cc1ccc(O)cc1)C(=O)N[C@@H](Cc1ccc(O)cc1)C(=O)O
REMARK SMILES IDX 18 1 17 2 15 3 16 4 14 5 12 6 13 7 10 9 11 10 8 12 9 13 7 16
REMARK SMILES IDX 6 17 5 18 4 19 3 20 2 21 1 22 19 23 20 24 21 25 22 26 23 27
REMARK SMILES IDX 24 28 25 29 26 30 27 31 28 32 29 34 30 35 31 36 32 37 37 38
REMARK SMILES IDX 33 39 36 40 34 41 35 42 38 44 39 45 40 46 41 48 42 49 43 50
REMARK SMILES IDX 44 51 49 52 45 53 48 54 46 55 47 56 50 58 51 59 52 60
REMARK H PARENT 14 8 11 11 9 14 9 15 28 33 35 43 40 47 47 57 52 61
ROOT
ATOM      1  O   UNL     1     -12.475  -6.584  10.640  1.00  0.00    -0.272 OA
ATOM      2  C   UNL     1     -12.060  -7.564  10.004  1.00  0.00     0.245 C 
ENDROOT
BRANCH   2   3
ATOM      3  C   UNL     1     -12.917  -8.855   9.988  1.00  0.00     0.168 C 
ATOM      4  C   UNL     1     -12.603  -9.729  11.197  1.00  0.00     0.041 C 
BRANCH   3   5
ATOM      5  N   UNL     1     -14.347  -8.636   9.833  1.00  0.00    -0.342 N 
ATOM      6  C   UNL     1     -15.209  -8.668  10.909  1.00  0.00     0.251 C 
ATOM      7  O   UNL     1     -14.851  -8.921  12.055  1.00  0.00    -0.272 OA
ATOM      8  H   UNL     1     -14.766  -8.452   8.925  1.00  0.00     0.164 HD
BRANCH   6   9
ATOM      9  C   UNL     1     -16.645  -8.270  10.533  1.00  0.00     0.219 C 
BRANCH   9  10
ATOM     10  O   UNL     1     -17.630  -9.114  11.142  1.00  0.00    -0.382 OA
ATOM     11  H   UNL     1     -18.402  -9.040  10.539  1.00  0.00     0.211 HD
ENDBRANCH   9  10
BRANCH   9  12
ATOM     12  C   UNL     1     -16.955  -6.776  10.807  1.00  0.00     0.089 C 
BRANCH  12  13
ATOM     13  N   UNL     1     -15.683  -6.018  10.754  1.00  0.00    -0.325 NA
ATOM     14  H   UNL     1     -14.922  -6.615  11.083  1.00  0.00     0.119 HD
ATOM     15  H   UNL     1     -15.728  -5.249  11.427  1.00  0.00     0.119 HD
ENDBRANCH  12  13
BRANCH  12  16
ATOM     16  C   UNL     1     -18.004  -6.119   9.878  1.00  0.00     0.022 C 
BRANCH  16  17
ATOM     17  C   UNL     1     -17.534  -5.130   8.802  1.00  0.00     0.002 C 
BRANCH  17  18
ATOM     18  C   UNL     1     -17.491  -5.693   7.383  1.00  0.00     0.000 C 
BRANCH  18  19
ATOM     19  C   UNL     1     -17.006  -4.690   6.328  1.00  0.00    -0.000 C 
BRANCH  19  20
ATOM     20  C   UNL     1     -15.539  -4.841   5.913  1.00  0.00    -0.000 C 
BRANCH  20  21
ATOM     21  C   UNL     1     -14.589  -3.971   6.740  1.00  0.00    -0.003 C 
ATOM     22  C   UNL     1     -13.910  -4.778   7.835  1.00  0.00     0.004 C 
ENDBRANCH  20  21
ENDBRANCH  19  20
ENDBRANCH  18  19
ENDBRANCH  17  18
ENDBRANCH  16  17
ENDBRANCH  12  16
ENDBRANCH   9  12
ENDBRANCH   6   9
ENDBRANCH   3   5
ENDBRANCH   2   3
BRANCH   2  23
ATOM     23  N   UNL     1     -10.912  -7.454   9.227  1.00  0.00    -0.332 N 
ATOM     24  C   UNL     1      -9.607  -7.979   9.602  1.00  0.00     0.147 C 
BRANCH  23  25
ATOM     25  C   UNL     1     -10.985  -6.878   7.856  1.00  0.00     0.174 C 
BRANCH  25  26
ATOM     26  C   UNL     1     -10.480  -7.852   6.766  1.00  0.00     0.038 C 
BRANCH  26  27
ATOM     27  C   UNL     1     -11.545  -8.701   6.037  1.00  0.00    -0.015 C 
ATOM     28  C   UNL     1     -11.445 -10.186   6.383  1.00  0.00     0.007 C 
ATOM     29  C   UNL     1     -12.970  -8.196   6.245  1.00  0.00     0.007 C 
ENDBRANCH  26  27
ENDBRANCH  25  26
BRANCH  25  30
ATOM     30  C   UNL     1     -10.296  -5.495   7.823  1.00  0.00     0.243 C 
ATOM     31  O   UNL     1     -10.464  -4.663   8.713  1.00  0.00    -0.273 OA
ATOM     32  N   UNL     1      -9.494  -5.258   6.736  1.00  0.00    -0.342 N 
ATOM     33  H   UNL     1      -9.293  -6.046   6.115  1.00  0.00     0.164 HD
BRANCH  32  34
ATOM     34  C   UNL     1      -8.784  -3.994   6.524  1.00  0.00     0.175 C 
BRANCH  34  35
ATOM     35  C   UNL     1      -7.270  -4.219   6.386  1.00  0.00     0.070 C 
BRANCH  35  36
ATOM     36  C   UNL     1      -6.559  -4.242   7.720  1.00  0.00    -0.045 A 
ATOM     37  C   UNL     1      -6.675  -3.153   8.596  1.00  0.00     0.007 A 
ATOM     38  C   UNL     1      -5.760  -5.332   8.090  1.00  0.00     0.007 A 
ATOM     39  C   UNL     1      -6.011  -3.159   9.824  1.00  0.00     0.046 A 
ATOM     40  C   UNL     1      -5.094  -5.339   9.318  1.00  0.00     0.046 A 
ATOM     41  C   UNL     1      -5.227  -4.251  10.175  1.00  0.00     0.115 A 
BRANCH  41  42
ATOM     42  O   UNL     1      -4.593  -4.216  11.381  1.00  0.00    -0.508 OA
ATOM     43  H   UNL     1      -4.611  -5.111  11.761  1.00  0.00     0.293 HD
ENDBRANCH  41  42
ENDBRANCH  35  36
ENDBRANCH  34  35
BRANCH  34  44
ATOM     44  C   UNL     1      -9.382  -3.313   5.272  1.00  0.00     0.243 C 
ATOM     45  O   UNL     1      -9.295  -3.758   4.131  1.00  0.00    -0.273 OA
ATOM     46  N   UNL     1      -9.922  -2.070   5.529  1.00  0.00    -0.341 N 
ATOM     47  H   UNL     1      -9.866  -1.692   6.471  1.00  0.00     0.164 HD
BRANCH  46  48
ATOM     48  C   UNL     1     -10.487  -1.207   4.490  1.00  0.00     0.196 C 
BRANCH  48  49
ATOM     49  C   UNL     1     -12.014  -1.367   4.396  1.00  0.00     0.072 C 
BRANCH  49  50
ATOM     50  C   UNL     1     -12.436  -2.256   3.249  1.00  0.00    -0.045 A 
ATOM     51  C   UNL     1     -12.401  -1.766   1.935  1.00  0.00     0.007 A 
ATOM     52  C   UNL     1     -12.886  -3.563   3.477  1.00  0.00     0.007 A 
ATOM     53  C   UNL     1     -12.801  -2.572   0.870  1.00  0.00     0.046 A 
ATOM     54  C   UNL     1     -13.288  -4.370   2.410  1.00  0.00     0.046 A 
ATOM     55  C   UNL     1     -13.241  -3.867   1.114  1.00  0.00     0.115 A 
BRANCH  55  56
ATOM     56  O   UNL     1     -13.625  -4.622   0.046  1.00  0.00    -0.508 OA
ATOM     57  H   UNL     1     -13.544  -4.081  -0.756  1.00  0.00     0.293 HD
ENDBRANCH  55  56
ENDBRANCH  49  50
ENDBRANCH  48  49
BRANCH  48  58
ATOM     58  C   UNL     1     -10.141   0.254   4.812  1.00  0.00     0.326 C 
ATOM     59  O   UNL     1     -10.919   1.186   4.943  1.00  0.00    -0.250 OA
BRANCH  58  60
ATOM     60  O   UNL     1      -8.812   0.473   4.971  1.00  0.00    -0.480 OA
ATOM     61  H   UNL     1      -8.428   0.164   4.122  1.00  0.00     0.296 HD
ENDBRANCH  58  60
ENDBRANCH  48  58
ENDBRANCH  46  48
ENDBRANCH  34  44
ENDBRANCH  32  34
ENDBRANCH  25  30
ENDBRANCH  23  25
ENDBRANCH   2  23
TORSDOF 28
ENDMDL
MODEL 3
REMARK VINA RESULT:    -6.569      3.498      9.845
REMARK INTER + INTRA:         -20.505
REMARK INTER:                 -16.536
REMARK INTRA:                  -3.969
REMARK UNBOUND:                -4.143
REMARK SMILES CCCCCCC[C@H](N)[C@H](O)C(=O)N[C@H](C)C(=O)N(C)[C@H](CC(C)C)C(=O)N[C@@H](Cc1ccc(O)cc1)C(=O)N[C@@H](Cc1ccc(O)cc1)C(=O)O
REMARK SMILES IDX 18 1 17 2 15 3 16 4 14 5 12 6 13 7 10 9 11 10 8 12 9 13 7 16
REMARK SMILES IDX 6 17 5 18 4 19 3 20 2 21 1 22 19 23 20 24 21 25 22 26 23 27
REMARK SMILES IDX 24 28 25 29 26 30 27 31 28 32 29 34 30 35 31 36 32 37 37 38
REMARK SMILES IDX 33 39 36 40 34 41 35 42 38 44 39 45 40 46 41 48 42 49 43 50
REMARK SMILES IDX 44 51 49 52 45 53 48 54 46 55 47 56 50 58 51 59 52 60
REMARK H PARENT 14 8 11 11 9 14 9 15 28 33 35 43 40 47 47 57 52 61
ROOT
ATOM      1  O   UNL     1      -6.026  -2.267  -6.139  1.00  0.00    -0.272 OA
ATOM      2  C   UNL     1      -5.830  -2.608  -7.315  1.00  0.00     0.245 C 
ENDROOT
BRANCH   2   3
ATOM      3  C   UNL     1      -5.108  -1.618  -8.263  1.00  0.00     0.168 C 
ATOM      4  C   UNL     1      -6.040  -0.484  -8.675  1.00  0.00     0.041 C 
BRANCH   3   5
ATOM      5  N   UNL     1      -3.833  -1.120  -7.770  1.00  0.00    -0.342 N 
ATOM      6  C   UNL     1      -2.666  -1.842  -7.909  1.00  0.00     0.251 C 
ATOM      7  O   UNL     1      -2.618  -2.959  -8.413  1.00  0.00    -0.272 OA
ATOM      8  H   UNL     1      -3.754  -0.220  -7.302  1.00  0.00     0.164 HD
BRANCH   6   9
ATOM      9  C   UNL     1      -1.426  -1.061  -7.446  1.00  0.00     0.219 C 
BRANCH   9  10
ATOM     10  O   UNL     1      -0.634  -1.793  -6.502  1.00  0.00    -0.382 OA
ATOM     11  H   UNL     1      -0.743  -2.728  -6.784  1.00  0.00     0.211 HD
ENDBRANCH   9  10
BRANCH   9  12
ATOM     12  C   UNL     1      -0.552  -0.553  -8.622  1.00  0.00     0.089 C 
BRANCH  12  13
ATOM     13  N   UNL     1      -1.375  -0.557  -9.852  1.00  0.00    -0.325 NA
ATOM     14  H   UNL     1      -1.874  -1.446  -9.920  1.00  0.00     0.119 HD
ATOM     15  H   UNL     1      -0.756  -0.537 -10.666  1.00  0.00     0.119 HD
ENDBRANCH  12  13
BRANCH  12  16
ATOM     16  C   UNL     1       0.106   0.834  -8.427  1.00  0.00     0.022 C 
BRANCH  16  17
ATOM     17  C   UNL     1       0.897   1.455  -9.587  1.00  0.00     0.002 C 
BRANCH  17  18
ATOM     18  C   UNL     1       2.214   0.757  -9.916  1.00  0.00     0.000 C 
BRANCH  18  19
ATOM     19  C   UNL     1       3.364   1.113  -8.964  1.00  0.00    -0.000 C 
BRANCH  19  20
ATOM     20  C   UNL     1       4.648   1.595  -9.647  1.00  0.00    -0.000 C 
BRANCH  20  21
ATOM     21  C   UNL     1       4.645   3.098  -9.936  1.00  0.00    -0.003 C 
ATOM     22  C   UNL     1       4.642   3.376 -11.431  1.00  0.00     0.004 C 
ENDBRANCH  20  21
ENDBRANCH  19  20
ENDBRANCH  18  19
ENDBRANCH  17  18
ENDBRANCH  16  17
ENDBRANCH  12  16
ENDBRANCH   9  12
ENDBRANCH   6   9
ENDBRANCH   3   5
ENDBRANCH   2   3
BRANCH   2  23
ATOM     23  N   UNL     1      -6.146  -3.898  -7.727  1.00  0.00    -0.332 N 
ATOM     24  C   UNL     1      -6.999  -4.218  -8.862  1.00  0.00     0.147 C 
BRANCH  23  25
ATOM     25  C   UNL     1      -5.499  -5.073  -7.079  1.00  0.00     0.174 C 
BRANCH  25  26
ATOM     26  C   UNL     1      -4.983  -6.114  -8.099  1.00  0.00     0.038 C 
BRANCH  26  27
ATOM     27  C   UNL     1      -3.737  -6.933  -7.694  1.00  0.00    -0.015 C 
ATOM     28  C   UNL     1      -4.024  -8.432  -7.611  1.00  0.00     0.007 C 
ATOM     29  C   UNL     1      -2.521  -6.667  -8.578  1.00  0.00     0.007 C 
ENDBRANCH  26  27
ENDBRANCH  25  26
BRANCH  25  30
ATOM     30  C   UNL     1      -6.435  -5.668  -6.002  1.00  0.00     0.243 C 
ATOM     31  O   UNL     1      -7.166  -6.629  -6.236  1.00  0.00    -0.273 OA
ATOM     32  N   UNL     1      -6.398  -5.052  -4.778  1.00  0.00    -0.342 N 
ATOM     33  H   UNL     1      -5.666  -4.355  -4.620  1.00  0.00     0.164 HD
BRANCH  32  34
ATOM     34  C   UNL     1      -7.235  -5.463  -3.648  1.00  0.00     0.175 C 
BRANCH  34  35
ATOM     35  C   UNL     1      -6.380  -5.921  -2.456  1.00  0.00     0.070 C 
BRANCH  35  36
ATOM     36  C   UNL     1      -6.943  -7.144  -1.768  1.00  0.00    -0.045 A 
ATOM     37  C   UNL     1      -6.871  -8.397  -2.395  1.00  0.00     0.007 A 
ATOM     38  C   UNL     1      -7.561  -7.043  -0.515  1.00  0.00     0.007 A 
ATOM     39  C   UNL     1      -7.400  -9.529  -1.774  1.00  0.00     0.046 A 
ATOM     40  C   UNL     1      -8.092  -8.176   0.107  1.00  0.00     0.046 A 
ATOM     41  C   UNL     1      -8.005  -9.410  -0.529  1.00  0.00     0.115 A 
BRANCH  41  42
ATOM     42  O   UNL     1      -8.511 -10.540   0.042  1.00  0.00    -0.508 OA
ATOM     43  H   UNL     1      -8.467 -10.440   1.007  1.00  0.00     0.293 HD
ENDBRANCH  41  42
ENDBRANCH  35  36
ENDBRANCH  34  35
BRANCH  34  44
ATOM     44  C   UNL     1      -8.155  -4.277  -3.277  1.00  0.00     0.243 C 
ATOM     45  O   UNL     1      -9.181  -3.980  -3.882  1.00  0.00    -0.273 OA
ATOM     46  N   UNL     1      -7.649  -3.485  -2.268  1.00  0.00    -0.341 N 
ATOM     47  H   UNL     1      -6.737  -3.706  -1.877  1.00  0.00     0.164 HD
BRANCH  46  48
ATOM     48  C   UNL     1      -8.309  -2.268  -1.792  1.00  0.00     0.196 C 
BRANCH  48  49
ATOM     49  C   UNL     1      -8.730  -2.398  -0.318  1.00  0.00     0.072 C 
BRANCH  49  50
ATOM     50  C   UNL     1     -10.074  -3.070  -0.154  1.00  0.00    -0.045 A 
ATOM     51  C   UNL     1     -11.233  -2.291  -0.017  1.00  0.00     0.007 A 
ATOM     52  C   UNL     1     -10.182  -4.466  -0.115  1.00  0.00     0.007 A 
ATOM     53  C   UNL     1     -12.477  -2.900   0.148  1.00  0.00     0.046 A 
ATOM     54  C   UNL     1     -11.428  -5.075   0.051  1.00  0.00     0.046 A 
ATOM     55  C   UNL     1     -12.566  -4.286   0.181  1.00  0.00     0.115 A 
BRANCH  55  56
ATOM     56  O   UNL     1     -13.800  -4.841   0.346  1.00  0.00    -0.508 OA
ATOM     57  H   UNL     1     -13.691  -5.797   0.472  1.00  0.00     0.293 HD
ENDBRANCH  55  56
ENDBRANCH  49  50
ENDBRANCH  48  49
BRANCH  48  58
ATOM     58  C   UNL     1      -7.346  -1.083  -1.950  1.00  0.00     0.326 C 
ATOM     59  O   UNL     1      -6.797  -0.708  -2.973  1.00  0.00    -0.250 OA
BRANCH  58  60
ATOM     60  O   UNL     1      -7.127  -0.406  -0.794  1.00  0.00    -0.480 OA
ATOM     61  H   UNL     1      -6.954  -1.120  -0.143  1.00  0.00     0.296 HD
ENDBRANCH  58  60
ENDBRANCH  48  58
ENDBRANCH  46  48
ENDBRANCH  34  44
ENDBRANCH  32  34
ENDBRANCH  25  30
ENDBRANCH  23  25
ENDBRANCH   2  23
TORSDOF 28
ENDMDL
MODEL 4
REMARK VINA RESULT:    -6.519     11.427     15.808
REMARK INTER + INTRA:         -20.381
REMARK INTER:                 -15.113
REMARK INTRA:                  -5.268
REMARK UNBOUND:                -4.143
REMARK SMILES CCCCCCC[C@H](N)[C@H](O)C(=O)N[C@H](C)C(=O)N(C)[C@H](CC(C)C)C(=O)N[C@@H](Cc1ccc(O)cc1)C(=O)N[C@@H](Cc1ccc(O)cc1)C(=O)O
REMARK SMILES IDX 18 1 17 2 15 3 16 4 14 5 12 6 13 7 10 9 11 10 8 12 9 13 7 16
REMARK SMILES IDX 6 17 5 18 4 19 3 20 2 21 1 22 19 23 20 24 21 25 22 26 23 27
REMARK SMILES IDX 24 28 25 29 26 30 27 31 28 32 29 34 30 35 31 36 32 37 37 38
REMARK SMILES IDX 33 39 36 40 34 41 35 42 38 44 39 45 40 46 41 48 42 49 43 50
REMARK SMILES IDX 44 51 49 52 45 53 48 54 46 55 47 56 50 58 51 59 52 60
REMARK H PARENT 14 8 11 11 9 14 9 15 28 33 35 43 40 47 47 57 52 61
ROOT
ATOM      1  O   UNL     1      -9.912 -11.393   7.312  1.00  0.00    -0.272 OA
ATOM      2  C   UNL     1      -9.754 -10.237   7.734  1.00  0.00     0.245 C 
ENDROOT
BRANCH   2   3
ATOM      3  C   UNL     1      -9.323 -10.039   9.209  1.00  0.00     0.168 C 
ATOM      4  C   UNL     1      -7.950  -9.382   9.288  1.00  0.00     0.041 C 
BRANCH   3   5
ATOM      5  N   UNL     1     -10.300  -9.358  10.044  1.00  0.00    -0.342 N 
ATOM      6  C   UNL     1     -11.515  -9.930  10.358  1.00  0.00     0.251 C 
ATOM      7  O   UNL     1     -11.879 -11.020   9.932  1.00  0.00    -0.272 OA
ATOM      8  H   UNL     1     -10.124  -8.432  10.428  1.00  0.00     0.164 HD
BRANCH   6   9
ATOM      9  C   UNL     1     -12.322  -9.095  11.365  1.00  0.00     0.219 C 
BRANCH   9  10
ATOM     10  O   UNL     1     -12.220  -7.687  11.123  1.00  0.00    -0.382 OA
ATOM     11  H   UNL     1     -12.669  -7.285  11.899  1.00  0.00     0.211 HD
ENDBRANCH   9  10
BRANCH   9  12
ATOM     12  C   UNL     1     -13.807  -9.531  11.465  1.00  0.00     0.089 C 
BRANCH  12  13
ATOM     13  N   UNL     1     -14.159  -9.664  12.898  1.00  0.00    -0.325 NA
ATOM     14  H   UNL     1     -15.120  -9.346  13.038  1.00  0.00     0.119 HD
ATOM     15  H   UNL     1     -13.583  -9.018  13.442  1.00  0.00     0.119 HD
ENDBRANCH  12  13
BRANCH  12  16
ATOM     16  C   UNL     1     -14.831  -8.619  10.749  1.00  0.00     0.022 C 
BRANCH  16  17
ATOM     17  C   UNL     1     -16.127  -8.235  11.476  1.00  0.00     0.002 C 
BRANCH  17  18
ATOM     18  C   UNL     1     -17.290  -7.854  10.563  1.00  0.00     0.000 C 
BRANCH  18  19
ATOM     19  C   UNL     1     -16.871  -7.517   9.125  1.00  0.00    -0.000 C 
BRANCH  19  20
ATOM     20  C   UNL     1     -16.969  -6.035   8.750  1.00  0.00    -0.000 C 
BRANCH  20  21
ATOM     21  C   UNL     1     -15.982  -5.155   9.521  1.00  0.00    -0.003 C 
ATOM     22  C   UNL     1     -15.217  -4.230   8.588  1.00  0.00     0.004 C 
ENDBRANCH  20  21
ENDBRANCH  19  20
ENDBRANCH  18  19
ENDBRANCH  17  18
ENDBRANCH  16  17
ENDBRANCH  12  16
ENDBRANCH   9  12
ENDBRANCH   6   9
ENDBRANCH   3   5
ENDBRANCH   2   3
BRANCH   2  23
ATOM     23  N   UNL     1      -9.843  -9.159   6.859  1.00  0.00    -0.332 N 
ATOM     24  C   UNL     1      -9.066  -9.021   5.637  1.00  0.00     0.147 C 
BRANCH  23  25
ATOM     25  C   UNL     1     -10.872  -8.105   7.070  1.00  0.00     0.174 C 
BRANCH  25  26
ATOM     26  C   UNL     1     -11.675  -7.782   5.788  1.00  0.00     0.038 C 
BRANCH  26  27
ATOM     27  C   UNL     1     -13.153  -7.373   5.972  1.00  0.00    -0.015 C 
ATOM     28  C   UNL     1     -13.743  -7.889   7.284  1.00  0.00     0.007 C 
ATOM     29  C   UNL     1     -13.390  -5.872   5.830  1.00  0.00     0.007 C 
ENDBRANCH  26  27
ENDBRANCH  25  26
BRANCH  25  30
ATOM     30  C   UNL     1     -10.233  -6.863   7.733  1.00  0.00     0.243 C 
ATOM     31  O   UNL     1     -10.387  -6.611   8.927  1.00  0.00    -0.273 OA
ATOM     32  N   UNL     1      -9.493  -6.062   6.902  1.00  0.00    -0.342 N 
ATOM     33  H   UNL     1      -9.295  -6.411   5.960  1.00  0.00     0.164 HD
BRANCH  32  34
ATOM     34  C   UNL     1      -8.838  -4.830   7.350  1.00  0.00     0.175 C 
BRANCH  34  35
ATOM     35  C   UNL     1      -7.336  -5.051   7.591  1.00  0.00     0.070 C 
BRANCH  35  36
ATOM     36  C   UNL     1      -6.929  -4.786   9.022  1.00  0.00    -0.045 A 
ATOM     37  C   UNL     1      -6.724  -3.469   9.461  1.00  0.00     0.007 A 
ATOM     38  C   UNL     1      -6.728  -5.843   9.920  1.00  0.00     0.007 A 
ATOM     39  C   UNL     1      -6.334  -3.215  10.777  1.00  0.00     0.046 A 
ATOM     40  C   UNL     1      -6.337  -5.590  11.237  1.00  0.00     0.046 A 
ATOM     41  C   UNL     1      -6.145  -4.277  11.654  1.00  0.00     0.115 A 
BRANCH  41  42
ATOM     42  O   UNL     1      -5.761  -3.986  12.930  1.00  0.00    -0.508 OA
ATOM     43  H   UNL     1      -6.139  -3.125  13.173  1.00  0.00     0.293 HD
ENDBRANCH  41  42
ENDBRANCH  35  36
ENDBRANCH  34  35
BRANCH  34  44
ATOM     44  C   UNL     1      -9.097  -3.737   6.289  1.00  0.00     0.243 C 
ATOM     45  O   UNL     1      -8.426  -2.716   6.165  1.00  0.00    -0.273 OA
ATOM     46  N   UNL     1     -10.248  -3.943   5.558  1.00  0.00    -0.341 N 
ATOM     47  H   UNL     1     -10.835  -4.744   5.777  1.00  0.00     0.164 HD
BRANCH  46  48
ATOM     48  C   UNL     1     -10.737  -3.007   4.543  1.00  0.00     0.196 C 
BRANCH  48  49
ATOM     49  C   UNL     1     -11.583  -3.727   3.479  1.00  0.00     0.072 C 
BRANCH  49  50
ATOM     50  C   UNL     1     -10.782  -4.727   2.677  1.00  0.00    -0.045 A 
ATOM     51  C   UNL     1     -11.228  -6.052   2.566  1.00  0.00     0.007 A 
ATOM     52  C   UNL     1      -9.583  -4.357   2.054  1.00  0.00     0.007 A 
ATOM     53  C   UNL     1     -10.490  -6.987   1.839  1.00  0.00     0.046 A 
ATOM     54  C   UNL     1      -8.844  -5.293   1.328  1.00  0.00     0.046 A 
ATOM     55  C   UNL     1      -9.305  -6.600   1.225  1.00  0.00     0.115 A 
BRANCH  55  56
ATOM     56  O   UNL     1      -8.613  -7.545   0.526  1.00  0.00    -0.508 OA
ATOM     57  H   UNL     1      -8.451  -8.301   1.111  1.00  0.00     0.293 HD
ENDBRANCH  55  56
ENDBRANCH  49  50
ENDBRANCH  48  49
BRANCH  48  58
ATOM     58  C   UNL     1     -11.582  -1.924   5.227  1.00  0.00     0.326 C 
ATOM     59  O   UNL     1     -12.784  -1.948   5.437  1.00  0.00    -0.250 OA
BRANCH  58  60
ATOM     60  O   UNL     1     -10.859  -0.851   5.635  1.00  0.00    -0.480 OA
ATOM     61  H   UNL     1     -11.196  -0.682   6.541  1.00  0.00     0.296 HD
ENDBRANCH  58  60
ENDBRANCH  48  58
ENDBRANCH  46  48
ENDBRANCH  34  44
ENDBRANCH  32  34
ENDBRANCH  25  30
ENDBRANCH  23  25
ENDBRANCH   2  23
TORSDOF 28
ENDMDL
MODEL 5
REMARK VINA RESULT:    -6.417      6.380     11.150
REMARK INTER + INTRA:         -20.127
REMARK INTER:                 -14.799
REMARK INTRA:                  -5.328
REMARK UNBOUND:                -4.143
REMARK SMILES CCCCCCC[C@H](N)[C@H](O)C(=O)N[C@H](C)C(=O)N(C)[C@H](CC(C)C)C(=O)N[C@@H](Cc1ccc(O)cc1)C(=O)N[C@@H](Cc1ccc(O)cc1)C(=O)O
REMARK SMILES IDX 18 1 17 2 15 3 16 4 14 5 12 6 13 7 10 9 11 10 8 12 9 13 7 16
REMARK SMILES IDX 6 17 5 18 4 19 3 20 2 21 1 22 19 23 20 24 21 25 22 26 23 27
REMARK SMILES IDX 24 28 25 29 26 30 27 31 28 32 29 34 30 35 31 36 32 37 37 38
REMARK SMILES IDX 33 39 36 40 34 41 35 42 38 44 39 45 40 46 41 48 42 49 43 50
REMARK SMILES IDX 44 51 49 52 45 53 48 54 46 55 47 56 50 58 51 59 52 60
REMARK H PARENT 14 8 11 11 9 14 9 15 28 33 35 43 40 47 47 57 52 61
ROOT
ATOM      1  O   UNL     1      -6.438   1.057  -9.185  1.00  0.00    -0.272 OA
ATOM      2  C   UNL     1      -6.570   0.564 -10.315  1.00  0.00     0.245 C 
ENDROOT
BRANCH   2   3
ATOM      3  C   UNL     1      -7.974   0.072 -10.748  1.00  0.00     0.168 C 
ATOM      4  C   UNL     1      -8.371   0.681 -12.088  1.00  0.00     0.041 C 
BRANCH   3   5
ATOM      5  N   UNL     1      -8.145  -1.373 -10.738  1.00  0.00    -0.342 N 
ATOM      6  C   UNL     1      -8.432  -2.064  -9.580  1.00  0.00     0.251 C 
ATOM      7  O   UNL     1      -8.524  -1.530  -8.479  1.00  0.00    -0.272 OA
ATOM      8  H   UNL     1      -8.058  -1.929 -11.585  1.00  0.00     0.164 HD
BRANCH   6   9
ATOM      9  C   UNL     1      -8.710  -3.555  -9.831  1.00  0.00     0.219 C 
BRANCH   9  10
ATOM     10  O   UNL     1      -9.712  -3.769 -10.832  1.00  0.00    -0.382 OA
ATOM     11  H   UNL     1      -9.705  -2.933 -11.348  1.00  0.00     0.211 HD
ENDBRANCH   9  10
BRANCH   9  12
ATOM     12  C   UNL     1      -7.429  -4.368 -10.150  1.00  0.00     0.089 C 
BRANCH  12  13
ATOM     13  N   UNL     1      -6.921  -3.939 -11.474  1.00  0.00    -0.325 NA
ATOM     14  H   UNL     1      -6.387  -4.702 -11.892  1.00  0.00     0.119 HD
ATOM     15  H   UNL     1      -6.245  -3.183 -11.340  1.00  0.00     0.119 HD
ENDBRANCH  12  13
BRANCH  12  16
ATOM     16  C   UNL     1      -6.297  -4.292  -9.097  1.00  0.00     0.022 C 
BRANCH  16  17
ATOM     17  C   UNL     1      -5.007  -3.535  -9.440  1.00  0.00     0.002 C 
BRANCH  17  18
ATOM     18  C   UNL     1      -3.753  -4.048  -8.735  1.00  0.00     0.000 C 
BRANCH  18  19
ATOM     19  C   UNL     1      -2.755  -2.946  -8.356  1.00  0.00    -0.000 C 
BRANCH  19  20
ATOM     20  C   UNL     1      -2.759  -1.721  -9.275  1.00  0.00    -0.000 C 
BRANCH  20  21
ATOM     21  C   UNL     1      -1.474  -0.894  -9.177  1.00  0.00    -0.003 C 
ATOM     22  C   UNL     1      -0.831  -1.027  -7.805  1.00  0.00     0.004 C 
ENDBRANCH  20  21
ENDBRANCH  19  20
ENDBRANCH  18  19
ENDBRANCH  17  18
ENDBRANCH  16  17
ENDBRANCH  12  16
ENDBRANCH   9  12
ENDBRANCH   6   9
ENDBRANCH   3   5
ENDBRANCH   2   3
BRANCH   2  23
ATOM     23  N   UNL     1      -5.504   0.573 -11.207  1.00  0.00    -0.332 N 
ATOM     24  C   UNL     1      -4.918  -0.617 -11.805  1.00  0.00     0.147 C 
BRANCH  23  25
ATOM     25  C   UNL     1      -4.962   1.862 -11.717  1.00  0.00     0.174 C 
BRANCH  25  26
ATOM     26  C   UNL     1      -4.900   1.921 -13.261  1.00  0.00     0.038 C 
BRANCH  26  27
ATOM     27  C   UNL     1      -5.879   2.888 -13.965  1.00  0.00    -0.015 C 
ATOM     28  C   UNL     1      -5.781   4.314 -13.425  1.00  0.00     0.007 C 
ATOM     29  C   UNL     1      -5.754   2.879 -15.486  1.00  0.00     0.007 C 
ENDBRANCH  26  27
ENDBRANCH  25  26
BRANCH  25  30
ATOM     30  C   UNL     1      -3.615   2.183 -11.029  1.00  0.00     0.243 C 
ATOM     31  O   UNL     1      -3.423   1.951  -9.836  1.00  0.00    -0.273 OA
ATOM     32  N   UNL     1      -2.657   2.746 -11.833  1.00  0.00    -0.342 N 
ATOM     33  H   UNL     1      -2.841   2.776 -12.839  1.00  0.00     0.164 HD
BRANCH  32  34
ATOM     34  C   UNL     1      -1.332   3.140 -11.346  1.00  0.00     0.175 C 
BRANCH  34  35
ATOM     35  C   UNL     1      -0.236   2.217 -11.900  1.00  0.00     0.070 C 
BRANCH  35  36
ATOM     36  C   UNL     1       0.717   1.733 -10.831  1.00  0.00    -0.045 A 
ATOM     37  C   UNL     1       1.711   0.796 -11.149  1.00  0.00     0.007 A 
ATOM     38  C   UNL     1       0.609   2.191  -9.511  1.00  0.00     0.007 A 
ATOM     39  C   UNL     1       2.586   0.333 -10.165  1.00  0.00     0.046 A 
ATOM     40  C   UNL     1       1.484   1.727  -8.526  1.00  0.00     0.046 A 
ATOM     41  C   UNL     1       2.466   0.802  -8.863  1.00  0.00     0.115 A 
BRANCH  41  42
ATOM     42  O   UNL     1       3.339   0.322  -7.932  1.00  0.00    -0.508 OA
ATOM     43  H   UNL     1       4.214   0.241  -8.347  1.00  0.00     0.293 HD
ENDBRANCH  41  42
ENDBRANCH  35  36
ENDBRANCH  34  35
BRANCH  34  44
ATOM     44  C   UNL     1      -1.098   4.616 -11.738  1.00  0.00     0.243 C 
ATOM     45  O   UNL     1      -1.992   5.444 -11.892  1.00  0.00    -0.273 OA
ATOM     46  N   UNL     1       0.218   4.903 -12.035  1.00  0.00    -0.341 N 
ATOM     47  H   UNL     1       0.905   4.154 -12.006  1.00  0.00     0.164 HD
BRANCH  46  48
ATOM     48  C   UNL     1       0.672   6.216 -12.496  1.00  0.00     0.196 C 
BRANCH  48  49
ATOM     49  C   UNL     1       1.968   6.642 -11.786  1.00  0.00     0.072 C 
BRANCH  49  50
ATOM     50  C   UNL     1       2.873   5.471 -11.476  1.00  0.00    -0.045 A 
ATOM     51  C   UNL     1       3.490   4.768 -12.522  1.00  0.00     0.007 A 
ATOM     52  C   UNL     1       3.093   5.059 -10.156  1.00  0.00     0.007 A 
ATOM     53  C   UNL     1       4.316   3.678 -12.249  1.00  0.00     0.046 A 
ATOM     54  C   UNL     1       3.920   3.967  -9.883  1.00  0.00     0.046 A 
ATOM     55  C   UNL     1       4.526   3.286 -10.933  1.00  0.00     0.115 A 
BRANCH  55  56
ATOM     56  O   UNL     1       5.339   2.215 -10.709  1.00  0.00    -0.508 OA
ATOM     57  H   UNL     1       5.062   1.788  -9.883  1.00  0.00     0.293 HD
ENDBRANCH  55  56
ENDBRANCH  49  50
ENDBRANCH  48  49
BRANCH  48  58
ATOM     58  C   UNL     1       0.911   6.158 -14.011  1.00  0.00     0.326 C 
ATOM     59  O   UNL     1       0.554   5.282 -14.783  1.00  0.00    -0.250 OA
BRANCH  58  60
ATOM     60  O   UNL     1       1.587   7.231 -14.495  1.00  0.00    -0.480 OA
ATOM     61  H   UNL     1       1.331   7.251 -15.442  1.00  0.00     0.296 HD
ENDBRANCH  58  60
ENDBRANCH  48  58
ENDBRANCH  46  48
ENDBRANCH  34  44
ENDBRANCH  32  34
ENDBRANCH  25  30
ENDBRANCH  23  25
ENDBRANCH   2  23
TORSDOF 28
ENDMDL
MODEL 6
REMARK VINA RESULT:    -6.354     12.860     16.649
REMARK INTER + INTRA:         -19.970
REMARK INTER:                 -13.855
REMARK INTRA:                  -6.116
REMARK UNBOUND:                -4.143
REMARK SMILES CCCCCCC[C@H](N)[C@H](O)C(=O)N[C@H](C)C(=O)N(C)[C@H](CC(C)C)C(=O)N[C@@H](Cc1ccc(O)cc1)C(=O)N[C@@H](Cc1ccc(O)cc1)C(=O)O
REMARK SMILES IDX 18 1 17 2 15 3 16 4 14 5 12 6 13 7 10 9 11 10 8 12 9 13 7 16
REMARK SMILES IDX 6 17 5 18 4 19 3 20 2 21 1 22 19 23 20 24 21 25 22 26 23 27
REMARK SMILES IDX 24 28 25 29 26 30 27 31 28 32 29 34 30 35 31 36 32 37 37 38
REMARK SMILES IDX 33 39 36 40 34 41 35 42 38 44 39 45 40 46 41 48 42 49 43 50
REMARK SMILES IDX 44 51 49 52 45 53 48 54 46 55 47 56 50 58 51 59 52 60
REMARK H PARENT 14 8 11 11 9 14 9 15 28 33 35 43 40 47 47 57 52 61
ROOT
ATOM      1  O   UNL     1     -13.478  -7.401   6.399  1.00  0.00    -0.272 OA
ATOM      2  C   UNL     1     -12.876  -7.367   5.315  1.00  0.00     0.245 C 
ENDROOT
BRANCH   2   3
ATOM      3  C   UNL     1     -12.968  -6.081   4.457  1.00  0.00     0.168 C 
ATOM      4  C   UNL     1     -14.312  -5.389   4.658  1.00  0.00     0.041 C 
BRANCH   3   5
ATOM      5  N   UNL     1     -11.854  -5.158   4.618  1.00  0.00    -0.342 N 
ATOM      6  C   UNL     1     -11.765  -4.307   5.699  1.00  0.00     0.251 C 
ATOM      7  O   UNL     1     -12.622  -4.231   6.573  1.00  0.00    -0.272 OA
ATOM      8  H   UNL     1     -11.099  -5.106   3.938  1.00  0.00     0.164 HD
BRANCH   6   9
ATOM      9  C   UNL     1     -10.439  -3.530   5.735  1.00  0.00     0.219 C 
BRANCH   9  10
ATOM     10  O   UNL     1     -10.630  -2.119   5.896  1.00  0.00    -0.382 OA
ATOM     11  H   UNL     1     -10.910  -2.029   6.833  1.00  0.00     0.211 HD
ENDBRANCH   9  10
BRANCH   9  12
ATOM     12  C   UNL     1      -9.442  -4.074   6.791  1.00  0.00     0.089 C 
BRANCH  12  13
ATOM     13  N   UNL     1      -9.961  -5.364   7.302  1.00  0.00    -0.325 NA
ATOM     14  H   UNL     1     -10.897  -5.221   7.687  1.00  0.00     0.119 HD
ATOM     15  H   UNL     1      -9.388  -5.660   8.096  1.00  0.00     0.119 HD
ENDBRANCH  12  13
BRANCH  12  16
ATOM     16  C   UNL     1      -7.978  -4.240   6.319  1.00  0.00     0.022 C 
BRANCH  16  17
ATOM     17  C   UNL     1      -6.840  -4.038   7.329  1.00  0.00     0.002 C 
BRANCH  17  18
ATOM     18  C   UNL     1      -7.291  -3.784   8.766  1.00  0.00     0.000 C 
BRANCH  18  19
ATOM     19  C   UNL     1      -6.227  -3.114   9.645  1.00  0.00    -0.000 C 
BRANCH  19  20
ATOM     20  C   UNL     1      -6.403  -3.324  11.152  1.00  0.00    -0.000 C 
BRANCH  20  21
ATOM     21  C   UNL     1      -6.241  -4.787  11.576  1.00  0.00    -0.003 C 
ATOM     22  C   UNL     1      -4.860  -5.317  11.223  1.00  0.00     0.004 C 
ENDBRANCH  20  21
ENDBRANCH  19  20
ENDBRANCH  18  19
ENDBRANCH  17  18
ENDBRANCH  16  17
ENDBRANCH  12  16
ENDBRANCH   9  12
ENDBRANCH   6   9
ENDBRANCH   3   5
ENDBRANCH   2   3
BRANCH   2  23
ATOM     23  N   UNL     1     -12.043  -8.419   4.949  1.00  0.00    -0.332 N 
ATOM     24  C   UNL     1     -12.259  -9.280   3.796  1.00  0.00     0.147 C 
BRANCH  23  25
ATOM     25  C   UNL     1     -10.764  -8.651   5.674  1.00  0.00     0.174 C 
BRANCH  25  26
ATOM     26  C   UNL     1      -9.788  -9.564   4.896  1.00  0.00     0.038 C 
BRANCH  26  27
ATOM     27  C   UNL     1      -8.334  -9.064   4.741  1.00  0.00    -0.015 C 
ATOM     28  C   UNL     1      -8.080  -7.763   5.501  1.00  0.00     0.007 C 
ATOM     29  C   UNL     1      -7.288 -10.114   5.107  1.00  0.00     0.007 C 
ENDBRANCH  26  27
ENDBRANCH  25  26
BRANCH  25  30
ATOM     30  C   UNL     1     -11.049  -9.131   7.116  1.00  0.00     0.243 C 
ATOM     31  O   UNL     1     -11.454 -10.268   7.354  1.00  0.00    -0.273 OA
ATOM     32  N   UNL     1     -10.827  -8.207   8.104  1.00  0.00    -0.342 N 
ATOM     33  H   UNL     1     -10.358  -7.336   7.841  1.00  0.00     0.164 HD
BRANCH  32  34
ATOM     34  C   UNL     1     -11.069  -8.477   9.524  1.00  0.00     0.175 C 
BRANCH  34  35
ATOM     35  C   UNL     1      -9.851  -8.097  10.380  1.00  0.00     0.070 C 
BRANCH  35  36
ATOM     36  C   UNL     1      -8.537  -8.396   9.695  1.00  0.00    -0.045 A 
ATOM     37  C   UNL     1      -8.174  -9.724   9.423  1.00  0.00     0.007 A 
ATOM     38  C   UNL     1      -7.658  -7.364   9.344  1.00  0.00     0.007 A 
ATOM     39  C   UNL     1      -6.958 -10.011   8.803  1.00  0.00     0.046 A 
ATOM     40  C   UNL     1      -6.439  -7.650   8.724  1.00  0.00     0.046 A 
ATOM     41  C   UNL     1      -6.101  -8.973   8.458  1.00  0.00     0.115 A 
BRANCH  41  42
ATOM     42  O   UNL     1      -4.920  -9.296   7.857  1.00  0.00    -0.508 OA
ATOM     43  H   UNL     1      -4.266  -8.615   8.085  1.00  0.00     0.293 HD
ENDBRANCH  41  42
ENDBRANCH  35  36
ENDBRANCH  34  35
BRANCH  34  44
ATOM     44  C   UNL     1     -12.338  -7.704   9.949  1.00  0.00     0.243 C 
ATOM     45  O   UNL     1     -12.333  -6.577  10.435  1.00  0.00    -0.273 OA
ATOM     46  N   UNL     1     -13.493  -8.451   9.854  1.00  0.00    -0.341 N 
ATOM     47  H   UNL     1     -13.430  -9.421   9.555  1.00  0.00     0.164 HD
BRANCH  46  48
ATOM     48  C   UNL     1     -14.809  -7.956  10.264  1.00  0.00     0.196 C 
BRANCH  48  49
ATOM     49  C   UNL     1     -15.788  -7.920   9.079  1.00  0.00     0.072 C 
BRANCH  49  50
ATOM     50  C   UNL     1     -16.060  -6.514   8.591  1.00  0.00    -0.045 A 
ATOM     51  C   UNL     1     -17.097  -6.280   7.677  1.00  0.00     0.007 A 
ATOM     52  C   UNL     1     -15.276  -5.437   9.024  1.00  0.00     0.007 A 
ATOM     53  C   UNL     1     -17.349  -4.990   7.210  1.00  0.00     0.046 A 
ATOM     54  C   UNL     1     -15.528  -4.145   8.556  1.00  0.00     0.046 A 
ATOM     55  C   UNL     1     -16.564  -3.933   7.653  1.00  0.00     0.115 A 
BRANCH  55  56
ATOM     56  O   UNL     1     -16.841  -2.688   7.171  1.00  0.00    -0.508 OA
ATOM     57  H   UNL     1     -17.767  -2.481   7.375  1.00  0.00     0.293 HD
ENDBRANCH  55  56
ENDBRANCH  49  50
ENDBRANCH  48  49
BRANCH  48  58
ATOM     58  C   UNL     1     -15.366  -8.870  11.364  1.00  0.00     0.326 C 
ATOM     59  O   UNL     1     -14.729  -9.521  12.177  1.00  0.00    -0.250 OA
BRANCH  58  60
ATOM     60  O   UNL     1     -16.722  -8.910  11.399  1.00  0.00    -0.480 OA
ATOM     61  H   UNL     1     -16.929  -9.812  11.072  1.00  0.00     0.296 HD
ENDBRANCH  58  60
ENDBRANCH  48  58
ENDBRANCH  46  48
ENDBRANCH  34  44
ENDBRANCH  32  34
ENDBRANCH  25  30
ENDBRANCH  23  25
ENDBRANCH   2  23
TORSDOF 28
ENDMDL
MODEL 7
REMARK VINA RESULT:    -6.336      7.482     10.512
REMARK INTER + INTRA:         -19.925
REMARK INTER:                 -13.775
REMARK INTRA:                  -6.150
REMARK UNBOUND:                -4.143
REMARK SMILES CCCCCCC[C@H](N)[C@H](O)C(=O)N[C@H](C)C(=O)N(C)[C@H](CC(C)C)C(=O)N[C@@H](Cc1ccc(O)cc1)C(=O)N[C@@H](Cc1ccc(O)cc1)C(=O)O
REMARK SMILES IDX 18 1 17 2 15 3 16 4 14 5 12 6 13 7 10 9 11 10 8 12 9 13 7 16
REMARK SMILES IDX 6 17 5 18 4 19 3 20 2 21 1 22 19 23 20 24 21 25 22 26 23 27
REMARK SMILES IDX 24 28 25 29 26 30 27 31 28 32 29 34 30 35 31 36 32 37 37 38
REMARK SMILES IDX 33 39 36 40 34 41 35 42 38 44 39 45 40 46 41 48 42 49 43 50
REMARK SMILES IDX 44 51 49 52 45 53 48 54 46 55 47 56 50 58 51 59 52 60
REMARK H PARENT 14 8 11 11 9 14 9 15 28 33 35 43 40 47 47 57 52 61
ROOT
ATOM      1  O   UNL     1     -12.538  -3.197   5.299  1.00  0.00    -0.272 OA
ATOM      2  C   UNL     1     -12.278  -2.096   4.790  1.00  0.00     0.245 C 
ENDROOT
BRANCH   2   3
ATOM      3  C   UNL     1     -13.258  -0.920   5.027  1.00  0.00     0.168 C 
ATOM      4  C   UNL     1     -14.634  -1.436   5.435  1.00  0.00     0.041 C 
BRANCH   3   5
ATOM      5  N   UNL     1     -12.773   0.106   5.936  1.00  0.00    -0.342 N 
ATOM      6  C   UNL     1     -12.591   1.411   5.530  1.00  0.00     0.251 C 
ATOM      7  O   UNL     1     -12.780   1.794   4.380  1.00  0.00    -0.272 OA
ATOM      8  H   UNL     1     -12.548  -0.100   6.907  1.00  0.00     0.164 HD
BRANCH   6   9
ATOM      9  C   UNL     1     -12.210   2.347   6.688  1.00  0.00     0.219 C 
BRANCH   9  10
ATOM     10  O   UNL     1     -12.603   1.832   7.966  1.00  0.00    -0.382 OA
ATOM     11  H   UNL     1     -12.508   2.605   8.566  1.00  0.00     0.211 HD
ENDBRANCH   9  10
BRANCH   9  12
ATOM     12  C   UNL     1     -10.708   2.735   6.689  1.00  0.00     0.089 C 
BRANCH  12  13
ATOM     13  N   UNL     1      -9.967   1.735   5.887  1.00  0.00    -0.325 NA
ATOM     14  H   UNL     1     -10.492   0.859   5.874  1.00  0.00     0.119 HD
ATOM     15  H   UNL     1      -9.089   1.514   6.364  1.00  0.00     0.119 HD
ENDBRANCH  12  13
BRANCH  12  16
ATOM     16  C   UNL     1     -10.377   4.164   6.196  1.00  0.00     0.022 C 
BRANCH  16  17
ATOM     17  C   UNL     1     -11.434   4.944   5.402  1.00  0.00     0.002 C 
BRANCH  17  18
ATOM     18  C   UNL     1     -12.016   6.158   6.123  1.00  0.00     0.000 C 
BRANCH  18  19
ATOM     19  C   UNL     1     -13.196   6.812   5.393  1.00  0.00    -0.000 C 
BRANCH  19  20
ATOM     20  C   UNL     1     -13.263   6.537   3.888  1.00  0.00    -0.000 C 
BRANCH  20  21
ATOM     21  C   UNL     1     -13.695   7.759   3.074  1.00  0.00    -0.003 C 
ATOM     22  C   UNL     1     -12.739   8.925   3.274  1.00  0.00     0.004 C 
ENDBRANCH  20  21
ENDBRANCH  19  20
ENDBRANCH  18  19
ENDBRANCH  17  18
ENDBRANCH  16  17
ENDBRANCH  12  16
ENDBRANCH   9  12
ENDBRANCH   6   9
ENDBRANCH   3   5
ENDBRANCH   2   3
BRANCH   2  23
ATOM     23  N   UNL     1     -11.070  -1.904   4.128  1.00  0.00    -0.332 N 
ATOM     24  C   UNL     1      -9.785  -1.729   4.789  1.00  0.00     0.147 C 
BRANCH  23  25
ATOM     25  C   UNL     1     -11.004  -1.995   2.644  1.00  0.00     0.174 C 
BRANCH  25  26
ATOM     26  C   UNL     1     -10.226  -3.238   2.151  1.00  0.00     0.038 C 
BRANCH  26  27
ATOM     27  C   UNL     1     -10.932  -4.606   2.290  1.00  0.00    -0.015 C 
ATOM     28  C   UNL     1     -10.906  -5.411   0.991  1.00  0.00     0.007 C 
ATOM     29  C   UNL     1     -10.407  -5.445   3.452  1.00  0.00     0.007 C 
ENDBRANCH  26  27
ENDBRANCH  25  26
BRANCH  25  30
ATOM     30  C   UNL     1     -10.487  -0.664   2.051  1.00  0.00     0.243 C 
ATOM     31  O   UNL     1      -9.293  -0.470   1.832  1.00  0.00    -0.273 OA
ATOM     32  N   UNL     1     -11.446   0.282   1.794  1.00  0.00    -0.342 N 
ATOM     33  H   UNL     1     -12.426  -0.003   1.869  1.00  0.00     0.164 HD
BRANCH  32  34
ATOM     34  C   UNL     1     -11.138   1.611   1.258  1.00  0.00     0.175 C 
BRANCH  34  35
ATOM     35  C   UNL     1     -10.360   2.458   2.277  1.00  0.00     0.070 C 
BRANCH  35  36
ATOM     36  C   UNL     1     -10.348   3.929   1.926  1.00  0.00    -0.045 A 
ATOM     37  C   UNL     1     -11.388   4.476   1.158  1.00  0.00     0.007 A 
ATOM     38  C   UNL     1      -9.297   4.758   2.338  1.00  0.00     0.007 A 
ATOM     39  C   UNL     1     -11.378   5.829   0.818  1.00  0.00     0.046 A 
ATOM     40  C   UNL     1      -9.286   6.113   1.997  1.00  0.00     0.046 A 
ATOM     41  C   UNL     1     -10.329   6.636   1.240  1.00  0.00     0.115 A 
BRANCH  41  42
ATOM     42  O   UNL     1     -10.356   7.952   0.883  1.00  0.00    -0.508 OA
ATOM     43  H   UNL     1     -10.540   8.479   1.679  1.00  0.00     0.293 HD
ENDBRANCH  41  42
ENDBRANCH  35  36
ENDBRANCH  34  35
BRANCH  34  44
ATOM     44  C   UNL     1     -10.350   1.425  -0.059  1.00  0.00     0.243 C 
ATOM     45  O   UNL     1     -10.829   0.974  -1.096  1.00  0.00    -0.273 OA
ATOM     46  N   UNL     1      -9.003   1.691   0.066  1.00  0.00    -0.341 N 
ATOM     47  H   UNL     1      -8.632   1.949   0.977  1.00  0.00     0.164 HD
BRANCH  46  48
ATOM     48  C   UNL     1      -8.043   1.520  -1.028  1.00  0.00     0.196 C 
BRANCH  48  49
ATOM     49  C   UNL     1      -7.217   2.797  -1.252  1.00  0.00     0.072 C 
BRANCH  49  50
ATOM     50  C   UNL     1      -8.064   3.968  -1.697  1.00  0.00    -0.045 A 
ATOM     51  C   UNL     1      -7.752   5.263  -1.259  1.00  0.00     0.007 A 
ATOM     52  C   UNL     1      -9.177   3.778  -2.526  1.00  0.00     0.007 A 
ATOM     53  C   UNL     1      -8.534   6.349  -1.652  1.00  0.00     0.046 A 
ATOM     54  C   UNL     1      -9.961   4.866  -2.918  1.00  0.00     0.046 A 
ATOM     55  C   UNL     1      -9.632   6.143  -2.478  1.00  0.00     0.115 A 
BRANCH  55  56
ATOM     56  O   UNL     1     -10.372   7.230  -2.837  1.00  0.00    -0.508 OA
ATOM     57  H   UNL     1     -10.065   7.536  -3.705  1.00  0.00     0.293 HD
ENDBRANCH  55  56
ENDBRANCH  49  50
ENDBRANCH  48  49
BRANCH  48  58
ATOM     58  C   UNL     1      -7.105   0.352  -0.691  1.00  0.00     0.326 C 
ATOM     59  O   UNL     1      -5.918   0.414  -0.414  1.00  0.00    -0.250 OA
BRANCH  58  60
ATOM     60  O   UNL     1      -7.720  -0.857  -0.704  1.00  0.00    -0.480 OA
ATOM     61  H   UNL     1      -6.992  -1.479  -0.920  1.00  0.00     0.296 HD
ENDBRANCH  58  60
ENDBRANCH  48  58
ENDBRANCH  46  48
ENDBRANCH  34  44
ENDBRANCH  32  34
ENDBRANCH  25  30
ENDBRANCH  23  25
ENDBRANCH   2  23
TORSDOF 28
ENDMDL
MODEL 8
REMARK VINA RESULT:    -6.315      5.773     11.032
REMARK INTER + INTRA:         -19.873
REMARK INTER:                 -14.258
REMARK INTRA:                  -5.615
REMARK UNBOUND:                -4.143
REMARK SMILES CCCCCCC[C@H](N)[C@H](O)C(=O)N[C@H](C)C(=O)N(C)[C@H](CC(C)C)C(=O)N[C@@H](Cc1ccc(O)cc1)C(=O)N[C@@H](Cc1ccc(O)cc1)C(=O)O
REMARK SMILES IDX 18 1 17 2 15 3 16 4 14 5 12 6 13 7 10 9 11 10 8 12 9 13 7 16
REMARK SMILES IDX 6 17 5 18 4 19 3 20 2 21 1 22 19 23 20 24 21 25 22 26 23 27
REMARK SMILES IDX 24 28 25 29 26 30 27 31 28 32 29 34 30 35 31 36 32 37 37 38
REMARK SMILES IDX 33 39 36 40 34 41 35 42 38 44 39 45 40 46 41 48 42 49 43 50
REMARK SMILES IDX 44 51 49 52 45 53 48 54 46 55 47 56 50 58 51 59 52 60
REMARK H PARENT 14 8 11 11 9 14 9 15 28 33 35 43 40 47 47 57 52 61
ROOT
ATOM      1  O   UNL     1      -3.336   0.492 -12.510  1.00  0.00    -0.272 OA
ATOM      2  C   UNL     1      -3.766   1.534 -13.027  1.00  0.00     0.245 C 
ENDROOT
BRANCH   2   3
ATOM      3  C   UNL     1      -5.190   1.526 -13.636  1.00  0.00     0.168 C 
ATOM      4  C   UNL     1      -5.163   1.012 -15.071  1.00  0.00     0.041 C 
BRANCH   3   5
ATOM      5  N   UNL     1      -6.194   0.843 -12.834  1.00  0.00    -0.342 N 
ATOM      6  C   UNL     1      -7.067   1.532 -12.020  1.00  0.00     0.251 C 
ATOM      7  O   UNL     1      -7.041   2.750 -11.877  1.00  0.00    -0.272 OA
ATOM      8  H   UNL     1      -6.289  -0.170 -12.843  1.00  0.00     0.164 HD
BRANCH   6   9
ATOM      9  C   UNL     1      -8.128   0.621 -11.381  1.00  0.00     0.219 C 
BRANCH   9  10
ATOM     10  O   UNL     1      -9.176   0.270 -12.293  1.00  0.00    -0.382 OA
ATOM     11  H   UNL     1      -8.939  -0.639 -12.578  1.00  0.00     0.211 HD
ENDBRANCH   9  10
BRANCH   9  12
ATOM     12  C   UNL     1      -7.525  -0.646 -10.721  1.00  0.00     0.089 C 
BRANCH  12  13
ATOM     13  N   UNL     1      -6.527  -0.218  -9.713  1.00  0.00    -0.325 NA
ATOM     14  H   UNL     1      -5.594  -0.259 -10.127  1.00  0.00     0.119 HD
ATOM     15  H   UNL     1      -6.511  -0.901  -8.952  1.00  0.00     0.119 HD
ENDBRANCH  12  13
BRANCH  12  16
ATOM     16  C   UNL     1      -8.538  -1.626 -10.082  1.00  0.00     0.022 C 
BRANCH  16  17
ATOM     17  C   UNL     1      -8.405  -1.973  -8.593  1.00  0.00     0.002 C 
BRANCH  17  18
ATOM     18  C   UNL     1      -7.879  -3.377  -8.303  1.00  0.00     0.000 C 
BRANCH  18  19
ATOM     19  C   UNL     1      -7.416  -4.141  -9.551  1.00  0.00    -0.000 C 
BRANCH  19  20
ATOM     20  C   UNL     1      -7.750  -5.635  -9.559  1.00  0.00    -0.000 C 
BRANCH  20  21
ATOM     21  C   UNL     1      -9.104  -5.943 -10.203  1.00  0.00    -0.003 C 
ATOM     22  C   UNL     1      -9.415  -4.973 -11.332  1.00  0.00     0.004 C 
ENDBRANCH  20  21
ENDBRANCH  19  20
ENDBRANCH  18  19
ENDBRANCH  17  18
ENDBRANCH  16  17
ENDBRANCH  12  16
ENDBRANCH   9  12
ENDBRANCH   6   9
ENDBRANCH   3   5
ENDBRANCH   2   3
BRANCH   2  23
ATOM     23  N   UNL     1      -3.024   2.708 -12.945  1.00  0.00    -0.332 N 
ATOM     24  C   UNL     1      -2.793   3.618 -14.058  1.00  0.00     0.147 C 
BRANCH  23  25
ATOM     25  C   UNL     1      -2.511   3.182 -11.631  1.00  0.00     0.174 C 
BRANCH  25  26
ATOM     26  C   UNL     1      -2.182   4.693 -11.623  1.00  0.00     0.038 C 
BRANCH  26  27
ATOM     27  C   UNL     1      -1.040   5.156 -10.690  1.00  0.00    -0.015 C 
ATOM     28  C   UNL     1       0.179   5.659 -11.464  1.00  0.00     0.007 C 
ATOM     29  C   UNL     1      -1.481   6.187  -9.654  1.00  0.00     0.007 C 
ENDBRANCH  26  27
ENDBRANCH  25  26
BRANCH  25  30
ATOM     30  C   UNL     1      -1.339   2.288 -11.164  1.00  0.00     0.243 C 
ATOM     31  O   UNL     1      -0.326   2.135 -11.846  1.00  0.00    -0.273 OA
ATOM     32  N   UNL     1      -1.507   1.676  -9.949  1.00  0.00    -0.342 N 
ATOM     33  H   UNL     1      -2.308   1.963  -9.381  1.00  0.00     0.164 HD
BRANCH  32  34
ATOM     34  C   UNL     1      -0.514   0.773  -9.361  1.00  0.00     0.175 C 
BRANCH  34  35
ATOM     35  C   UNL     1       0.113   1.379  -8.096  1.00  0.00     0.070 C 
BRANCH  35  36
ATOM     36  C   UNL     1       0.998   2.568  -8.393  1.00  0.00    -0.045 A 
ATOM     37  C   UNL     1       2.053   2.446  -9.310  1.00  0.00     0.007 A 
ATOM     38  C   UNL     1       0.796   3.795  -7.747  1.00  0.00     0.007 A 
ATOM     39  C   UNL     1       2.884   3.534  -9.581  1.00  0.00     0.046 A 
ATOM     40  C   UNL     1       1.629   4.884  -8.016  1.00  0.00     0.046 A 
ATOM     41  C   UNL     1       2.665   4.743  -8.933  1.00  0.00     0.115 A 
BRANCH  41  42
ATOM     42  O   UNL     1       3.501   5.780  -9.224  1.00  0.00    -0.508 OA
ATOM     43  H   UNL     1       2.980   6.482  -9.648  1.00  0.00     0.293 HD
ENDBRANCH  41  42
ENDBRANCH  35  36
ENDBRANCH  34  35
BRANCH  34  44
ATOM     44  C   UNL     1      -1.206  -0.578  -9.073  1.00  0.00     0.243 C 
ATOM     45  O   UNL     1      -0.916  -1.320  -8.139  1.00  0.00    -0.273 OA
ATOM     46  N   UNL     1      -2.109  -0.950 -10.046  1.00  0.00    -0.341 N 
ATOM     47  H   UNL     1      -2.229  -0.356 -10.862  1.00  0.00     0.164 HD
BRANCH  46  48
ATOM     48  C   UNL     1      -2.837  -2.221 -10.025  1.00  0.00     0.196 C 
BRANCH  48  49
ATOM     49  C   UNL     1      -3.777  -2.307  -8.811  1.00  0.00     0.072 C 
BRANCH  49  50
ATOM     50  C   UNL     1      -3.846  -3.700  -8.227  1.00  0.00    -0.045 A 
ATOM     51  C   UNL     1      -4.648  -3.948  -7.103  1.00  0.00     0.007 A 
ATOM     52  C   UNL     1      -3.102  -4.751  -8.778  1.00  0.00     0.007 A 
ATOM     53  C   UNL     1      -4.710  -5.226  -6.547  1.00  0.00     0.046 A 
ATOM     54  C   UNL     1      -3.163  -6.030  -8.221  1.00  0.00     0.046 A 
ATOM     55  C   UNL     1      -3.968  -6.257  -7.110  1.00  0.00     0.115 A 
BRANCH  55  56
ATOM     56  O   UNL     1      -4.054  -7.491  -6.536  1.00  0.00    -0.508 OA
ATOM     57  H   UNL     1      -3.459  -7.514  -5.770  1.00  0.00     0.293 HD
ENDBRANCH  55  56
ENDBRANCH  49  50
ENDBRANCH  48  49
BRANCH  48  58
ATOM     58  C   UNL     1      -3.654  -2.349 -11.318  1.00  0.00     0.326 C 
ATOM     59  O   UNL     1      -4.868  -2.403 -11.423  1.00  0.00    -0.250 OA
BRANCH  58  60
ATOM     60  O   UNL     1      -2.890  -2.390 -12.439  1.00  0.00    -0.480 OA
ATOM     61  H   UNL     1      -2.619  -1.454 -12.561  1.00  0.00     0.296 HD
ENDBRANCH  58  60
ENDBRANCH  48  58
ENDBRANCH  46  48
ENDBRANCH  34  44
ENDBRANCH  32  34
ENDBRANCH  25  30
ENDBRANCH  23  25
ENDBRANCH   2  23
TORSDOF 28
ENDMDL
MODEL 9
REMARK VINA RESULT:    -6.273      3.376     11.321
REMARK INTER + INTRA:         -19.769
REMARK INTER:                 -15.399
REMARK INTRA:                  -4.369
REMARK UNBOUND:                -4.143
REMARK SMILES CCCCCCC[C@H](N)[C@H](O)C(=O)N[C@H](C)C(=O)N(C)[C@H](CC(C)C)C(=O)N[C@@H](Cc1ccc(O)cc1)C(=O)N[C@@H](Cc1ccc(O)cc1)C(=O)O
REMARK SMILES IDX 18 1 17 2 15 3 16 4 14 5 12 6 13 7 10 9 11 10 8 12 9 13 7 16
REMARK SMILES IDX 6 17 5 18 4 19 3 20 2 21 1 22 19 23 20 24 21 25 22 26 23 27
REMARK SMILES IDX 24 28 25 29 26 30 27 31 28 32 29 34 30 35 31 36 32 37 37 38
REMARK SMILES IDX 33 39 36 40 34 41 35 42 38 44 39 45 40 46 41 48 42 49 43 50
REMARK SMILES IDX 44 51 49 52 45 53 48 54 46 55 47 56 50 58 51 59 52 60
REMARK H PARENT 14 8 11 11 9 14 9 15 28 33 35 43 40 47 47 57 52 61
ROOT
ATOM      1  O   UNL     1      -6.923  -0.935  -3.400  1.00  0.00    -0.272 OA
ATOM      2  C   UNL     1      -7.760  -1.650  -3.972  1.00  0.00     0.245 C 
ENDROOT
BRANCH   2   3
ATOM      3  C   UNL     1      -7.564  -1.962  -5.476  1.00  0.00     0.168 C 
ATOM      4  C   UNL     1      -6.966  -0.762  -6.204  1.00  0.00     0.041 C 
BRANCH   3   5
ATOM      5  N   UNL     1      -6.831  -3.186  -5.757  1.00  0.00    -0.342 N 
ATOM      6  C   UNL     1      -7.443  -4.292  -6.308  1.00  0.00     0.251 C 
ATOM      7  O   UNL     1      -8.642  -4.345  -6.561  1.00  0.00    -0.272 OA
ATOM      8  H   UNL     1      -5.837  -3.274  -5.556  1.00  0.00     0.164 HD
BRANCH   6   9
ATOM      9  C   UNL     1      -6.450  -5.414  -6.648  1.00  0.00     0.219 C 
BRANCH   9  10
ATOM     10  O   UNL     1      -7.061  -6.711  -6.651  1.00  0.00    -0.382 OA
ATOM     11  H   UNL     1      -7.033  -6.981  -5.707  1.00  0.00     0.211 HD
ENDBRANCH   9  10
BRANCH   9  12
ATOM     12  C   UNL     1      -5.679  -5.166  -7.970  1.00  0.00     0.089 C 
BRANCH  12  13
ATOM     13  N   UNL     1      -6.471  -4.233  -8.804  1.00  0.00    -0.325 NA
ATOM     14  H   UNL     1      -6.472  -3.309  -8.368  1.00  0.00     0.119 HD
ATOM     15  H   UNL     1      -7.449  -4.532  -8.798  1.00  0.00     0.119 HD
ENDBRANCH  12  13
BRANCH  12  16
ATOM     16  C   UNL     1      -4.229  -4.646  -7.823  1.00  0.00     0.022 C 
BRANCH  16  17
ATOM     17  C   UNL     1      -3.092  -5.391  -8.534  1.00  0.00     0.002 C 
BRANCH  17  18
ATOM     18  C   UNL     1      -2.841  -6.812  -8.034  1.00  0.00     0.000 C 
BRANCH  18  19
ATOM     19  C   UNL     1      -3.018  -7.893  -9.109  1.00  0.00    -0.000 C 
BRANCH  19  20
ATOM     20  C   UNL     1      -3.742  -9.160  -8.645  1.00  0.00    -0.000 C 
BRANCH  20  21
ATOM     21  C   UNL     1      -4.942  -9.522  -9.524  1.00  0.00    -0.003 C 
ATOM     22  C   UNL     1      -5.620  -8.278 -10.077  1.00  0.00     0.004 C 
ENDBRANCH  20  21
ENDBRANCH  19  20
ENDBRANCH  18  19
ENDBRANCH  17  18
ENDBRANCH  16  17
ENDBRANCH  12  16
ENDBRANCH   9  12
ENDBRANCH   6   9
ENDBRANCH   3   5
ENDBRANCH   2   3
BRANCH   2  23
ATOM     23  N   UNL     1      -8.776  -2.253  -3.239  1.00  0.00    -0.332 N 
ATOM     24  C   UNL     1     -10.019  -2.755  -3.807  1.00  0.00     0.147 C 
BRANCH  23  25
ATOM     25  C   UNL     1      -8.587  -2.544  -1.791  1.00  0.00     0.174 C 
BRANCH  25  26
ATOM     26  C   UNL     1      -8.958  -3.998  -1.415  1.00  0.00     0.038 C 
BRANCH  26  27
ATOM     27  C   UNL     1      -7.806  -5.028  -1.381  1.00  0.00    -0.015 C 
ATOM     28  C   UNL     1      -7.294  -5.378  -2.778  1.00  0.00     0.007 C 
ATOM     29  C   UNL     1      -6.651  -4.617  -0.472  1.00  0.00     0.007 C 
ENDBRANCH  26  27
ENDBRANCH  25  26
BRANCH  25  30
ATOM     30  C   UNL     1      -9.309  -1.478  -0.935  1.00  0.00     0.243 C 
ATOM     31  O   UNL     1     -10.427  -1.673  -0.461  1.00  0.00    -0.273 OA
ATOM     32  N   UNL     1      -8.624  -0.305  -0.747  1.00  0.00    -0.342 N 
ATOM     33  H   UNL     1      -7.648  -0.273  -1.052  1.00  0.00     0.164 HD
BRANCH  32  34
ATOM     34  C   UNL     1      -9.164   0.826   0.012  1.00  0.00     0.175 C 
BRANCH  34  35
ATOM     35  C   UNL     1      -8.327   1.104   1.270  1.00  0.00     0.070 C 
BRANCH  35  36
ATOM     36  C   UNL     1      -9.099   0.871   2.550  1.00  0.00    -0.045 A 
ATOM     37  C   UNL     1      -9.687  -0.378   2.797  1.00  0.00     0.007 A 
ATOM     38  C   UNL     1      -9.258   1.897   3.490  1.00  0.00     0.007 A 
ATOM     39  C   UNL     1     -10.413  -0.599   3.968  1.00  0.00     0.046 A 
ATOM     40  C   UNL     1      -9.985   1.678   4.663  1.00  0.00     0.046 A 
ATOM     41  C   UNL     1     -10.555   0.430   4.891  1.00  0.00     0.115 A 
BRANCH  41  42
ATOM     42  O   UNL     1     -11.275   0.175   6.021  1.00  0.00    -0.508 OA
ATOM     43  H   UNL     1     -12.092  -0.284   5.765  1.00  0.00     0.293 HD
ENDBRANCH  41  42
ENDBRANCH  35  36
ENDBRANCH  34  35
BRANCH  34  44
ATOM     44  C   UNL     1      -9.219   2.051  -0.927  1.00  0.00     0.243 C 
ATOM     45  O   UNL     1      -9.922   2.124  -1.931  1.00  0.00    -0.273 OA
ATOM     46  N   UNL     1      -8.298   3.027  -0.611  1.00  0.00    -0.341 N 
ATOM     47  H   UNL     1      -7.656   2.869   0.161  1.00  0.00     0.164 HD
BRANCH  46  48
ATOM     48  C   UNL     1      -8.116   4.249  -1.398  1.00  0.00     0.196 C 
BRANCH  48  49
ATOM     49  C   UNL     1      -8.203   5.503  -0.512  1.00  0.00     0.072 C 
BRANCH  49  50
ATOM     50  C   UNL     1      -9.307   5.413   0.517  1.00  0.00    -0.045 A 
ATOM     51  C   UNL     1     -10.647   5.371   0.104  1.00  0.00     0.007 A 
ATOM     52  C   UNL     1      -9.015   5.391   1.887  1.00  0.00     0.007 A 
ATOM     53  C   UNL     1     -11.674   5.301   1.046  1.00  0.00     0.046 A 
ATOM     54  C   UNL     1     -10.043   5.322   2.830  1.00  0.00     0.046 A 
ATOM     55  C   UNL     1     -11.365   5.277   2.400  1.00  0.00     0.115 A 
BRANCH  55  56
ATOM     56  O   UNL     1     -12.398   5.210   3.288  1.00  0.00    -0.508 OA
ATOM     57  H   UNL     1     -12.682   6.114   3.495  1.00  0.00     0.293 HD
ENDBRANCH  55  56
ENDBRANCH  49  50
ENDBRANCH  48  49
BRANCH  48  58
ATOM     58  C   UNL     1      -6.746   4.200  -2.088  1.00  0.00     0.326 C 
ATOM     59  O   UNL     1      -5.686   4.623  -1.656  1.00  0.00    -0.250 OA
BRANCH  58  60
ATOM     60  O   UNL     1      -6.773   3.597  -3.303  1.00  0.00    -0.480 OA
ATOM     61  H   UNL     1      -5.884   3.792  -3.672  1.00  0.00     0.296 HD
ENDBRANCH  58  60
ENDBRANCH  48  58
ENDBRANCH  46  48
ENDBRANCH  34  44
ENDBRANCH  32  34
ENDBRANCH  25  30
ENDBRANCH  23  25
ENDBRANCH   2  23
TORSDOF 28
ENDMDL
MODEL 10
REMARK VINA RESULT:    -6.183      3.246      9.131
REMARK INTER + INTRA:         -19.544
REMARK INTER:                 -15.026
REMARK INTRA:                  -4.517
REMARK UNBOUND:                -4.143
REMARK SMILES CCCCCCC[C@H](N)[C@H](O)C(=O)N[C@H](C)C(=O)N(C)[C@H](CC(C)C)C(=O)N[C@@H](Cc1ccc(O)cc1)C(=O)N[C@@H](Cc1ccc(O)cc1)C(=O)O
REMARK SMILES IDX 18 1 17 2 15 3 16 4 14 5 12 6 13 7 10 9 11 10 8 12 9 13 7 16
REMARK SMILES IDX 6 17 5 18 4 19 3 20 2 21 1 22 19 23 20 24 21 25 22 26 23 27
REMARK SMILES IDX 24 28 25 29 26 30 27 31 28 32 29 34 30 35 31 36 32 37 37 38
REMARK SMILES IDX 33 39 36 40 34 41 35 42 38 44 39 45 40 46 41 48 42 49 43 50
REMARK SMILES IDX 44 51 49 52 45 53 48 54 46 55 47 56 50 58 51 59 52 60
REMARK H PARENT 14 8 11 11 9 14 9 15 28 33 35 43 40 47 47 57 52 61
ROOT
ATOM      1  O   UNL     1      -2.432   1.095  -6.104  1.00  0.00    -0.272 OA
ATOM      2  C   UNL     1      -2.686   0.647  -7.232  1.00  0.00     0.245 C 
ENDROOT
BRANCH   2   3
ATOM      3  C   UNL     1      -1.519   0.100  -8.092  1.00  0.00     0.168 C 
ATOM      4  C   UNL     1      -1.025  -1.236  -7.547  1.00  0.00     0.041 C 
BRANCH   3   5
ATOM      5  N   UNL     1      -1.789   0.036  -9.520  1.00  0.00    -0.342 N 
ATOM      6  C   UNL     1      -1.271   0.961 -10.401  1.00  0.00     0.251 C 
ATOM      7  O   UNL     1      -0.587   1.918 -10.052  1.00  0.00    -0.272 OA
ATOM      8  H   UNL     1      -2.372  -0.694  -9.923  1.00  0.00     0.164 HD
BRANCH   6   9
ATOM      9  C   UNL     1      -1.568   0.616 -11.869  1.00  0.00     0.219 C 
BRANCH   9  10
ATOM     10  O   UNL     1      -1.992  -0.742 -12.042  1.00  0.00    -0.382 OA
ATOM     11  H   UNL     1      -2.938  -0.658 -12.293  1.00  0.00     0.211 HD
ENDBRANCH   9  10
BRANCH   9  12
ATOM     12  C   UNL     1      -2.571   1.595 -12.534  1.00  0.00     0.089 C 
BRANCH  12  13
ATOM     13  N   UNL     1      -2.310   1.612 -13.991  1.00  0.00    -0.325 NA
ATOM     14  H   UNL     1      -3.200   1.574 -14.492  1.00  0.00     0.119 HD
ATOM     15  H   UNL     1      -1.821   0.753 -14.250  1.00  0.00     0.119 HD
ENDBRANCH  12  13
BRANCH  12  16
ATOM     16  C   UNL     1      -4.069   1.318 -12.265  1.00  0.00     0.022 C 
BRANCH  16  17
ATOM     17  C   UNL     1      -4.889   0.558 -13.317  1.00  0.00     0.002 C 
BRANCH  17  18
ATOM     18  C   UNL     1      -6.131   1.290 -13.818  1.00  0.00     0.000 C 
BRANCH  18  19
ATOM     19  C   UNL     1      -6.493   2.538 -13.002  1.00  0.00    -0.000 C 
BRANCH  19  20
ATOM     20  C   UNL     1      -7.737   2.401 -12.121  1.00  0.00    -0.000 C 
BRANCH  20  21
ATOM     21  C   UNL     1      -7.610   1.295 -11.071  1.00  0.00    -0.003 C 
ATOM     22  C   UNL     1      -8.543   0.133 -11.374  1.00  0.00     0.004 C 
ENDBRANCH  20  21
ENDBRANCH  19  20
ENDBRANCH  18  19
ENDBRANCH  17  18
ENDBRANCH  16  17
ENDBRANCH  12  16
ENDBRANCH   9  12
ENDBRANCH   6   9
ENDBRANCH   3   5
ENDBRANCH   2   3
BRANCH   2  23
ATOM     23  N   UNL     1      -4.006   0.530  -7.654  1.00  0.00    -0.332 N 
ATOM     24  C   UNL     1      -4.856   1.652  -8.026  1.00  0.00     0.147 C 
BRANCH  23  25
ATOM     25  C   UNL     1      -4.607  -0.813  -7.877  1.00  0.00     0.174 C 
BRANCH  25  26
ATOM     26  C   UNL     1      -5.402  -0.905  -9.201  1.00  0.00     0.038 C 
BRANCH  26  27
ATOM     27  C   UNL     1      -4.961  -1.991 -10.208  1.00  0.00    -0.015 C 
ATOM     28  C   UNL     1      -3.843  -2.877  -9.660  1.00  0.00     0.007 C 
ATOM     29  C   UNL     1      -6.117  -2.843 -10.727  1.00  0.00     0.007 C 
ENDBRANCH  26  27
ENDBRANCH  25  26
BRANCH  25  30
ATOM     30  C   UNL     1      -5.419  -1.246  -6.634  1.00  0.00     0.243 C 
ATOM     31  O   UNL     1      -5.079  -0.931  -5.495  1.00  0.00    -0.273 OA
ATOM     32  N   UNL     1      -6.532  -2.005  -6.888  1.00  0.00    -0.342 N 
ATOM     33  H   UNL     1      -6.826  -2.105  -7.863  1.00  0.00     0.164 HD
BRANCH  32  34
ATOM     34  C   UNL     1      -7.404  -2.527  -5.832  1.00  0.00     0.175 C 
BRANCH  34  35
ATOM     35  C   UNL     1      -8.815  -1.926  -5.924  1.00  0.00     0.070 C 
BRANCH  35  36
ATOM     36  C   UNL     1      -9.159  -1.057  -4.735  1.00  0.00    -0.045 A 
ATOM     37  C   UNL     1      -8.221  -0.139  -4.241  1.00  0.00     0.007 A 
ATOM     38  C   UNL     1     -10.402  -1.171  -4.098  1.00  0.00     0.007 A 
ATOM     39  C   UNL     1      -8.525   0.657  -3.136  1.00  0.00     0.046 A 
ATOM     40  C   UNL     1     -10.706  -0.376  -2.991  1.00  0.00     0.046 A 
ATOM     41  C   UNL     1      -9.764   0.533  -2.521  1.00  0.00     0.115 A 
BRANCH  41  42
ATOM     42  O   UNL     1     -10.020   1.326  -1.442  1.00  0.00    -0.508 OA
ATOM     43  H   UNL     1     -10.983   1.439  -1.368  1.00  0.00     0.293 HD
ENDBRANCH  41  42
ENDBRANCH  35  36
ENDBRANCH  34  35
BRANCH  34  44
ATOM     44  C   UNL     1      -7.424  -4.068  -5.945  1.00  0.00     0.243 C 
ATOM     45  O   UNL     1      -8.432  -4.734  -6.165  1.00  0.00    -0.273 OA
ATOM     46  N   UNL     1      -6.214  -4.656  -5.646  1.00  0.00    -0.341 N 
ATOM     47  H   UNL     1      -5.437  -4.068  -5.355  1.00  0.00     0.164 HD
BRANCH  46  48
ATOM     48  C   UNL     1      -6.007  -6.106  -5.620  1.00  0.00     0.196 C 
BRANCH  48  49
ATOM     49  C   UNL     1      -4.559  -6.472  -5.988  1.00  0.00     0.072 C 
BRANCH  49  50
ATOM     50  C   UNL     1      -4.458  -7.175  -7.322  1.00  0.00    -0.045 A 
ATOM     51  C   UNL     1      -3.213  -7.296  -7.957  1.00  0.00     0.007 A 
ATOM     52  C   UNL     1      -5.597  -7.694  -7.952  1.00  0.00     0.007 A 
ATOM     53  C   UNL     1      -3.110  -7.931  -9.194  1.00  0.00     0.046 A 
ATOM     54  C   UNL     1      -5.494  -8.329  -9.192  1.00  0.00     0.046 A 
ATOM     55  C   UNL     1      -4.249  -8.443  -9.802  1.00  0.00     0.115 A 
BRANCH  55  56
ATOM     56  O   UNL     1      -4.106  -9.055 -11.012  1.00  0.00    -0.508 OA
ATOM     57  H   UNL     1      -3.271  -8.758 -11.408  1.00  0.00     0.293 HD
ENDBRANCH  55  56
ENDBRANCH  49  50
ENDBRANCH  48  49
BRANCH  48  58
ATOM     58  C   UNL     1      -6.329  -6.631  -4.214  1.00  0.00     0.326 C 
ATOM     59  O   UNL     1      -6.933  -7.652  -3.927  1.00  0.00    -0.250 OA
BRANCH  58  60
ATOM     60  O   UNL     1      -5.855  -5.840  -3.219  1.00  0.00    -0.480 OA
ATOM     61  H   UNL     1      -6.551  -5.903  -2.529  1.00  0.00     0.296 HD
ENDBRANCH  58  60
ENDBRANCH  48  58
ENDBRANCH  46  48
ENDBRANCH  34  44
ENDBRANCH  32  34
ENDBRANCH  25  30
ENDBRANCH  23  25
ENDBRANCH   2  23
TORSDOF 28
ENDMDL
