MODEL 1
REMARK VINA RESULT:    -6.125      0.000      0.000
REMARK INTER + INTRA:         -24.048
REMARK INTER:                 -17.584
REMARK INTRA:                  -6.464
REMARK UNBOUND:                -6.464
REMARK SMILES CCCCCC(=O)N[C@H](CC(=O)O)C(=O)N[C@H]1C(=O)N[C@H](CCCN=C(N)N)C(=O)N[C@@H]2CC[C@H](O)N(C2=O)[C@@H](CC(C)C)C(=O)N(C)[C@@H](Cc2ccccc2)C(=O)N[C@H](C(C)C)C(=O)O[C@@H]1C
REMARK SMILES IDX 30 1 31 2 29 3 32 5 35 6 37 7 34 8 38 9 33 10 39 11 36 12
REMARK SMILES IDX 40 14 41 15 42 16 43 17 44 18 45 19 46 20 47 21 48 22 49 23
REMARK SMILES IDX 50 24 51 25 52 26 56 27 53 28 55 29 54 30 57 31 58 32 59 33
REMARK SMILES IDX 60 35 61 36 62 37 63 38 64 39 65 40 66 41 67 42 68 43 21 45
REMARK SMILES IDX 20 46 18 47 19 48 17 50 16 52 14 53 15 54 9 56 8 57 6 58
REMARK SMILES IDX 7 59 5 61 4 62 3 63 2 64 1 65 10 66 11 67 12 68 13 69 22 71
REMARK SMILES IDX 23 72 24 73 25 74 26 75 27 76 28 77
REMARK H PARENT 31 4 36 13 59 34 20 49 16 55 8 60 13 70 27 78 27 79 28 80
REMARK H PARENT 28 81
REMARK Flexibility Score:  259.900
ROOT
ATOM      1  O   UNL     1      -5.420  10.009   4.359  1.00  0.00    -0.273 OA
ATOM      2  N   UNL     1      -4.627   9.346   6.399  1.00  0.00    -0.343 N 
ATOM      3  C   UNL     1      -4.548  10.066   5.227  1.00  0.00     0.243 C 
ATOM      4  H   UNL     1      -3.898   9.429   7.097  1.00  0.00     0.164 HD
ENDROOT
BRANCH   2   5
ATOM      5  C   UNL     1      -5.703   8.383   6.608  1.00  0.00     0.171 C 
ATOM      6  C   UNL     1      -6.535   6.838   8.915  1.00  0.00     0.214 C 
ATOM      7  N   UNL     1      -5.582   6.273   7.989  1.00  0.00    -0.303 N 
ATOM      8  C   UNL     1      -7.507   7.808   8.263  1.00  0.00     0.057 C 
ATOM      9  C   UNL     1      -5.104   6.976   6.895  1.00  0.00     0.247 C 
ATOM     10  C   UNL     1      -6.741   8.926   7.589  1.00  0.00     0.040 C 
ATOM     11  O   UNL     1      -4.223   6.519   6.155  1.00  0.00    -0.272 OA
BRANCH   6  12
ATOM     12  O   UNL     1      -5.812   7.480   9.939  1.00  0.00    -0.373 OA
ATOM     13  H   UNL     1      -6.461   7.977  10.481  1.00  0.00     0.213 HD
ENDBRANCH   6  12
BRANCH   7  14
ATOM     14  C   UNL     1      -5.014   4.953   8.333  1.00  0.00     0.177 C 
BRANCH  14  15
ATOM     15  C   UNL     1      -4.967   4.630   9.839  1.00  0.00     0.038 C 
BRANCH  15  16
ATOM     16  C   UNL     1      -5.650   3.348  10.364  1.00  0.00    -0.015 C 
ATOM     17  C   UNL     1      -7.143   3.551  10.639  1.00  0.00     0.007 C 
ATOM     18  C   UNL     1      -4.978   2.900  11.669  1.00  0.00     0.007 C 
ENDBRANCH  15  16
ENDBRANCH  14  15
BRANCH  14  19
ATOM     19  C   UNL     1      -5.313   3.919   7.193  1.00  0.00     0.245 C 
ATOM     20  O   UNL     1      -6.506   3.634   6.994  1.00  0.00    -0.272 OA
BRANCH  19  21
ATOM     21  N   UNL     1      -4.333   3.239   6.491  1.00  0.00    -0.332 N 
ATOM     22  C   UNL     1      -4.501   2.630   5.184  1.00  0.00     0.147 C 
BRANCH  21  23
ATOM     23  C   UNL     1      -2.991   3.104   7.124  1.00  0.00     0.178 C 
BRANCH  23  24
ATOM     24  C   UNL     1      -2.582   1.657   7.466  1.00  0.00     0.070 C 
BRANCH  24  25
ATOM     25  C   UNL     1      -2.401   1.321   8.928  1.00  0.00    -0.045 A 
ATOM     26  C   UNL     1      -3.016   0.192   9.486  1.00  0.00     0.004 A 
ATOM     27  C   UNL     1      -1.616   2.141   9.751  1.00  0.00     0.004 A 
ATOM     28  C   UNL     1      -2.858  -0.103  10.842  1.00  0.00     0.000 A 
ATOM     29  C   UNL     1      -1.458   1.845  11.106  1.00  0.00     0.000 A 
ATOM     30  C   UNL     1      -2.082   0.724  11.651  1.00  0.00     0.000 A 
ENDBRANCH  24  25
ENDBRANCH  23  24
BRANCH  23  31
ATOM     31  C   UNL     1      -1.901   3.939   6.410  1.00  0.00     0.243 C 
ATOM     32  O   UNL     1      -1.238   3.532   5.459  1.00  0.00    -0.273 OA
ATOM     33  N   UNL     1      -1.603   5.126   7.056  1.00  0.00    -0.341 N 
ATOM     34  H   UNL     1      -2.187   5.409   7.847  1.00  0.00     0.164 HD
BRANCH  33  35
ATOM     35  C   UNL     1      -0.522   6.019   6.627  1.00  0.00     0.194 C 
BRANCH  35  36
ATOM     36  C   UNL     1       0.708   6.029   7.578  1.00  0.00     0.017 C 
ATOM     37  C   UNL     1       1.999   6.379   6.818  1.00  0.00     0.010 C 
ATOM     38  C   UNL     1       0.939   4.685   8.281  1.00  0.00     0.010 C 
ENDBRANCH  35  36
BRANCH  35  39
ATOM     39  C   UNL     1      -1.024   7.456   6.313  1.00  0.00     0.329 C 
ATOM     40  O   UNL     1      -1.777   8.095   7.039  1.00  0.00    -0.250 OA
BRANCH  39  41
ATOM     41  O   UNL     1      -0.461   7.966   5.175  1.00  0.00    -0.458 OA
BRANCH  41  42
ATOM     42  C   UNL     1      -1.096   7.601   3.927  1.00  0.00     0.205 CG0
ATOM     43  C   UNL     1      -0.377   6.363   3.396  1.00  0.00     0.056 C 
ATOM     44  G   UNL     1      -1.001   8.798   2.959  1.00  0.00     0.000 G0
ENDBRANCH  41  42
ENDBRANCH  39  41
ENDBRANCH  35  39
ENDBRANCH  33  35
ENDBRANCH  23  31
ENDBRANCH  21  23
ENDBRANCH  19  21
ENDBRANCH  14  19
ENDBRANCH   7  14
ENDBRANCH   2   5
BRANCH   3  45
ATOM     45  C   UNL     1      -3.310  10.961   5.088  1.00  0.00     0.171 C 
BRANCH  45  46
ATOM     46  N   UNL     1      -2.248  10.092   4.598  1.00  0.00    -0.342 N 
ATOM     47  C   UNL     1      -2.059   9.842   3.262  1.00  0.00     0.247 C 
ATOM     48  O   UNL     1      -2.721  10.389   2.379  1.00  0.00    -0.273 OA
ATOM     49  H   UNL     1      -1.640   9.662   5.293  1.00  0.00     0.164 HD
BRANCH  47  50
ATOM     50  C   UNL     1      -0.973   8.805   2.942  1.00  0.00     0.212 CG0
ATOM     51  G   UNL     1      -1.122   7.647   3.949  1.00  0.00     0.000 G0
BRANCH  50  52
ATOM     52  N   UNL     1      -1.215   8.401   1.559  1.00  0.00    -0.339 N 
ATOM     53  C   UNL     1      -0.251   8.439   0.581  1.00  0.00     0.243 C 
ATOM     54  O   UNL     1       0.882   8.867   0.785  1.00  0.00    -0.273 OA
ATOM     55  H   UNL     1      -2.165   8.142   1.302  1.00  0.00     0.164 HD
BRANCH  53  56
ATOM     56  C   UNL     1      -0.762   8.048  -0.820  1.00  0.00     0.182 C 
BRANCH  56  57
ATOM     57  N   UNL     1      -0.555   9.139  -1.779  1.00  0.00    -0.344 N 
ATOM     58  C   UNL     1      -1.153  10.367  -1.637  1.00  0.00     0.220 C 
ATOM     59  O   UNL     1      -1.957  10.614  -0.745  1.00  0.00    -0.275 OA
ATOM     60  H   UNL     1       0.178   9.009  -2.471  1.00  0.00     0.164 HD
BRANCH  58  61
ATOM     61  C   UNL     1      -0.750  11.359  -2.712  1.00  0.00     0.100 C 
BRANCH  61  62
ATOM     62  C   UNL     1       0.160  10.767  -3.788  1.00  0.00     0.010 C 
BRANCH  62  63
ATOM     63  C   UNL     1       0.152  11.541  -5.112  1.00  0.00     0.000 C 
BRANCH  63  64
ATOM     64  C   UNL     1       0.389  13.043  -4.962  1.00  0.00    -0.003 C 
ATOM     65  C   UNL     1       0.459  13.732  -6.317  1.00  0.00     0.004 C 
ENDBRANCH  63  64
ENDBRANCH  62  63
ENDBRANCH  61  62
ENDBRANCH  58  61
ENDBRANCH  56  57
BRANCH  56  66
ATOM     66  C   UNL     1      -2.219   7.588  -0.776  1.00  0.00     0.157 C 
BRANCH  66  67
ATOM     67  C   UNL     1      -2.378   6.229  -1.394  1.00  0.00     0.305 C 
ATOM     68  O   UNL     1      -3.266   5.867  -2.150  1.00  0.00    -0.252 OA
BRANCH  67  69
ATOM     69  O   UNL     1      -1.371   5.397  -1.066  1.00  0.00    -0.481 OA
ATOM     70  H   UNL     1      -1.801   4.527  -0.924  1.00  0.00     0.296 HD
ENDBRANCH  67  69
ENDBRANCH  66  67
ENDBRANCH  56  66
ENDBRANCH  53  56
ENDBRANCH  50  52
ENDBRANCH  47  50
ENDBRANCH  45  46
BRANCH  45  71
ATOM     71  C   UNL     1      -2.949  11.587   6.439  1.00  0.00     0.037 C 
BRANCH  71  72
ATOM     72  C   UNL     1      -1.491  11.326   6.824  1.00  0.00     0.026 C 
BRANCH  72  73
ATOM     73  C   UNL     1      -1.282  11.429   8.334  1.00  0.00     0.146 C 
BRANCH  73  74
ATOM     74  N   UNL     1      -2.536  11.061   8.984  1.00  0.00    -0.254 NA
ATOM     75  C   UNL     1      -2.554   9.990   9.688  1.00  0.00     0.185 C 
ATOM     76  N   UNL     1      -3.693   9.626  10.300  1.00  0.00    -0.370 N 
ATOM     77  N   UNL     1      -1.557   9.120   9.929  1.00  0.00    -0.370 N 
ATOM     78  H   UNL     1      -4.496  10.223  10.165  1.00  0.00     0.159 HD
ATOM     79  H   UNL     1      -3.822   8.734  10.744  1.00  0.00     0.159 HD
ATOM     80  H   UNL     1      -0.640   9.269   9.536  1.00  0.00     0.159 HD
ATOM     81  H   UNL     1      -1.658   8.372  10.595  1.00  0.00     0.159 HD
ENDBRANCH  73  74
ENDBRANCH  72  73
ENDBRANCH  71  72
ENDBRANCH  45  71
ENDBRANCH   3  45
TORSDOF 20
ENDMDL
MODEL 2
REMARK VINA RESULT:    -5.581      1.513      3.286
REMARK INTER + INTRA:         -22.487
REMARK INTER:                 -17.030
REMARK INTRA:                  -5.457
REMARK UNBOUND:                -6.464
REMARK SMILES CCCCCC(=O)N[C@H](CC(=O)O)C(=O)N[C@H]1C(=O)N[C@H](CCCN=C(N)N)C(=O)N[C@@H]2CC[C@H](O)N(C2=O)[C@@H](CC(C)C)C(=O)N(C)[C@@H](Cc2ccccc2)C(=O)N[C@H](C(C)C)C(=O)O[C@@H]1C
REMARK SMILES IDX 30 1 31 2 29 3 32 5 35 6 37 7 34 8 38 9 33 10 39 11 36 12
REMARK SMILES IDX 40 14 41 15 42 16 43 17 44 18 45 19 46 20 47 21 48 22 49 23
REMARK SMILES IDX 50 24 51 25 52 26 56 27 53 28 55 29 54 30 57 31 58 32 59 33
REMARK SMILES IDX 60 35 61 36 62 37 63 38 64 39 65 40 66 41 67 42 68 43 21 45
REMARK SMILES IDX 20 46 18 47 19 48 17 50 16 52 14 53 15 54 9 56 8 57 6 58
REMARK SMILES IDX 7 59 5 61 4 62 3 63 2 64 1 65 10 66 11 67 12 68 13 69 22 71
REMARK SMILES IDX 23 72 24 73 25 74 26 75 27 76 28 77
REMARK H PARENT 31 4 36 13 59 34 20 49 16 55 8 60 13 70 27 78 27 79 28 80
REMARK H PARENT 28 81
REMARK Flexibility Score:  259.900
ROOT
ATOM      1  O   UNL     1      -5.899   9.963   4.310  1.00  0.00    -0.273 OA
ATOM      2  N   UNL     1      -4.726   9.005   6.023  1.00  0.00    -0.343 N 
ATOM      3  C   UNL     1      -4.846   9.844   4.936  1.00  0.00     0.243 C 
ATOM      4  H   UNL     1      -3.848   8.943   6.523  1.00  0.00     0.164 HD
ENDROOT
BRANCH   2   5
ATOM      5  C   UNL     1      -5.825   8.125   6.407  1.00  0.00     0.171 C 
ATOM      6  C   UNL     1      -6.521   6.826   8.903  1.00  0.00     0.214 C 
ATOM      7  N   UNL     1      -5.683   6.133   7.951  1.00  0.00    -0.303 N 
ATOM      8  C   UNL     1      -7.499   7.792   8.253  1.00  0.00     0.057 C 
ATOM      9  C   UNL     1      -5.272   6.716   6.763  1.00  0.00     0.247 C 
ATOM     10  C   UNL     1      -6.742   8.805   7.422  1.00  0.00     0.040 C 
ATOM     11  O   UNL     1      -4.484   6.149   5.994  1.00  0.00    -0.272 OA
BRANCH   6  12
ATOM     12  O   UNL     1      -5.677   7.509   9.801  1.00  0.00    -0.373 OA
ATOM     13  H   UNL     1      -5.323   6.841  10.427  1.00  0.00     0.213 HD
ENDBRANCH   6  12
BRANCH   7  14
ATOM     14  C   UNL     1      -5.152   4.816   8.360  1.00  0.00     0.177 C 
BRANCH  14  15
ATOM     15  C   UNL     1      -5.175   4.540   9.876  1.00  0.00     0.038 C 
BRANCH  15  16
ATOM     16  C   UNL     1      -5.954   3.320  10.416  1.00  0.00    -0.015 C 
ATOM     17  C   UNL     1      -7.455   3.596  10.545  1.00  0.00     0.007 C 
ATOM     18  C   UNL     1      -5.415   2.932  11.799  1.00  0.00     0.007 C 
ENDBRANCH  15  16
ENDBRANCH  14  15
BRANCH  14  19
ATOM     19  C   UNL     1      -5.418   3.751   7.240  1.00  0.00     0.245 C 
ATOM     20  O   UNL     1      -6.599   3.407   7.065  1.00  0.00    -0.272 OA
BRANCH  19  21
ATOM     21  N   UNL     1      -4.418   3.109   6.533  1.00  0.00    -0.332 N 
ATOM     22  C   UNL     1      -4.584   2.444   5.253  1.00  0.00     0.147 C 
BRANCH  21  23
ATOM     23  C   UNL     1      -3.053   3.078   7.130  1.00  0.00     0.178 C 
BRANCH  23  24
ATOM     24  C   UNL     1      -2.558   1.676   7.538  1.00  0.00     0.070 C 
BRANCH  24  25
ATOM     25  C   UNL     1      -2.477   1.378   9.017  1.00  0.00    -0.045 A 
ATOM     26  C   UNL     1      -3.348   0.457   9.612  1.00  0.00     0.004 A 
ATOM     27  C   UNL     1      -1.525   2.027   9.818  1.00  0.00     0.004 A 
ATOM     28  C   UNL     1      -3.278   0.200  10.983  1.00  0.00     0.000 A 
ATOM     29  C   UNL     1      -1.455   1.768  11.188  1.00  0.00     0.000 A 
ATOM     30  C   UNL     1      -2.334   0.857  11.770  1.00  0.00     0.000 A 
ENDBRANCH  24  25
ENDBRANCH  23  24
BRANCH  23  31
ATOM     31  C   UNL     1      -2.030   3.926   6.338  1.00  0.00     0.243 C 
ATOM     32  O   UNL     1      -1.486   3.555   5.301  1.00  0.00    -0.273 OA
ATOM     33  N   UNL     1      -1.633   5.076   7.000  1.00  0.00    -0.341 N 
ATOM     34  H   UNL     1      -2.120   5.330   7.863  1.00  0.00     0.164 HD
BRANCH  33  35
ATOM     35  C   UNL     1      -0.586   5.968   6.495  1.00  0.00     0.194 C 
BRANCH  35  36
ATOM     36  C   UNL     1       0.700   5.996   7.368  1.00  0.00     0.017 C 
ATOM     37  C   UNL     1       0.793   4.751   8.266  1.00  0.00     0.010 C 
ATOM     38  C   UNL     1       0.786   7.227   8.279  1.00  0.00     0.010 C 
ENDBRANCH  35  36
BRANCH  35  39
ATOM     39  C   UNL     1      -1.114   7.399   6.194  1.00  0.00     0.329 C 
ATOM     40  O   UNL     1      -2.008   7.948   6.828  1.00  0.00    -0.250 OA
BRANCH  39  41
ATOM     41  O   UNL     1      -0.410   8.013   5.195  1.00  0.00    -0.458 OA
BRANCH  41  42
ATOM     42  C   UNL     1      -0.728   7.607   3.843  1.00  0.00     0.205 CG0
ATOM     43  C   UNL     1       0.254   6.502   3.458  1.00  0.00     0.056 C 
ATOM     44  G   UNL     1      -0.621   8.838   2.921  1.00  0.00     0.000 G0
ENDBRANCH  41  42
ENDBRANCH  39  41
ENDBRANCH  35  39
ENDBRANCH  33  35
ENDBRANCH  23  31
ENDBRANCH  21  23
ENDBRANCH  19  21
ENDBRANCH  14  19
ENDBRANCH   7  14
ENDBRANCH   2   5
BRANCH   3  45
ATOM     45  C   UNL     1      -3.581  10.634   4.574  1.00  0.00     0.171 C 
BRANCH  45  46
ATOM     46  N   UNL     1      -2.643   9.654   4.042  1.00  0.00    -0.342 N 
ATOM     47  C   UNL     1      -1.418  10.008   3.536  1.00  0.00     0.247 C 
ATOM     48  O   UNL     1      -0.992  11.163   3.562  1.00  0.00    -0.273 OA
ATOM     49  H   UNL     1      -2.933   8.678   4.053  1.00  0.00     0.164 HD
BRANCH  47  50
ATOM     50  C   UNL     1      -0.618   8.858   2.906  1.00  0.00     0.212 CG0
ATOM     51  G   UNL     1      -0.737   7.639   3.842  1.00  0.00     0.000 G0
BRANCH  50  52
ATOM     52  N   UNL     1      -1.219   8.639   1.593  1.00  0.00    -0.339 N 
ATOM     53  C   UNL     1      -0.485   8.449   0.448  1.00  0.00     0.243 C 
ATOM     54  O   UNL     1       0.742   8.502   0.432  1.00  0.00    -0.273 OA
ATOM     55  H   UNL     1      -2.233   8.695   1.522  1.00  0.00     0.164 HD
BRANCH  53  56
ATOM     56  C   UNL     1      -1.337   8.325  -0.831  1.00  0.00     0.182 C 
BRANCH  56  57
ATOM     57  N   UNL     1      -1.886   6.972  -0.968  1.00  0.00    -0.344 N 
ATOM     58  C   UNL     1      -3.197   6.740  -1.308  1.00  0.00     0.220 C 
ATOM     59  O   UNL     1      -4.015   7.642  -1.447  1.00  0.00    -0.275 OA
ATOM     60  H   UNL     1      -1.221   6.202  -0.962  1.00  0.00     0.164 HD
BRANCH  58  61
ATOM     61  C   UNL     1      -3.529   5.266  -1.451  1.00  0.00     0.100 C 
BRANCH  61  62
ATOM     62  C   UNL     1      -4.935   5.001  -1.990  1.00  0.00     0.010 C 
BRANCH  62  63
ATOM     63  C   UNL     1      -5.898   4.396  -0.960  1.00  0.00     0.000 C 
BRANCH  63  64
ATOM     64  C   UNL     1      -6.382   2.989  -1.306  1.00  0.00    -0.003 C 
ATOM     65  C   UNL     1      -5.784   2.503  -2.619  1.00  0.00     0.004 C 
ENDBRANCH  63  64
ENDBRANCH  62  63
ENDBRANCH  61  62
ENDBRANCH  58  61
ENDBRANCH  56  57
BRANCH  56  66
ATOM     66  C   UNL     1      -0.556   8.759  -2.069  1.00  0.00     0.157 C 
BRANCH  66  67
ATOM     67  C   UNL     1      -1.034  10.089  -2.576  1.00  0.00     0.305 C 
ATOM     68  O   UNL     1      -2.184  10.399  -2.847  1.00  0.00    -0.252 OA
BRANCH  67  69
ATOM     69  O   UNL     1      -0.038  10.990  -2.668  1.00  0.00    -0.481 OA
ATOM     70  H   UNL     1       0.628  10.568  -3.251  1.00  0.00     0.296 HD
ENDBRANCH  67  69
ENDBRANCH  66  67
ENDBRANCH  56  66
ENDBRANCH  53  56
ENDBRANCH  50  52
ENDBRANCH  47  50
ENDBRANCH  45  46
BRANCH  45  71
ATOM     71  C   UNL     1      -3.020  11.340   5.813  1.00  0.00     0.037 C 
BRANCH  71  72
ATOM     72  C   UNL     1      -4.083  12.173   6.533  1.00  0.00     0.026 C 
BRANCH  72  73
ATOM     73  C   UNL     1      -3.940  12.073   8.050  1.00  0.00     0.146 C 
BRANCH  73  74
ATOM     74  N   UNL     1      -5.280  12.115   8.629  1.00  0.00    -0.254 NA
ATOM     75  C   UNL     1      -5.545  11.304   9.585  1.00  0.00     0.185 C 
ATOM     76  N   UNL     1      -6.769  11.320  10.139  1.00  0.00    -0.370 N 
ATOM     77  N   UNL     1      -4.749  10.385  10.159  1.00  0.00    -0.370 N 
ATOM     78  H   UNL     1      -7.434  11.979   9.760  1.00  0.00     0.159 HD
ATOM     79  H   UNL     1      -7.093  10.623  10.786  1.00  0.00     0.159 HD
ATOM     80  H   UNL     1      -3.798  10.263   9.847  1.00  0.00     0.159 HD
ATOM     81  H   UNL     1      -5.032   9.882  10.984  1.00  0.00     0.159 HD
ENDBRANCH  73  74
ENDBRANCH  72  73
ENDBRANCH  71  72
ENDBRANCH  45  71
ENDBRANCH   3  45
TORSDOF 20
ENDMDL
MODEL 3
REMARK VINA RESULT:    -5.013      1.718      2.624
REMARK INTER + INTRA:         -20.855
REMARK INTER:                 -15.859
REMARK INTRA:                  -4.996
REMARK UNBOUND:                -6.464
REMARK SMILES CCCCCC(=O)N[C@H](CC(=O)O)C(=O)N[C@H]1C(=O)N[C@H](CCCN=C(N)N)C(=O)N[C@@H]2CC[C@H](O)N(C2=O)[C@@H](CC(C)C)C(=O)N(C)[C@@H](Cc2ccccc2)C(=O)N[C@H](C(C)C)C(=O)O[C@@H]1C
REMARK SMILES IDX 30 1 31 2 29 3 32 5 35 6 37 7 34 8 38 9 33 10 39 11 36 12
REMARK SMILES IDX 40 14 41 15 42 16 43 17 44 18 45 19 46 20 47 21 48 22 49 23
REMARK SMILES IDX 50 24 51 25 52 26 56 27 53 28 55 29 54 30 57 31 58 32 59 33
REMARK SMILES IDX 60 35 61 36 62 37 63 38 64 39 65 40 66 41 67 42 68 43 21 45
REMARK SMILES IDX 20 46 18 47 19 48 17 50 16 52 14 53 15 54 9 56 8 57 6 58
REMARK SMILES IDX 7 59 5 61 4 62 3 63 2 64 1 65 10 66 11 67 12 68 13 69 22 71
REMARK SMILES IDX 23 72 24 73 25 74 26 75 27 76 28 77
REMARK H PARENT 31 4 36 13 59 34 20 49 16 55 8 60 13 70 27 78 27 79 28 80
REMARK H PARENT 28 81
REMARK Flexibility Score:  259.900
ROOT
ATOM      1  O   UNL     1      -6.131   9.828   4.305  1.00  0.00    -0.273 OA
ATOM      2  N   UNL     1      -5.162   9.165   6.268  1.00  0.00    -0.343 N 
ATOM      3  C   UNL     1      -5.238   9.958   5.143  1.00  0.00     0.243 C 
ATOM      4  H   UNL     1      -4.422   9.310   6.944  1.00  0.00     0.164 HD
ENDROOT
BRANCH   2   5
ATOM      5  C   UNL     1      -6.081   8.046   6.451  1.00  0.00     0.171 C 
ATOM      6  C   UNL     1      -6.809   6.461   8.766  1.00  0.00     0.214 C 
ATOM      7  N   UNL     1      -5.716   6.030   7.925  1.00  0.00    -0.303 N 
ATOM      8  C   UNL     1      -7.878   7.238   8.013  1.00  0.00     0.057 C 
ATOM      9  C   UNL     1      -5.284   6.766   6.834  1.00  0.00     0.247 C 
ATOM     10  C   UNL     1      -7.257   8.443   7.342  1.00  0.00     0.040 C 
ATOM     11  O   UNL     1      -4.293   6.435   6.170  1.00  0.00    -0.272 OA
BRANCH   6  12
ATOM     12  O   UNL     1      -6.269   7.245   9.805  1.00  0.00    -0.373 OA
ATOM     13  H   UNL     1      -6.787   7.047  10.614  1.00  0.00     0.213 HD
ENDBRANCH   6  12
BRANCH   7  14
ATOM     14  C   UNL     1      -4.968   4.832   8.360  1.00  0.00     0.177 C 
BRANCH  14  15
ATOM     15  C   UNL     1      -4.889   4.625   9.885  1.00  0.00     0.038 C 
BRANCH  15  16
ATOM     16  C   UNL     1      -5.736   3.516  10.548  1.00  0.00    -0.015 C 
ATOM     17  C   UNL     1      -7.220   3.620  10.185  1.00  0.00     0.007 C 
ATOM     18  C   UNL     1      -5.606   3.607  12.074  1.00  0.00     0.007 C 
ENDBRANCH  15  16
ENDBRANCH  14  15
BRANCH  14  19
ATOM     19  C   UNL     1      -5.106   3.689   7.296  1.00  0.00     0.245 C 
ATOM     20  O   UNL     1      -6.259   3.312   7.026  1.00  0.00    -0.272 OA
BRANCH  19  21
ATOM     21  N   UNL     1      -4.031   3.018   6.741  1.00  0.00    -0.332 N 
ATOM     22  C   UNL     1      -4.095   2.120   5.601  1.00  0.00     0.147 C 
BRANCH  21  23
ATOM     23  C   UNL     1      -2.692   3.215   7.362  1.00  0.00     0.178 C 
BRANCH  23  24
ATOM     24  C   UNL     1      -2.033   1.927   7.898  1.00  0.00     0.070 C 
BRANCH  24  25
ATOM     25  C   UNL     1      -2.388   1.506   9.305  1.00  0.00    -0.045 A 
ATOM     26  C   UNL     1      -1.525   1.776  10.374  1.00  0.00     0.004 A 
ATOM     27  C   UNL     1      -3.592   0.831   9.559  1.00  0.00     0.004 A 
ATOM     28  C   UNL     1      -1.853   1.368  11.669  1.00  0.00     0.000 A 
ATOM     29  C   UNL     1      -3.919   0.426  10.853  1.00  0.00     0.000 A 
ATOM     30  C   UNL     1      -3.047   0.692  11.907  1.00  0.00     0.000 A 
ENDBRANCH  24  25
ENDBRANCH  23  24
BRANCH  23  31
ATOM     31  C   UNL     1      -1.762   4.120   6.519  1.00  0.00     0.243 C 
ATOM     32  O   UNL     1      -1.254   3.779   5.454  1.00  0.00    -0.273 OA
ATOM     33  N   UNL     1      -1.400   5.291   7.161  1.00  0.00    -0.341 N 
ATOM     34  H   UNL     1      -1.853   5.518   8.050  1.00  0.00     0.164 HD
BRANCH  33  35
ATOM     35  C   UNL     1      -0.435   6.243   6.603  1.00  0.00     0.194 C 
BRANCH  35  36
ATOM     36  C   UNL     1       0.958   6.213   7.293  1.00  0.00     0.017 C 
ATOM     37  C   UNL     1       1.060   5.053   8.298  1.00  0.00     0.010 C 
ATOM     38  C   UNL     1       1.285   7.506   8.051  1.00  0.00     0.010 C 
ENDBRANCH  35  36
BRANCH  35  39
ATOM     39  C   UNL     1      -1.005   7.686   6.508  1.00  0.00     0.329 C 
ATOM     40  O   UNL     1      -1.656   8.226   7.394  1.00  0.00    -0.250 OA
BRANCH  39  41
ATOM     41  O   UNL     1      -0.624   8.321   5.358  1.00  0.00    -0.458 OA
BRANCH  41  42
ATOM     42  C   UNL     1      -1.382   8.000   4.168  1.00  0.00     0.205 CG0
ATOM     43  C   UNL     1      -0.760   6.745   3.558  1.00  0.00     0.056 C 
ATOM     44  G   UNL     1      -1.330   9.208   3.211  1.00  0.00     0.000 G0
ENDBRANCH  41  42
ENDBRANCH  39  41
ENDBRANCH  35  39
ENDBRANCH  33  35
ENDBRANCH  23  31
ENDBRANCH  21  23
ENDBRANCH  19  21
ENDBRANCH  14  19
ENDBRANCH   7  14
ENDBRANCH   2   5
BRANCH   3  45
ATOM     45  C   UNL     1      -4.146  11.029   5.020  1.00  0.00     0.171 C 
BRANCH  45  46
ATOM     46  N   UNL     1      -2.929  10.311   4.665  1.00  0.00    -0.342 N 
ATOM     47  C   UNL     1      -2.550  10.102   3.362  1.00  0.00     0.247 C 
ATOM     48  O   UNL     1      -3.169  10.566   2.404  1.00  0.00    -0.273 OA
ATOM     49  H   UNL     1      -2.357   9.957   5.430  1.00  0.00     0.164 HD
BRANCH  47  50
ATOM     50  C   UNL     1      -1.308   9.219   3.180  1.00  0.00     0.212 CG0
ATOM     51  G   UNL     1      -1.420   8.043   4.171  1.00  0.00     0.000 G0
BRANCH  50  52
ATOM     52  N   UNL     1      -1.330   8.799   1.782  1.00  0.00    -0.339 N 
ATOM     53  C   UNL     1      -0.260   8.941   0.932  1.00  0.00     0.243 C 
ATOM     54  O   UNL     1       0.787   9.485   1.272  1.00  0.00    -0.273 OA
ATOM     55  H   UNL     1      -2.208   8.442   1.409  1.00  0.00     0.164 HD
BRANCH  53  56
ATOM     56  C   UNL     1      -0.548   8.506  -0.519  1.00  0.00     0.182 C 
BRANCH  56  57
ATOM     57  N   UNL     1      -0.497   9.652  -1.432  1.00  0.00    -0.344 N 
ATOM     58  C   UNL     1      -1.472  10.619  -1.454  1.00  0.00     0.220 C 
ATOM     59  O   UNL     1      -2.486  10.555  -0.767  1.00  0.00    -0.275 OA
ATOM     60  H   UNL     1       0.370   9.795  -1.943  1.00  0.00     0.164 HD
BRANCH  58  61
ATOM     61  C   UNL     1      -1.185  11.740  -2.436  1.00  0.00     0.100 C 
BRANCH  61  62
ATOM     62  C   UNL     1      -0.380  12.893  -1.836  1.00  0.00     0.010 C 
BRANCH  62  63
ATOM     63  C   UNL     1      -1.141  14.224  -1.774  1.00  0.00     0.000 C 
BRANCH  63  64
ATOM     64  C   UNL     1      -0.959  14.990  -0.465  1.00  0.00    -0.003 C 
ATOM     65  C   UNL     1      -2.293  15.234   0.225  1.00  0.00     0.004 C 
ENDBRANCH  63  64
ENDBRANCH  62  63
ENDBRANCH  61  62
ENDBRANCH  58  61
ENDBRANCH  56  57
BRANCH  56  66
ATOM     66  C   UNL     1      -1.867   7.743  -0.623  1.00  0.00     0.157 C 
BRANCH  66  67
ATOM     67  C   UNL     1      -1.856   6.792  -1.786  1.00  0.00     0.305 C 
ATOM     68  O   UNL     1      -1.932   7.083  -2.970  1.00  0.00    -0.252 OA
BRANCH  67  69
ATOM     69  O   UNL     1      -1.695   5.513  -1.399  1.00  0.00    -0.481 OA
ATOM     70  H   UNL     1      -0.751   5.314  -1.576  1.00  0.00     0.296 HD
ENDBRANCH  67  69
ENDBRANCH  66  67
ENDBRANCH  56  66
ENDBRANCH  53  56
ENDBRANCH  50  52
ENDBRANCH  47  50
ENDBRANCH  45  46
BRANCH  45  71
ATOM     71  C   UNL     1      -3.990  11.787   6.343  1.00  0.00     0.037 C 
BRANCH  71  72
ATOM     72  C   UNL     1      -4.786  13.094   6.355  1.00  0.00     0.026 C 
BRANCH  72  73
ATOM     73  C   UNL     1      -5.134  13.552   4.940  1.00  0.00     0.146 C 
BRANCH  73  74
ATOM     74  N   UNL     1      -6.586  13.666   4.851  1.00  0.00    -0.254 NA
ATOM     75  C   UNL     1      -7.168  13.139   3.837  1.00  0.00     0.185 C 
ATOM     76  N   UNL     1      -8.503  13.227   3.728  1.00  0.00    -0.370 N 
ATOM     77  N   UNL     1      -6.625  12.472   2.804  1.00  0.00    -0.370 N 
ATOM     78  H   UNL     1      -8.991  13.722   4.462  1.00  0.00     0.159 HD
ATOM     79  H   UNL     1      -9.009  12.969   2.900  1.00  0.00     0.159 HD
ATOM     80  H   UNL     1      -5.628  12.325   2.755  1.00  0.00     0.159 HD
ATOM     81  H   UNL     1      -7.196  12.001   2.121  1.00  0.00     0.159 HD
ENDBRANCH  73  74
ENDBRANCH  72  73
ENDBRANCH  71  72
ENDBRANCH  45  71
ENDBRANCH   3  45
TORSDOF 20
ENDMDL
MODEL 4
REMARK VINA RESULT:    -5.007      7.714     13.863
REMARK INTER + INTRA:         -20.837
REMARK INTER:                 -15.229
REMARK INTRA:                  -5.608
REMARK UNBOUND:                -6.464
REMARK SMILES CCCCCC(=O)N[C@H](CC(=O)O)C(=O)N[C@H]1C(=O)N[C@H](CCCN=C(N)N)C(=O)N[C@@H]2CC[C@H](O)N(C2=O)[C@@H](CC(C)C)C(=O)N(C)[C@@H](Cc2ccccc2)C(=O)N[C@H](C(C)C)C(=O)O[C@@H]1C
REMARK SMILES IDX 30 1 31 2 29 3 32 5 35 6 37 7 34 8 38 9 33 10 39 11 36 12
REMARK SMILES IDX 40 14 41 15 42 16 43 17 44 18 45 19 46 20 47 21 48 22 49 23
REMARK SMILES IDX 50 24 51 25 52 26 56 27 53 28 55 29 54 30 57 31 58 32 59 33
REMARK SMILES IDX 60 35 61 36 62 37 63 38 64 39 65 40 66 41 67 42 68 43 21 45
REMARK SMILES IDX 20 46 18 47 19 48 17 50 16 52 14 53 15 54 9 56 8 57 6 58
REMARK SMILES IDX 7 59 5 61 4 62 3 63 2 64 1 65 10 66 11 67 12 68 13 69 22 71
REMARK SMILES IDX 23 72 24 73 25 74 26 75 27 76 28 77
REMARK H PARENT 31 4 36 13 59 34 20 49 16 55 8 60 13 70 27 78 27 79 28 80
REMARK H PARENT 28 81
REMARK Flexibility Score:  259.900
ROOT
ATOM      1  O   UNL     1      -6.152   4.226  -0.893  1.00  0.00    -0.273 OA
ATOM      2  N   UNL     1      -5.599   5.895  -2.357  1.00  0.00    -0.343 N 
ATOM      3  C   UNL     1      -5.988   4.608  -2.052  1.00  0.00     0.243 C 
ATOM      4  H   UNL     1      -5.488   6.177  -3.323  1.00  0.00     0.164 HD
ENDROOT
BRANCH   2   5
ATOM      5  C   UNL     1      -5.246   6.834  -1.297  1.00  0.00     0.171 C 
ATOM      6  C   UNL     1      -4.475   9.628  -1.326  1.00  0.00     0.214 C 
ATOM      7  N   UNL     1      -3.455   8.609  -1.400  1.00  0.00    -0.303 N 
ATOM      8  C   UNL     1      -5.708   9.190  -0.551  1.00  0.00     0.057 C 
ATOM      9  C   UNL     1      -3.757   7.257  -1.442  1.00  0.00     0.247 C 
ATOM     10  C   UNL     1      -6.291   7.942  -1.178  1.00  0.00     0.040 C 
ATOM     11  O   UNL     1      -2.882   6.394  -1.593  1.00  0.00    -0.272 OA
BRANCH   6  12
ATOM     12  O   UNL     1      -4.824   9.985  -2.644  1.00  0.00    -0.373 OA
ATOM     13  H   UNL     1      -5.702   9.588  -2.827  1.00  0.00     0.213 HD
ENDBRANCH   6  12
BRANCH   7  14
ATOM     14  C   UNL     1      -2.061   9.068  -1.580  1.00  0.00     0.177 C 
BRANCH  14  15
ATOM     15  C   UNL     1      -1.022   8.382  -0.672  1.00  0.00     0.038 C 
BRANCH  15  16
ATOM     16  C   UNL     1      -0.320   9.200   0.435  1.00  0.00    -0.015 C 
ATOM     17  C   UNL     1      -0.070   8.375   1.701  1.00  0.00     0.007 C 
ATOM     18  C   UNL     1      -1.185  10.409   0.813  1.00  0.00     0.007 C 
ENDBRANCH  15  16
ENDBRANCH  14  15
BRANCH  14  19
ATOM     19  C   UNL     1      -1.819   9.503  -3.066  1.00  0.00     0.245 C 
ATOM     20  O   UNL     1      -1.498   8.608  -3.866  1.00  0.00    -0.272 OA
BRANCH  19  21
ATOM     21  N   UNL     1      -1.834  10.818  -3.497  1.00  0.00    -0.332 N 
ATOM     22  C   UNL     1      -1.886  11.986  -2.636  1.00  0.00     0.147 C 
BRANCH  21  23
ATOM     23  C   UNL     1      -1.805  11.070  -4.965  1.00  0.00     0.178 C 
BRANCH  23  24
ATOM     24  C   UNL     1      -0.404  10.992  -5.605  1.00  0.00     0.070 C 
BRANCH  24  25
ATOM     25  C   UNL     1       0.027  12.160  -6.461  1.00  0.00    -0.045 A 
ATOM     26  C   UNL     1       0.572  13.312  -5.881  1.00  0.00     0.004 A 
ATOM     27  C   UNL     1      -0.119  12.107  -7.856  1.00  0.00     0.004 A 
ATOM     28  C   UNL     1       0.952  14.395  -6.677  1.00  0.00     0.000 A 
ATOM     29  C   UNL     1       0.262  13.189  -8.651  1.00  0.00     0.000 A 
ATOM     30  C   UNL     1       0.795  14.333  -8.060  1.00  0.00     0.000 A 
ENDBRANCH  24  25
ENDBRANCH  23  24
BRANCH  23  31
ATOM     31  C   UNL     1      -2.914  10.309  -5.730  1.00  0.00     0.243 C 
ATOM     32  O   UNL     1      -2.703   9.554  -6.675  1.00  0.00    -0.273 OA
ATOM     33  N   UNL     1      -4.196  10.698  -5.376  1.00  0.00    -0.341 N 
ATOM     34  H   UNL     1      -4.308  11.335  -4.584  1.00  0.00     0.164 HD
BRANCH  33  35
ATOM     35  C   UNL     1      -5.396  10.199  -6.052  1.00  0.00     0.194 C 
BRANCH  35  36
ATOM     36  C   UNL     1      -6.599  11.184  -6.019  1.00  0.00     0.017 C 
ATOM     37  C   UNL     1      -7.006  11.617  -7.438  1.00  0.00     0.010 C 
ATOM     38  C   UNL     1      -6.315  12.457  -5.214  1.00  0.00     0.010 C 
ENDBRANCH  35  36
BRANCH  35  39
ATOM     39  C   UNL     1      -5.800   8.774  -5.580  1.00  0.00     0.329 C 
ATOM     40  O   UNL     1      -6.199   8.513  -4.451  1.00  0.00    -0.250 OA
BRANCH  39  41
ATOM     41  O   UNL     1      -5.744   7.855  -6.591  1.00  0.00    -0.458 OA
BRANCH  41  42
ATOM     42  C   UNL     1      -5.040   6.624  -6.300  1.00  0.00     0.205 CG0
ATOM     43  C   UNL     1      -3.746   6.639  -7.112  1.00  0.00     0.056 C 
ATOM     44  G   UNL     1      -5.953   5.437  -6.667  1.00  0.00     0.000 G0
ENDBRANCH  41  42
ENDBRANCH  39  41
ENDBRANCH  35  39
ENDBRANCH  33  35
ENDBRANCH  23  31
ENDBRANCH  21  23
ENDBRANCH  19  21
ENDBRANCH  14  19
ENDBRANCH   7  14
ENDBRANCH   2   5
BRANCH   3  45
ATOM     45  C   UNL     1      -6.224   3.690  -3.259  1.00  0.00     0.171 C 
BRANCH  45  46
ATOM     46  N   UNL     1      -6.377   4.577  -4.405  1.00  0.00    -0.342 N 
ATOM     47  C   UNL     1      -5.782   4.326  -5.616  1.00  0.00     0.247 C 
ATOM     48  O   UNL     1      -5.139   3.301  -5.844  1.00  0.00    -0.273 OA
ATOM     49  H   UNL     1      -6.948   5.410  -4.276  1.00  0.00     0.164 HD
BRANCH  47  50
ATOM     50  C   UNL     1      -5.952   5.433  -6.666  1.00  0.00     0.212 CG0
ATOM     51  G   UNL     1      -5.050   6.612  -6.251  1.00  0.00     0.000 G0
BRANCH  50  52
ATOM     52  N   UNL     1      -5.563   4.827  -7.936  1.00  0.00    -0.339 N 
ATOM     53  C   UNL     1      -6.465   4.437  -8.896  1.00  0.00     0.243 C 
ATOM     54  O   UNL     1      -7.680   4.519  -8.734  1.00  0.00    -0.273 OA
ATOM     55  H   UNL     1      -4.575   4.630  -8.083  1.00  0.00     0.164 HD
BRANCH  53  56
ATOM     56  C   UNL     1      -5.824   3.744 -10.115  1.00  0.00     0.182 C 
BRANCH  56  57
ATOM     57  N   UNL     1      -4.605   3.025  -9.732  1.00  0.00    -0.344 N 
ATOM     58  C   UNL     1      -4.560   1.656  -9.626  1.00  0.00     0.220 C 
ATOM     59  O   UNL     1      -5.550   0.947  -9.772  1.00  0.00    -0.275 OA
ATOM     60  H   UNL     1      -3.743   3.563  -9.702  1.00  0.00     0.164 HD
BRANCH  58  61
ATOM     61  C   UNL     1      -3.183   1.125  -9.275  1.00  0.00     0.100 C 
BRANCH  61  62
ATOM     62  C   UNL     1      -2.131   1.376 -10.356  1.00  0.00     0.010 C 
BRANCH  62  63
ATOM     63  C   UNL     1      -0.786   1.880  -9.817  1.00  0.00     0.000 C 
BRANCH  63  64
ATOM     64  C   UNL     1      -0.300   1.154  -8.565  1.00  0.00    -0.003 C 
ATOM     65  C   UNL     1       1.145   1.507  -8.244  1.00  0.00     0.004 C 
ENDBRANCH  63  64
ENDBRANCH  62  63
ENDBRANCH  61  62
ENDBRANCH  58  61
ENDBRANCH  56  57
BRANCH  56  66
ATOM     66  C   UNL     1      -5.578   4.731 -11.255  1.00  0.00     0.157 C 
BRANCH  66  67
ATOM     67  C   UNL     1      -4.256   4.474 -11.920  1.00  0.00     0.305 C 
ATOM     68  O   UNL     1      -4.031   3.679 -12.819  1.00  0.00    -0.252 OA
BRANCH  67  69
ATOM     69  O   UNL     1      -3.282   5.277 -11.451  1.00  0.00    -0.481 OA
ATOM     70  H   UNL     1      -3.064   4.915 -10.566  1.00  0.00     0.296 HD
ENDBRANCH  67  69
ENDBRANCH  66  67
ENDBRANCH  56  66
ENDBRANCH  53  56
ENDBRANCH  50  52
ENDBRANCH  47  50
ENDBRANCH  45  46
BRANCH  45  71
ATOM     71  C   UNL     1      -7.473   2.830  -3.040  1.00  0.00     0.037 C 
BRANCH  71  72
ATOM     72  C   UNL     1      -7.275   1.392  -3.528  1.00  0.00     0.026 C 
BRANCH  72  73
ATOM     73  C   UNL     1      -8.108   1.105  -4.776  1.00  0.00     0.146 C 
BRANCH  73  74
ATOM     74  N   UNL     1      -7.535  -0.064  -5.436  1.00  0.00    -0.254 NA
ATOM     75  C   UNL     1      -6.906   0.118  -6.538  1.00  0.00     0.185 C 
ATOM     76  N   UNL     1      -6.367  -0.938  -7.168  1.00  0.00    -0.370 N 
ATOM     77  N   UNL     1      -6.685   1.264  -7.205  1.00  0.00    -0.370 N 
ATOM     78  H   UNL     1      -6.495  -1.842  -6.736  1.00  0.00     0.159 HD
ATOM     79  H   UNL     1      -5.990  -0.894  -8.098  1.00  0.00     0.159 HD
ATOM     80  H   UNL     1      -7.029   2.142  -6.846  1.00  0.00     0.159 HD
ATOM     81  H   UNL     1      -6.075   1.301  -8.005  1.00  0.00     0.159 HD
ENDBRANCH  73  74
ENDBRANCH  72  73
ENDBRANCH  71  72
ENDBRANCH  45  71
ENDBRANCH   3  45
TORSDOF 20
ENDMDL
MODEL 5
REMARK VINA RESULT:    -4.846      7.452     11.856
REMARK INTER + INTRA:         -20.376
REMARK INTER:                 -14.068
REMARK INTRA:                  -6.307
REMARK UNBOUND:                -6.464
REMARK SMILES CCCCCC(=O)N[C@H](CC(=O)O)C(=O)N[C@H]1C(=O)N[C@H](CCCN=C(N)N)C(=O)N[C@@H]2CC[C@H](O)N(C2=O)[C@@H](CC(C)C)C(=O)N(C)[C@@H](Cc2ccccc2)C(=O)N[C@H](C(C)C)C(=O)O[C@@H]1C
REMARK SMILES IDX 30 1 31 2 29 3 32 5 35 6 37 7 34 8 38 9 33 10 39 11 36 12
REMARK SMILES IDX 40 14 41 15 42 16 43 17 44 18 45 19 46 20 47 21 48 22 49 23
REMARK SMILES IDX 50 24 51 25 52 26 56 27 53 28 55 29 54 30 57 31 58 32 59 33
REMARK SMILES IDX 60 35 61 36 62 37 63 38 64 39 65 40 66 41 67 42 68 43 21 45
REMARK SMILES IDX 20 46 18 47 19 48 17 50 16 52 14 53 15 54 9 56 8 57 6 58
REMARK SMILES IDX 7 59 5 61 4 62 3 63 2 64 1 65 10 66 11 67 12 68 13 69 22 71
REMARK SMILES IDX 23 72 24 73 25 74 26 75 27 76 28 77
REMARK H PARENT 31 4 36 13 59 34 20 49 16 55 8 60 13 70 27 78 27 79 28 80
REMARK H PARENT 28 81
REMARK Flexibility Score:  259.900
ROOT
ATOM      1  O   UNL     1      -7.898   3.405   1.485  1.00  0.00    -0.273 OA
ATOM      2  N   UNL     1      -8.482   4.755  -0.266  1.00  0.00    -0.343 N 
ATOM      3  C   UNL     1      -7.627   3.894   0.388  1.00  0.00     0.243 C 
ATOM      4  H   UNL     1      -8.232   5.126  -1.174  1.00  0.00     0.164 HD
ENDROOT
BRANCH   2   5
ATOM      5  C   UNL     1      -9.705   5.220   0.379  1.00  0.00     0.171 C 
ATOM      6  C   UNL     1     -11.813   7.018  -0.472  1.00  0.00     0.214 C 
ATOM      7  N   UNL     1     -10.679   7.545   0.251  1.00  0.00    -0.303 N 
ATOM      8  C   UNL     1     -12.146   5.580  -0.104  1.00  0.00     0.057 C 
ATOM      9  C   UNL     1      -9.613   6.750   0.642  1.00  0.00     0.247 C 
ATOM     10  C   UNL     1     -10.942   4.697  -0.349  1.00  0.00     0.040 C 
ATOM     11  O   UNL     1      -8.606   7.224   1.183  1.00  0.00    -0.272 OA
BRANCH   6  12
ATOM     12  O   UNL     1     -11.533   7.122  -1.848  1.00  0.00    -0.373 OA
ATOM     13  H   UNL     1     -10.557   7.163  -1.941  1.00  0.00     0.213 HD
ENDBRANCH   6  12
BRANCH   7  14
ATOM     14  C   UNL     1     -10.623   9.011   0.434  1.00  0.00     0.177 C 
BRANCH  14  15
ATOM     15  C   UNL     1     -10.832   9.499   1.881  1.00  0.00     0.038 C 
BRANCH  15  16
ATOM     16  C   UNL     1     -12.136  10.240   2.253  1.00  0.00    -0.015 C 
ATOM     17  C   UNL     1     -11.942  11.756   2.339  1.00  0.00     0.007 C 
ATOM     18  C   UNL     1     -12.644   9.743   3.613  1.00  0.00     0.007 C 
ENDBRANCH  15  16
ENDBRANCH  14  15
BRANCH  14  19
ATOM     19  C   UNL     1      -9.642   9.652  -0.606  1.00  0.00     0.245 C 
ATOM     20  O   UNL     1      -9.976   9.591  -1.801  1.00  0.00    -0.272 OA
BRANCH  19  21
ATOM     21  N   UNL     1      -8.401  10.168  -0.280  1.00  0.00    -0.332 N 
ATOM     22  C   UNL     1      -8.073  10.854   0.958  1.00  0.00     0.147 C 
BRANCH  21  23
ATOM     23  C   UNL     1      -7.303  10.026  -1.276  1.00  0.00     0.178 C 
BRANCH  23  24
ATOM     24  C   UNL     1      -6.776  11.357  -1.850  1.00  0.00     0.070 C 
BRANCH  24  25
ATOM     25  C   UNL     1      -6.903  11.561  -3.342  1.00  0.00    -0.045 A 
ATOM     26  C   UNL     1      -5.791  11.918  -4.115  1.00  0.00     0.004 A 
ATOM     27  C   UNL     1      -8.145  11.400  -3.974  1.00  0.00     0.004 A 
ATOM     28  C   UNL     1      -5.921  12.122  -5.490  1.00  0.00     0.000 A 
ATOM     29  C   UNL     1      -8.273  11.603  -5.349  1.00  0.00     0.000 A 
ATOM     30  C   UNL     1      -7.161  11.967  -6.106  1.00  0.00     0.000 A 
ENDBRANCH  24  25
ENDBRANCH  23  24
BRANCH  23  31
ATOM     31  C   UNL     1      -6.207   9.029  -0.828  1.00  0.00     0.243 C 
ATOM     32  O   UNL     1      -6.440   7.925  -0.343  1.00  0.00    -0.273 OA
ATOM     33  N   UNL     1      -4.931   9.565  -0.849  1.00  0.00    -0.341 N 
ATOM     34  H   UNL     1      -4.801  10.493  -1.260  1.00  0.00     0.164 HD
BRANCH  33  35
ATOM     35  C   UNL     1      -3.754   8.845  -0.356  1.00  0.00     0.194 C 
BRANCH  35  36
ATOM     36  C   UNL     1      -2.745   9.734   0.424  1.00  0.00     0.017 C 
ATOM     37  C   UNL     1      -3.431  10.467   1.590  1.00  0.00     0.010 C 
ATOM     38  C   UNL     1      -2.072  10.797  -0.453  1.00  0.00     0.010 C 
ENDBRANCH  35  36
BRANCH  35  39
ATOM     39  C   UNL     1      -3.055   8.011  -1.466  1.00  0.00     0.329 C 
ATOM     40  O   UNL     1      -1.983   7.435  -1.319  1.00  0.00    -0.250 OA
BRANCH  39  41
ATOM     41  O   UNL     1      -3.811   7.920  -2.602  1.00  0.00    -0.458 OA
BRANCH  41  42
ATOM     42  C   UNL     1      -3.792   6.643  -3.284  1.00  0.00     0.205 CG0
ATOM     43  C   UNL     1      -3.433   6.913  -4.744  1.00  0.00     0.056 C 
ATOM     44  G   UNL     1      -5.176   5.982  -3.129  1.00  0.00     0.000 G0
ENDBRANCH  41  42
ENDBRANCH  39  41
ENDBRANCH  35  39
ENDBRANCH  33  35
ENDBRANCH  23  31
ENDBRANCH  21  23
ENDBRANCH  19  21
ENDBRANCH  14  19
ENDBRANCH   7  14
ENDBRANCH   2   5
BRANCH   3  45
ATOM     45  C   UNL     1      -6.325   3.570  -0.356  1.00  0.00     0.171 C 
BRANCH  45  46
ATOM     46  N   UNL     1      -6.254   4.519  -1.458  1.00  0.00    -0.342 N 
ATOM     47  C   UNL     1      -5.071   4.854  -2.067  1.00  0.00     0.247 C 
ATOM     48  O   UNL     1      -3.997   4.325  -1.778  1.00  0.00    -0.273 OA
ATOM     49  H   UNL     1      -7.129   4.940  -1.768  1.00  0.00     0.164 HD
BRANCH  47  50
ATOM     50  C   UNL     1      -5.174   5.962  -3.124  1.00  0.00     0.212 CG0
ATOM     51  G   UNL     1      -3.783   6.613  -3.258  1.00  0.00     0.000 G0
BRANCH  50  52
ATOM     52  N   UNL     1      -5.619   5.296  -4.346  1.00  0.00    -0.339 N 
ATOM     53  C   UNL     1      -6.941   5.077  -4.648  1.00  0.00     0.243 C 
ATOM     54  O   UNL     1      -7.854   5.380  -3.885  1.00  0.00    -0.273 OA
ATOM     55  H   UNL     1      -4.905   4.922  -4.967  1.00  0.00     0.164 HD
BRANCH  53  56
ATOM     56  C   UNL     1      -7.163   4.279  -5.949  1.00  0.00     0.182 C 
BRANCH  56  57
ATOM     57  N   UNL     1      -7.178   2.836  -5.685  1.00  0.00    -0.344 N 
ATOM     58  C   UNL     1      -8.344   2.135  -5.499  1.00  0.00     0.220 C 
ATOM     59  O   UNL     1      -9.445   2.674  -5.467  1.00  0.00    -0.275 OA
ATOM     60  H   UNL     1      -6.301   2.337  -5.804  1.00  0.00     0.164 HD
BRANCH  58  61
ATOM     61  C   UNL     1      -8.125   0.646  -5.300  1.00  0.00     0.100 C 
BRANCH  61  62
ATOM     62  C   UNL     1      -6.699   0.187  -5.604  1.00  0.00     0.010 C 
BRANCH  62  63
ATOM     63  C   UNL     1      -6.577  -0.699  -6.850  1.00  0.00     0.000 C 
BRANCH  63  64
ATOM     64  C   UNL     1      -5.163  -0.784  -7.423  1.00  0.00    -0.003 C 
ATOM     65  C   UNL     1      -4.129  -0.284  -6.425  1.00  0.00     0.004 C 
ENDBRANCH  63  64
ENDBRANCH  62  63
ENDBRANCH  61  62
ENDBRANCH  58  61
ENDBRANCH  56  57
BRANCH  56  66
ATOM     66  C   UNL     1      -6.142   4.658  -7.020  1.00  0.00     0.157 C 
BRANCH  66  67
ATOM     67  C   UNL     1      -6.111   3.643  -8.126  1.00  0.00     0.305 C 
ATOM     68  O   UNL     1      -6.951   3.483  -8.998  1.00  0.00    -0.252 OA
BRANCH  67  69
ATOM     69  O   UNL     1      -4.986   2.903  -8.109  1.00  0.00    -0.481 OA
ATOM     70  H   UNL     1      -4.256   3.558  -8.100  1.00  0.00     0.296 HD
ENDBRANCH  67  69
ENDBRANCH  66  67
ENDBRANCH  56  66
ENDBRANCH  53  56
ENDBRANCH  50  52
ENDBRANCH  47  50
ENDBRANCH  45  46
BRANCH  45  71
ATOM     71  C   UNL     1      -6.342   2.121  -0.857  1.00  0.00     0.037 C 
BRANCH  71  72
ATOM     72  C   UNL     1      -7.272   1.940  -2.059  1.00  0.00     0.026 C 
BRANCH  72  73
ATOM     73  C   UNL     1      -8.630   1.382  -1.638  1.00  0.00     0.146 C 
BRANCH  73  74
ATOM     74  N   UNL     1      -9.663   2.231  -2.223  1.00  0.00    -0.254 NA
ATOM     75  C   UNL     1     -10.753   1.673  -2.604  1.00  0.00     0.185 C 
ATOM     76  N   UNL     1     -11.723   2.428  -3.145  1.00  0.00    -0.370 N 
ATOM     77  N   UNL     1     -11.103   0.376  -2.544  1.00  0.00    -0.370 N 
ATOM     78  H   UNL     1     -11.537   3.416  -3.233  1.00  0.00     0.159 HD
ATOM     79  H   UNL     1     -12.536   2.046  -3.594  1.00  0.00     0.159 HD
ATOM     80  H   UNL     1     -10.473  -0.309  -2.157  1.00  0.00     0.159 HD
ATOM     81  H   UNL     1     -12.036   0.070  -2.769  1.00  0.00     0.159 HD
ENDBRANCH  73  74
ENDBRANCH  72  73
ENDBRANCH  71  72
ENDBRANCH  45  71
ENDBRANCH   3  45
TORSDOF 20
ENDMDL
MODEL 6
REMARK VINA RESULT:    -4.826      7.748     12.075
REMARK INTER + INTRA:         -20.317
REMARK INTER:                 -13.432
REMARK INTRA:                  -6.886
REMARK UNBOUND:                -6.464
REMARK SMILES CCCCCC(=O)N[C@H](CC(=O)O)C(=O)N[C@H]1C(=O)N[C@H](CCCN=C(N)N)C(=O)N[C@@H]2CC[C@H](O)N(C2=O)[C@@H](CC(C)C)C(=O)N(C)[C@@H](Cc2ccccc2)C(=O)N[C@H](C(C)C)C(=O)O[C@@H]1C
REMARK SMILES IDX 30 1 31 2 29 3 32 5 35 6 37 7 34 8 38 9 33 10 39 11 36 12
REMARK SMILES IDX 40 14 41 15 42 16 43 17 44 18 45 19 46 20 47 21 48 22 49 23
REMARK SMILES IDX 50 24 51 25 52 26 56 27 53 28 55 29 54 30 57 31 58 32 59 33
REMARK SMILES IDX 60 35 61 36 62 37 63 38 64 39 65 40 66 41 67 42 68 43 21 45
REMARK SMILES IDX 20 46 18 47 19 48 17 50 16 52 14 53 15 54 9 56 8 57 6 58
REMARK SMILES IDX 7 59 5 61 4 62 3 63 2 64 1 65 10 66 11 67 12 68 13 69 22 71
REMARK SMILES IDX 23 72 24 73 25 74 26 75 27 76 28 77
REMARK H PARENT 31 4 36 13 59 34 20 49 16 55 8 60 13 70 27 78 27 79 28 80
REMARK H PARENT 28 81
REMARK Flexibility Score:  259.900
ROOT
ATOM      1  O   UNL     1      -3.011   7.423  -6.933  1.00  0.00    -0.273 OA
ATOM      2  N   UNL     1      -5.227   6.861  -6.997  1.00  0.00    -0.343 N 
ATOM      3  C   UNL     1      -4.179   7.685  -6.646  1.00  0.00     0.243 C 
ATOM      4  H   UNL     1      -6.177   7.117  -6.757  1.00  0.00     0.164 HD
ENDROOT
BRANCH   2   5
ATOM      5  C   UNL     1      -4.977   5.570  -7.627  1.00  0.00     0.171 C 
ATOM      6  C   UNL     1      -6.725   3.620  -8.872  1.00  0.00     0.214 C 
ATOM      7  N   UNL     1      -6.431   3.513  -7.462  1.00  0.00    -0.303 N 
ATOM      8  C   UNL     1      -5.598   4.249  -9.675  1.00  0.00     0.057 C 
ATOM      9  C   UNL     1      -5.645   4.438  -6.794  1.00  0.00     0.247 C 
ATOM     10  C   UNL     1      -5.279   5.622  -9.124  1.00  0.00     0.040 C 
ATOM     11  O   UNL     1      -5.469   4.388  -5.570  1.00  0.00    -0.272 OA
BRANCH   6  12
ATOM     12  O   UNL     1      -7.907   4.374  -9.009  1.00  0.00    -0.373 OA
ATOM     13  H   UNL     1      -8.002   4.590  -9.961  1.00  0.00     0.213 HD
ENDBRANCH   6  12
BRANCH   7  14
ATOM     14  C   UNL     1      -7.126   2.445  -6.711  1.00  0.00     0.177 C 
BRANCH  14  15
ATOM     15  C   UNL     1      -6.212   1.346  -6.136  1.00  0.00     0.038 C 
BRANCH  15  16
ATOM     16  C   UNL     1      -5.492   0.374  -7.097  1.00  0.00    -0.015 C 
ATOM     17  C   UNL     1      -5.782  -1.093  -6.769  1.00  0.00     0.007 C 
ATOM     18  C   UNL     1      -3.976   0.594  -7.017  1.00  0.00     0.007 C 
ENDBRANCH  15  16
ENDBRANCH  14  15
BRANCH  14  19
ATOM     19  C   UNL     1      -8.407   3.018  -6.012  1.00  0.00     0.245 C 
ATOM     20  O   UNL     1      -8.720   4.188  -6.290  1.00  0.00    -0.272 OA
BRANCH  19  21
ATOM     21  N   UNL     1      -9.122   2.342  -5.040  1.00  0.00    -0.332 N 
ATOM     22  C   UNL     1      -9.590   0.971  -5.139  1.00  0.00     0.147 C 
BRANCH  21  23
ATOM     23  C   UNL     1      -9.457   3.074  -3.787  1.00  0.00     0.178 C 
BRANCH  23  24
ATOM     24  C   UNL     1     -10.956   3.078  -3.422  1.00  0.00     0.070 C 
BRANCH  24  25
ATOM     25  C   UNL     1     -11.371   3.903  -2.226  1.00  0.00    -0.045 A 
ATOM     26  C   UNL     1     -11.587   3.301  -0.980  1.00  0.00     0.004 A 
ATOM     27  C   UNL     1     -11.551   5.288  -2.351  1.00  0.00     0.004 A 
ATOM     28  C   UNL     1     -11.987   4.068   0.116  1.00  0.00     0.000 A 
ATOM     29  C   UNL     1     -11.950   6.054  -1.254  1.00  0.00     0.000 A 
ATOM     30  C   UNL     1     -12.170   5.442  -0.022  1.00  0.00     0.000 A 
ENDBRANCH  24  25
ENDBRANCH  23  24
BRANCH  23  31
ATOM     31  C   UNL     1      -8.502   2.737  -2.618  1.00  0.00     0.243 C 
ATOM     32  O   UNL     1      -8.505   1.666  -2.016  1.00  0.00    -0.273 OA
ATOM     33  N   UNL     1      -7.760   3.820  -2.179  1.00  0.00    -0.341 N 
ATOM     34  H   UNL     1      -7.803   4.688  -2.718  1.00  0.00     0.164 HD
BRANCH  33  35
ATOM     35  C   UNL     1      -6.879   3.764  -1.009  1.00  0.00     0.194 C 
BRANCH  35  36
ATOM     36  C   UNL     1      -7.481   4.410   0.271  1.00  0.00     0.017 C 
ATOM     37  C   UNL     1      -8.290   3.386   1.086  1.00  0.00     0.010 C 
ATOM     38  C   UNL     1      -8.408   5.594  -0.029  1.00  0.00     0.010 C 
ENDBRANCH  35  36
BRANCH  35  39
ATOM     39  C   UNL     1      -5.450   4.296  -1.311  1.00  0.00     0.329 C 
ATOM     40  O   UNL     1      -4.548   3.611  -1.779  1.00  0.00    -0.250 OA
BRANCH  39  41
ATOM     41  O   UNL     1      -5.335   5.638  -1.077  1.00  0.00    -0.458 OA
BRANCH  41  42
ATOM     42  C   UNL     1      -4.627   6.405  -2.081  1.00  0.00     0.205 CG0
ATOM     43  C   UNL     1      -3.220   6.662  -1.546  1.00  0.00     0.056 C 
ATOM     44  G   UNL     1      -5.405   7.710  -2.342  1.00  0.00     0.000 G0
ENDBRANCH  41  42
ENDBRANCH  39  41
ENDBRANCH  35  39
ENDBRANCH  33  35
ENDBRANCH  23  31
ENDBRANCH  21  23
ENDBRANCH  19  21
ENDBRANCH  14  19
ENDBRANCH   7  14
ENDBRANCH   2   5
BRANCH   3  45
ATOM     45  C   UNL     1      -4.572   8.963  -5.892  1.00  0.00     0.171 C 
BRANCH  45  46
ATOM     46  N   UNL     1      -4.537   8.612  -4.478  1.00  0.00    -0.342 N 
ATOM     47  C   UNL     1      -5.539   7.897  -3.872  1.00  0.00     0.247 C 
ATOM     48  O   UNL     1      -6.501   7.439  -4.490  1.00  0.00    -0.273 OA
ATOM     49  H   UNL     1      -3.730   8.924  -3.941  1.00  0.00     0.164 HD
BRANCH  47  50
ATOM     50  C   UNL     1      -5.391   7.731  -2.353  1.00  0.00     0.212 CG0
ATOM     51  G   UNL     1      -4.622   6.419  -2.100  1.00  0.00     0.000 G0
BRANCH  50  52
ATOM     52  N   UNL     1      -4.673   8.918  -1.899  1.00  0.00    -0.339 N 
ATOM     53  C   UNL     1      -5.282   9.974  -1.267  1.00  0.00     0.243 C 
ATOM     54  O   UNL     1      -6.495  10.025  -1.081  1.00  0.00    -0.273 OA
ATOM     55  H   UNL     1      -3.682   8.986  -2.123  1.00  0.00     0.164 HD
BRANCH  53  56
ATOM     56  C   UNL     1      -4.335  11.152  -0.959  1.00  0.00     0.182 C 
BRANCH  56  57
ATOM     57  N   UNL     1      -3.725  11.672  -2.186  1.00  0.00    -0.344 N 
ATOM     58  C   UNL     1      -4.238  12.750  -2.865  1.00  0.00     0.220 C 
ATOM     59  O   UNL     1      -5.280  13.306  -2.535  1.00  0.00    -0.275 OA
ATOM     60  H   UNL     1      -2.809  11.307  -2.435  1.00  0.00     0.164 HD
BRANCH  58  61
ATOM     61  C   UNL     1      -3.412  13.150  -4.073  1.00  0.00     0.100 C 
BRANCH  61  62
ATOM     62  C   UNL     1      -2.584  12.006  -4.659  1.00  0.00     0.010 C 
BRANCH  62  63
ATOM     63  C   UNL     1      -2.450  12.046  -6.186  1.00  0.00     0.000 C 
BRANCH  63  64
ATOM     64  C   UNL     1      -1.053  12.415  -6.684  1.00  0.00    -0.003 C 
ATOM     65  C   UNL     1       0.020  11.982  -5.695  1.00  0.00     0.004 C 
ENDBRANCH  63  64
ENDBRANCH  62  63
ENDBRANCH  61  62
ENDBRANCH  58  61
ENDBRANCH  56  57
BRANCH  56  66
ATOM     66  C   UNL     1      -3.290  10.771   0.089  1.00  0.00     0.157 C 
BRANCH  66  67
ATOM     67  C   UNL     1      -1.905  10.801  -0.490  1.00  0.00     0.305 C 
ATOM     68  O   UNL     1      -1.086  11.702  -0.384  1.00  0.00    -0.252 OA
BRANCH  67  69
ATOM     69  O   UNL     1      -1.595   9.661  -1.136  1.00  0.00    -0.481 OA
ATOM     70  H   UNL     1      -0.803   9.884  -1.670  1.00  0.00     0.296 HD
ENDBRANCH  67  69
ENDBRANCH  66  67
ENDBRANCH  56  66
ENDBRANCH  53  56
ENDBRANCH  50  52
ENDBRANCH  47  50
ENDBRANCH  45  46
BRANCH  45  71
ATOM     71  C   UNL     1      -5.966   9.431  -6.324  1.00  0.00     0.037 C 
BRANCH  71  72
ATOM     72  C   UNL     1      -5.901  10.613  -7.295  1.00  0.00     0.026 C 
BRANCH  72  73
ATOM     73  C   UNL     1      -6.779  11.771  -6.826  1.00  0.00     0.146 C 
BRANCH  73  74
ATOM     74  N   UNL     1      -6.712  11.822  -5.369  1.00  0.00    -0.254 NA
ATOM     75  C   UNL     1      -7.803  11.673  -4.713  1.00  0.00     0.185 C 
ATOM     76  N   UNL     1      -7.773  11.713  -3.371  1.00  0.00    -0.370 N 
ATOM     77  N   UNL     1      -9.048  11.470  -5.179  1.00  0.00    -0.370 N 
ATOM     78  H   UNL     1      -6.874  11.870  -2.938  1.00  0.00     0.159 HD
ATOM     79  H   UNL     1      -8.599  11.750  -2.800  1.00  0.00     0.159 HD
ATOM     80  H   UNL     1      -9.222  11.412  -6.171  1.00  0.00     0.159 HD
ATOM     81  H   UNL     1      -9.813  11.251  -4.563  1.00  0.00     0.159 HD
ENDBRANCH  73  74
ENDBRANCH  72  73
ENDBRANCH  71  72
ENDBRANCH  45  71
ENDBRANCH   3  45
TORSDOF 20
ENDMDL
MODEL 7
REMARK VINA RESULT:    -4.660      1.789      2.498
REMARK INTER + INTRA:         -19.842
REMARK INTER:                 -15.447
REMARK INTRA:                  -4.395
REMARK UNBOUND:                -6.464
REMARK SMILES CCCCCC(=O)N[C@H](CC(=O)O)C(=O)N[C@H]1C(=O)N[C@H](CCCN=C(N)N)C(=O)N[C@@H]2CC[C@H](O)N(C2=O)[C@@H](CC(C)C)C(=O)N(C)[C@@H](Cc2ccccc2)C(=O)N[C@H](C(C)C)C(=O)O[C@@H]1C
REMARK SMILES IDX 30 1 31 2 29 3 32 5 35 6 37 7 34 8 38 9 33 10 39 11 36 12
REMARK SMILES IDX 40 14 41 15 42 16 43 17 44 18 45 19 46 20 47 21 48 22 49 23
REMARK SMILES IDX 50 24 51 25 52 26 56 27 53 28 55 29 54 30 57 31 58 32 59 33
REMARK SMILES IDX 60 35 61 36 62 37 63 38 64 39 65 40 66 41 67 42 68 43 21 45
REMARK SMILES IDX 20 46 18 47 19 48 17 50 16 52 14 53 15 54 9 56 8 57 6 58
REMARK SMILES IDX 7 59 5 61 4 62 3 63 2 64 1 65 10 66 11 67 12 68 13 69 22 71
REMARK SMILES IDX 23 72 24 73 25 74 26 75 27 76 28 77
REMARK H PARENT 31 4 36 13 59 34 20 49 16 55 8 60 13 70 27 78 27 79 28 80
REMARK H PARENT 28 81
REMARK Flexibility Score:  259.900
ROOT
ATOM      1  O   UNL     1      -4.341  10.530   4.621  1.00  0.00    -0.273 OA
ATOM      2  N   UNL     1      -3.573   9.943   6.694  1.00  0.00    -0.343 N 
ATOM      3  C   UNL     1      -3.437  10.537   5.458  1.00  0.00     0.243 C 
ATOM      4  H   UNL     1      -2.814   9.981   7.363  1.00  0.00     0.164 HD
ENDROOT
BRANCH   2   5
ATOM      5  C   UNL     1      -4.767   9.171   7.020  1.00  0.00     0.171 C 
ATOM      6  C   UNL     1      -5.547   7.655   9.365  1.00  0.00     0.214 C 
ATOM      7  N   UNL     1      -4.844   6.992   8.292  1.00  0.00    -0.303 N 
ATOM      8  C   UNL     1      -6.407   8.817   8.894  1.00  0.00     0.057 C 
ATOM      9  C   UNL     1      -4.398   7.667   7.167  1.00  0.00     0.247 C 
ATOM     10  C   UNL     1      -5.549   9.824   8.158  1.00  0.00     0.040 C 
ATOM     11  O   UNL     1      -3.722   7.110   6.293  1.00  0.00    -0.272 OA
BRANCH   6  12
ATOM     12  O   UNL     1      -4.588   8.099  10.298  1.00  0.00    -0.373 OA
ATOM     13  H   UNL     1      -3.732   7.692  10.045  1.00  0.00     0.213 HD
ENDBRANCH   6  12
BRANCH   7  14
ATOM     14  C   UNL     1      -4.482   5.574   8.503  1.00  0.00     0.177 C 
BRANCH  14  15
ATOM     15  C   UNL     1      -4.383   5.135   9.977  1.00  0.00     0.038 C 
BRANCH  15  16
ATOM     16  C   UNL     1      -5.558   4.368  10.623  1.00  0.00    -0.015 C 
ATOM     17  C   UNL     1      -5.535   4.443  12.153  1.00  0.00     0.007 C 
ATOM     18  C   UNL     1      -5.500   2.890  10.214  1.00  0.00     0.007 C 
ENDBRANCH  15  16
ENDBRANCH  14  15
BRANCH  14  19
ATOM     19  C   UNL     1      -5.030   4.692   7.329  1.00  0.00     0.245 C 
ATOM     20  O   UNL     1      -6.256   4.727   7.129  1.00  0.00    -0.272 OA
BRANCH  19  21
ATOM     21  N   UNL     1      -4.252   3.813   6.597  1.00  0.00    -0.332 N 
ATOM     22  C   UNL     1      -4.650   3.167   5.358  1.00  0.00     0.147 C 
BRANCH  21  23
ATOM     23  C   UNL     1      -2.896   3.485   7.116  1.00  0.00     0.178 C 
BRANCH  23  24
ATOM     24  C   UNL     1      -2.635   1.980   7.333  1.00  0.00     0.070 C 
BRANCH  24  25
ATOM     25  C   UNL     1      -2.483   1.506   8.759  1.00  0.00    -0.045 A 
ATOM     26  C   UNL     1      -3.028   0.283   9.171  1.00  0.00     0.004 A 
ATOM     27  C   UNL     1      -1.795   2.291   9.697  1.00  0.00     0.004 A 
ATOM     28  C   UNL     1      -2.898  -0.140  10.496  1.00  0.00     0.000 A 
ATOM     29  C   UNL     1      -1.665   1.866  11.020  1.00  0.00     0.000 A 
ATOM     30  C   UNL     1      -2.220   0.652  11.419  1.00  0.00     0.000 A 
ENDBRANCH  24  25
ENDBRANCH  23  24
BRANCH  23  31
ATOM     31  C   UNL     1      -1.767   4.243   6.379  1.00  0.00     0.243 C 
ATOM     32  O   UNL     1      -1.316   3.909   5.286  1.00  0.00    -0.273 OA
ATOM     33  N   UNL     1      -1.174   5.232   7.144  1.00  0.00    -0.341 N 
ATOM     34  H   UNL     1      -1.591   5.462   8.049  1.00  0.00     0.164 HD
BRANCH  33  35
ATOM     35  C   UNL     1      -0.008   5.998   6.695  1.00  0.00     0.194 C 
BRANCH  35  36
ATOM     36  C   UNL     1       1.221   5.897   7.641  1.00  0.00     0.017 C 
ATOM     37  C   UNL     1       2.519   5.657   6.850  1.00  0.00     0.010 C 
ATOM     38  C   UNL     1       1.098   4.770   8.674  1.00  0.00     0.010 C 
ENDBRANCH  35  36
BRANCH  35  39
ATOM     39  C   UNL     1      -0.357   7.474   6.353  1.00  0.00     0.329 C 
ATOM     40  O   UNL     1      -1.013   8.210   7.081  1.00  0.00    -0.250 OA
BRANCH  39  41
ATOM     41  O   UNL     1       0.223   7.888   5.186  1.00  0.00    -0.458 OA
BRANCH  41  42
ATOM     42  C   UNL     1      -0.504   7.595   3.969  1.00  0.00     0.205 CG0
ATOM     43  C   UNL     1      -0.011   6.242   3.460  1.00  0.00     0.056 C 
ATOM     44  G   UNL     1      -0.251   8.732   2.959  1.00  0.00     0.000 G0
ENDBRANCH  41  42
ENDBRANCH  39  41
ENDBRANCH  35  39
ENDBRANCH  33  35
ENDBRANCH  23  31
ENDBRANCH  21  23
ENDBRANCH  19  21
ENDBRANCH  14  19
ENDBRANCH   7  14
ENDBRANCH   2   5
BRANCH   3  45
ATOM     45  C   UNL     1      -2.090  11.225   5.204  1.00  0.00     0.171 C 
BRANCH  45  46
ATOM     46  N   UNL     1      -1.213  10.191   4.670  1.00  0.00    -0.342 N 
ATOM     47  C   UNL     1      -1.098   9.946   3.325  1.00  0.00     0.247 C 
ATOM     48  O   UNL     1      -1.667  10.626   2.470  1.00  0.00    -0.273 OA
ATOM     49  H   UNL     1      -0.680   9.640   5.341  1.00  0.00     0.164 HD
BRANCH  47  50
ATOM     50  C   UNL     1      -0.225   8.738   2.956  1.00  0.00     0.212 CG0
ATOM     51  G   UNL     1      -0.543   7.609   3.957  1.00  0.00     0.000 G0
BRANCH  50  52
ATOM     52  N   UNL     1      -0.581   8.405   1.579  1.00  0.00    -0.339 N 
ATOM     53  C   UNL     1       0.342   8.283   0.569  1.00  0.00     0.243 C 
ATOM     54  O   UNL     1       1.540   8.497   0.737  1.00  0.00    -0.273 OA
ATOM     55  H   UNL     1      -1.570   8.325   1.353  1.00  0.00     0.164 HD
BRANCH  53  56
ATOM     56  C   UNL     1      -0.277   8.013  -0.817  1.00  0.00     0.182 C 
BRANCH  56  57
ATOM     57  N   UNL     1      -0.023   9.128  -1.734  1.00  0.00    -0.344 N 
ATOM     58  C   UNL     1      -0.940  10.128  -1.949  1.00  0.00     0.220 C 
ATOM     59  O   UNL     1      -2.059  10.120  -1.448  1.00  0.00    -0.275 OA
ATOM     60  H   UNL     1       0.925   9.226  -2.088  1.00  0.00     0.164 HD
BRANCH  58  61
ATOM     61  C   UNL     1      -0.442  11.209  -2.890  1.00  0.00     0.100 C 
BRANCH  61  62
ATOM     62  C   UNL     1      -0.096  10.696  -4.289  1.00  0.00     0.010 C 
BRANCH  62  63
ATOM     63  C   UNL     1      -0.885   9.451  -4.714  1.00  0.00     0.000 C 
BRANCH  63  64
ATOM     64  C   UNL     1      -2.197   9.756  -5.435  1.00  0.00    -0.003 C 
ATOM     65  C   UNL     1      -2.831   8.490  -5.992  1.00  0.00     0.004 C 
ENDBRANCH  63  64
ENDBRANCH  62  63
ENDBRANCH  61  62
ENDBRANCH  58  61
ENDBRANCH  56  57
BRANCH  56  66
ATOM     66  C   UNL     1      -1.765   7.681  -0.711  1.00  0.00     0.157 C 
BRANCH  66  67
ATOM     67  C   UNL     1      -2.149   6.594  -1.673  1.00  0.00     0.305 C 
ATOM     68  O   UNL     1      -2.308   6.706  -2.879  1.00  0.00    -0.252 OA
BRANCH  67  69
ATOM     69  O   UNL     1      -2.267   5.395  -1.071  1.00  0.00    -0.481 OA
ATOM     70  H   UNL     1      -3.027   5.496  -0.460  1.00  0.00     0.296 HD
ENDBRANCH  67  69
ENDBRANCH  66  67
ENDBRANCH  56  66
ENDBRANCH  53  56
ENDBRANCH  50  52
ENDBRANCH  47  50
ENDBRANCH  45  46
BRANCH  45  71
ATOM     71  C   UNL     1      -1.538  11.816   6.506  1.00  0.00     0.037 C 
BRANCH  71  72
ATOM     72  C   UNL     1      -0.138  12.407   6.323  1.00  0.00     0.026 C 
BRANCH  72  73
ATOM     73  C   UNL     1      -0.010  13.141   4.989  1.00  0.00     0.146 C 
BRANCH  73  74
ATOM     74  N   UNL     1       1.406  13.182   4.636  1.00  0.00    -0.254 NA
ATOM     75  C   UNL     1       1.848  14.236   4.056  1.00  0.00     0.185 C 
ATOM     76  N   UNL     1       3.146  14.303   3.719  1.00  0.00    -0.370 N 
ATOM     77  N   UNL     1       1.183  15.352   3.709  1.00  0.00    -0.370 N 
ATOM     78  H   UNL     1       3.718  13.500   3.938  1.00  0.00     0.159 HD
ATOM     79  H   UNL     1       3.531  15.028   3.139  1.00  0.00     0.159 HD
ATOM     80  H   UNL     1       0.198  15.444   3.904  1.00  0.00     0.159 HD
ATOM     81  H   UNL     1       1.663  16.165   3.361  1.00  0.00     0.159 HD
ENDBRANCH  73  74
ENDBRANCH  72  73
ENDBRANCH  71  72
ENDBRANCH  45  71
ENDBRANCH   3  45
TORSDOF 20
ENDMDL
MODEL 8
REMARK VINA RESULT:    -4.622      7.698     11.825
REMARK INTER + INTRA:         -19.731
REMARK INTER:                 -13.179
REMARK INTRA:                  -6.552
REMARK UNBOUND:                -6.464
REMARK SMILES CCCCCC(=O)N[C@H](CC(=O)O)C(=O)N[C@H]1C(=O)N[C@H](CCCN=C(N)N)C(=O)N[C@@H]2CC[C@H](O)N(C2=O)[C@@H](CC(C)C)C(=O)N(C)[C@@H](Cc2ccccc2)C(=O)N[C@H](C(C)C)C(=O)O[C@@H]1C
REMARK SMILES IDX 30 1 31 2 29 3 32 5 35 6 37 7 34 8 38 9 33 10 39 11 36 12
REMARK SMILES IDX 40 14 41 15 42 16 43 17 44 18 45 19 46 20 47 21 48 22 49 23
REMARK SMILES IDX 50 24 51 25 52 26 56 27 53 28 55 29 54 30 57 31 58 32 59 33
REMARK SMILES IDX 60 35 61 36 62 37 63 38 64 39 65 40 66 41 67 42 68 43 21 45
REMARK SMILES IDX 20 46 18 47 19 48 17 50 16 52 14 53 15 54 9 56 8 57 6 58
REMARK SMILES IDX 7 59 5 61 4 62 3 63 2 64 1 65 10 66 11 67 12 68 13 69 22 71
REMARK SMILES IDX 23 72 24 73 25 74 26 75 27 76 28 77
REMARK H PARENT 31 4 36 13 59 34 20 49 16 55 8 60 13 70 27 78 27 79 28 80
REMARK H PARENT 28 81
REMARK Flexibility Score:  259.900
ROOT
ATOM      1  O   UNL     1      -7.778   2.399   0.206  1.00  0.00    -0.273 OA
ATOM      2  N   UNL     1      -8.319   4.202  -1.094  1.00  0.00    -0.343 N 
ATOM      3  C   UNL     1      -7.638   3.030  -0.842  1.00  0.00     0.243 C 
ATOM      4  H   UNL     1      -8.190   4.686  -1.973  1.00  0.00     0.164 HD
ENDROOT
BRANCH   2   5
ATOM      5  C   UNL     1      -9.154   4.811  -0.064  1.00  0.00     0.171 C 
ATOM      6  C   UNL     1     -11.025   7.025  -0.108  1.00  0.00     0.214 C 
ATOM      7  N   UNL     1      -9.639   7.273   0.212  1.00  0.00    -0.303 N 
ATOM      8  C   UNL     1     -11.499   5.640   0.304  1.00  0.00     0.057 C 
ATOM      9  C   UNL     1      -8.683   6.270   0.201  1.00  0.00     0.247 C 
ATOM     10  C   UNL     1     -10.636   4.586  -0.356  1.00  0.00     0.040 C 
ATOM     11  O   UNL     1      -7.483   6.505   0.392  1.00  0.00    -0.272 OA
BRANCH   6  12
ATOM     12  O   UNL     1     -11.186   7.208  -1.496  1.00  0.00    -0.373 OA
ATOM     13  H   UNL     1     -10.784   6.429  -1.937  1.00  0.00     0.213 HD
ENDBRANCH   6  12
BRANCH   7  14
ATOM     14  C   UNL     1      -9.239   8.682   0.413  1.00  0.00     0.177 C 
BRANCH  14  15
ATOM     15  C   UNL     1      -8.766   9.033   1.837  1.00  0.00     0.038 C 
BRANCH  15  16
ATOM     16  C   UNL     1      -9.219  10.361   2.484  1.00  0.00    -0.015 C 
ATOM     17  C   UNL     1      -8.067  11.358   2.639  1.00  0.00     0.007 C 
ATOM     18  C   UNL     1      -9.807  10.087   3.873  1.00  0.00     0.007 C 
ENDBRANCH  15  16
ENDBRANCH  14  15
BRANCH  14  19
ATOM     19  C   UNL     1      -8.644   9.272  -0.912  1.00  0.00     0.245 C 
ATOM     20  O   UNL     1      -8.548   8.496  -1.877  1.00  0.00    -0.272 OA
BRANCH  19  21
ATOM     21  N   UNL     1      -8.127  10.551  -1.023  1.00  0.00    -0.332 N 
ATOM     22  C   UNL     1      -8.898  11.780  -0.958  1.00  0.00     0.147 C 
BRANCH  21  23
ATOM     23  C   UNL     1      -6.661  10.693  -1.238  1.00  0.00     0.178 C 
BRANCH  23  24
ATOM     24  C   UNL     1      -6.109  12.115  -1.008  1.00  0.00     0.070 C 
BRANCH  24  25
ATOM     25  C   UNL     1      -4.637  12.333  -1.266  1.00  0.00    -0.045 A 
ATOM     26  C   UNL     1      -3.746  12.549  -0.206  1.00  0.00     0.004 A 
ATOM     27  C   UNL     1      -4.140  12.325  -2.578  1.00  0.00     0.004 A 
ATOM     28  C   UNL     1      -2.389  12.766  -0.455  1.00  0.00     0.000 A 
ATOM     29  C   UNL     1      -2.783  12.541  -2.825  1.00  0.00     0.000 A 
ATOM     30  C   UNL     1      -1.909  12.764  -1.762  1.00  0.00     0.000 A 
ENDBRANCH  24  25
ENDBRANCH  23  24
BRANCH  23  31
ATOM     31  C   UNL     1      -5.841   9.561  -0.574  1.00  0.00     0.243 C 
ATOM     32  O   UNL     1      -5.779   9.378   0.639  1.00  0.00    -0.273 OA
ATOM     33  N   UNL     1      -5.026   8.877  -1.459  1.00  0.00    -0.341 N 
ATOM     34  H   UNL     1      -5.118   9.077  -2.458  1.00  0.00     0.164 HD
BRANCH  33  35
ATOM     35  C   UNL     1      -4.075   7.845  -1.035  1.00  0.00     0.194 C 
BRANCH  35  36
ATOM     36  C   UNL     1      -2.586   8.288  -1.102  1.00  0.00     0.017 C 
ATOM     37  C   UNL     1      -2.222   9.205   0.079  1.00  0.00     0.010 C 
ATOM     38  C   UNL     1      -2.236   9.040  -2.392  1.00  0.00     0.010 C 
ENDBRANCH  35  36
BRANCH  35  39
ATOM     39  C   UNL     1      -4.309   6.486  -1.752  1.00  0.00     0.329 C 
ATOM     40  O   UNL     1      -3.969   5.401  -1.294  1.00  0.00    -0.250 OA
BRANCH  39  41
ATOM     41  O   UNL     1      -5.015   6.626  -2.914  1.00  0.00    -0.458 OA
BRANCH  41  42
ATOM     42  C   UNL     1      -4.481   5.946  -4.075  1.00  0.00     0.205 CG0
ATOM     43  C   UNL     1      -3.993   7.019  -5.046  1.00  0.00     0.056 C 
ATOM     44  G   UNL     1      -5.590   5.063  -4.681  1.00  0.00     0.000 G0
ENDBRANCH  41  42
ENDBRANCH  39  41
ENDBRANCH  35  39
ENDBRANCH  33  35
ENDBRANCH  23  31
ENDBRANCH  21  23
ENDBRANCH  19  21
ENDBRANCH  14  19
ENDBRANCH   7  14
ENDBRANCH   2   5
BRANCH   3  45
ATOM     45  C   UNL     1      -6.711   2.554  -1.968  1.00  0.00     0.171 C 
BRANCH  45  46
ATOM     46  N   UNL     1      -6.608   3.675  -2.894  1.00  0.00    -0.342 N 
ATOM     47  C   UNL     1      -5.650   3.734  -3.874  1.00  0.00     0.247 C 
ATOM     48  O   UNL     1      -4.857   2.817  -4.091  1.00  0.00    -0.273 OA
ATOM     49  H   UNL     1      -7.282   4.431  -2.786  1.00  0.00     0.164 HD
BRANCH  47  50
ATOM     50  C   UNL     1      -5.618   5.046  -4.672  1.00  0.00     0.212 CG0
ATOM     51  G   UNL     1      -4.510   5.932  -4.069  1.00  0.00     0.000 G0
BRANCH  50  52
ATOM     52  N   UNL     1      -5.354   4.654  -6.054  1.00  0.00    -0.339 N 
ATOM     53  C   UNL     1      -6.137   5.047  -7.113  1.00  0.00     0.243 C 
ATOM     54  O   UNL     1      -7.155   5.718  -6.970  1.00  0.00    -0.273 OA
ATOM     55  H   UNL     1      -4.588   4.006  -6.225  1.00  0.00     0.164 HD
BRANCH  53  56
ATOM     56  C   UNL     1      -5.714   4.439  -8.465  1.00  0.00     0.182 C 
BRANCH  56  57
ATOM     57  N   UNL     1      -5.722   2.974  -8.410  1.00  0.00    -0.344 N 
ATOM     58  C   UNL     1      -6.099   2.199  -9.479  1.00  0.00     0.220 C 
ATOM     59  O   UNL     1      -6.524   2.675 -10.526  1.00  0.00    -0.275 OA
ATOM     60  H   UNL     1      -5.283   2.541  -7.601  1.00  0.00     0.164 HD
BRANCH  58  61
ATOM     61  C   UNL     1      -5.974   0.709  -9.216  1.00  0.00     0.100 C 
BRANCH  61  62
ATOM     62  C   UNL     1      -4.530   0.221  -9.109  1.00  0.00     0.010 C 
BRANCH  62  63
ATOM     63  C   UNL     1      -3.673   0.519 -10.346  1.00  0.00     0.000 C 
BRANCH  63  64
ATOM     64  C   UNL     1      -2.194   0.752 -10.044  1.00  0.00    -0.003 C 
ATOM     65  C   UNL     1      -1.964   1.008  -8.561  1.00  0.00     0.004 C 
ENDBRANCH  63  64
ENDBRANCH  62  63
ENDBRANCH  61  62
ENDBRANCH  58  61
ENDBRANCH  56  57
BRANCH  56  66
ATOM     66  C   UNL     1      -4.367   4.991  -8.931  1.00  0.00     0.157 C 
BRANCH  66  67
ATOM     67  C   UNL     1      -4.382   6.491  -8.981  1.00  0.00     0.305 C 
ATOM     68  O   UNL     1      -5.231   7.198  -9.503  1.00  0.00    -0.252 OA
BRANCH  67  69
ATOM     69  O   UNL     1      -3.343   7.036  -8.320  1.00  0.00    -0.481 OA
ATOM     70  H   UNL     1      -2.714   7.305  -9.022  1.00  0.00     0.296 HD
ENDBRANCH  67  69
ENDBRANCH  66  67
ENDBRANCH  56  66
ENDBRANCH  53  56
ENDBRANCH  50  52
ENDBRANCH  47  50
ENDBRANCH  45  46
BRANCH  45  71
ATOM     71  C   UNL     1      -7.292   1.310  -2.649  1.00  0.00     0.037 C 
BRANCH  71  72
ATOM     72  C   UNL     1      -8.810   1.404  -2.822  1.00  0.00     0.026 C 
BRANCH  72  73
ATOM     73  C   UNL     1      -9.182   2.084  -4.138  1.00  0.00     0.146 C 
BRANCH  73  74
ATOM     74  N   UNL     1      -9.934   3.294  -3.818  1.00  0.00    -0.254 NA
ATOM     75  C   UNL     1     -11.204   3.274  -3.994  1.00  0.00     0.185 C 
ATOM     76  N   UNL     1     -11.923   4.371  -3.708  1.00  0.00    -0.370 N 
ATOM     77  N   UNL     1     -11.978   2.272  -4.446  1.00  0.00    -0.370 N 
ATOM     78  H   UNL     1     -11.415   5.176  -3.369  1.00  0.00     0.159 HD
ATOM     79  H   UNL     1     -12.891   4.478  -3.955  1.00  0.00     0.159 HD
ATOM     80  H   UNL     1     -11.574   1.383  -4.697  1.00  0.00     0.159 HD
ATOM     81  H   UNL     1     -12.983   2.335  -4.433  1.00  0.00     0.159 HD
ENDBRANCH  73  74
ENDBRANCH  72  73
ENDBRANCH  71  72
ENDBRANCH  45  71
ENDBRANCH   3  45
TORSDOF 20
ENDMDL
MODEL 9
REMARK VINA RESULT:    -4.557      1.675      2.099
REMARK INTER + INTRA:         -19.547
REMARK INTER:                 -14.613
REMARK INTRA:                  -4.934
REMARK UNBOUND:                -6.464
REMARK SMILES CCCCCC(=O)N[C@H](CC(=O)O)C(=O)N[C@H]1C(=O)N[C@H](CCCN=C(N)N)C(=O)N[C@@H]2CC[C@H](O)N(C2=O)[C@@H](CC(C)C)C(=O)N(C)[C@@H](Cc2ccccc2)C(=O)N[C@H](C(C)C)C(=O)O[C@@H]1C
REMARK SMILES IDX 30 1 31 2 29 3 32 5 35 6 37 7 34 8 38 9 33 10 39 11 36 12
REMARK SMILES IDX 40 14 41 15 42 16 43 17 44 18 45 19 46 20 47 21 48 22 49 23
REMARK SMILES IDX 50 24 51 25 52 26 56 27 53 28 55 29 54 30 57 31 58 32 59 33
REMARK SMILES IDX 60 35 61 36 62 37 63 38 64 39 65 40 66 41 67 42 68 43 21 45
REMARK SMILES IDX 20 46 18 47 19 48 17 50 16 52 14 53 15 54 9 56 8 57 6 58
REMARK SMILES IDX 7 59 5 61 4 62 3 63 2 64 1 65 10 66 11 67 12 68 13 69 22 71
REMARK SMILES IDX 23 72 24 73 25 74 26 75 27 76 28 77
REMARK H PARENT 31 4 36 13 59 34 20 49 16 55 8 60 13 70 27 78 27 79 28 80
REMARK H PARENT 28 81
REMARK Flexibility Score:  259.900
ROOT
ATOM      1  O   UNL     1      -6.509   9.645   4.353  1.00  0.00    -0.273 OA
ATOM      2  N   UNL     1      -5.390   9.235   6.305  1.00  0.00    -0.343 N 
ATOM      3  C   UNL     1      -5.617   9.946   5.146  1.00  0.00     0.243 C 
ATOM      4  H   UNL     1      -4.656   9.521   6.941  1.00  0.00     0.164 HD
ENDROOT
BRANCH   2   5
ATOM      5  C   UNL     1      -6.132   8.010   6.581  1.00  0.00     0.171 C 
ATOM      6  C   UNL     1      -6.670   6.549   9.027  1.00  0.00     0.214 C 
ATOM      7  N   UNL     1      -5.503   6.217   8.243  1.00  0.00    -0.303 N 
ATOM      8  C   UNL     1      -7.824   7.080   8.192  1.00  0.00     0.057 C 
ATOM      9  C   UNL     1      -5.160   6.908   7.093  1.00  0.00     0.247 C 
ATOM     10  C   UNL     1      -7.377   8.301   7.417  1.00  0.00     0.040 C 
ATOM     11  O   UNL     1      -4.113   6.675   6.475  1.00  0.00    -0.272 OA
BRANCH   6  12
ATOM     12  O   UNL     1      -6.283   7.499   9.993  1.00  0.00    -0.373 OA
ATOM     13  H   UNL     1      -7.106   7.896  10.351  1.00  0.00     0.213 HD
ENDBRANCH   6  12
BRANCH   7  14
ATOM     14  C   UNL     1      -4.592   5.193   8.798  1.00  0.00     0.177 C 
BRANCH  14  15
ATOM     15  C   UNL     1      -4.588   5.082  10.335  1.00  0.00     0.038 C 
BRANCH  15  16
ATOM     16  C   UNL     1      -5.724   4.312  11.045  1.00  0.00    -0.015 C 
ATOM     17  C   UNL     1      -6.107   4.943  12.388  1.00  0.00     0.007 C 
ATOM     18  C   UNL     1      -5.288   2.864  11.301  1.00  0.00     0.007 C 
ENDBRANCH  15  16
ENDBRANCH  14  15
BRANCH  14  19
ATOM     19  C   UNL     1      -4.454   3.991   7.801  1.00  0.00     0.245 C 
ATOM     20  O   UNL     1      -5.445   3.252   7.676  1.00  0.00    -0.272 OA
BRANCH  19  21
ATOM     21  N   UNL     1      -3.277   3.656   7.156  1.00  0.00    -0.332 N 
ATOM     22  C   UNL     1      -3.181   2.927   5.904  1.00  0.00     0.147 C 
BRANCH  21  23
ATOM     23  C   UNL     1      -1.994   4.059   7.795  1.00  0.00     0.178 C 
BRANCH  23  24
ATOM     24  C   UNL     1      -1.139   2.889   8.321  1.00  0.00     0.070 C 
BRANCH  24  25
ATOM     25  C   UNL     1      -1.770   1.986   9.356  1.00  0.00    -0.045 A 
ATOM     26  C   UNL     1      -1.483   2.144  10.718  1.00  0.00     0.004 A 
ATOM     27  C   UNL     1      -2.652   0.968   8.963  1.00  0.00     0.004 A 
ATOM     28  C   UNL     1      -2.057   1.295  11.666  1.00  0.00     0.000 A 
ATOM     29  C   UNL     1      -3.226   0.120   9.912  1.00  0.00     0.000 A 
ATOM     30  C   UNL     1      -2.925   0.283  11.262  1.00  0.00     0.000 A 
ENDBRANCH  24  25
ENDBRANCH  23  24
BRANCH  23  31
ATOM     31  C   UNL     1      -1.217   5.116   6.974  1.00  0.00     0.243 C 
ATOM     32  O   UNL     1      -0.565   4.859   5.965  1.00  0.00    -0.273 OA
ATOM     33  N   UNL     1      -1.165   6.359   7.582  1.00  0.00    -0.341 N 
ATOM     34  H   UNL     1      -1.725   6.512   8.424  1.00  0.00     0.164 HD
BRANCH  33  35
ATOM     35  C   UNL     1      -0.386   7.479   7.045  1.00  0.00     0.194 C 
BRANCH  35  36
ATOM     36  C   UNL     1       0.667   8.052   8.035  1.00  0.00     0.017 C 
ATOM     37  C   UNL     1       1.919   8.551   7.293  1.00  0.00     0.010 C 
ATOM     38  C   UNL     1       1.130   7.031   9.082  1.00  0.00     0.010 C 
ENDBRANCH  35  36
BRANCH  35  39
ATOM     39  C   UNL     1      -1.283   8.596   6.441  1.00  0.00     0.329 C 
ATOM     40  O   UNL     1      -2.220   9.118   7.032  1.00  0.00    -0.250 OA
BRANCH  39  41
ATOM     41  O   UNL     1      -0.854   8.995   5.205  1.00  0.00    -0.458 OA
BRANCH  41  42
ATOM     42  C   UNL     1      -1.596   8.482   4.073  1.00  0.00     0.205 CG0
ATOM     43  C   UNL     1      -0.825   7.281   3.530  1.00  0.00     0.056 C 
ATOM     44  G   UNL     1      -1.744   9.609   3.031  1.00  0.00     0.000 G0
ENDBRANCH  41  42
ENDBRANCH  39  41
ENDBRANCH  35  39
ENDBRANCH  33  35
ENDBRANCH  23  31
ENDBRANCH  21  23
ENDBRANCH  19  21
ENDBRANCH  14  19
ENDBRANCH   7  14
ENDBRANCH   2   5
BRANCH   3  45
ATOM     45  C   UNL     1      -4.694  11.152   4.924  1.00  0.00     0.171 C 
BRANCH  45  46
ATOM     46  N   UNL     1      -3.405  10.595   4.535  1.00  0.00    -0.342 N 
ATOM     47  C   UNL     1      -3.087  10.317   3.229  1.00  0.00     0.247 C 
ATOM     48  O   UNL     1      -3.835  10.583   2.288  1.00  0.00    -0.273 OA
ATOM     49  H   UNL     1      -2.734  10.411   5.278  1.00  0.00     0.164 HD
BRANCH  47  50
ATOM     50  C   UNL     1      -1.735   9.619   3.024  1.00  0.00     0.212 CG0
ATOM     51  G   UNL     1      -1.623   8.498   4.077  1.00  0.00     0.000 G0
BRANCH  50  52
ATOM     52  N   UNL     1      -1.758   9.121   1.651  1.00  0.00    -0.339 N 
ATOM     53  C   UNL     1      -0.679   9.190   0.804  1.00  0.00     0.243 C 
ATOM     54  O   UNL     1       0.378   9.728   1.121  1.00  0.00    -0.273 OA
ATOM     55  H   UNL     1      -2.642   8.764   1.292  1.00  0.00     0.164 HD
BRANCH  53  56
ATOM     56  C   UNL     1      -0.968   8.680  -0.623  1.00  0.00     0.182 C 
BRANCH  56  57
ATOM     57  N   UNL     1      -0.657   9.707  -1.622  1.00  0.00    -0.344 N 
ATOM     58  C   UNL     1      -0.489   9.412  -2.953  1.00  0.00     0.220 C 
ATOM     59  O   UNL     1      -0.513   8.265  -3.386  1.00  0.00    -0.275 OA
ATOM     60  H   UNL     1      -0.729  10.676  -1.324  1.00  0.00     0.164 HD
BRANCH  58  61
ATOM     61  C   UNL     1      -0.233  10.636  -3.813  1.00  0.00     0.100 C 
BRANCH  61  62
ATOM     62  C   UNL     1      -1.470  11.133  -4.560  1.00  0.00     0.010 C 
BRANCH  62  63
ATOM     63  C   UNL     1      -2.716  11.286  -3.678  1.00  0.00     0.000 C 
BRANCH  63  64
ATOM     64  C   UNL     1      -3.822  12.139  -4.299  1.00  0.00    -0.003 C 
ATOM     65  C   UNL     1      -4.278  13.235  -3.346  1.00  0.00     0.004 C 
ENDBRANCH  63  64
ENDBRANCH  62  63
ENDBRANCH  61  62
ENDBRANCH  58  61
ENDBRANCH  56  57
BRANCH  56  66
ATOM     66  C   UNL     1      -2.399   8.162  -0.753  1.00  0.00     0.157 C 
BRANCH  66  67
ATOM     67  C   UNL     1      -2.419   6.713  -1.145  1.00  0.00     0.305 C 
ATOM     68  O   UNL     1      -3.403   6.039  -1.410  1.00  0.00    -0.252 OA
BRANCH  67  69
ATOM     69  O   UNL     1      -1.182   6.190  -1.235  1.00  0.00    -0.481 OA
ATOM     70  H   UNL     1      -1.101   5.601  -0.455  1.00  0.00     0.296 HD
ENDBRANCH  67  69
ENDBRANCH  66  67
ENDBRANCH  56  66
ENDBRANCH  53  56
ENDBRANCH  50  52
ENDBRANCH  47  50
ENDBRANCH  45  46
BRANCH  45  71
ATOM     71  C   UNL     1      -4.586  11.985   6.206  1.00  0.00     0.037 C 
BRANCH  71  72
ATOM     72  C   UNL     1      -3.247  12.719   6.304  1.00  0.00     0.026 C 
BRANCH  72  73
ATOM     73  C   UNL     1      -3.401  14.078   6.984  1.00  0.00     0.146 C 
BRANCH  73  74
ATOM     74  N   UNL     1      -3.417  13.858   8.426  1.00  0.00    -0.254 NA
ATOM     75  C   UNL     1      -4.363  14.396   9.104  1.00  0.00     0.185 C 
ATOM     76  N   UNL     1      -4.405  14.210  10.433  1.00  0.00    -0.370 N 
ATOM     77  N   UNL     1      -5.380  15.163   8.674  1.00  0.00    -0.370 N 
ATOM     78  H   UNL     1      -3.670  13.650  10.841  1.00  0.00     0.159 HD
ATOM     79  H   UNL     1      -5.024  14.714  11.043  1.00  0.00     0.159 HD
ATOM     80  H   UNL     1      -5.478  15.384   7.695  1.00  0.00     0.159 HD
ATOM     81  H   UNL     1      -6.131  15.436   9.286  1.00  0.00     0.159 HD
ENDBRANCH  73  74
ENDBRANCH  72  73
ENDBRANCH  71  72
ENDBRANCH  45  71
ENDBRANCH   3  45
TORSDOF 20
ENDMDL
MODEL 10
REMARK VINA RESULT:    -4.368      3.680      9.099
REMARK INTER + INTRA:         -19.004
REMARK INTER:                 -14.723
REMARK INTRA:                  -4.280
REMARK UNBOUND:                -6.464
REMARK SMILES CCCCCC(=O)N[C@H](CC(=O)O)C(=O)N[C@H]1C(=O)N[C@H](CCCN=C(N)N)C(=O)N[C@@H]2CC[C@H](O)N(C2=O)[C@@H](CC(C)C)C(=O)N(C)[C@@H](Cc2ccccc2)C(=O)N[C@H](C(C)C)C(=O)O[C@@H]1C
REMARK SMILES IDX 30 1 31 2 29 3 32 5 35 6 37 7 34 8 38 9 33 10 39 11 36 12
REMARK SMILES IDX 40 14 41 15 42 16 43 17 44 18 45 19 46 20 47 21 48 22 49 23
REMARK SMILES IDX 50 24 51 25 52 26 56 27 53 28 55 29 54 30 57 31 58 32 59 33
REMARK SMILES IDX 60 35 61 36 62 37 63 38 64 39 65 40 66 41 67 42 68 43 21 45
REMARK SMILES IDX 20 46 18 47 19 48 17 50 16 52 14 53 15 54 9 56 8 57 6 58
REMARK SMILES IDX 7 59 5 61 4 62 3 63 2 64 1 65 10 66 11 67 12 68 13 69 22 71
REMARK SMILES IDX 23 72 24 73 25 74 26 75 27 76 28 77
REMARK H PARENT 31 4 36 13 59 34 20 49 16 55 8 60 13 70 27 78 27 79 28 80
REMARK H PARENT 28 81
REMARK Flexibility Score:  259.900
ROOT
ATOM      1  O   UNL     1      -0.378   4.010   5.770  1.00  0.00    -0.273 OA
ATOM      2  N   UNL     1      -2.373   5.122   5.644  1.00  0.00    -0.343 N 
ATOM      3  C   UNL     1      -1.000   5.048   5.540  1.00  0.00     0.243 C 
ATOM      4  H   UNL     1      -2.852   5.988   5.433  1.00  0.00     0.164 HD
ENDROOT
BRANCH   2   5
ATOM      5  C   UNL     1      -3.141   3.991   6.152  1.00  0.00     0.171 C 
ATOM      6  C   UNL     1      -5.723   3.797   7.456  1.00  0.00     0.214 C 
ATOM      7  N   UNL     1      -4.531   3.946   8.258  1.00  0.00    -0.303 N 
ATOM      8  C   UNL     1      -5.479   3.064   6.146  1.00  0.00     0.057 C 
ATOM      9  C   UNL     1      -3.273   4.095   7.698  1.00  0.00     0.247 C 
ATOM     10  C   UNL     1      -4.421   3.790   5.343  1.00  0.00     0.040 C 
ATOM     11  O   UNL     1      -2.268   4.308   8.390  1.00  0.00    -0.272 OA
BRANCH   6  12
ATOM     12  O   UNL     1      -6.240   5.084   7.211  1.00  0.00    -0.373 OA
ATOM     13  H   UNL     1      -6.081   5.283   6.263  1.00  0.00     0.213 HD
ENDBRANCH   6  12
BRANCH   7  14
ATOM     14  C   UNL     1      -4.719   4.082   9.718  1.00  0.00     0.177 C 
BRANCH  14  15
ATOM     15  C   UNL     1      -3.892   3.108  10.580  1.00  0.00     0.038 C 
BRANCH  15  16
ATOM     16  C   UNL     1      -4.072   1.585  10.392  1.00  0.00    -0.015 C 
ATOM     17  C   UNL     1      -4.106   0.832  11.725  1.00  0.00     0.007 C 
ATOM     18  C   UNL     1      -2.915   1.026   9.554  1.00  0.00     0.007 C 
ENDBRANCH  15  16
ENDBRANCH  14  15
BRANCH  14  19
ATOM     19  C   UNL     1      -5.040   5.571  10.088  1.00  0.00     0.245 C 
ATOM     20  O   UNL     1      -4.070   6.327  10.260  1.00  0.00    -0.272 OA
BRANCH  19  21
ATOM     21  N   UNL     1      -6.316   6.045  10.338  1.00  0.00    -0.332 N 
ATOM     22  C   UNL     1      -7.494   5.223  10.552  1.00  0.00     0.147 C 
BRANCH  21  23
ATOM     23  C   UNL     1      -6.514   7.521  10.384  1.00  0.00     0.178 C 
BRANCH  23  24
ATOM     24  C   UNL     1      -6.120   8.184  11.719  1.00  0.00     0.070 C 
BRANCH  24  25
ATOM     25  C   UNL     1      -7.225   8.844  12.512  1.00  0.00    -0.045 A 
ATOM     26  C   UNL     1      -7.008   9.268  13.829  1.00  0.00     0.004 A 
ATOM     27  C   UNL     1      -8.489   9.038  11.936  1.00  0.00     0.004 A 
ATOM     28  C   UNL     1      -8.039   9.861  14.560  1.00  0.00     0.000 A 
ATOM     29  C   UNL     1      -9.519   9.632  12.668  1.00  0.00     0.000 A 
ATOM     30  C   UNL     1      -9.293  10.041  13.981  1.00  0.00     0.000 A 
ENDBRANCH  24  25
ENDBRANCH  23  24
BRANCH  23  31
ATOM     31  C   UNL     1      -5.986   8.240   9.119  1.00  0.00     0.243 C 
ATOM     32  O   UNL     1      -6.364   7.987   7.978  1.00  0.00    -0.273 OA
ATOM     33  N   UNL     1      -4.907   9.072   9.366  1.00  0.00    -0.341 N 
ATOM     34  H   UNL     1      -4.635   9.239  10.338  1.00  0.00     0.164 HD
BRANCH  33  35
ATOM     35  C   UNL     1      -4.172   9.762   8.303  1.00  0.00     0.194 C 
BRANCH  35  36
ATOM     36  C   UNL     1      -5.080  10.416   7.223  1.00  0.00     0.017 C 
ATOM     37  C   UNL     1      -4.268  10.825   5.982  1.00  0.00     0.010 C 
ATOM     38  C   UNL     1      -5.811  11.666   7.726  1.00  0.00     0.010 C 
ENDBRANCH  35  36
BRANCH  35  39
ATOM     39  C   UNL     1      -3.064   8.875   7.669  1.00  0.00     0.329 C 
ATOM     40  O   UNL     1      -3.276   7.800   7.120  1.00  0.00    -0.250 OA
BRANCH  39  41
ATOM     41  O   UNL     1      -1.833   9.468   7.715  1.00  0.00    -0.458 OA
BRANCH  41  42
ATOM     42  C   UNL     1      -0.802   8.751   8.435  1.00  0.00     0.205 CG0
ATOM     43  C   UNL     1      -0.800   9.277   9.869  1.00  0.00     0.056 C 
ATOM     44  G   UNL     1       0.546   8.980   7.721  1.00  0.00     0.000 G0
ENDBRANCH  41  42
ENDBRANCH  39  41
ENDBRANCH  35  39
ENDBRANCH  33  35
ENDBRANCH  23  31
ENDBRANCH  21  23
ENDBRANCH  19  21
ENDBRANCH  14  19
ENDBRANCH   7  14
ENDBRANCH   2   5
BRANCH   3  45
ATOM     45  C   UNL     1      -0.304   6.341   5.097  1.00  0.00     0.171 C 
BRANCH  45  46
ATOM     46  N   UNL     1      -0.253   7.187   6.282  1.00  0.00    -0.342 N 
ATOM     47  C   UNL     1       0.545   8.300   6.359  1.00  0.00     0.247 C 
ATOM     48  O   UNL     1       1.219   8.706   5.411  1.00  0.00    -0.273 OA
ATOM     49  H   UNL     1      -0.839   6.919   7.071  1.00  0.00     0.164 HD
BRANCH  47  50
ATOM     50  C   UNL     1       0.563   8.995   7.728  1.00  0.00     0.212 CG0
ATOM     51  G   UNL     1      -0.796   8.728   8.405  1.00  0.00     0.000 G0
BRANCH  50  52
ATOM     52  N   UNL     1       1.691   8.410   8.447  1.00  0.00    -0.339 N 
ATOM     53  C   UNL     1       2.860   9.087   8.698  1.00  0.00     0.243 C 
ATOM     54  O   UNL     1       3.067  10.225   8.288  1.00  0.00    -0.273 OA
ATOM     55  H   UNL     1       1.623   7.430   8.716  1.00  0.00     0.164 HD
BRANCH  53  56
ATOM     56  C   UNL     1       3.940   8.236   9.397  1.00  0.00     0.182 C 
BRANCH  56  57
ATOM     57  N   UNL     1       3.997   8.532  10.832  1.00  0.00    -0.344 N 
ATOM     58  C   UNL     1       3.052   8.073  11.717  1.00  0.00     0.220 C 
ATOM     59  O   UNL     1       2.059   7.447  11.362  1.00  0.00    -0.275 OA
ATOM     60  H   UNL     1       4.852   8.958  11.180  1.00  0.00     0.164 HD
BRANCH  58  61
ATOM     61  C   UNL     1       3.343   8.451  13.157  1.00  0.00     0.100 C 
BRANCH  61  62
ATOM     62  C   UNL     1       4.653   9.216  13.341  1.00  0.00     0.010 C 
BRANCH  62  63
ATOM     63  C   UNL     1       4.485  10.610  13.961  1.00  0.00     0.000 C 
BRANCH  63  64
ATOM     64  C   UNL     1       3.515  10.658  15.140  1.00  0.00    -0.003 C 
ATOM     65  C   UNL     1       4.178  10.181  16.424  1.00  0.00     0.004 C 
ENDBRANCH  63  64
ENDBRANCH  62  63
ENDBRANCH  61  62
ENDBRANCH  58  61
ENDBRANCH  56  57
BRANCH  56  66
ATOM     66  C   UNL     1       5.300   8.393   8.721  1.00  0.00     0.157 C 
BRANCH  66  67
ATOM     67  C   UNL     1       5.243   7.974   7.280  1.00  0.00     0.305 C 
ATOM     68  O   UNL     1       5.368   8.696   6.302  1.00  0.00    -0.252 OA
BRANCH  67  69
ATOM     69  O   UNL     1       5.081   6.645   7.139  1.00  0.00    -0.481 OA
ATOM     70  H   UNL     1       5.918   6.333   6.733  1.00  0.00     0.296 HD
ENDBRANCH  67  69
ENDBRANCH  66  67
ENDBRANCH  56  66
ENDBRANCH  53  56
ENDBRANCH  50  52
ENDBRANCH  47  50
ENDBRANCH  45  46
BRANCH  45  71
ATOM     71  C   UNL     1      -1.087   7.007   3.960  1.00  0.00     0.037 C 
BRANCH  71  72
ATOM     72  C   UNL     1      -0.363   6.893   2.617  1.00  0.00     0.026 C 
BRANCH  72  73
ATOM     73  C   UNL     1       0.074   8.261   2.098  1.00  0.00     0.146 C 
BRANCH  73  74
ATOM     74  N   UNL     1      -0.878   8.674   1.071  1.00  0.00    -0.254 NA
ATOM     75  C   UNL     1      -0.515   8.581  -0.155  1.00  0.00     0.185 C 
ATOM     76  N   UNL     1      -1.369   8.953  -1.122  1.00  0.00    -0.370 N 
ATOM     77  N   UNL     1       0.652   8.145  -0.660  1.00  0.00    -0.370 N 
ATOM     78  H   UNL     1      -2.270   9.301  -0.827  1.00  0.00     0.159 HD
ATOM     79  H   UNL     1      -1.107   9.045  -2.087  1.00  0.00     0.159 HD
ATOM     80  H   UNL     1       1.390   7.829  -0.049  1.00  0.00     0.159 HD
ATOM     81  H   UNL     1       0.782   8.008  -1.648  1.00  0.00     0.159 HD
ENDBRANCH  73  74
ENDBRANCH  72  73
ENDBRANCH  71  72
ENDBRANCH  45  71
ENDBRANCH   3  45
TORSDOF 20
ENDMDL
