MODEL 1
REMARK VINA RESULT:    -4.943      0.000      0.000
REMARK INTER + INTRA:          -9.840
REMARK INTER:                  -8.410
REMARK INTRA:                  -1.430
REMARK UNBOUND:                -1.430
REMARK SMILES CC[C@H](C)[C@@H]1NC(=O)[C@H]2CSC(=N2)[C@@H]([C@@H](C)CC)NC(=O)c2csc(n2)CNC(=O)[C@H]2N=C1O[C@@H]2C
REMARK SMILES IDX 27 1 25 2 22 3 26 4 23 5 24 6 20 7 19 8 21 9 14 11 12 12
REMARK SMILES IDX 11 13 10 14 13 15 9 16 15 18 16 19 17 20 18 21 28 22 29 23
REMARK SMILES IDX 30 24 31 26 32 27 35 28 33 29 34 30 36 31 5 32 6 33 7 34
REMARK SMILES IDX 8 35 3 38 4 39 2 40 1 41
REMARK H PARENT 19 10 28 25 6 36
REMARK Flexibility Score:   91.900
ROOT
ATOM      1  C   UNL     1       8.894  -8.048  -4.825  1.00  0.00     0.183 C 
ENDROOT
BRANCH   1   2
ATOM      2  C   UNL     1       7.783  -7.673  -3.886  1.00  0.00     0.113 A 
ATOM      3  C   UNL     1       6.737  -7.204  -1.975  1.00  0.00     0.139 A 
ATOM      4  N   UNL     1       7.966  -7.405  -2.606  1.00  0.00    -0.234 NA
ATOM      5  C   UNL     1       5.644  -7.269  -2.818  1.00  0.00     0.101 A 
ATOM      6  S   UNL     1       6.153  -7.611  -4.421  1.00  0.00    -0.125 S 
BRANCH   3   7
ATOM      7  C   UNL     1       6.682  -6.990  -0.528  1.00  0.00     0.271 C 
ATOM      8  N   UNL     1       7.022  -5.702  -0.194  1.00  0.00    -0.341 N 
ATOM      9  O   UNL     1       6.402  -7.866   0.280  1.00  0.00    -0.267 OA
ATOM     10  H   UNL     1       7.208  -5.078  -0.978  1.00  0.00     0.164 HD
BRANCH   8  11
ATOM     11  C   UNL     1       7.239  -5.240   1.167  1.00  0.00     0.140 C 
BRANCH  11  12
ATOM     12  C   UNL     1       8.749  -5.213   1.419  1.00  0.00     0.091 C 
ATOM     13  S   UNL     1       9.852  -4.741   0.147  1.00  0.00    -0.106 SA
ATOM     14  C   UNL     1      11.203  -4.639   1.340  1.00  0.00     0.113 C 
ATOM     15  N   UNL     1       9.266  -5.603   2.542  1.00  0.00    -0.267 NA
ATOM     16  C   UNL     1      10.760  -5.567   2.460  1.00  0.00     0.205 CG0
ATOM     17  G   UNL     1      11.332  -6.979   2.255  1.00  0.00     0.000 G0
ENDBRANCH  11  12
BRANCH  11  18
ATOM     18  C   UNL     1       6.456  -3.952   1.528  1.00  0.00     0.015 C 
ATOM     19  C   UNL     1       7.343  -2.715   1.331  1.00  0.00     0.010 C 
BRANCH  18  20
ATOM     20  C   UNL     1       5.103  -3.796   0.806  1.00  0.00     0.002 C 
ATOM     21  C   UNL     1       5.114  -2.696  -0.249  1.00  0.00     0.004 C 
ENDBRANCH  18  20
ENDBRANCH  11  18
ENDBRANCH   8  11
ENDBRANCH   3   7
ENDBRANCH   1   2
BRANCH   1  22
ATOM     22  N   UNL     1       9.980  -8.568  -4.024  1.00  0.00    -0.348 N 
ATOM     23  C   UNL     1      11.114  -7.872  -3.703  1.00  0.00     0.249 C 
ATOM     24  O   UNL     1      11.286  -6.694  -3.997  1.00  0.00    -0.272 OA
ATOM     25  H   UNL     1       9.950  -9.547  -3.743  1.00  0.00     0.163 HD
BRANCH  23  26
ATOM     26  C   UNL     1      12.113  -8.705  -2.887  1.00  0.00     0.238 C 
ATOM     27  N   UNL     1      12.228  -8.132  -1.517  1.00  0.00    -0.236 NA
ATOM     28  C   UNL     1      11.636 -10.134  -2.691  1.00  0.00     0.206 C 
ATOM     29  C   UNL     1      11.668  -9.035  -0.769  1.00  0.00     0.208 C 
ATOM     30  O   UNL     1      11.184 -10.166  -1.338  1.00  0.00    -0.474 OA
ATOM     31  C   UNL     1      12.756 -11.152  -2.854  1.00  0.00     0.056 C 
BRANCH  29  32
ATOM     32  C   UNL     1      11.435  -8.945   0.737  1.00  0.00     0.171 C 
BRANCH  32  33
ATOM     33  N   UNL     1      10.933  -7.631   1.107  1.00  0.00    -0.342 N 
ATOM     34  C   UNL     1      11.339  -6.975   2.245  1.00  0.00     0.246 CG0
ATOM     35  O   UNL     1      12.135  -7.457   3.047  1.00  0.00    -0.273 OA
ATOM     36  H   UNL     1      10.227  -7.163   0.548  1.00  0.00     0.164 HD
ATOM     37  G   UNL     1      10.735  -5.573   2.422  1.00  0.00     0.000 G0
ENDBRANCH  32  33
BRANCH  32  38
ATOM     38  C   UNL     1      10.505 -10.092   1.212  1.00  0.00     0.017 C 
ATOM     39  C   UNL     1      11.259 -11.014   2.179  1.00  0.00     0.010 C 
BRANCH  38  40
ATOM     40  C   UNL     1       9.183  -9.580   1.828  1.00  0.00     0.002 C 
ATOM     41  C   UNL     1       9.048  -9.878   3.316  1.00  0.00     0.004 C 
ENDBRANCH  38  40
ENDBRANCH  32  38
ENDBRANCH  29  32
ENDBRANCH  23  26
ENDBRANCH   1  22
TORSDOF 4
ENDMDL
MODEL 2
REMARK VINA RESULT:    -4.549      3.372      8.465
REMARK INTER + INTRA:          -9.171
REMARK INTER:                  -8.214
REMARK INTRA:                  -0.957
REMARK UNBOUND:                -1.430
REMARK SMILES CC[C@H](C)[C@@H]1NC(=O)[C@H]2CSC(=N2)[C@@H]([C@@H](C)CC)NC(=O)c2csc(n2)CNC(=O)[C@H]2N=C1O[C@@H]2C
REMARK SMILES IDX 27 1 25 2 22 3 26 4 23 5 24 6 20 7 19 8 21 9 14 11 12 12
REMARK SMILES IDX 11 13 10 14 13 15 9 16 15 18 16 19 17 20 18 21 28 22 29 23
REMARK SMILES IDX 30 24 31 26 32 27 35 28 33 29 34 30 36 31 5 32 6 33 7 34
REMARK SMILES IDX 8 35 3 38 4 39 2 40 1 41
REMARK H PARENT 19 10 28 25 6 36
REMARK Flexibility Score:   91.900
ROOT
ATOM      1  C   UNL     1       9.384  -4.715   3.554  1.00  0.00     0.183 C 
ENDROOT
BRANCH   1   2
ATOM      2  C   UNL     1       9.669  -5.085   2.127  1.00  0.00     0.113 A 
ATOM      3  C   UNL     1       9.505  -6.150   0.176  1.00  0.00     0.139 A 
ATOM      4  N   UNL     1       8.925  -5.919   1.425  1.00  0.00    -0.234 NA
ATOM      5  C   UNL     1      10.659  -5.429  -0.060  1.00  0.00     0.101 A 
ATOM      6  S   UNL     1      11.044  -4.465   1.306  1.00  0.00    -0.125 S 
BRANCH   3   7
ATOM      7  C   UNL     1       8.908  -7.123  -0.741  1.00  0.00     0.271 C 
ATOM      8  N   UNL     1       8.312  -6.507  -1.814  1.00  0.00    -0.341 N 
ATOM      9  O   UNL     1       8.914  -8.333  -0.549  1.00  0.00    -0.267 OA
ATOM     10  H   UNL     1       8.409  -5.493  -1.850  1.00  0.00     0.164 HD
BRANCH   8  11
ATOM     11  C   UNL     1       7.480  -7.191  -2.791  1.00  0.00     0.140 C 
BRANCH  11  12
ATOM     12  C   UNL     1       6.071  -6.596  -2.707  1.00  0.00     0.091 C 
ATOM     13  S   UNL     1       5.239  -6.079  -4.154  1.00  0.00    -0.106 SA
ATOM     14  C   UNL     1       3.699  -5.915  -3.225  1.00  0.00     0.113 C 
ATOM     15  N   UNL     1       5.481  -6.387  -1.572  1.00  0.00    -0.267 NA
ATOM     16  C   UNL     1       4.169  -5.702  -1.795  1.00  0.00     0.205 CG0
ATOM     17  G   UNL     1       4.272  -4.201  -1.475  1.00  0.00     0.000 G0
ENDBRANCH  11  12
BRANCH  11  18
ATOM     18  C   UNL     1       8.109  -7.276  -4.205  1.00  0.00     0.015 C 
ATOM     19  C   UNL     1       9.628  -7.467  -4.104  1.00  0.00     0.010 C 
BRANCH  18  20
ATOM     20  C   UNL     1       7.469  -8.329  -5.133  1.00  0.00     0.002 C 
ATOM     21  C   UNL     1       7.144  -7.783  -6.518  1.00  0.00     0.004 C 
ENDBRANCH  18  20
ENDBRANCH  11  18
ENDBRANCH   8  11
ENDBRANCH   3   7
ENDBRANCH   1   2
BRANCH   1  22
ATOM     22  N   UNL     1       8.138  -3.982   3.571  1.00  0.00    -0.348 N 
ATOM     23  C   UNL     1       7.976  -2.709   3.095  1.00  0.00     0.249 C 
ATOM     24  O   UNL     1       8.864  -2.087   2.522  1.00  0.00    -0.272 OA
ATOM     25  H   UNL     1       7.337  -4.398   4.044  1.00  0.00     0.163 HD
BRANCH  23  26
ATOM     26  C   UNL     1       6.551  -2.174   3.301  1.00  0.00     0.238 C 
ATOM     27  N   UNL     1       6.020  -1.679   2.000  1.00  0.00    -0.236 NA
ATOM     28  C   UNL     1       5.592  -3.266   3.742  1.00  0.00     0.206 C 
ATOM     29  C   UNL     1       5.091  -2.540   1.711  1.00  0.00     0.208 C 
ATOM     30  O   UNL     1       4.836  -3.558   2.568  1.00  0.00    -0.474 OA
ATOM     31  C   UNL     1       4.636  -2.798   4.832  1.00  0.00     0.056 C 
BRANCH  29  32
ATOM     32  C   UNL     1       4.250  -2.569   0.438  1.00  0.00     0.171 C 
BRANCH  32  33
ATOM     33  N   UNL     1       4.162  -3.919  -0.096  1.00  0.00    -0.342 N 
ATOM     34  C   UNL     1       4.249  -4.192  -1.440  1.00  0.00     0.246 CG0
ATOM     35  O   UNL     1       4.382  -3.319  -2.294  1.00  0.00    -0.273 OA
ATOM     36  H   UNL     1       3.994  -4.714   0.513  1.00  0.00     0.164 HD
ATOM     37  G   UNL     1       4.192  -5.688  -1.791  1.00  0.00     0.000 G0
ENDBRANCH  32  33
BRANCH  32  38
ATOM     38  C   UNL     1       2.855  -1.939   0.694  1.00  0.00     0.017 C 
ATOM     39  C   UNL     1       1.887  -3.002   1.228  1.00  0.00     0.010 C 
BRANCH  38  40
ATOM     40  C   UNL     1       2.913  -0.704   1.621  1.00  0.00     0.002 C 
ATOM     41  C   UNL     1       1.754  -0.627   2.607  1.00  0.00     0.004 C 
ENDBRANCH  38  40
ENDBRANCH  32  38
ENDBRANCH  29  32
ENDBRANCH  23  26
ENDBRANCH   1  22
TORSDOF 4
ENDMDL
MODEL 3
REMARK VINA RESULT:    -4.456     11.655     15.900
REMARK INTER + INTRA:          -9.012
REMARK INTER:                  -7.619
REMARK INTRA:                  -1.392
REMARK UNBOUND:                -1.430
REMARK SMILES CC[C@H](C)[C@@H]1NC(=O)[C@H]2CSC(=N2)[C@@H]([C@@H](C)CC)NC(=O)c2csc(n2)CNC(=O)[C@H]2N=C1O[C@@H]2C
REMARK SMILES IDX 27 1 25 2 22 3 26 4 23 5 24 6 20 7 19 8 21 9 14 11 12 12
REMARK SMILES IDX 11 13 10 14 13 15 9 16 15 18 16 19 17 20 18 21 28 22 29 23
REMARK SMILES IDX 30 24 31 26 32 27 35 28 33 29 34 30 36 31 5 32 6 33 7 34
REMARK SMILES IDX 8 35 3 38 4 39 2 40 1 41
REMARK H PARENT 19 10 28 25 6 36
REMARK Flexibility Score:   91.900
ROOT
ATOM      1  C   UNL     1       3.297  -1.991  -5.867  1.00  0.00     0.183 C 
ENDROOT
BRANCH   1   2
ATOM      2  C   UNL     1       4.312  -2.017  -6.974  1.00  0.00     0.113 A 
ATOM      3  C   UNL     1       5.166  -2.298  -9.013  1.00  0.00     0.139 A 
ATOM      4  N   UNL     1       4.004  -2.214  -8.243  1.00  0.00    -0.234 NA
ATOM      5  C   UNL     1       6.336  -2.103  -8.307  1.00  0.00     0.101 A 
ATOM      6  S   UNL     1       5.987  -1.834  -6.648  1.00  0.00    -0.125 S 
BRANCH   3   7
ATOM      7  C   UNL     1       5.077  -2.614 -10.441  1.00  0.00     0.271 C 
ATOM      8  N   UNL     1       5.414  -1.534 -11.219  1.00  0.00    -0.341 N 
ATOM      9  O   UNL     1       4.713  -3.699 -10.877  1.00  0.00    -0.267 OA
ATOM     10  H   UNL     1       5.720  -0.704 -10.713  1.00  0.00     0.164 HD
BRANCH   8  11
ATOM     11  C   UNL     1       5.244  -1.482 -12.662  1.00  0.00     0.140 C 
BRANCH  11  12
ATOM     12  C   UNL     1       4.203  -0.403 -12.974  1.00  0.00     0.091 C 
ATOM     13  S   UNL     1       4.561   0.872 -14.116  1.00  0.00    -0.106 SA
ATOM     14  C   UNL     1       2.824   1.365 -14.128  1.00  0.00     0.113 C 
ATOM     15  N   UNL     1       3.064  -0.349 -12.358  1.00  0.00    -0.267 NA
ATOM     16  C   UNL     1       2.304   0.866 -12.789  1.00  0.00     0.205 CG0
ATOM     17  G   UNL     1       2.389   1.972 -11.726  1.00  0.00     0.000 G0
ENDBRANCH  11  12
BRANCH  11  18
ATOM     18  C   UNL     1       6.576  -1.403 -13.452  1.00  0.00     0.015 C 
ATOM     19  C   UNL     1       7.771  -1.474 -12.492  1.00  0.00     0.010 C 
BRANCH  18  20
ATOM     20  C   UNL     1       6.709  -2.430 -14.595  1.00  0.00     0.002 C 
ATOM     21  C   UNL     1       8.159  -2.726 -14.963  1.00  0.00     0.004 C 
ENDBRANCH  18  20
ENDBRANCH  11  18
ENDBRANCH   8  11
ENDBRANCH   3   7
ENDBRANCH   1   2
BRANCH   1  22
ATOM     22  N   UNL     1       2.622  -0.714  -5.929  1.00  0.00    -0.348 N 
ATOM     23  C   UNL     1       1.395  -0.508  -6.499  1.00  0.00     0.249 C 
ATOM     24  O   UNL     1       0.700  -1.414  -6.944  1.00  0.00    -0.272 OA
ATOM     25  H   UNL     1       3.121   0.115  -5.606  1.00  0.00     0.163 HD
BRANCH  23  26
ATOM     26  C   UNL     1       0.961   0.966  -6.463  1.00  0.00     0.238 C 
ATOM     27  N   UNL     1       1.798   1.747  -7.416  1.00  0.00    -0.236 NA
ATOM     28  C   UNL     1      -0.471   1.149  -6.934  1.00  0.00     0.206 C 
ATOM     29  C   UNL     1       0.958   2.068  -8.354  1.00  0.00     0.208 C 
ATOM     30  O   UNL     1      -0.337   1.681  -8.251  1.00  0.00    -0.474 OA
ATOM     31  C   UNL     1      -1.243   2.147  -6.082  1.00  0.00     0.056 C 
BRANCH  29  32
ATOM     32  C   UNL     1       1.285   2.820  -9.641  1.00  0.00     0.171 C 
BRANCH  32  33
ATOM     33  N   UNL     1       1.369   1.907 -10.770  1.00  0.00    -0.342 N 
ATOM     34  C   UNL     1       2.377   1.972 -11.702  1.00  0.00     0.246 CG0
ATOM     35  O   UNL     1       3.267   2.818 -11.669  1.00  0.00    -0.273 OA
ATOM     36  H   UNL     1       0.655   1.204 -10.930  1.00  0.00     0.164 HD
ATOM     37  G   UNL     1       2.317   0.879 -12.782  1.00  0.00     0.000 G0
ENDBRANCH  32  33
BRANCH  32  38
ATOM     38  C   UNL     1       0.262   3.963  -9.877  1.00  0.00     0.017 C 
ATOM     39  C   UNL     1       0.386   5.018  -8.770  1.00  0.00     0.010 C 
BRANCH  38  40
ATOM     40  C   UNL     1       0.379   4.597 -11.282  1.00  0.00     0.002 C 
ATOM     41  C   UNL     1      -0.065   6.053 -11.333  1.00  0.00     0.004 C 
ENDBRANCH  38  40
ENDBRANCH  32  38
ENDBRANCH  29  32
ENDBRANCH  23  26
ENDBRANCH   1  22
TORSDOF 4
ENDMDL
MODEL 4
REMARK VINA RESULT:    -4.451      2.914      8.259
REMARK INTER + INTRA:          -9.003
REMARK INTER:                  -7.277
REMARK INTRA:                  -1.725
REMARK UNBOUND:                -1.430
REMARK SMILES CC[C@H](C)[C@@H]1NC(=O)[C@H]2CSC(=N2)[C@@H]([C@@H](C)CC)NC(=O)c2csc(n2)CNC(=O)[C@H]2N=C1O[C@@H]2C
REMARK SMILES IDX 27 1 25 2 22 3 26 4 23 5 24 6 20 7 19 8 21 9 14 11 12 12
REMARK SMILES IDX 11 13 10 14 13 15 9 16 15 18 16 19 17 20 18 21 28 22 29 23
REMARK SMILES IDX 30 24 31 26 32 27 35 28 33 29 34 30 36 31 5 32 6 33 7 34
REMARK SMILES IDX 8 35 3 38 4 39 2 40 1 41
REMARK H PARENT 19 10 28 25 6 36
REMARK Flexibility Score:   91.900
ROOT
ATOM      1  C   UNL     1       9.369  -5.079   3.229  1.00  0.00     0.183 C 
ENDROOT
BRANCH   1   2
ATOM      2  C   UNL     1      10.051  -5.513   1.963  1.00  0.00     0.113 A 
ATOM      3  C   UNL     1      10.466  -6.690   0.116  1.00  0.00     0.139 A 
ATOM      4  N   UNL     1       9.554  -6.416   1.138  1.00  0.00    -0.234 NA
ATOM      5  C   UNL     1      11.620  -5.934   0.163  1.00  0.00     0.101 A 
ATOM      6  S   UNL     1      11.583  -4.880   1.518  1.00  0.00    -0.125 S 
BRANCH   3   7
ATOM      7  C   UNL     1      10.174  -7.736  -0.866  1.00  0.00     0.271 C 
ATOM      8  N   UNL     1       9.704  -7.207  -2.044  1.00  0.00    -0.341 N 
ATOM      9  O   UNL     1      10.303  -8.933  -0.644  1.00  0.00    -0.267 OA
ATOM     10  H   UNL     1       9.673  -6.190  -2.088  1.00  0.00     0.164 HD
BRANCH   8  11
ATOM     11  C   UNL     1       9.156  -7.999  -3.133  1.00  0.00     0.140 C 
BRANCH  11  12
ATOM     12  C   UNL     1       7.771  -7.439  -3.470  1.00  0.00     0.091 C 
ATOM     13  S   UNL     1       7.337  -7.079  -5.124  1.00  0.00    -0.106 SA
ATOM     14  C   UNL     1       5.609  -6.876  -4.641  1.00  0.00     0.113 C 
ATOM     15  N   UNL     1       6.907  -7.146  -2.550  1.00  0.00    -0.267 NA
ATOM     16  C   UNL     1       5.693  -6.521  -3.165  1.00  0.00     0.205 CG0
ATOM     17  G   UNL     1       5.704  -4.996  -2.972  1.00  0.00     0.000 G0
ENDBRANCH  11  12
BRANCH  11  18
ATOM     18  C   UNL     1      10.130  -8.190  -4.324  1.00  0.00     0.015 C 
ATOM     19  C   UNL     1      11.093  -7.000  -4.425  1.00  0.00     0.010 C 
BRANCH  18  20
ATOM     20  C   UNL     1      10.890  -9.532  -4.326  1.00  0.00     0.002 C 
ATOM     21  C   UNL     1      12.351  -9.390  -3.915  1.00  0.00     0.004 C 
ENDBRANCH  18  20
ENDBRANCH  11  18
ENDBRANCH   8  11
ENDBRANCH   3   7
ENDBRANCH   1   2
BRANCH   1  22
ATOM     22  N   UNL     1       8.134  -4.428   2.854  1.00  0.00    -0.348 N 
ATOM     23  C   UNL     1       8.000  -3.086   2.620  1.00  0.00     0.249 C 
ATOM     24  O   UNL     1       8.945  -2.305   2.624  1.00  0.00    -0.272 OA
ATOM     25  H   UNL     1       7.278  -4.982   2.842  1.00  0.00     0.163 HD
BRANCH  23  26
ATOM     26  C   UNL     1       6.554  -2.680   2.295  1.00  0.00     0.238 C 
ATOM     27  N   UNL     1       6.480  -2.218   0.881  1.00  0.00    -0.236 NA
ATOM     28  C   UNL     1       5.598  -3.857   2.389  1.00  0.00     0.206 C 
ATOM     29  C   UNL     1       5.793  -3.154   0.298  1.00  0.00     0.208 C 
ATOM     30  O   UNL     1       5.338  -4.201   1.029  1.00  0.00    -0.474 OA
ATOM     31  C   UNL     1       4.281  -3.488   3.058  1.00  0.00     0.056 C 
BRANCH  29  32
ATOM     32  C   UNL     1       5.466  -3.242  -1.190  1.00  0.00     0.171 C 
BRANCH  32  33
ATOM     33  N   UNL     1       5.431  -4.627  -1.633  1.00  0.00    -0.342 N 
ATOM     34  C   UNL     1       5.697  -4.997  -2.930  1.00  0.00     0.246 CG0
ATOM     35  O   UNL     1       5.958  -4.189  -3.818  1.00  0.00    -0.273 OA
ATOM     36  H   UNL     1       5.170  -5.374  -0.999  1.00  0.00     0.164 HD
ATOM     37  G   UNL     1       5.666  -6.514  -3.179  1.00  0.00     0.000 G0
ENDBRANCH  32  33
BRANCH  32  38
ATOM     38  C   UNL     1       4.148  -2.485  -1.502  1.00  0.00     0.017 C 
ATOM     39  C   UNL     1       3.517  -1.969  -0.203  1.00  0.00     0.010 C 
BRANCH  38  40
ATOM     40  C   UNL     1       4.336  -1.349  -2.534  1.00  0.00     0.002 C 
ATOM     41  C   UNL     1       5.780  -0.887  -2.676  1.00  0.00     0.004 C 
ENDBRANCH  38  40
ENDBRANCH  32  38
ENDBRANCH  29  32
ENDBRANCH  23  26
ENDBRANCH   1  22
TORSDOF 4
ENDMDL
MODEL 5
REMARK VINA RESULT:    -4.426      4.752      7.952
REMARK INTER + INTRA:          -8.961
REMARK INTER:                  -7.197
REMARK INTRA:                  -1.764
REMARK UNBOUND:                -1.430
REMARK SMILES CC[C@H](C)[C@@H]1NC(=O)[C@H]2CSC(=N2)[C@@H]([C@@H](C)CC)NC(=O)c2csc(n2)CNC(=O)[C@H]2N=C1O[C@@H]2C
REMARK SMILES IDX 27 1 25 2 22 3 26 4 23 5 24 6 20 7 19 8 21 9 14 11 12 12
REMARK SMILES IDX 11 13 10 14 13 15 9 16 15 18 16 19 17 20 18 21 28 22 29 23
REMARK SMILES IDX 30 24 31 26 32 27 35 28 33 29 34 30 36 31 5 32 6 33 7 34
REMARK SMILES IDX 8 35 3 38 4 39 2 40 1 41
REMARK H PARENT 19 10 28 25 6 36
REMARK Flexibility Score:   91.900
ROOT
ATOM      1  C   UNL     1       5.752  -7.500  -1.702  1.00  0.00     0.183 C 
ENDROOT
BRANCH   1   2
ATOM      2  C   UNL     1       6.202  -6.633  -0.562  1.00  0.00     0.113 A 
ATOM      3  C   UNL     1       6.377  -4.843   0.754  1.00  0.00     0.139 A 
ATOM      4  N   UNL     1       5.675  -5.454  -0.287  1.00  0.00    -0.234 NA
ATOM      5  C   UNL     1       7.395  -5.610   1.286  1.00  0.00     0.101 A 
ATOM      6  S   UNL     1       7.497  -7.111   0.459  1.00  0.00    -0.125 S 
BRANCH   3   7
ATOM      7  C   UNL     1       6.035  -3.480   1.168  1.00  0.00     0.271 C 
ATOM      8  N   UNL     1       4.911  -3.023   0.524  1.00  0.00    -0.341 N 
ATOM      9  O   UNL     1       6.696  -2.824   1.964  1.00  0.00    -0.267 OA
ATOM     10  H   UNL     1       4.455  -3.693  -0.094  1.00  0.00     0.164 HD
BRANCH   8  11
ATOM     11  C   UNL     1       4.436  -1.651   0.586  1.00  0.00     0.140 C 
BRANCH  11  12
ATOM     12  C   UNL     1       4.633  -1.023  -0.797  1.00  0.00     0.091 C 
ATOM     13  S   UNL     1       3.478   0.133  -1.420  1.00  0.00    -0.106 SA
ATOM     14  C   UNL     1       4.611   0.563  -2.758  1.00  0.00     0.113 C 
ATOM     15  N   UNL     1       5.606  -1.373  -1.578  1.00  0.00    -0.267 NA
ATOM     16  C   UNL     1       5.483  -0.676  -2.897  1.00  0.00     0.205 CG0
ATOM     17  G   UNL     1       4.917  -1.623  -3.967  1.00  0.00     0.000 G0
ENDBRANCH  11  12
BRANCH  11  18
ATOM     18  C   UNL     1       3.028  -1.499   1.217  1.00  0.00     0.015 C 
ATOM     19  C   UNL     1       2.198  -2.769   0.985  1.00  0.00     0.010 C 
BRANCH  18  20
ATOM     20  C   UNL     1       3.029  -1.090   2.704  1.00  0.00     0.002 C 
ATOM     21  C   UNL     1       1.626  -0.973   3.290  1.00  0.00     0.004 C 
ENDBRANCH  18  20
ENDBRANCH  11  18
ENDBRANCH   8  11
ENDBRANCH   3   7
ENDBRANCH   1   2
BRANCH   1  22
ATOM     22  N   UNL     1       6.273  -6.919  -2.919  1.00  0.00    -0.348 N 
ATOM     23  C   UNL     1       5.993  -7.369  -4.181  1.00  0.00     0.249 C 
ATOM     24  O   UNL     1       5.194  -8.270  -4.411  1.00  0.00    -0.272 OA
ATOM     25  H   UNL     1       6.966  -6.175  -2.843  1.00  0.00     0.163 HD
BRANCH  23  26
ATOM     26  C   UNL     1       6.738  -6.586  -5.272  1.00  0.00     0.238 C 
ATOM     27  N   UNL     1       5.795  -5.636  -5.925  1.00  0.00    -0.236 NA
ATOM     28  C   UNL     1       7.849  -5.724  -4.696  1.00  0.00     0.206 C 
ATOM     29  C   UNL     1       6.224  -4.473  -5.533  1.00  0.00     0.208 C 
ATOM     30  O   UNL     1       7.316  -4.402  -4.732  1.00  0.00    -0.474 OA
ATOM     31  C   UNL     1       9.115  -5.762  -5.541  1.00  0.00     0.056 C 
BRANCH  29  32
ATOM     32  C   UNL     1       5.586  -3.122  -5.842  1.00  0.00     0.171 C 
BRANCH  32  33
ATOM     33  N   UNL     1       5.892  -2.153  -4.801  1.00  0.00    -0.342 N 
ATOM     34  C   UNL     1       4.930  -1.630  -3.970  1.00  0.00     0.246 CG0
ATOM     35  O   UNL     1       3.740  -1.919  -4.058  1.00  0.00    -0.273 OA
ATOM     36  H   UNL     1       6.834  -1.798  -4.676  1.00  0.00     0.164 HD
ATOM     37  G   UNL     1       5.469  -0.667  -2.900  1.00  0.00     0.000 G0
ENDBRANCH  32  33
BRANCH  32  38
ATOM     38  C   UNL     1       6.008  -2.632  -7.253  1.00  0.00     0.017 C 
ATOM     39  C   UNL     1       4.802  -2.026  -7.982  1.00  0.00     0.010 C 
BRANCH  38  40
ATOM     40  C   UNL     1       7.204  -1.653  -7.218  1.00  0.00     0.002 C 
ATOM     41  C   UNL     1       6.972  -0.380  -8.021  1.00  0.00     0.004 C 
ENDBRANCH  38  40
ENDBRANCH  32  38
ENDBRANCH  29  32
ENDBRANCH  23  26
ENDBRANCH   1  22
TORSDOF 4
ENDMDL
MODEL 6
REMARK VINA RESULT:    -4.371      2.524      5.684
REMARK INTER + INTRA:          -8.867
REMARK INTER:                  -7.992
REMARK INTRA:                  -0.875
REMARK UNBOUND:                -1.430
REMARK SMILES CC[C@H](C)[C@@H]1NC(=O)[C@H]2CSC(=N2)[C@@H]([C@@H](C)CC)NC(=O)c2csc(n2)CNC(=O)[C@H]2N=C1O[C@@H]2C
REMARK SMILES IDX 27 1 25 2 22 3 26 4 23 5 24 6 20 7 19 8 21 9 14 11 12 12
REMARK SMILES IDX 11 13 10 14 13 15 9 16 15 18 16 19 17 20 18 21 28 22 29 23
REMARK SMILES IDX 30 24 31 26 32 27 35 28 33 29 34 30 36 31 5 32 6 33 7 34
REMARK SMILES IDX 8 35 3 38 4 39 2 40 1 41
REMARK H PARENT 19 10 28 25 6 36
REMARK Flexibility Score:   91.900
ROOT
ATOM      1  C   UNL     1       8.846  -5.781   3.048  1.00  0.00     0.183 C 
ENDROOT
BRANCH   1   2
ATOM      2  C   UNL     1       7.787  -5.113   2.217  1.00  0.00     0.113 A 
ATOM      3  C   UNL     1       6.749  -4.307   0.418  1.00  0.00     0.139 A 
ATOM      4  N   UNL     1       7.794  -5.099   0.897  1.00  0.00    -0.234 NA
ATOM      5  C   UNL     1       5.932  -3.782   1.400  1.00  0.00     0.101 A 
ATOM      6  S   UNL     1       6.489  -4.262   2.951  1.00  0.00    -0.125 S 
BRANCH   3   7
ATOM      7  C   UNL     1       6.615  -4.062  -1.020  1.00  0.00     0.271 C 
ATOM      8  N   UNL     1       6.306  -5.212  -1.703  1.00  0.00    -0.341 N 
ATOM      9  O   UNL     1       6.793  -2.969  -1.543  1.00  0.00    -0.267 OA
ATOM     10  H   UNL     1       6.165  -6.042  -1.128  1.00  0.00     0.164 HD
BRANCH   8  11
ATOM     11  C   UNL     1       6.293  -5.324  -3.152  1.00  0.00     0.140 C 
BRANCH  11  12
ATOM     12  C   UNL     1       7.362  -6.344  -3.555  1.00  0.00     0.091 C 
ATOM     13  S   UNL     1       6.920  -7.994  -3.922  1.00  0.00    -0.106 SA
ATOM     14  C   UNL     1       8.569  -8.300  -4.592  1.00  0.00     0.113 C 
ATOM     15  N   UNL     1       8.624  -6.048  -3.567  1.00  0.00    -0.267 NA
ATOM     16  C   UNL     1       9.434  -7.263  -3.893  1.00  0.00     0.205 CG0
ATOM     17  G   UNL     1      10.072  -7.853  -2.624  1.00  0.00     0.000 G0
ENDBRANCH  11  12
BRANCH  11  18
ATOM     18  C   UNL     1       4.880  -5.532  -3.756  1.00  0.00     0.015 C 
ATOM     19  C   UNL     1       3.836  -5.665  -2.640  1.00  0.00     0.010 C 
BRANCH  18  20
ATOM     20  C   UNL     1       4.461  -4.473  -4.796  1.00  0.00     0.002 C 
ATOM     21  C   UNL     1       5.650  -3.765  -5.437  1.00  0.00     0.004 C 
ENDBRANCH  18  20
ENDBRANCH  11  18
ENDBRANCH   8  11
ENDBRANCH   3   7
ENDBRANCH   1   2
BRANCH   1  22
ATOM     22  N   UNL     1      10.054  -5.825   2.255  1.00  0.00    -0.348 N 
ATOM     23  C   UNL     1      11.104  -6.673   2.480  1.00  0.00     0.249 C 
ATOM     24  O   UNL     1      11.088  -7.549   3.337  1.00  0.00    -0.272 OA
ATOM     25  H   UNL     1      10.182  -5.123   1.527  1.00  0.00     0.163 HD
BRANCH  23  26
ATOM     26  C   UNL     1      12.271  -6.448   1.507  1.00  0.00     0.238 C 
ATOM     27  N   UNL     1      12.585  -7.727   0.812  1.00  0.00    -0.236 NA
ATOM     28  C   UNL     1      11.912  -5.464   0.407  1.00  0.00     0.206 C 
ATOM     29  C   UNL     1      12.210  -7.501  -0.411  1.00  0.00     0.208 C 
ATOM     30  O   UNL     1      11.698  -6.289  -0.738  1.00  0.00    -0.474 OA
ATOM     31  C   UNL     1      13.042  -4.491   0.101  1.00  0.00     0.056 C 
BRANCH  29  32
ATOM     32  C   UNL     1      12.231  -8.501  -1.564  1.00  0.00     0.171 C 
BRANCH  32  33
ATOM     33  N   UNL     1      11.445  -8.016  -2.687  1.00  0.00    -0.342 N 
ATOM     34  C   UNL     1      10.082  -7.851  -2.622  1.00  0.00     0.246 CG0
ATOM     35  O   UNL     1       9.421  -8.124  -1.624  1.00  0.00    -0.273 OA
ATOM     36  H   UNL     1      11.879  -7.815  -3.582  1.00  0.00     0.164 HD
ATOM     37  G   UNL     1       9.449  -7.272  -3.898  1.00  0.00     0.000 G0
ENDBRANCH  32  33
BRANCH  32  38
ATOM     38  C   UNL     1      13.692  -8.840  -1.961  1.00  0.00     0.017 C 
ATOM     39  C   UNL     1      14.037 -10.271  -1.531  1.00  0.00     0.010 C 
BRANCH  38  40
ATOM     40  C   UNL     1      13.975  -8.613  -3.464  1.00  0.00     0.002 C 
ATOM     41  C   UNL     1      13.774  -9.859  -4.317  1.00  0.00     0.004 C 
ENDBRANCH  38  40
ENDBRANCH  32  38
ENDBRANCH  29  32
ENDBRANCH  23  26
ENDBRANCH   1  22
TORSDOF 4
ENDMDL
MODEL 7
REMARK VINA RESULT:    -4.160      3.809      7.223
REMARK INTER + INTRA:          -8.509
REMARK INTER:                  -6.766
REMARK INTRA:                  -1.742
REMARK UNBOUND:                -1.430
REMARK SMILES CC[C@H](C)[C@@H]1NC(=O)[C@H]2CSC(=N2)[C@@H]([C@@H](C)CC)NC(=O)c2csc(n2)CNC(=O)[C@H]2N=C1O[C@@H]2C
REMARK SMILES IDX 27 1 25 2 22 3 26 4 23 5 24 6 20 7 19 8 21 9 14 11 12 12
REMARK SMILES IDX 11 13 10 14 13 15 9 16 15 18 16 19 17 20 18 21 28 22 29 23
REMARK SMILES IDX 30 24 31 26 32 27 35 28 33 29 34 30 36 31 5 32 6 33 7 34
REMARK SMILES IDX 8 35 3 38 4 39 2 40 1 41
REMARK H PARENT 19 10 28 25 6 36
REMARK Flexibility Score:   91.900
ROOT
ATOM      1  C   UNL     1       9.510  -5.716   3.174  1.00  0.00     0.183 C 
ENDROOT
BRANCH   1   2
ATOM      2  C   UNL     1       9.454  -4.222   3.035  1.00  0.00     0.113 A 
ATOM      3  C   UNL     1       8.591  -2.176   2.843  1.00  0.00     0.139 A 
ATOM      4  N   UNL     1       8.340  -3.519   3.132  1.00  0.00    -0.234 NA
ATOM      5  C   UNL     1       9.916  -1.883   2.589  1.00  0.00     0.101 A 
ATOM      6  S   UNL     1      10.866  -3.310   2.686  1.00  0.00    -0.125 S 
BRANCH   3   7
ATOM      7  C   UNL     1       7.483  -1.219   2.790  1.00  0.00     0.271 C 
ATOM      8  N   UNL     1       6.266  -1.853   2.792  1.00  0.00    -0.341 N 
ATOM      9  O   UNL     1       7.635  -0.006   2.719  1.00  0.00    -0.267 OA
ATOM     10  H   UNL     1       6.298  -2.868   2.879  1.00  0.00     0.164 HD
BRANCH   8  11
ATOM     11  C   UNL     1       4.996  -1.185   2.560  1.00  0.00     0.140 C 
BRANCH  11  12
ATOM     12  C   UNL     1       4.610  -1.404   1.094  1.00  0.00     0.091 C 
ATOM     13  S   UNL     1       2.977  -1.098   0.551  1.00  0.00    -0.106 SA
ATOM     14  C   UNL     1       3.511  -1.232  -1.169  1.00  0.00     0.113 C 
ATOM     15  N   UNL     1       5.445  -1.888   0.230  1.00  0.00    -0.267 NA
ATOM     16  C   UNL     1       4.762  -2.092  -1.087  1.00  0.00     0.205 CG0
ATOM     17  G   UNL     1       4.417  -3.575  -1.302  1.00  0.00     0.000 G0
ENDBRANCH  11  12
BRANCH  11  18
ATOM     18  C   UNL     1       3.909  -1.514   3.615  1.00  0.00     0.015 C 
ATOM     19  C   UNL     1       4.260  -2.808   4.360  1.00  0.00     0.010 C 
BRANCH  18  20
ATOM     20  C   UNL     1       3.595  -0.366   4.596  1.00  0.00     0.002 C 
ATOM     21  C   UNL     1       4.621   0.760   4.543  1.00  0.00     0.004 C 
ENDBRANCH  18  20
ENDBRANCH  11  18
ENDBRANCH   8  11
ENDBRANCH   3   7
ENDBRANCH   1   2
BRANCH   1  22
ATOM     22  N   UNL     1       9.110  -6.284   1.906  1.00  0.00    -0.348 N 
ATOM     23  C   UNL     1       8.146  -7.242   1.751  1.00  0.00     0.249 C 
ATOM     24  O   UNL     1       7.457  -7.659   2.675  1.00  0.00    -0.272 OA
ATOM     25  H   UNL     1       9.634  -6.023   1.072  1.00  0.00     0.163 HD
BRANCH  23  26
ATOM     26  C   UNL     1       7.981  -7.690   0.290  1.00  0.00     0.238 C 
ATOM     27  N   UNL     1       6.569  -7.474  -0.133  1.00  0.00    -0.236 NA
ATOM     28  C   UNL     1       8.822  -6.854  -0.659  1.00  0.00     0.206 C 
ATOM     29  C   UNL     1       6.661  -6.503  -0.991  1.00  0.00     0.208 C 
ATOM     30  O   UNL     1       7.879  -5.985  -1.284  1.00  0.00    -0.474 OA
ATOM     31  C   UNL     1       9.497  -7.693  -1.735  1.00  0.00     0.056 C 
BRANCH  29  32
ATOM     32  C   UNL     1       5.501  -5.812  -1.703  1.00  0.00     0.171 C 
BRANCH  32  33
ATOM     33  N   UNL     1       5.574  -4.369  -1.535  1.00  0.00    -0.342 N 
ATOM     34  C   UNL     1       4.464  -3.592  -1.305  1.00  0.00     0.246 CG0
ATOM     35  O   UNL     1       3.326  -4.051  -1.249  1.00  0.00    -0.273 OA
ATOM     36  H   UNL     1       6.456  -3.876  -1.620  1.00  0.00     0.164 HD
ATOM     37  G   UNL     1       4.763  -2.099  -1.098  1.00  0.00     0.000 G0
ENDBRANCH  32  33
BRANCH  32  38
ATOM     38  C   UNL     1       5.449  -6.235  -3.194  1.00  0.00     0.017 C 
ATOM     39  C   UNL     1       3.998  -6.237  -3.692  1.00  0.00     0.010 C 
BRANCH  38  40
ATOM     40  C   UNL     1       6.360  -5.372  -4.098  1.00  0.00     0.002 C 
ATOM     41  C   UNL     1       5.907  -5.324  -5.551  1.00  0.00     0.004 C 
ENDBRANCH  38  40
ENDBRANCH  32  38
ENDBRANCH  29  32
ENDBRANCH  23  26
ENDBRANCH   1  22
TORSDOF 4
ENDMDL
MODEL 8
REMARK VINA RESULT:    -4.071      3.260      7.402
REMARK INTER + INTRA:          -8.356
REMARK INTER:                  -6.795
REMARK INTRA:                  -1.562
REMARK UNBOUND:                -1.430
REMARK SMILES CC[C@H](C)[C@@H]1NC(=O)[C@H]2CSC(=N2)[C@@H]([C@@H](C)CC)NC(=O)c2csc(n2)CNC(=O)[C@H]2N=C1O[C@@H]2C
REMARK SMILES IDX 27 1 25 2 22 3 26 4 23 5 24 6 20 7 19 8 21 9 14 11 12 12
REMARK SMILES IDX 11 13 10 14 13 15 9 16 15 18 16 19 17 20 18 21 28 22 29 23
REMARK SMILES IDX 30 24 31 26 32 27 35 28 33 29 34 30 36 31 5 32 6 33 7 34
REMARK SMILES IDX 8 35 3 38 4 39 2 40 1 41
REMARK H PARENT 19 10 28 25 6 36
REMARK Flexibility Score:   91.900
ROOT
ATOM      1  C   UNL     1       6.367  -2.634   0.658  1.00  0.00     0.183 C 
ENDROOT
BRANCH   1   2
ATOM      2  C   UNL     1       6.813  -3.972   1.173  1.00  0.00     0.113 A 
ATOM      3  C   UNL     1       7.587  -6.062   1.152  1.00  0.00     0.139 A 
ATOM      4  N   UNL     1       7.396  -4.888   0.421  1.00  0.00    -0.234 NA
ATOM      5  C   UNL     1       7.192  -5.984   2.473  1.00  0.00     0.101 A 
ATOM      6  S   UNL     1       6.547  -4.429   2.806  1.00  0.00    -0.125 S 
BRANCH   3   7
ATOM      7  C   UNL     1       8.129  -7.254   0.496  1.00  0.00     0.271 C 
ATOM      8  N   UNL     1       9.254  -6.962  -0.236  1.00  0.00    -0.341 N 
ATOM      9  O   UNL     1       7.616  -8.363   0.568  1.00  0.00    -0.267 OA
ATOM     10  H   UNL     1       9.576  -5.996  -0.181  1.00  0.00     0.164 HD
BRANCH   8  11
ATOM     11  C   UNL     1       9.904  -7.894  -1.142  1.00  0.00     0.140 C 
BRANCH  11  12
ATOM     12  C   UNL     1      10.072  -7.194  -2.494  1.00  0.00     0.091 C 
ATOM     13  S   UNL     1      10.538  -5.511  -2.571  1.00  0.00    -0.106 SA
ATOM     14  C   UNL     1      10.836  -5.661  -4.345  1.00  0.00     0.113 C 
ATOM     15  N   UNL     1       9.808  -7.791  -3.614  1.00  0.00    -0.267 NA
ATOM     16  C   UNL     1       9.959  -6.834  -4.755  1.00  0.00     0.205 CG0
ATOM     17  G   UNL     1       8.587  -6.342  -5.243  1.00  0.00     0.000 G0
ENDBRANCH  11  12
BRANCH  11  18
ATOM     18  C   UNL     1      11.170  -8.567  -0.553  1.00  0.00     0.015 C 
ATOM     19  C   UNL     1      11.237 -10.041  -0.973  1.00  0.00     0.010 C 
BRANCH  18  20
ATOM     20  C   UNL     1      12.492  -7.833  -0.858  1.00  0.00     0.002 C 
ATOM     21  C   UNL     1      12.800  -6.723   0.140  1.00  0.00     0.004 C 
ENDBRANCH  18  20
ENDBRANCH  11  18
ENDBRANCH   8  11
ENDBRANCH   3   7
ENDBRANCH   1   2
BRANCH   1  22
ATOM     22  N   UNL     1       6.626  -2.609  -0.764  1.00  0.00    -0.348 N 
ATOM     23  C   UNL     1       5.763  -2.119  -1.705  1.00  0.00     0.249 C 
ATOM     24  O   UNL     1       4.704  -1.569  -1.425  1.00  0.00    -0.272 OA
ATOM     25  H   UNL     1       7.471  -3.062  -1.110  1.00  0.00     0.163 HD
BRANCH  23  26
ATOM     26  C   UNL     1       6.291  -2.279  -3.139  1.00  0.00     0.238 C 
ATOM     27  N   UNL     1       6.955  -3.606  -3.272  1.00  0.00    -0.236 NA
ATOM     28  C   UNL     1       5.169  -2.282  -4.162  1.00  0.00     0.206 C 
ATOM     29  C   UNL     1       6.153  -4.263  -4.055  1.00  0.00     0.208 C 
ATOM     30  O   UNL     1       5.039  -3.654  -4.530  1.00  0.00    -0.474 OA
ATOM     31  C   UNL     1       5.511  -1.474  -5.407  1.00  0.00     0.056 C 
BRANCH  29  32
ATOM     32  C   UNL     1       6.298  -5.721  -4.481  1.00  0.00     0.171 C 
BRANCH  32  33
ATOM     33  N   UNL     1       7.650  -6.200  -4.241  1.00  0.00    -0.342 N 
ATOM     34  C   UNL     1       8.575  -6.346  -5.247  1.00  0.00     0.246 CG0
ATOM     35  O   UNL     1       8.325  -6.109  -6.426  1.00  0.00    -0.273 OA
ATOM     36  H   UNL     1       7.949  -6.482  -3.313  1.00  0.00     0.164 HD
ATOM     37  G   UNL     1       9.963  -6.809  -4.775  1.00  0.00     0.000 G0
ENDBRANCH  32  33
BRANCH  32  38
ATOM     38  C   UNL     1       5.224  -6.599  -3.787  1.00  0.00     0.017 C 
ATOM     39  C   UNL     1       5.393  -8.065  -4.203  1.00  0.00     0.010 C 
BRANCH  38  40
ATOM     40  C   UNL     1       5.217  -6.440  -2.249  1.00  0.00     0.002 C 
ATOM     41  C   UNL     1       3.982  -5.727  -1.715  1.00  0.00     0.004 C 
ENDBRANCH  38  40
ENDBRANCH  32  38
ENDBRANCH  29  32
ENDBRANCH  23  26
ENDBRANCH   1  22
TORSDOF 4
ENDMDL
MODEL 9
REMARK VINA RESULT:    -4.017      3.067      6.156
REMARK INTER + INTRA:          -8.265
REMARK INTER:                  -7.481
REMARK INTRA:                  -0.784
REMARK UNBOUND:                -1.430
REMARK SMILES CC[C@H](C)[C@@H]1NC(=O)[C@H]2CSC(=N2)[C@@H]([C@@H](C)CC)NC(=O)c2csc(n2)CNC(=O)[C@H]2N=C1O[C@@H]2C
REMARK SMILES IDX 27 1 25 2 22 3 26 4 23 5 24 6 20 7 19 8 21 9 14 11 12 12
REMARK SMILES IDX 11 13 10 14 13 15 9 16 15 18 16 19 17 20 18 21 28 22 29 23
REMARK SMILES IDX 30 24 31 26 32 27 35 28 33 29 34 30 36 31 5 32 6 33 7 34
REMARK SMILES IDX 8 35 3 38 4 39 2 40 1 41
REMARK H PARENT 19 10 28 25 6 36
REMARK Flexibility Score:   91.900
ROOT
ATOM      1  C   UNL     1       4.922  -3.315   3.012  1.00  0.00     0.183 C 
ENDROOT
BRANCH   1   2
ATOM      2  C   UNL     1       4.674  -3.608   1.560  1.00  0.00     0.113 A 
ATOM      3  C   UNL     1       5.039  -4.354  -0.508  1.00  0.00     0.139 A 
ATOM      4  N   UNL     1       5.466  -4.363   0.821  1.00  0.00    -0.234 NA
ATOM      5  C   UNL     1       3.885  -3.629  -0.733  1.00  0.00     0.101 A 
ATOM      6  S   UNL     1       3.335  -2.925   0.733  1.00  0.00    -0.125 S 
BRANCH   3   7
ATOM      7  C   UNL     1       5.823  -5.043  -1.535  1.00  0.00     0.271 C 
ATOM      8  N   UNL     1       6.303  -4.168  -2.478  1.00  0.00    -0.341 N 
ATOM      9  O   UNL     1       5.994  -6.255  -1.561  1.00  0.00    -0.267 OA
ATOM     10  H   UNL     1       6.098  -3.183  -2.310  1.00  0.00     0.164 HD
BRANCH   8  11
ATOM     11  C   UNL     1       6.954  -4.573  -3.713  1.00  0.00     0.140 C 
BRANCH  11  12
ATOM     12  C   UNL     1       8.047  -5.584  -3.358  1.00  0.00     0.091 C 
ATOM     13  S   UNL     1       7.930  -7.244  -3.895  1.00  0.00    -0.106 SA
ATOM     14  C   UNL     1       9.642  -7.537  -3.405  1.00  0.00     0.113 C 
ATOM     15  N   UNL     1       9.049  -5.274  -2.596  1.00  0.00    -0.267 NA
ATOM     16  C   UNL     1       9.892  -6.483  -2.337  1.00  0.00     0.205 CG0
ATOM     17  G   UNL     1       9.617  -7.053  -0.936  1.00  0.00     0.000 G0
ENDBRANCH  11  12
BRANCH  11  18
ATOM     18  C   UNL     1       5.970  -4.988  -4.837  1.00  0.00     0.015 C 
ATOM     19  C   UNL     1       4.567  -4.437  -4.550  1.00  0.00     0.010 C 
BRANCH  18  20
ATOM     20  C   UNL     1       6.434  -4.632  -6.264  1.00  0.00     0.002 C 
ATOM     21  C   UNL     1       6.173  -3.175  -6.629  1.00  0.00     0.004 C 
ENDBRANCH  18  20
ENDBRANCH  11  18
ENDBRANCH   8  11
ENDBRANCH   3   7
ENDBRANCH   1   2
BRANCH   1  22
ATOM     22  N   UNL     1       6.289  -3.687   3.302  1.00  0.00    -0.348 N 
ATOM     23  C   UNL     1       7.334  -2.809   3.387  1.00  0.00     0.249 C 
ATOM     24  O   UNL     1       7.199  -1.593   3.309  1.00  0.00    -0.272 OA
ATOM     25  H   UNL     1       6.518  -4.679   3.364  1.00  0.00     0.163 HD
BRANCH  23  26
ATOM     26  C   UNL     1       8.677  -3.506   3.652  1.00  0.00     0.238 C 
ATOM     27  N   UNL     1       8.547  -4.957   3.342  1.00  0.00    -0.236 NA
ATOM     28  C   UNL     1       9.775  -2.992   2.736  1.00  0.00     0.206 C 
ATOM     29  C   UNL     1       9.280  -5.102   2.279  1.00  0.00     0.208 C 
ATOM     30  O   UNL     1       9.933  -4.029   1.769  1.00  0.00    -0.474 OA
ATOM     31  C   UNL     1      11.099  -2.799   3.463  1.00  0.00     0.056 C 
BRANCH  29  32
ATOM     32  C   UNL     1       9.458  -6.384   1.471  1.00  0.00     0.171 C 
BRANCH  32  33
ATOM     33  N   UNL     1       9.741  -6.085   0.077  1.00  0.00    -0.342 N 
ATOM     34  C   UNL     1       9.615  -7.020  -0.923  1.00  0.00     0.246 CG0
ATOM     35  O   UNL     1       9.280  -8.183  -0.713  1.00  0.00    -0.273 OA
ATOM     36  H   UNL     1      10.082  -5.171  -0.205  1.00  0.00     0.164 HD
ATOM     37  G   UNL     1       9.904  -6.486  -2.335  1.00  0.00     0.000 G0
ENDBRANCH  32  33
BRANCH  32  38
ATOM     38  C   UNL     1      10.543  -7.286   2.118  1.00  0.00     0.017 C 
ATOM     39  C   UNL     1      11.667  -6.421   2.703  1.00  0.00     0.010 C 
BRANCH  38  40
ATOM     40  C   UNL     1       9.968  -8.261   3.171  1.00  0.00     0.002 C 
ATOM     41  C   UNL     1       8.584  -8.790   2.819  1.00  0.00     0.004 C 
ENDBRANCH  38  40
ENDBRANCH  32  38
ENDBRANCH  29  32
ENDBRANCH  23  26
ENDBRANCH   1  22
TORSDOF 4
ENDMDL
MODEL 10
REMARK VINA RESULT:    -3.832      4.891     10.039
REMARK INTER + INTRA:          -7.950
REMARK INTER:                  -6.336
REMARK INTRA:                  -1.615
REMARK UNBOUND:                -1.430
REMARK SMILES CC[C@H](C)[C@@H]1NC(=O)[C@H]2CSC(=N2)[C@@H]([C@@H](C)CC)NC(=O)c2csc(n2)CNC(=O)[C@H]2N=C1O[C@@H]2C
REMARK SMILES IDX 27 1 25 2 22 3 26 4 23 5 24 6 20 7 19 8 21 9 14 11 12 12
REMARK SMILES IDX 11 13 10 14 13 15 9 16 15 18 16 19 17 20 18 21 28 22 29 23
REMARK SMILES IDX 30 24 31 26 32 27 35 28 33 29 34 30 36 31 5 32 6 33 7 34
REMARK SMILES IDX 8 35 3 38 4 39 2 40 1 41
REMARK H PARENT 19 10 28 25 6 36
REMARK Flexibility Score:   91.900
ROOT
ATOM      1  C   UNL     1       5.659  -3.920   2.781  1.00  0.00     0.183 C 
ENDROOT
BRANCH   1   2
ATOM      2  C   UNL     1       6.296  -4.492   1.548  1.00  0.00     0.113 A 
ATOM      3  C   UNL     1       6.473  -5.353  -0.500  1.00  0.00     0.139 A 
ATOM      4  N   UNL     1       5.642  -4.713   0.422  1.00  0.00    -0.234 NA
ATOM      5  C   UNL     1       7.768  -5.551  -0.063  1.00  0.00     0.101 A 
ATOM      6  S   UNL     1       7.950  -4.952   1.535  1.00  0.00    -0.125 S 
BRANCH   3   7
ATOM      7  C   UNL     1       5.935  -5.790  -1.791  1.00  0.00     0.271 C 
ATOM      8  N   UNL     1       6.648  -5.264  -2.840  1.00  0.00    -0.341 N 
ATOM      9  O   UNL     1       4.950  -6.507  -1.910  1.00  0.00    -0.267 OA
ATOM     10  H   UNL     1       7.459  -4.702  -2.583  1.00  0.00     0.164 HD
BRANCH   8  11
ATOM     11  C   UNL     1       6.246  -5.363  -4.233  1.00  0.00     0.140 C 
BRANCH  11  12
ATOM     12  C   UNL     1       5.557  -4.051  -4.618  1.00  0.00     0.091 C 
ATOM     13  S   UNL     1       6.222  -3.036  -5.876  1.00  0.00    -0.106 SA
ATOM     14  C   UNL     1       4.709  -2.050  -5.897  1.00  0.00     0.113 C 
ATOM     15  N   UNL     1       4.513  -3.613  -3.987  1.00  0.00    -0.267 NA
ATOM     16  C   UNL     1       4.126  -2.264  -4.509  1.00  0.00     0.205 CG0
ATOM     17  G   UNL     1       4.583  -1.153  -3.550  1.00  0.00     0.000 G0
ENDBRANCH  11  12
BRANCH  11  18
ATOM     18  C   UNL     1       7.370  -5.855  -5.180  1.00  0.00     0.015 C 
ATOM     19  C   UNL     1       8.703  -5.948  -4.425  1.00  0.00     0.010 C 
BRANCH  18  20
ATOM     20  C   UNL     1       7.055  -7.166  -5.929  1.00  0.00     0.002 C 
ATOM     21  C   UNL     1       7.527  -8.408  -5.181  1.00  0.00     0.004 C 
ENDBRANCH  18  20
ENDBRANCH  11  18
ENDBRANCH   8  11
ENDBRANCH   3   7
ENDBRANCH   1   2
BRANCH   1  22
ATOM     22  N   UNL     1       4.728  -2.899   2.353  1.00  0.00    -0.348 N 
ATOM     23  C   UNL     1       5.067  -1.605   2.069  1.00  0.00     0.249 C 
ATOM     24  O   UNL     1       6.224  -1.197   2.067  1.00  0.00    -0.272 OA
ATOM     25  H   UNL     1       3.734  -3.125   2.341  1.00  0.00     0.163 HD
BRANCH  23  26
ATOM     26  C   UNL     1       3.854  -0.740   1.694  1.00  0.00     0.238 C 
ATOM     27  N   UNL     1       4.258   0.249   0.656  1.00  0.00    -0.236 NA
ATOM     28  C   UNL     1       2.743  -1.561   1.064  1.00  0.00     0.206 C 
ATOM     29  C   UNL     1       3.630  -0.162  -0.406  1.00  0.00     0.208 C 
ATOM     30  O   UNL     1       2.832  -1.254  -0.327  1.00  0.00    -0.474 OA
ATOM     31  C   UNL     1       1.362  -1.158   1.564  1.00  0.00     0.056 C 
BRANCH  29  32
ATOM     32  C   UNL     1       3.731   0.439  -1.805  1.00  0.00     0.171 C 
BRANCH  32  33
ATOM     33  N   UNL     1       3.527  -0.580  -2.823  1.00  0.00    -0.342 N 
ATOM     34  C   UNL     1       4.565  -1.151  -3.519  1.00  0.00     0.246 CG0
ATOM     35  O   UNL     1       5.739  -0.829  -3.355  1.00  0.00    -0.273 OA
ATOM     36  H   UNL     1       2.593  -0.881  -3.084  1.00  0.00     0.164 HD
ATOM     37  G   UNL     1       4.141  -2.249  -4.508  1.00  0.00     0.000 G0
ENDBRANCH  32  33
BRANCH  32  38
ATOM     38  C   UNL     1       2.754   1.634  -1.955  1.00  0.00     0.017 C 
ATOM     39  C   UNL     1       3.320   2.656  -2.949  1.00  0.00     0.010 C 
BRANCH  38  40
ATOM     40  C   UNL     1       1.322   1.197  -2.342  1.00  0.00     0.002 C 
ATOM     41  C   UNL     1       0.511   2.296  -3.016  1.00  0.00     0.004 C 
ENDBRANCH  38  40
ENDBRANCH  32  38
ENDBRANCH  29  32
ENDBRANCH  23  26
ENDBRANCH   1  22
TORSDOF 4
ENDMDL
