REMARK SMILES CC[C@H](C)[C@@H]1NC(=O)[C@H]2CSC(=N2)[C@@H]([C@@H](C)CC)NC(=O)c2csc(n2)CNC(=O)[C@H]2N=C1O[C@@H]2C
REMARK SMILES IDX 27 1 25 2 22 3 26 4 23 5 24 6 20 7 19 8 21 9 14 11 12 12
REMARK SMILES IDX 11 13 10 14 13 15 9 16 15 18 16 19 17 20 18 21 28 22 29 23
REMARK SMILES IDX 30 24 31 26 32 27 35 28 33 29 34 30 36 31 5 32 6 33 7 34
REMARK SMILES IDX 8 35 3 38 4 39 2 40 1 41
REMARK H PARENT 19 10 28 25 6 36
REMARK Flexibility Score:   91.900
ROOT
ATOM      1  C   UNL     1      -0.857   3.757   1.922  1.00  0.00     0.183 C 
ENDROOT
BRANCH   1   2
ATOM      2  C   UNL     1       0.384   3.004   2.307  1.00  0.00     0.113 A 
ATOM      3  C   UNL     1       2.023   1.497   2.210  1.00  0.00     0.139 A 
ATOM      4  N   UNL     1       0.962   2.103   1.534  1.00  0.00    -0.234 NA
ATOM      5  C   UNL     1       2.260   2.003   3.473  1.00  0.00     0.101 A 
ATOM      6  S   UNL     1       1.126   3.239   3.837  1.00  0.00    -0.125 S 
BRANCH   3   7
ATOM      7  C   UNL     1       2.754   0.392   1.586  1.00  0.00     0.271 C 
ATOM      8  N   UNL     1       2.337   0.174   0.296  1.00  0.00    -0.341 N 
ATOM      9  O   UNL     1       3.606  -0.272   2.163  1.00  0.00    -0.267 OA
ATOM     10  H   UNL     1       1.635   0.824  -0.056  1.00  0.00     0.164 HD
BRANCH   8  11
ATOM     11  C   UNL     1       2.741  -0.965  -0.512  1.00  0.00     0.140 C 
BRANCH  11  12
ATOM     12  C   UNL     1       1.661  -1.195  -1.573  1.00  0.00     0.091 C 
ATOM     13  S   UNL     1       1.244   0.071  -2.704  1.00  0.00    -0.106 SA
ATOM     14  C   UNL     1       0.292  -1.105  -3.689  1.00  0.00     0.113 C 
ATOM     15  N   UNL     1       0.973  -2.292  -1.626  1.00  0.00    -0.267 NA
ATOM     16  C   UNL     1      -0.076  -2.190  -2.689  1.00  0.00     0.205 CG0
ATOM     17  G   UNL     1      -1.457  -1.915  -2.072  1.00  0.00     0.000 G0
ENDBRANCH  11  12
BRANCH  11  18
ATOM     18  C   UNL     1       4.203  -0.889  -1.022  1.00  0.00     0.015 C 
ATOM     19  C   UNL     1       4.555  -2.147  -1.827  1.00  0.00     0.010 C 
BRANCH  18  20
ATOM     20  C   UNL     1       4.547   0.395  -1.804  1.00  0.00     0.002 C 
ATOM     21  C   UNL     1       6.048   0.622  -1.945  1.00  0.00     0.004 C 
ENDBRANCH  18  20
ENDBRANCH  11  18
ENDBRANCH   8  11
ENDBRANCH   3   7
ENDBRANCH   1   2
BRANCH   1  22
ATOM     22  N   UNL     1      -1.506   3.011   0.867  1.00  0.00    -0.348 N 
ATOM     23  C   UNL     1      -2.831   3.114   0.541  1.00  0.00     0.249 C 
ATOM     24  O   UNL     1      -3.591   3.922   1.063  1.00  0.00    -0.272 OA
ATOM     25  H   UNL     1      -0.970   2.293   0.381  1.00  0.00     0.163 HD
BRANCH  23  26
ATOM     26  C   UNL     1      -3.243   2.155  -0.586  1.00  0.00     0.238 C 
ATOM     27  N   UNL     1      -2.324   0.983  -0.594  1.00  0.00    -0.236 NA
ATOM     28  C   UNL     1      -4.632   1.581  -0.365  1.00  0.00     0.206 C 
ATOM     29  C   UNL     1      -3.084   0.006  -0.198  1.00  0.00     0.208 C 
ATOM     30  O   UNL     1      -4.389   0.247   0.079  1.00  0.00    -0.474 OA
ATOM     31  C   UNL     1      -5.452   1.525  -1.647  1.00  0.00     0.056 C 
BRANCH  29  32
ATOM     32  C   UNL     1      -2.648  -1.435   0.052  1.00  0.00     0.171 C 
BRANCH  32  33
ATOM     33  N   UNL     1      -1.449  -1.754  -0.707  1.00  0.00    -0.342 N 
ATOM     34  C   UNL     1      -1.457  -1.915  -2.072  1.00  0.00     0.246 CG0
ATOM     35  O   UNL     1      -2.477  -1.828  -2.751  1.00  0.00    -0.273 OA
ATOM     36  H   UNL     1      -0.560  -1.907  -0.243  1.00  0.00     0.164 HD
ATOM     37  G   UNL     1      -0.076  -2.190  -2.689  1.00  0.00     0.000 G0
ENDBRANCH  32  33
BRANCH  32  38
ATOM     38  C   UNL     1      -2.476  -1.694   1.572  1.00  0.00     0.017 C 
ATOM     39  C   UNL     1      -2.310  -3.196   1.835  1.00  0.00     0.010 C 
BRANCH  38  40
ATOM     40  C   UNL     1      -1.322  -0.876   2.196  1.00  0.00     0.002 C 
ATOM     41  C   UNL     1      -1.261  -0.969   3.715  1.00  0.00     0.004 C 
ENDBRANCH  38  40
ENDBRANCH  32  38
ENDBRANCH  29  32
ENDBRANCH  23  26
ENDBRANCH   1  22
TORSDOF 4
