REMARK SMILES CC[C@H](C)[C@H]1NC(=O)c2coc(n2)[C@H](C(C)C)NC(=O)[C@H]([C@@H](C)O)NC(=O)[C@H](C)NC(=O)c2csc1n2
REMARK SMILES IDX 11 1 13 2 12 3 9 4 10 5 7 6 6 7 8 8 5 10 36 11 35 12 34 13
REMARK SMILES IDX 37 14 33 15 31 16 32 17 30 18 28 20 29 21 3 23 4 24 2 25
REMARK SMILES IDX 1 26 14 27 18 28 19 29 20 30 21 32 25 33 26 34 27 35 22 38
REMARK SMILES IDX 23 39 24 40 15 42 16 43 17 44
REMARK H PARENT 6 9 30 19 18 31 25 36 24 41
REMARK Flexibility Score:   94.900
ROOT
ATOM      1  O   UNL     1       0.936  -3.145   1.347  1.00  0.00    -0.446 OA
ATOM      2  N   UNL     1      -0.469  -1.850   0.151  1.00  0.00    -0.207 NA
ATOM      3  C   UNL     1       0.657  -2.541   0.150  1.00  0.00     0.217 A 
ATOM      4  C   UNL     1      -0.978  -2.033   1.425  1.00  0.00     0.167 A 
ATOM      5  C   UNL     1      -0.118  -2.823   2.148  1.00  0.00     0.231 A 
ENDROOT
BRANCH   4   6
ATOM      6  C   UNL     1      -2.219  -1.429   1.878  1.00  0.00     0.273 C 
ATOM      7  N   UNL     1      -2.802  -0.666   0.898  1.00  0.00    -0.341 N 
ATOM      8  O   UNL     1      -2.668  -1.570   3.009  1.00  0.00    -0.267 OA
ATOM      9  H   UNL     1      -2.267  -0.567   0.040  1.00  0.00     0.164 HD
BRANCH   7  10
ATOM     10  C   UNL     1      -3.905   0.240   1.151  1.00  0.00     0.145 C 
BRANCH  10  11
ATOM     11  C   UNL     1      -3.315   1.607   1.466  1.00  0.00     0.116 A 
ATOM     12  S   UNL     1      -4.184   2.701   2.475  1.00  0.00    -0.124 S 
ATOM     13  C   UNL     1      -2.907   3.829   2.339  1.00  0.00     0.101 A 
ATOM     14  N   UNL     1      -2.145   2.046   1.032  1.00  0.00    -0.234 NA
ATOM     15  C   UNL     1      -1.896   3.321   1.546  1.00  0.00     0.139 A 
BRANCH  15  16
ATOM     16  C   UNL     1      -0.651   4.037   1.259  1.00  0.00     0.271 C 
ATOM     17  O   UNL     1      -0.412   5.157   1.697  1.00  0.00    -0.267 OA
ATOM     18  N   UNL     1       0.218   3.330   0.455  1.00  0.00    -0.339 N 
ATOM     19  H   UNL     1      -0.142   2.462   0.067  1.00  0.00     0.164 HD
BRANCH  18  20
ATOM     20  C   UNL     1       1.477   3.912   0.010  1.00  0.00     0.168 CG0
ATOM     21  C   UNL     1       2.483   4.007   1.159  1.00  0.00     0.041 C 
ATOM     22  G   UNL     1       2.134   3.110  -1.125  1.00  0.00     0.000 G0
ENDBRANCH  18  20
ENDBRANCH  15  16
ENDBRANCH  10  11
BRANCH  10  23
ATOM     23  C   UNL     1      -4.908   0.287  -0.032  1.00  0.00     0.015 C 
ATOM     24  C   UNL     1      -4.284   0.804  -1.339  1.00  0.00     0.010 C 
BRANCH  23  25
ATOM     25  C   UNL     1      -5.572  -1.081  -0.308  1.00  0.00     0.002 C 
ATOM     26  C   UNL     1      -6.360  -1.635   0.871  1.00  0.00     0.004 C 
ENDBRANCH  23  25
ENDBRANCH  10  23
ENDBRANCH   7  10
ENDBRANCH   4   6
BRANCH   3  27
ATOM     27  C   UNL     1       1.640  -2.671  -0.981  1.00  0.00     0.171 C 
BRANCH  27  28
ATOM     28  N   UNL     1       2.368  -1.411  -1.087  1.00  0.00    -0.342 N 
ATOM     29  C   UNL     1       2.067  -0.451  -2.027  1.00  0.00     0.245 C 
ATOM     30  O   UNL     1       1.151  -0.578  -2.838  1.00  0.00    -0.273 OA
ATOM     31  H   UNL     1       3.064  -1.186  -0.377  1.00  0.00     0.164 HD
BRANCH  29  32
ATOM     32  C   UNL     1       2.860   0.867  -1.901  1.00  0.00     0.200 C 
BRANCH  32  33
ATOM     33  N   UNL     1       2.154   1.741  -0.956  1.00  0.00    -0.340 N 
ATOM     34  C   UNL     1       2.134   3.110  -1.125  1.00  0.00     0.243 CG0
ATOM     35  O   UNL     1       2.755   3.662  -2.031  1.00  0.00    -0.273 OA
ATOM     36  H   UNL     1       1.658   1.317  -0.181  1.00  0.00     0.164 HD
ATOM     37  G   UNL     1       1.477   3.912   0.010  1.00  0.00     0.000 G0
ENDBRANCH  32  33
BRANCH  32  38
ATOM     38  C   UNL     1       4.330   0.606  -1.498  1.00  0.00     0.143 C 
ATOM     39  C   UNL     1       5.259   1.792  -1.730  1.00  0.00     0.041 C 
BRANCH  38  40
ATOM     40  O   UNL     1       4.400   0.222  -0.111  1.00  0.00    -0.391 OA
ATOM     41  H   UNL     1       4.339   1.045   0.410  1.00  0.00     0.211 HD
ENDBRANCH  38  40
ENDBRANCH  32  38
ENDBRANCH  29  32
ENDBRANCH  27  28
BRANCH  27  42
ATOM     42  C   UNL     1       2.602  -3.884  -0.954  1.00  0.00     0.015 C 
ATOM     43  C   UNL     1       3.638  -3.881   0.176  1.00  0.00     0.010 C 
ATOM     44  C   UNL     1       1.845  -5.216  -0.977  1.00  0.00     0.010 C 
ENDBRANCH  27  42
ENDBRANCH   3  27
TORSDOF 5
