MODEL 1
REMARK VINA RESULT:    -6.023      0.000      0.000
REMARK INTER + INTRA:         -12.062
REMARK INTER:                 -10.247
REMARK INTRA:                  -1.815
REMARK UNBOUND:                -1.815
REMARK SMILES CC[C@H](C)[C@@H]1NC(=O)[C@H]2CSC(=N2)[C@@H]([C@@H](C)CC)NC(=O)c2csc(n2)CNC(=O)[C@H]2N=C1O[C@@H]2C
REMARK SMILES IDX 27 1 25 2 22 3 26 4 23 5 24 6 20 7 19 8 21 9 14 11 12 12
REMARK SMILES IDX 11 13 10 14 13 15 9 16 15 18 16 19 17 20 18 21 28 22 29 23
REMARK SMILES IDX 30 24 31 26 32 27 35 28 33 29 34 30 36 31 5 32 6 33 7 34
REMARK SMILES IDX 8 35 3 38 4 39 2 40 1 41
REMARK H PARENT 19 10 28 25 6 36
REMARK Flexibility Score:   91.900
ROOT
ATOM      1  C   UNL     1      -2.779  -2.401   6.587  1.00  0.00     0.183 C 
ENDROOT
BRANCH   1   2
ATOM      2  C   UNL     1      -2.554  -2.724   8.036  1.00  0.00     0.113 A 
ATOM      3  C   UNL     1      -2.600  -2.503  10.253  1.00  0.00     0.139 A 
ATOM      4  N   UNL     1      -3.083  -2.034   9.030  1.00  0.00    -0.234 NA
ATOM      5  C   UNL     1      -1.752  -3.589  10.155  1.00  0.00     0.101 A 
ATOM      6  S   UNL     1      -1.531  -4.019   8.508  1.00  0.00    -0.125 S 
BRANCH   3   7
ATOM      7  C   UNL     1      -2.972  -1.824  11.497  1.00  0.00     0.271 C 
ATOM      8  N   UNL     1      -3.776  -0.737  11.259  1.00  0.00    -0.341 N 
ATOM      9  O   UNL     1      -2.580  -2.171  12.604  1.00  0.00    -0.267 OA
ATOM     10  H   UNL     1      -4.038  -0.588  10.285  1.00  0.00     0.164 HD
BRANCH   8  11
ATOM     11  C   UNL     1      -4.152   0.238  12.269  1.00  0.00     0.140 C 
BRANCH  11  12
ATOM     12  C   UNL     1      -3.338   1.510  12.020  1.00  0.00     0.091 C 
ATOM     13  S   UNL     1      -3.938   3.066  12.547  1.00  0.00    -0.106 SA
ATOM     14  C   UNL     1      -2.327   3.812  12.220  1.00  0.00     0.113 C 
ATOM     15  N   UNL     1      -2.226   1.495  11.355  1.00  0.00    -0.267 NA
ATOM     16  C   UNL     1      -1.713   2.890  11.179  1.00  0.00     0.205 CG0
ATOM     17  G   UNL     1      -2.001   3.405   9.759  1.00  0.00     0.000 G0
ENDBRANCH  11  12
BRANCH  11  18
ATOM     18  C   UNL     1      -5.683   0.420  12.430  1.00  0.00     0.015 C 
ATOM     19  C   UNL     1      -6.427  -0.256  11.271  1.00  0.00     0.010 C 
BRANCH  18  20
ATOM     20  C   UNL     1      -6.246  -0.024  13.796  1.00  0.00     0.002 C 
ATOM     21  C   UNL     1      -5.185  -0.631  14.707  1.00  0.00     0.004 C 
ENDBRANCH  18  20
ENDBRANCH  11  18
ENDBRANCH   8  11
ENDBRANCH   3   7
ENDBRANCH   1   2
BRANCH   1  22
ATOM     22  N   UNL     1      -3.205  -1.021   6.512  1.00  0.00    -0.348 N 
ATOM     23  C   UNL     1      -4.508  -0.605   6.554  1.00  0.00     0.249 C 
ATOM     24  O   UNL     1      -5.451  -1.365   6.747  1.00  0.00    -0.272 OA
ATOM     25  H   UNL     1      -2.502  -0.306   6.330  1.00  0.00     0.163 HD
BRANCH  23  26
ATOM     26  C   UNL     1      -4.652   0.916   6.397  1.00  0.00     0.238 C 
ATOM     27  N   UNL     1      -3.845   1.598   7.447  1.00  0.00    -0.236 NA
ATOM     28  C   UNL     1      -4.093   1.406   5.072  1.00  0.00     0.206 C 
ATOM     29  C   UNL     1      -2.881   2.147   6.771  1.00  0.00     0.208 C 
ATOM     30  O   UNL     1      -2.847   2.007   5.423  1.00  0.00    -0.474 OA
ATOM     31  C   UNL     1      -4.975   2.462   4.420  1.00  0.00     0.056 C 
BRANCH  29  32
ATOM     32  C   UNL     1      -1.700   2.924   7.348  1.00  0.00     0.171 C 
BRANCH  32  33
ATOM     33  N   UNL     1      -1.505   2.604   8.753  1.00  0.00    -0.342 N 
ATOM     34  C   UNL     1      -1.973   3.406   9.767  1.00  0.00     0.246 CG0
ATOM     35  O   UNL     1      -2.567   4.462   9.567  1.00  0.00    -0.273 OA
ATOM     36  H   UNL     1      -0.977   1.786   9.036  1.00  0.00     0.164 HD
ATOM     37  G   UNL     1      -1.714   2.860  11.181  1.00  0.00     0.000 G0
ENDBRANCH  32  33
BRANCH  32  38
ATOM     38  C   UNL     1      -0.424   2.681   6.500  1.00  0.00     0.017 C 
ATOM     39  C   UNL     1       0.488   3.913   6.555  1.00  0.00     0.010 C 
BRANCH  38  40
ATOM     40  C   UNL     1       0.332   1.394   6.904  1.00  0.00     0.002 C 
ATOM     41  C   UNL     1       0.115   0.233   5.942  1.00  0.00     0.004 C 
ENDBRANCH  38  40
ENDBRANCH  32  38
ENDBRANCH  29  32
ENDBRANCH  23  26
ENDBRANCH   1  22
TORSDOF 4
ENDMDL
MODEL 2
REMARK VINA RESULT:    -5.890      2.300      5.510
REMARK INTER + INTRA:         -11.837
REMARK INTER:                 -10.146
REMARK INTRA:                  -1.692
REMARK UNBOUND:                -1.815
REMARK SMILES CC[C@H](C)[C@@H]1NC(=O)[C@H]2CSC(=N2)[C@@H]([C@@H](C)CC)NC(=O)c2csc(n2)CNC(=O)[C@H]2N=C1O[C@@H]2C
REMARK SMILES IDX 27 1 25 2 22 3 26 4 23 5 24 6 20 7 19 8 21 9 14 11 12 12
REMARK SMILES IDX 11 13 10 14 13 15 9 16 15 18 16 19 17 20 18 21 28 22 29 23
REMARK SMILES IDX 30 24 31 26 32 27 35 28 33 29 34 30 36 31 5 32 6 33 7 34
REMARK SMILES IDX 8 35 3 38 4 39 2 40 1 41
REMARK H PARENT 19 10 28 25 6 36
REMARK Flexibility Score:   91.900
ROOT
ATOM      1  C   UNL     1      -2.991   4.396  12.105  1.00  0.00     0.183 C 
ENDROOT
BRANCH   1   2
ATOM      2  C   UNL     1      -3.865   3.175  12.073  1.00  0.00     0.113 A 
ATOM      3  C   UNL     1      -4.811   1.307  11.309  1.00  0.00     0.139 A 
ATOM      4  N   UNL     1      -3.801   2.254  11.128  1.00  0.00    -0.234 NA
ATOM      5  C   UNL     1      -5.587   1.506  12.434  1.00  0.00     0.101 A 
ATOM      6  S   UNL     1      -5.067   2.912  13.269  1.00  0.00    -0.125 S 
BRANCH   3   7
ATOM      7  C   UNL     1      -5.001   0.241  10.323  1.00  0.00     0.271 C 
ATOM      8  N   UNL     1      -3.838  -0.453  10.098  1.00  0.00    -0.341 N 
ATOM      9  O   UNL     1      -6.061   0.025   9.749  1.00  0.00    -0.267 OA
ATOM     10  H   UNL     1      -3.040  -0.174  10.669  1.00  0.00     0.164 HD
BRANCH   8  11
ATOM     11  C   UNL     1      -3.666  -1.440   9.045  1.00  0.00     0.140 C 
BRANCH  11  12
ATOM     12  C   UNL     1      -2.366  -1.114   8.304  1.00  0.00     0.091 C 
ATOM     13  S   UNL     1      -0.937  -0.630   9.188  1.00  0.00    -0.106 SA
ATOM     14  C   UNL     1       0.065  -0.823   7.699  1.00  0.00     0.113 C 
ATOM     15  N   UNL     1      -2.295  -1.111   7.009  1.00  0.00    -0.267 NA
ATOM     16  C   UNL     1      -0.940  -0.653   6.570  1.00  0.00     0.205 CG0
ATOM     17  G   UNL     1      -0.982   0.808   6.094  1.00  0.00     0.000 G0
ENDBRANCH  11  12
BRANCH  11  18
ATOM     18  C   UNL     1      -3.839  -2.905   9.519  1.00  0.00     0.015 C 
ATOM     19  C   UNL     1      -2.994  -3.851   8.656  1.00  0.00     0.010 C 
BRANCH  18  20
ATOM     20  C   UNL     1      -3.579  -3.131  11.022  1.00  0.00     0.002 C 
ATOM     21  C   UNL     1      -2.124  -3.468  11.331  1.00  0.00     0.004 C 
ENDBRANCH  18  20
ENDBRANCH  11  18
ENDBRANCH   8  11
ENDBRANCH   3   7
ENDBRANCH   1   2
BRANCH   1  22
ATOM     22  N   UNL     1      -2.123   4.337  10.950  1.00  0.00    -0.348 N 
ATOM     23  C   UNL     1      -2.320   5.034   9.789  1.00  0.00     0.249 C 
ATOM     24  O   UNL     1      -3.220   5.854   9.643  1.00  0.00    -0.272 OA
ATOM     25  H   UNL     1      -1.353   3.668  10.956  1.00  0.00     0.163 HD
BRANCH  23  26
ATOM     26  C   UNL     1      -1.262   4.724   8.720  1.00  0.00     0.238 C 
ATOM     27  N   UNL     1      -1.580   3.417   8.080  1.00  0.00    -0.236 NA
ATOM     28  C   UNL     1      -1.275   5.743   7.594  1.00  0.00     0.206 C 
ATOM     29  C   UNL     1      -1.936   3.755   6.876  1.00  0.00     0.208 C 
ATOM     30  O   UNL     1      -1.920   5.062   6.518  1.00  0.00    -0.474 OA
ATOM     31  C   UNL     1       0.126   6.140   7.148  1.00  0.00     0.056 C 
BRANCH  29  32
ATOM     32  C   UNL     1      -2.443   2.815   5.786  1.00  0.00     0.171 C 
BRANCH  32  33
ATOM     33  N   UNL     1      -2.214   1.426   6.150  1.00  0.00    -0.342 N 
ATOM     34  C   UNL     1      -0.980   0.828   6.053  1.00  0.00     0.246 CG0
ATOM     35  O   UNL     1       0.015   1.410   5.629  1.00  0.00    -0.273 OA
ATOM     36  H   UNL     1      -2.977   0.832   6.458  1.00  0.00     0.164 HD
ATOM     37  G   UNL     1      -0.938  -0.629   6.544  1.00  0.00     0.000 G0
ENDBRANCH  32  33
BRANCH  32  38
ATOM     38  C   UNL     1      -3.933   3.108   5.467  1.00  0.00     0.017 C 
ATOM     39  C   UNL     1      -4.413   2.209   4.320  1.00  0.00     0.010 C 
BRANCH  38  40
ATOM     40  C   UNL     1      -4.850   2.988   6.705  1.00  0.00     0.002 C 
ATOM     41  C   UNL     1      -5.827   1.822   6.629  1.00  0.00     0.004 C 
ENDBRANCH  38  40
ENDBRANCH  32  38
ENDBRANCH  29  32
ENDBRANCH  23  26
ENDBRANCH   1  22
TORSDOF 4
ENDMDL
MODEL 3
REMARK VINA RESULT:    -5.887      3.036      6.040
REMARK INTER + INTRA:         -11.831
REMARK INTER:                  -9.923
REMARK INTRA:                  -1.908
REMARK UNBOUND:                -1.815
REMARK SMILES CC[C@H](C)[C@@H]1NC(=O)[C@H]2CSC(=N2)[C@@H]([C@@H](C)CC)NC(=O)c2csc(n2)CNC(=O)[C@H]2N=C1O[C@@H]2C
REMARK SMILES IDX 27 1 25 2 22 3 26 4 23 5 24 6 20 7 19 8 21 9 14 11 12 12
REMARK SMILES IDX 11 13 10 14 13 15 9 16 15 18 16 19 17 20 18 21 28 22 29 23
REMARK SMILES IDX 30 24 31 26 32 27 35 28 33 29 34 30 36 31 5 32 6 33 7 34
REMARK SMILES IDX 8 35 3 38 4 39 2 40 1 41
REMARK H PARENT 19 10 28 25 6 36
REMARK Flexibility Score:   91.900
ROOT
ATOM      1  C   UNL     1      -0.713  -1.550   7.897  1.00  0.00     0.183 C 
ENDROOT
BRANCH   1   2
ATOM      2  C   UNL     1      -0.567  -0.137   7.408  1.00  0.00     0.113 A 
ATOM      3  C   UNL     1      -0.850   2.071   7.298  1.00  0.00     0.139 A 
ATOM      4  N   UNL     1      -1.040   0.913   8.055  1.00  0.00    -0.234 NA
ATOM      5  C   UNL     1      -0.177   1.873   6.108  1.00  0.00     0.101 A 
ATOM      6  S   UNL     1       0.205   0.210   5.915  1.00  0.00    -0.125 S 
BRANCH   3   7
ATOM      7  C   UNL     1      -1.385   3.350   7.769  1.00  0.00     0.271 C 
ATOM      8  N   UNL     1      -2.168   3.191   8.885  1.00  0.00    -0.341 N 
ATOM      9  O   UNL     1      -1.182   4.420   7.209  1.00  0.00    -0.267 OA
ATOM     10  H   UNL     1      -2.226   2.241   9.252  1.00  0.00     0.164 HD
BRANCH   8  11
ATOM     11  C   UNL     1      -2.983   4.244   9.470  1.00  0.00     0.140 C 
BRANCH  11  12
ATOM     12  C   UNL     1      -4.441   3.776   9.450  1.00  0.00     0.091 C 
ATOM     13  S   UNL     1      -5.543   4.253  10.720  1.00  0.00    -0.106 SA
ATOM     14  C   UNL     1      -6.940   3.638   9.756  1.00  0.00     0.113 C 
ATOM     15  N   UNL     1      -4.888   2.962   8.547  1.00  0.00    -0.267 NA
ATOM     16  C   UNL     1      -6.310   2.599   8.842  1.00  0.00     0.205 CG0
ATOM     17  G   UNL     1      -6.400   1.198   9.468  1.00  0.00     0.000 G0
ENDBRANCH  11  12
BRANCH  11  18
ATOM     18  C   UNL     1      -2.448   4.776  10.824  1.00  0.00     0.015 C 
ATOM     19  C   UNL     1      -1.588   3.710  11.516  1.00  0.00     0.010 C 
BRANCH  18  20
ATOM     20  C   UNL     1      -1.710   6.128  10.740  1.00  0.00     0.002 C 
ATOM     21  C   UNL     1      -0.347   6.020  10.064  1.00  0.00     0.004 C 
ENDBRANCH  18  20
ENDBRANCH  11  18
ENDBRANCH   8  11
ENDBRANCH   3   7
ENDBRANCH   1   2
BRANCH   1  22
ATOM     22  N   UNL     1      -2.051  -1.986   7.567  1.00  0.00    -0.348 N 
ATOM     23  C   UNL     1      -2.547  -3.237   7.816  1.00  0.00     0.249 C 
ATOM     24  O   UNL     1      -1.925  -4.097   8.428  1.00  0.00    -0.272 OA
ATOM     25  H   UNL     1      -2.649  -1.355   7.035  1.00  0.00     0.163 HD
BRANCH  23  26
ATOM     26  C   UNL     1      -3.983  -3.421   7.301  1.00  0.00     0.238 C 
ATOM     27  N   UNL     1      -4.941  -3.144   8.407  1.00  0.00    -0.236 NA
ATOM     28  C   UNL     1      -4.327  -2.426   6.206  1.00  0.00     0.206 C 
ATOM     29  C   UNL     1      -5.510  -2.036   8.037  1.00  0.00     0.208 C 
ATOM     30  O   UNL     1      -5.157  -1.466   6.859  1.00  0.00    -0.474 OA
ATOM     31  C   UNL     1      -5.117  -3.058   5.068  1.00  0.00     0.056 C 
BRANCH  29  32
ATOM     32  C   UNL     1      -6.540  -1.239   8.833  1.00  0.00     0.171 C 
BRANCH  32  33
ATOM     33  N   UNL     1      -6.487   0.172   8.483  1.00  0.00    -0.342 N 
ATOM     34  C   UNL     1      -6.407   1.167   9.428  1.00  0.00     0.246 CG0
ATOM     35  O   UNL     1      -6.399   0.945  10.636  1.00  0.00    -0.273 OA
ATOM     36  H   UNL     1      -6.547   0.475   7.517  1.00  0.00     0.164 HD
ATOM     37  G   UNL     1      -6.302   2.588   8.849  1.00  0.00     0.000 G0
ENDBRANCH  32  33
BRANCH  32  38
ATOM     38  C   UNL     1      -7.956  -1.845   8.649  1.00  0.00     0.017 C 
ATOM     39  C   UNL     1      -8.638  -2.013  10.013  1.00  0.00     0.010 C 
BRANCH  38  40
ATOM     40  C   UNL     1      -8.836  -1.035   7.669  1.00  0.00     0.002 C 
ATOM     41  C   UNL     1      -9.795  -1.895   6.858  1.00  0.00     0.004 C 
ENDBRANCH  38  40
ENDBRANCH  32  38
ENDBRANCH  29  32
ENDBRANCH  23  26
ENDBRANCH   1  22
TORSDOF 4
ENDMDL
MODEL 4
REMARK VINA RESULT:    -5.852      1.797      2.704
REMARK INTER + INTRA:         -11.773
REMARK INTER:                 -10.026
REMARK INTRA:                  -1.747
REMARK UNBOUND:                -1.815
REMARK SMILES CC[C@H](C)[C@@H]1NC(=O)[C@H]2CSC(=N2)[C@@H]([C@@H](C)CC)NC(=O)c2csc(n2)CNC(=O)[C@H]2N=C1O[C@@H]2C
REMARK SMILES IDX 27 1 25 2 22 3 26 4 23 5 24 6 20 7 19 8 21 9 14 11 12 12
REMARK SMILES IDX 11 13 10 14 13 15 9 16 15 18 16 19 17 20 18 21 28 22 29 23
REMARK SMILES IDX 30 24 31 26 32 27 35 28 33 29 34 30 36 31 5 32 6 33 7 34
REMARK SMILES IDX 8 35 3 38 4 39 2 40 1 41
REMARK H PARENT 19 10 28 25 6 36
REMARK Flexibility Score:   91.900
ROOT
ATOM      1  C   UNL     1      -2.705  -2.454   6.960  1.00  0.00     0.183 C 
ENDROOT
BRANCH   1   2
ATOM      2  C   UNL     1      -2.807  -2.507   8.458  1.00  0.00     0.113 A 
ATOM      3  C   UNL     1      -3.542  -2.065  10.515  1.00  0.00     0.139 A 
ATOM      4  N   UNL     1      -3.783  -1.943   9.145  1.00  0.00    -0.234 NA
ATOM      5  C   UNL     1      -2.403  -2.779  10.833  1.00  0.00     0.101 A 
ATOM      6  S   UNL     1      -1.604  -3.287   9.402  1.00  0.00    -0.125 S 
BRANCH   3   7
ATOM      7  C   UNL     1      -4.442  -1.427  11.477  1.00  0.00     0.271 C 
ATOM      8  N   UNL     1      -4.991  -0.275  10.970  1.00  0.00    -0.341 N 
ATOM      9  O   UNL     1      -4.646  -1.856  12.606  1.00  0.00    -0.267 OA
ATOM     10  H   UNL     1      -4.746  -0.058  10.004  1.00  0.00     0.164 HD
BRANCH   8  11
ATOM     11  C   UNL     1      -5.773   0.671  11.750  1.00  0.00     0.140 C 
BRANCH  11  12
ATOM     12  C   UNL     1      -4.977   1.976  11.839  1.00  0.00     0.091 C 
ATOM     13  S   UNL     1      -5.787   3.488  12.178  1.00  0.00    -0.106 SA
ATOM     14  C   UNL     1      -4.195   4.294  12.451  1.00  0.00     0.113 C 
ATOM     15  N   UNL     1      -3.705   2.023  11.596  1.00  0.00    -0.267 NA
ATOM     16  C   UNL     1      -3.223   3.439  11.654  1.00  0.00     0.205 CG0
ATOM     17  G   UNL     1      -3.029   4.010  10.240  1.00  0.00     0.000 G0
ENDBRANCH  11  12
BRANCH  11  18
ATOM     18  C   UNL     1      -7.250   0.793  11.296  1.00  0.00     0.015 C 
ATOM     19  C   UNL     1      -7.324   1.240   9.830  1.00  0.00     0.010 C 
BRANCH  18  20
ATOM     20  C   UNL     1      -8.108  -0.464  11.546  1.00  0.00     0.002 C 
ATOM     21  C   UNL     1      -9.589  -0.239  11.267  1.00  0.00     0.004 C 
ENDBRANCH  18  20
ENDBRANCH  11  18
ENDBRANCH   8  11
ENDBRANCH   3   7
ENDBRANCH   1   2
BRANCH   1  22
ATOM     22  N   UNL     1      -2.026  -1.224   6.616  1.00  0.00    -0.348 N 
ATOM     23  C   UNL     1      -2.649  -0.028   6.387  1.00  0.00     0.249 C 
ATOM     24  O   UNL     1      -3.854   0.142   6.535  1.00  0.00    -0.272 OA
ATOM     25  H   UNL     1      -1.022  -1.257   6.446  1.00  0.00     0.163 HD
BRANCH  23  26
ATOM     26  C   UNL     1      -1.670   1.086   5.986  1.00  0.00     0.238 C 
ATOM     27  N   UNL     1      -2.192   2.395   6.468  1.00  0.00    -0.236 NA
ATOM     28  C   UNL     1      -0.315   0.919   6.652  1.00  0.00     0.206 C 
ATOM     29  C   UNL     1      -1.356   2.721   7.408  1.00  0.00     0.208 C 
ATOM     30  O   UNL     1      -0.314   1.900   7.687  1.00  0.00    -0.474 OA
ATOM     31  C   UNL     1       0.841   1.210   5.704  1.00  0.00     0.056 C 
BRANCH  29  32
ATOM     32  C   UNL     1      -1.443   3.949   8.311  1.00  0.00     0.171 C 
BRANCH  32  33
ATOM     33  N   UNL     1      -1.831   3.574   9.662  1.00  0.00    -0.342 N 
ATOM     34  C   UNL     1      -2.995   4.012  10.247  1.00  0.00     0.246 CG0
ATOM     35  O   UNL     1      -3.782   4.771   9.687  1.00  0.00    -0.273 OA
ATOM     36  H   UNL     1      -1.228   2.998  10.239  1.00  0.00     0.164 HD
ATOM     37  G   UNL     1      -3.248   3.454  11.657  1.00  0.00     0.000 G0
ENDBRANCH  32  33
BRANCH  32  38
ATOM     38  C   UNL     1      -0.113   4.745   8.273  1.00  0.00     0.017 C 
ATOM     39  C   UNL     1      -0.226   5.915   7.287  1.00  0.00     0.010 C 
BRANCH  38  40
ATOM     40  C   UNL     1       0.344   5.222   9.671  1.00  0.00     0.002 C 
ATOM     41  C   UNL     1       0.008   6.680   9.958  1.00  0.00     0.004 C 
ENDBRANCH  38  40
ENDBRANCH  32  38
ENDBRANCH  29  32
ENDBRANCH  23  26
ENDBRANCH   1  22
TORSDOF 4
ENDMDL
MODEL 5
REMARK VINA RESULT:    -5.763      3.816      6.569
REMARK INTER + INTRA:         -11.621
REMARK INTER:                  -9.989
REMARK INTRA:                  -1.632
REMARK UNBOUND:                -1.815
REMARK SMILES CC[C@H](C)[C@@H]1NC(=O)[C@H]2CSC(=N2)[C@@H]([C@@H](C)CC)NC(=O)c2csc(n2)CNC(=O)[C@H]2N=C1O[C@@H]2C
REMARK SMILES IDX 27 1 25 2 22 3 26 4 23 5 24 6 20 7 19 8 21 9 14 11 12 12
REMARK SMILES IDX 11 13 10 14 13 15 9 16 15 18 16 19 17 20 18 21 28 22 29 23
REMARK SMILES IDX 30 24 31 26 32 27 35 28 33 29 34 30 36 31 5 32 6 33 7 34
REMARK SMILES IDX 8 35 3 38 4 39 2 40 1 41
REMARK H PARENT 19 10 28 25 6 36
REMARK Flexibility Score:   91.900
ROOT
ATOM      1  C   UNL     1      -2.942  -0.697  13.036  1.00  0.00     0.183 C 
ENDROOT
BRANCH   1   2
ATOM      2  C   UNL     1      -3.697   0.538  12.635  1.00  0.00     0.113 A 
ATOM      3  C   UNL     1      -5.363   1.809  11.877  1.00  0.00     0.139 A 
ATOM      4  N   UNL     1      -4.977   0.540  12.313  1.00  0.00    -0.234 NA
ATOM      5  C   UNL     1      -4.365   2.762  11.937  1.00  0.00     0.101 A 
ATOM      6  S   UNL     1      -2.912   2.060  12.522  1.00  0.00    -0.125 S 
BRANCH   3   7
ATOM      7  C   UNL     1      -6.719   2.029  11.372  1.00  0.00     0.271 C 
ATOM      8  N   UNL     1      -7.331   0.847  11.032  1.00  0.00    -0.341 N 
ATOM      9  O   UNL     1      -7.225   3.137  11.239  1.00  0.00    -0.267 OA
ATOM     10  H   UNL     1      -6.793   0.003  11.222  1.00  0.00     0.164 HD
BRANCH   8  11
ATOM     11  C   UNL     1      -8.602   0.757  10.332  1.00  0.00     0.140 C 
BRANCH  11  12
ATOM     12  C   UNL     1      -8.394  -0.119   9.093  1.00  0.00     0.091 C 
ATOM     13  S   UNL     1      -9.576  -1.329   8.653  1.00  0.00    -0.106 SA
ATOM     14  C   UNL     1      -8.776  -1.547   7.050  1.00  0.00     0.113 C 
ATOM     15  N   UNL     1      -7.317  -0.050   8.376  1.00  0.00    -0.267 NA
ATOM     16  C   UNL     1      -7.347  -1.092   7.302  1.00  0.00     0.205 CG0
ATOM     17  G   UNL     1      -6.453  -2.286   7.671  1.00  0.00     0.000 G0
ENDBRANCH  11  12
BRANCH  11  18
ATOM     18  C   UNL     1      -9.799   0.386  11.245  1.00  0.00     0.015 C 
ATOM     19  C   UNL     1      -9.312   0.073  12.666  1.00  0.00     0.010 C 
BRANCH  18  20
ATOM     20  C   UNL     1     -10.944   1.419  11.257  1.00  0.00     0.002 C 
ATOM     21  C   UNL     1     -11.507   1.668  12.652  1.00  0.00     0.004 C 
ENDBRANCH  18  20
ENDBRANCH  11  18
ENDBRANCH   8  11
ENDBRANCH   3   7
ENDBRANCH   1   2
BRANCH   1  22
ATOM     22  N   UNL     1      -2.468  -1.328  11.824  1.00  0.00    -0.348 N 
ATOM     23  C   UNL     1      -2.986  -2.476  11.290  1.00  0.00     0.249 C 
ATOM     24  O   UNL     1      -3.971  -3.046  11.747  1.00  0.00    -0.272 OA
ATOM     25  H   UNL     1      -1.637  -0.948  11.373  1.00  0.00     0.163 HD
BRANCH  23  26
ATOM     26  C   UNL     1      -2.239  -2.935  10.028  1.00  0.00     0.238 C 
ATOM     27  N   UNL     1      -3.137  -3.801   9.214  1.00  0.00    -0.236 NA
ATOM     28  C   UNL     1      -1.874  -1.767   9.128  1.00  0.00     0.206 C 
ATOM     29  C   UNL     1      -3.384  -3.072   8.167  1.00  0.00     0.208 C 
ATOM     30  O   UNL     1      -2.817  -1.845   8.060  1.00  0.00    -0.474 OA
ATOM     31  C   UNL     1      -0.472  -1.893   8.548  1.00  0.00     0.056 C 
BRANCH  29  32
ATOM     32  C   UNL     1      -4.318  -3.432   7.015  1.00  0.00     0.171 C 
BRANCH  32  33
ATOM     33  N   UNL     1      -5.331  -2.405   6.828  1.00  0.00    -0.342 N 
ATOM     34  C   UNL     1      -6.435  -2.297   7.641  1.00  0.00     0.246 CG0
ATOM     35  O   UNL     1      -6.664  -3.071   8.567  1.00  0.00    -0.273 OA
ATOM     36  H   UNL     1      -5.276  -1.747   6.059  1.00  0.00     0.164 HD
ATOM     37  G   UNL     1      -7.354  -1.109   7.312  1.00  0.00     0.000 G0
ENDBRANCH  32  33
BRANCH  32  38
ATOM     38  C   UNL     1      -3.505  -3.706   5.722  1.00  0.00     0.017 C 
ATOM     39  C   UNL     1      -2.327  -4.639   6.029  1.00  0.00     0.010 C 
BRANCH  38  40
ATOM     40  C   UNL     1      -4.376  -4.251   4.567  1.00  0.00     0.002 C 
ATOM     41  C   UNL     1      -3.842  -5.541   3.957  1.00  0.00     0.004 C 
ENDBRANCH  38  40
ENDBRANCH  32  38
ENDBRANCH  29  32
ENDBRANCH  23  26
ENDBRANCH   1  22
TORSDOF 4
ENDMDL
MODEL 6
REMARK VINA RESULT:    -5.727      2.621      6.176
REMARK INTER + INTRA:         -11.560
REMARK INTER:                  -9.853
REMARK INTRA:                  -1.706
REMARK UNBOUND:                -1.815
REMARK SMILES CC[C@H](C)[C@@H]1NC(=O)[C@H]2CSC(=N2)[C@@H]([C@@H](C)CC)NC(=O)c2csc(n2)CNC(=O)[C@H]2N=C1O[C@@H]2C
REMARK SMILES IDX 27 1 25 2 22 3 26 4 23 5 24 6 20 7 19 8 21 9 14 11 12 12
REMARK SMILES IDX 11 13 10 14 13 15 9 16 15 18 16 19 17 20 18 21 28 22 29 23
REMARK SMILES IDX 30 24 31 26 32 27 35 28 33 29 34 30 36 31 5 32 6 33 7 34
REMARK SMILES IDX 8 35 3 38 4 39 2 40 1 41
REMARK H PARENT 19 10 28 25 6 36
REMARK Flexibility Score:   91.900
ROOT
ATOM      1  C   UNL     1      -6.741  -0.966  12.811  1.00  0.00     0.183 C 
ENDROOT
BRANCH   1   2
ATOM      2  C   UNL     1      -6.282   0.463  12.796  1.00  0.00     0.113 A 
ATOM      3  C   UNL     1      -4.969   2.228  12.441  1.00  0.00     0.139 A 
ATOM      4  N   UNL     1      -5.191   0.875  12.178  1.00  0.00    -0.234 NA
ATOM      5  C   UNL     1      -5.943   2.828  13.214  1.00  0.00     0.101 A 
ATOM      6  S   UNL     1      -7.146   1.681  13.643  1.00  0.00    -0.125 S 
BRANCH   3   7
ATOM      7  C   UNL     1      -3.758   2.883  11.940  1.00  0.00     0.271 C 
ATOM      8  N   UNL     1      -3.890   3.252  10.624  1.00  0.00    -0.341 N 
ATOM      9  O   UNL     1      -2.746   3.045  12.610  1.00  0.00    -0.267 OA
ATOM     10  H   UNL     1      -4.801   3.073  10.205  1.00  0.00     0.164 HD
BRANCH   8  11
ATOM     11  C   UNL     1      -2.799   3.751   9.802  1.00  0.00     0.140 C 
BRANCH  11  12
ATOM     12  C   UNL     1      -2.888   3.064   8.436  1.00  0.00     0.091 C 
ATOM     13  S   UNL     1      -3.877   3.743   7.165  1.00  0.00    -0.106 SA
ATOM     14  C   UNL     1      -3.132   2.615   5.967  1.00  0.00     0.113 C 
ATOM     15  N   UNL     1      -2.303   1.933   8.198  1.00  0.00    -0.267 NA
ATOM     16  C   UNL     1      -2.653   1.454   6.823  1.00  0.00     0.205 CG0
ATOM     17  G   UNL     1      -3.718   0.346   6.883  1.00  0.00     0.000 G0
ENDBRANCH  11  12
BRANCH  11  18
ATOM     18  C   UNL     1      -2.675   5.296   9.790  1.00  0.00     0.015 C 
ATOM     19  C   UNL     1      -3.976   5.941  10.287  1.00  0.00     0.010 C 
BRANCH  18  20
ATOM     20  C   UNL     1      -1.448   5.851  10.541  1.00  0.00     0.002 C 
ATOM     21  C   UNL     1      -0.307   4.845  10.641  1.00  0.00     0.004 C 
ENDBRANCH  18  20
ENDBRANCH  11  18
ENDBRANCH   8  11
ENDBRANCH   3   7
ENDBRANCH   1   2
BRANCH   1  22
ATOM     22  N   UNL     1      -5.807  -1.729  12.013  1.00  0.00    -0.348 N 
ATOM     23  C   UNL     1      -6.162  -2.652  11.068  1.00  0.00     0.249 C 
ATOM     24  O   UNL     1      -7.323  -2.866  10.739  1.00  0.00    -0.272 OA
ATOM     25  H   UNL     1      -4.812  -1.644  12.219  1.00  0.00     0.163 HD
BRANCH  23  26
ATOM     26  C   UNL     1      -4.949  -3.341  10.424  1.00  0.00     0.238 C 
ATOM     27  N   UNL     1      -5.133  -3.382   8.947  1.00  0.00    -0.236 NA
ATOM     28  C   UNL     1      -3.665  -2.562  10.653  1.00  0.00     0.206 C 
ATOM     29  C   UNL     1      -4.231  -2.554   8.512  1.00  0.00     0.208 C 
ATOM     30  O   UNL     1      -3.414  -1.933   9.397  1.00  0.00    -0.474 OA
ATOM     31  C   UNL     1      -2.485  -3.465  10.988  1.00  0.00     0.056 C 
BRANCH  29  32
ATOM     32  C   UNL     1      -4.008  -2.141   7.059  1.00  0.00     0.171 C 
BRANCH  32  33
ATOM     33  N   UNL     1      -3.180  -0.948   6.980  1.00  0.00    -0.342 N 
ATOM     34  C   UNL     1      -3.709   0.314   6.850  1.00  0.00     0.246 CG0
ATOM     35  O   UNL     1      -4.915   0.529   6.765  1.00  0.00    -0.273 OA
ATOM     36  H   UNL     1      -2.168  -1.012   6.981  1.00  0.00     0.164 HD
ATOM     37  G   UNL     1      -2.666   1.444   6.844  1.00  0.00     0.000 G0
ENDBRANCH  32  33
BRANCH  32  38
ATOM     38  C   UNL     1      -3.426  -3.324   6.242  1.00  0.00     0.017 C 
ATOM     39  C   UNL     1      -2.452  -4.134   7.108  1.00  0.00     0.010 C 
BRANCH  38  40
ATOM     40  C   UNL     1      -4.520  -4.224   5.622  1.00  0.00     0.002 C 
ATOM     41  C   UNL     1      -5.443  -3.487   4.661  1.00  0.00     0.004 C 
ENDBRANCH  38  40
ENDBRANCH  32  38
ENDBRANCH  29  32
ENDBRANCH  23  26
ENDBRANCH   1  22
TORSDOF 4
ENDMDL
MODEL 7
REMARK VINA RESULT:    -5.682      2.777      6.438
REMARK INTER + INTRA:         -11.482
REMARK INTER:                  -9.925
REMARK INTRA:                  -1.558
REMARK UNBOUND:                -1.815
REMARK SMILES CC[C@H](C)[C@@H]1NC(=O)[C@H]2CSC(=N2)[C@@H]([C@@H](C)CC)NC(=O)c2csc(n2)CNC(=O)[C@H]2N=C1O[C@@H]2C
REMARK SMILES IDX 27 1 25 2 22 3 26 4 23 5 24 6 20 7 19 8 21 9 14 11 12 12
REMARK SMILES IDX 11 13 10 14 13 15 9 16 15 18 16 19 17 20 18 21 28 22 29 23
REMARK SMILES IDX 30 24 31 26 32 27 35 28 33 29 34 30 36 31 5 32 6 33 7 34
REMARK SMILES IDX 8 35 3 38 4 39 2 40 1 41
REMARK H PARENT 19 10 28 25 6 36
REMARK Flexibility Score:   91.900
ROOT
ATOM      1  C   UNL     1      -6.190   0.916  11.925  1.00  0.00     0.183 C 
ENDROOT
BRANCH   1   2
ATOM      2  C   UNL     1      -5.276   2.107  11.967  1.00  0.00     0.113 A 
ATOM      3  C   UNL     1      -3.551   3.429  11.476  1.00  0.00     0.139 A 
ATOM      4  N   UNL     1      -4.289   2.302  11.111  1.00  0.00    -0.234 NA
ATOM      5  C   UNL     1      -4.039   4.101  12.579  1.00  0.00     0.101 A 
ATOM      6  S   UNL     1      -5.429   3.300  13.191  1.00  0.00    -0.125 S 
BRANCH   3   7
ATOM      7  C   UNL     1      -2.343   3.787  10.729  1.00  0.00     0.271 C 
ATOM      8  N   UNL     1      -2.483   3.528   9.387  1.00  0.00    -0.341 N 
ATOM      9  O   UNL     1      -1.327   4.231  11.249  1.00  0.00    -0.267 OA
ATOM     10  H   UNL     1      -3.397   3.182   9.098  1.00  0.00     0.164 HD
BRANCH   8  11
ATOM     11  C   UNL     1      -1.397   3.604   8.423  1.00  0.00     0.140 C 
BRANCH  11  12
ATOM     12  C   UNL     1      -1.298   2.247   7.720  1.00  0.00     0.091 C 
ATOM     13  S   UNL     1      -0.416   2.087   6.220  1.00  0.00    -0.106 SA
ATOM     14  C   UNL     1      -0.503   0.288   6.346  1.00  0.00     0.113 C 
ATOM     15  N   UNL     1      -1.917   1.197   8.163  1.00  0.00    -0.267 NA
ATOM     16  C   UNL     1      -1.725   0.051   7.219  1.00  0.00     0.205 CG0
ATOM     17  G   UNL     1      -2.978  -0.162   6.354  1.00  0.00     0.000 G0
ENDBRANCH  11  12
BRANCH  11  18
ATOM     18  C   UNL     1      -1.454   4.852   7.506  1.00  0.00     0.015 C 
ATOM     19  C   UNL     1      -2.785   5.593   7.693  1.00  0.00     0.010 C 
BRANCH  18  20
ATOM     20  C   UNL     1      -0.252   5.809   7.645  1.00  0.00     0.002 C 
ATOM     21  C   UNL     1       0.069   6.155   9.094  1.00  0.00     0.004 C 
ENDBRANCH  18  20
ENDBRANCH  11  18
ENDBRANCH   8  11
ENDBRANCH   3   7
ENDBRANCH   1   2
BRANCH   1  22
ATOM     22  N   UNL     1      -6.666   0.784  10.566  1.00  0.00    -0.348 N 
ATOM     23  C   UNL     1      -7.311  -0.316  10.069  1.00  0.00     0.249 C 
ATOM     24  O   UNL     1      -7.627  -1.279  10.759  1.00  0.00    -0.272 OA
ATOM     25  H   UNL     1      -6.437   1.520   9.899  1.00  0.00     0.163 HD
BRANCH  23  26
ATOM     26  C   UNL     1      -7.646  -0.186   8.576  1.00  0.00     0.238 C 
ATOM     27  N   UNL     1      -6.387   0.012   7.805  1.00  0.00    -0.236 NA
ATOM     28  C   UNL     1      -8.267  -1.456   8.019  1.00  0.00     0.206 C 
ATOM     29  C   UNL     1      -6.265  -1.099   7.143  1.00  0.00     0.208 C 
ATOM     30  O   UNL     1      -7.211  -2.061   7.275  1.00  0.00    -0.474 OA
ATOM     31  C   UNL     1      -9.428  -1.173   7.075  1.00  0.00     0.056 C 
BRANCH  29  32
ATOM     32  C   UNL     1      -5.103  -1.486   6.232  1.00  0.00     0.171 C 
BRANCH  32  33
ATOM     33  N   UNL     1      -3.827  -1.169   6.854  1.00  0.00    -0.342 N 
ATOM     34  C   UNL     1      -2.994  -0.186   6.377  1.00  0.00     0.246 CG0
ATOM     35  O   UNL     1      -3.248   0.481   5.377  1.00  0.00    -0.273 OA
ATOM     36  H   UNL     1      -3.487  -1.696   7.652  1.00  0.00     0.164 HD
ATOM     37  G   UNL     1      -1.721   0.031   7.212  1.00  0.00     0.000 G0
ENDBRANCH  32  33
BRANCH  32  38
ATOM     38  C   UNL     1      -5.210  -2.978   5.821  1.00  0.00     0.017 C 
ATOM     39  C   UNL     1      -5.492  -3.092   4.318  1.00  0.00     0.010 C 
BRANCH  38  40
ATOM     40  C   UNL     1      -3.971  -3.807   6.231  1.00  0.00     0.002 C 
ATOM     41  C   UNL     1      -3.414  -4.669   5.106  1.00  0.00     0.004 C 
ENDBRANCH  38  40
ENDBRANCH  32  38
ENDBRANCH  29  32
ENDBRANCH  23  26
ENDBRANCH   1  22
TORSDOF 4
ENDMDL
MODEL 8
REMARK VINA RESULT:    -5.660      2.595      5.636
REMARK INTER + INTRA:         -11.446
REMARK INTER:                  -9.648
REMARK INTRA:                  -1.798
REMARK UNBOUND:                -1.815
REMARK SMILES CC[C@H](C)[C@@H]1NC(=O)[C@H]2CSC(=N2)[C@@H]([C@@H](C)CC)NC(=O)c2csc(n2)CNC(=O)[C@H]2N=C1O[C@@H]2C
REMARK SMILES IDX 27 1 25 2 22 3 26 4 23 5 24 6 20 7 19 8 21 9 14 11 12 12
REMARK SMILES IDX 11 13 10 14 13 15 9 16 15 18 16 19 17 20 18 21 28 22 29 23
REMARK SMILES IDX 30 24 31 26 32 27 35 28 33 29 34 30 36 31 5 32 6 33 7 34
REMARK SMILES IDX 8 35 3 38 4 39 2 40 1 41
REMARK H PARENT 19 10 28 25 6 36
REMARK Flexibility Score:   91.900
ROOT
ATOM      1  C   UNL     1      -4.500   0.497  12.858  1.00  0.00     0.183 C 
ENDROOT
BRANCH   1   2
ATOM      2  C   UNL     1      -5.011  -0.652  12.036  1.00  0.00     0.113 A 
ATOM      3  C   UNL     1      -5.347  -1.960  10.264  1.00  0.00     0.139 A 
ATOM      4  N   UNL     1      -4.612  -0.902  10.803  1.00  0.00    -0.234 NA
ATOM      5  C   UNL     1      -6.256  -2.528  11.136  1.00  0.00     0.101 A 
ATOM      6  S   UNL     1      -6.213  -1.715  12.647  1.00  0.00    -0.125 S 
BRANCH   3   7
ATOM      7  C   UNL     1      -5.149  -2.354   8.867  1.00  0.00     0.271 C 
ATOM      8  N   UNL     1      -3.825  -2.294   8.508  1.00  0.00    -0.341 N 
ATOM      9  O   UNL     1      -6.061  -2.664   8.112  1.00  0.00    -0.267 OA
ATOM     10  H   UNL     1      -3.177  -2.041   9.254  1.00  0.00     0.164 HD
BRANCH   8  11
ATOM     11  C   UNL     1      -3.340  -2.445   7.146  1.00  0.00     0.140 C 
BRANCH  11  12
ATOM     12  C   UNL     1      -2.519  -1.200   6.798  1.00  0.00     0.091 C 
ATOM     13  S   UNL     1      -0.783  -1.302   6.622  1.00  0.00    -0.106 SA
ATOM     14  C   UNL     1      -0.745   0.356   5.909  1.00  0.00     0.113 C 
ATOM     15  N   UNL     1      -3.061  -0.027   6.696  1.00  0.00    -0.267 NA
ATOM     16  C   UNL     1      -2.006   1.007   6.457  1.00  0.00     0.205 CG0
ATOM     17  G   UNL     1      -1.699   1.787   7.746  1.00  0.00     0.000 G0
ENDBRANCH  11  12
BRANCH  11  18
ATOM     18  C   UNL     1      -2.668  -3.814   6.864  1.00  0.00     0.015 C 
ATOM     19  C   UNL     1      -2.502  -4.606   8.168  1.00  0.00     0.010 C 
BRANCH  18  20
ATOM     20  C   UNL     1      -3.359  -4.659   5.775  1.00  0.00     0.002 C 
ATOM     21  C   UNL     1      -4.696  -4.078   5.330  1.00  0.00     0.004 C 
ENDBRANCH  18  20
ENDBRANCH  11  18
ENDBRANCH   8  11
ENDBRANCH   3   7
ENDBRANCH   1   2
BRANCH   1  22
ATOM     22  N   UNL     1      -4.567   1.683  12.034  1.00  0.00    -0.348 N 
ATOM     23  C   UNL     1      -4.641   2.962  12.514  1.00  0.00     0.249 C 
ATOM     24  O   UNL     1      -4.571   3.238  13.706  1.00  0.00    -0.272 OA
ATOM     25  H   UNL     1      -4.652   1.567  11.025  1.00  0.00     0.163 HD
BRANCH  23  26
ATOM     26  C   UNL     1      -4.757   4.011  11.397  1.00  0.00     0.238 C 
ATOM     27  N   UNL     1      -3.392   4.429  10.972  1.00  0.00    -0.236 NA
ATOM     28  C   UNL     1      -5.414   3.443  10.151  1.00  0.00     0.206 C 
ATOM     29  C   UNL     1      -3.287   3.933   9.776  1.00  0.00     0.208 C 
ATOM     30  O   UNL     1      -4.329   3.247   9.245  1.00  0.00    -0.474 OA
ATOM     31  C   UNL     1      -6.405   4.413   9.520  1.00  0.00     0.056 C 
BRANCH  29  32
ATOM     32  C   UNL     1      -2.055   3.991   8.877  1.00  0.00     0.171 C 
BRANCH  32  33
ATOM     33  N   UNL     1      -2.199   3.096   7.740  1.00  0.00    -0.342 N 
ATOM     34  C   UNL     1      -1.693   1.818   7.734  1.00  0.00     0.246 CG0
ATOM     35  O   UNL     1      -1.061   1.343   8.675  1.00  0.00    -0.273 OA
ATOM     36  H   UNL     1      -2.652   3.402   6.886  1.00  0.00     0.164 HD
ATOM     37  G   UNL     1      -2.004   1.015   6.461  1.00  0.00     0.000 G0
ENDBRANCH  32  33
BRANCH  32  38
ATOM     38  C   UNL     1      -1.763   5.454   8.450  1.00  0.00     0.017 C 
ATOM     39  C   UNL     1      -0.374   5.548   7.807  1.00  0.00     0.010 C 
BRANCH  38  40
ATOM     40  C   UNL     1      -2.857   6.041   7.528  1.00  0.00     0.002 C 
ATOM     41  C   UNL     1      -2.359   6.376   6.128  1.00  0.00     0.004 C 
ENDBRANCH  38  40
ENDBRANCH  32  38
ENDBRANCH  29  32
ENDBRANCH  23  26
ENDBRANCH   1  22
TORSDOF 4
ENDMDL
MODEL 9
REMARK VINA RESULT:    -5.640      2.911      6.006
REMARK INTER + INTRA:         -11.411
REMARK INTER:                 -10.187
REMARK INTRA:                  -1.225
REMARK UNBOUND:                -1.815
REMARK SMILES CC[C@H](C)[C@@H]1NC(=O)[C@H]2CSC(=N2)[C@@H]([C@@H](C)CC)NC(=O)c2csc(n2)CNC(=O)[C@H]2N=C1O[C@@H]2C
REMARK SMILES IDX 27 1 25 2 22 3 26 4 23 5 24 6 20 7 19 8 21 9 14 11 12 12
REMARK SMILES IDX 11 13 10 14 13 15 9 16 15 18 16 19 17 20 18 21 28 22 29 23
REMARK SMILES IDX 30 24 31 26 32 27 35 28 33 29 34 30 36 31 5 32 6 33 7 34
REMARK SMILES IDX 8 35 3 38 4 39 2 40 1 41
REMARK H PARENT 19 10 28 25 6 36
REMARK Flexibility Score:   91.900
ROOT
ATOM      1  C   UNL     1      -5.974   2.208  11.354  1.00  0.00     0.183 C 
ENDROOT
BRANCH   1   2
ATOM      2  C   UNL     1      -6.599   1.344  10.296  1.00  0.00     0.113 A 
ATOM      3  C   UNL     1      -6.780   0.111   8.449  1.00  0.00     0.139 A 
ATOM      4  N   UNL     1      -5.913   0.744   9.341  1.00  0.00    -0.234 NA
ATOM      5  C   UNL     1      -8.116   0.201   8.788  1.00  0.00     0.101 A 
ATOM      6  S   UNL     1      -8.299   1.112  10.232  1.00  0.00    -0.125 S 
BRANCH   3   7
ATOM      7  C   UNL     1      -6.250  -0.539   7.249  1.00  0.00     0.271 C 
ATOM      8  N   UNL     1      -5.028  -1.120   7.486  1.00  0.00    -0.341 N 
ATOM      9  O   UNL     1      -6.817  -0.531   6.163  1.00  0.00    -0.267 OA
ATOM     10  H   UNL     1      -4.693  -1.065   8.447  1.00  0.00     0.164 HD
BRANCH   8  11
ATOM     11  C   UNL     1      -4.173  -1.676   6.450  1.00  0.00     0.140 C 
BRANCH  11  12
ATOM     12  C   UNL     1      -2.828  -0.945   6.509  1.00  0.00     0.091 C 
ATOM     13  S   UNL     1      -1.378  -1.791   6.996  1.00  0.00    -0.106 SA
ATOM     14  C   UNL     1      -0.367  -0.401   6.445  1.00  0.00     0.113 C 
ATOM     15  N   UNL     1      -2.727   0.326   6.277  1.00  0.00    -0.267 NA
ATOM     16  C   UNL     1      -1.321   0.781   6.512  1.00  0.00     0.205 CG0
ATOM     17  G   UNL     1      -1.197   1.503   7.864  1.00  0.00     0.000 G0
ENDBRANCH  11  12
BRANCH  11  18
ATOM     18  C   UNL     1      -4.115  -3.225   6.444  1.00  0.00     0.015 C 
ATOM     19  C   UNL     1      -4.891  -3.794   7.639  1.00  0.00     0.010 C 
BRANCH  18  20
ATOM     20  C   UNL     1      -4.558  -3.881   5.120  1.00  0.00     0.002 C 
ATOM     21  C   UNL     1      -3.604  -4.973   4.649  1.00  0.00     0.004 C 
ENDBRANCH  18  20
ENDBRANCH  11  18
ENDBRANCH   8  11
ENDBRANCH   3   7
ENDBRANCH   1   2
BRANCH   1  22
ATOM     22  N   UNL     1      -5.169   3.203  10.679  1.00  0.00    -0.348 N 
ATOM     23  C   UNL     1      -5.053   4.509  11.073  1.00  0.00     0.249 C 
ATOM     24  O   UNL     1      -5.560   4.950  12.098  1.00  0.00    -0.272 OA
ATOM     25  H   UNL     1      -4.720   2.949   9.801  1.00  0.00     0.163 HD
BRANCH  23  26
ATOM     26  C   UNL     1      -4.174   5.339  10.126  1.00  0.00     0.238 C 
ATOM     27  N   UNL     1      -2.742   5.002  10.364  1.00  0.00    -0.236 NA
ATOM     28  C   UNL     1      -4.433   5.005   8.668  1.00  0.00     0.206 C 
ATOM     29  C   UNL     1      -2.401   4.373   9.280  1.00  0.00     0.208 C 
ATOM     30  O   UNL     1      -3.313   4.206   8.291  1.00  0.00    -0.474 OA
ATOM     31  C   UNL     1      -4.468   6.242   7.781  1.00  0.00     0.056 C 
BRANCH  29  32
ATOM     32  C   UNL     1      -1.048   3.726   8.997  1.00  0.00     0.171 C 
BRANCH  32  33
ATOM     33  N   UNL     1      -1.112   2.882   7.814  1.00  0.00    -0.342 N 
ATOM     34  C   UNL     1      -1.211   1.513   7.885  1.00  0.00     0.246 CG0
ATOM     35  O   UNL     1      -1.226   0.896   8.948  1.00  0.00    -0.273 OA
ATOM     36  H   UNL     1      -1.048   3.279   6.883  1.00  0.00     0.164 HD
ATOM     37  G   UNL     1      -1.326   0.811   6.522  1.00  0.00     0.000 G0
ENDBRANCH  32  33
BRANCH  32  38
ATOM     38  C   UNL     1       0.060   4.807   8.897  1.00  0.00     0.017 C 
ATOM     39  C   UNL     1      -0.233   5.755   7.727  1.00  0.00     0.010 C 
BRANCH  38  40
ATOM     40  C   UNL     1       0.268   5.582  10.218  1.00  0.00     0.002 C 
ATOM     41  C   UNL     1       0.033   7.081  10.089  1.00  0.00     0.004 C 
ENDBRANCH  38  40
ENDBRANCH  32  38
ENDBRANCH  29  32
ENDBRANCH  23  26
ENDBRANCH   1  22
TORSDOF 4
ENDMDL
MODEL 10
REMARK VINA RESULT:    -5.638      3.789      6.280
REMARK INTER + INTRA:         -11.408
REMARK INTER:                  -9.942
REMARK INTRA:                  -1.466
REMARK UNBOUND:                -1.815
REMARK SMILES CC[C@H](C)[C@@H]1NC(=O)[C@H]2CSC(=N2)[C@@H]([C@@H](C)CC)NC(=O)c2csc(n2)CNC(=O)[C@H]2N=C1O[C@@H]2C
REMARK SMILES IDX 27 1 25 2 22 3 26 4 23 5 24 6 20 7 19 8 21 9 14 11 12 12
REMARK SMILES IDX 11 13 10 14 13 15 9 16 15 18 16 19 17 20 18 21 28 22 29 23
REMARK SMILES IDX 30 24 31 26 32 27 35 28 33 29 34 30 36 31 5 32 6 33 7 34
REMARK SMILES IDX 8 35 3 38 4 39 2 40 1 41
REMARK H PARENT 19 10 28 25 6 36
REMARK Flexibility Score:   91.900
ROOT
ATOM      1  C   UNL     1      -2.035  -0.512  10.926  1.00  0.00     0.183 C 
ENDROOT
BRANCH   1   2
ATOM      2  C   UNL     1      -3.345  -0.030  11.480  1.00  0.00     0.113 A 
ATOM      3  C   UNL     1      -5.389   0.856  11.526  1.00  0.00     0.139 A 
ATOM      4  N   UNL     1      -4.359   0.358  10.727  1.00  0.00    -0.234 NA
ATOM      5  C   UNL     1      -5.150   0.778  12.884  1.00  0.00     0.101 A 
ATOM      6  S   UNL     1      -3.602   0.093  13.172  1.00  0.00    -0.125 S 
BRANCH   3   7
ATOM      7  C   UNL     1      -6.581   1.439  10.906  1.00  0.00     0.271 C 
ATOM      8  N   UNL     1      -7.684   0.641  11.081  1.00  0.00    -0.341 N 
ATOM      9  O   UNL     1      -6.577   2.493  10.281  1.00  0.00    -0.267 OA
ATOM     10  H   UNL     1      -7.538  -0.196  11.645  1.00  0.00     0.164 HD
BRANCH   8  11
ATOM     11  C   UNL     1      -8.963   0.859  10.424  1.00  0.00     0.140 C 
BRANCH  11  12
ATOM     12  C   UNL     1      -8.971   0.044   9.128  1.00  0.00     0.091 C 
ATOM     13  S   UNL     1     -10.066  -1.304   8.934  1.00  0.00    -0.106 SA
ATOM     14  C   UNL     1      -9.680  -1.381   7.172  1.00  0.00     0.113 C 
ATOM     15  N   UNL     1      -8.129   0.272   8.169  1.00  0.00    -0.267 NA
ATOM     16  C   UNL     1      -8.302  -0.743   7.082  1.00  0.00     0.205 CG0
ATOM     17  G   UNL     1      -7.202  -1.814   7.152  1.00  0.00     0.000 G0
ENDBRANCH  11  12
BRANCH  11  18
ATOM     18  C   UNL     1     -10.189   0.681  11.357  1.00  0.00     0.015 C 
ATOM     19  C   UNL     1      -9.840  -0.249  12.527  1.00  0.00     0.010 C 
BRANCH  18  20
ATOM     20  C   UNL     1     -10.817   1.999  11.854  1.00  0.00     0.002 C 
ATOM     21  C   UNL     1      -9.829   2.885  12.603  1.00  0.00     0.004 C 
ENDBRANCH  18  20
ENDBRANCH  11  18
ENDBRANCH   8  11
ENDBRANCH   3   7
ENDBRANCH   1   2
BRANCH   1  22
ATOM     22  N   UNL     1      -2.175  -0.592   9.489  1.00  0.00    -0.348 N 
ATOM     23  C   UNL     1      -1.558  -1.521   8.696  1.00  0.00     0.249 C 
ATOM     24  O   UNL     1      -0.881  -2.441   9.141  1.00  0.00    -0.272 OA
ATOM     25  H   UNL     1      -2.700   0.140   9.012  1.00  0.00     0.163 HD
BRANCH  23  26
ATOM     26  C   UNL     1      -1.854  -1.319   7.202  1.00  0.00     0.238 C 
ATOM     27  N   UNL     1      -2.689  -2.450   6.710  1.00  0.00    -0.236 NA
ATOM     28  C   UNL     1      -2.676  -0.067   6.949  1.00  0.00     0.206 C 
ATOM     29  C   UNL     1      -3.838  -1.891   6.476  1.00  0.00     0.208 C 
ATOM     30  O   UNL     1      -3.989  -0.561   6.689  1.00  0.00    -0.474 OA
ATOM     31  C   UNL     1      -2.197   0.710   5.730  1.00  0.00     0.056 C 
BRANCH  29  32
ATOM     32  C   UNL     1      -5.111  -2.598   6.016  1.00  0.00     0.171 C 
BRANCH  32  33
ATOM     33  N   UNL     1      -6.261  -1.714   6.115  1.00  0.00    -0.342 N 
ATOM     34  C   UNL     1      -7.175  -1.799   7.138  1.00  0.00     0.246 CG0
ATOM     35  O   UNL     1      -7.107  -2.641   8.029  1.00  0.00    -0.273 OA
ATOM     36  H   UNL     1      -6.450  -1.017   5.402  1.00  0.00     0.164 HD
ATOM     37  G   UNL     1      -8.284  -0.734   7.091  1.00  0.00     0.000 G0
ENDBRANCH  32  33
BRANCH  32  38
ATOM     38  C   UNL     1      -4.925  -3.175   4.588  1.00  0.00     0.017 C 
ATOM     39  C   UNL     1      -4.279  -4.564   4.661  1.00  0.00     0.010 C 
BRANCH  38  40
ATOM     40  C   UNL     1      -6.239  -3.200   3.773  1.00  0.00     0.002 C 
ATOM     41  C   UNL     1      -6.229  -4.209   2.632  1.00  0.00     0.004 C 
ENDBRANCH  38  40
ENDBRANCH  32  38
ENDBRANCH  29  32
ENDBRANCH  23  26
ENDBRANCH   1  22
TORSDOF 4
ENDMDL
MODEL 11
REMARK VINA RESULT:    -5.597      2.916      6.330
REMARK INTER + INTRA:         -11.338
REMARK INTER:                  -9.833
REMARK INTRA:                  -1.505
REMARK UNBOUND:                -1.815
REMARK SMILES CC[C@H](C)[C@@H]1NC(=O)[C@H]2CSC(=N2)[C@@H]([C@@H](C)CC)NC(=O)c2csc(n2)CNC(=O)[C@H]2N=C1O[C@@H]2C
REMARK SMILES IDX 27 1 25 2 22 3 26 4 23 5 24 6 20 7 19 8 21 9 14 11 12 12
REMARK SMILES IDX 11 13 10 14 13 15 9 16 15 18 16 19 17 20 18 21 28 22 29 23
REMARK SMILES IDX 30 24 31 26 32 27 35 28 33 29 34 30 36 31 5 32 6 33 7 34
REMARK SMILES IDX 8 35 3 38 4 39 2 40 1 41
REMARK H PARENT 19 10 28 25 6 36
REMARK Flexibility Score:   91.900
ROOT
ATOM      1  C   UNL     1      -0.864   3.610   6.878  1.00  0.00     0.183 C 
ENDROOT
BRANCH   1   2
ATOM      2  C   UNL     1      -0.644   2.157   6.569  1.00  0.00     0.113 A 
ATOM      3  C   UNL     1      -1.047  -0.031   6.437  1.00  0.00     0.139 A 
ATOM      4  N   UNL     1      -1.582   1.235   6.682  1.00  0.00    -0.234 NA
ATOM      5  C   UNL     1       0.288  -0.028   6.082  1.00  0.00     0.101 A 
ATOM      6  S   UNL     1       0.896   1.578   6.078  1.00  0.00    -0.125 S 
BRANCH   3   7
ATOM      7  C   UNL     1      -1.880  -1.224   6.602  1.00  0.00     0.271 C 
ATOM      8  N   UNL     1      -3.216  -0.928   6.485  1.00  0.00    -0.341 N 
ATOM      9  O   UNL     1      -1.433  -2.337   6.848  1.00  0.00    -0.267 OA
ATOM     10  H   UNL     1      -3.434   0.041   6.255  1.00  0.00     0.164 HD
BRANCH   8  11
ATOM     11  C   UNL     1      -4.289  -1.862   6.783  1.00  0.00     0.140 C 
BRANCH  11  12
ATOM     12  C   UNL     1      -5.364  -1.107   7.569  1.00  0.00     0.091 C 
ATOM     13  S   UNL     1      -5.889   0.480   7.056  1.00  0.00    -0.106 SA
ATOM     14  C   UNL     1      -7.278   0.407   8.207  1.00  0.00     0.113 C 
ATOM     15  N   UNL     1      -5.867  -1.574   8.669  1.00  0.00    -0.267 NA
ATOM     16  C   UNL     1      -6.809  -0.577   9.268  1.00  0.00     0.205 CG0
ATOM     17  G   UNL     1      -6.150   0.163  10.443  1.00  0.00     0.000 G0
ENDBRANCH  11  12
BRANCH  11  18
ATOM     18  C   UNL     1      -4.775  -2.676   5.557  1.00  0.00     0.015 C 
ATOM     19  C   UNL     1      -4.647  -4.181   5.828  1.00  0.00     0.010 C 
BRANCH  18  20
ATOM     20  C   UNL     1      -6.189  -2.311   5.060  1.00  0.00     0.002 C 
ATOM     21  C   UNL     1      -6.660  -3.190   3.907  1.00  0.00     0.004 C 
ENDBRANCH  18  20
ENDBRANCH  11  18
ENDBRANCH   8  11
ENDBRANCH   3   7
ENDBRANCH   1   2
BRANCH   1  22
ATOM     22  N   UNL     1      -1.922   3.688   7.860  1.00  0.00    -0.348 N 
ATOM     23  C   UNL     1      -1.726   3.840   9.206  1.00  0.00     0.249 C 
ATOM     24  O   UNL     1      -0.622   4.012   9.710  1.00  0.00    -0.272 OA
ATOM     25  H   UNL     1      -2.881   3.536   7.552  1.00  0.00     0.163 HD
BRANCH  23  26
ATOM     26  C   UNL     1      -3.040   3.833  10.003  1.00  0.00     0.238 C 
ATOM     27  N   UNL     1      -3.670   2.488   9.899  1.00  0.00    -0.236 NA
ATOM     28  C   UNL     1      -2.806   4.059  11.487  1.00  0.00     0.206 C 
ATOM     29  C   UNL     1      -3.550   2.009  11.102  1.00  0.00     0.208 C 
ATOM     30  O   UNL     1      -2.965   2.765  12.064  1.00  0.00    -0.474 OA
ATOM     31  C   UNL     1      -3.834   4.997  12.104  1.00  0.00     0.056 C 
BRANCH  29  32
ATOM     32  C   UNL     1      -3.962   0.615  11.566  1.00  0.00     0.171 C 
BRANCH  32  33
ATOM     33  N   UNL     1      -4.780  -0.046  10.562  1.00  0.00    -0.342 N 
ATOM     34  C   UNL     1      -6.135   0.160  10.457  1.00  0.00     0.246 CG0
ATOM     35  O   UNL     1      -6.762   0.895  11.217  1.00  0.00    -0.273 OA
ATOM     36  H   UNL     1      -4.379  -0.720   9.918  1.00  0.00     0.164 HD
ATOM     37  G   UNL     1      -6.805  -0.587   9.293  1.00  0.00     0.000 G0
ENDBRANCH  32  33
BRANCH  32  38
ATOM     38  C   UNL     1      -2.713  -0.218  11.957  1.00  0.00     0.017 C 
ATOM     39  C   UNL     1      -2.953  -0.931  13.294  1.00  0.00     0.010 C 
BRANCH  38  40
ATOM     40  C   UNL     1      -2.279  -1.209  10.853  1.00  0.00     0.002 C 
ATOM     41  C   UNL     1      -2.650  -2.656  11.152  1.00  0.00     0.004 C 
ENDBRANCH  38  40
ENDBRANCH  32  38
ENDBRANCH  29  32
ENDBRANCH  23  26
ENDBRANCH   1  22
TORSDOF 4
ENDMDL
MODEL 12
REMARK VINA RESULT:    -5.586      2.519      6.103
REMARK INTER + INTRA:         -11.320
REMARK INTER:                  -9.641
REMARK INTRA:                  -1.678
REMARK UNBOUND:                -1.815
REMARK SMILES CC[C@H](C)[C@@H]1NC(=O)[C@H]2CSC(=N2)[C@@H]([C@@H](C)CC)NC(=O)c2csc(n2)CNC(=O)[C@H]2N=C1O[C@@H]2C
REMARK SMILES IDX 27 1 25 2 22 3 26 4 23 5 24 6 20 7 19 8 21 9 14 11 12 12
REMARK SMILES IDX 11 13 10 14 13 15 9 16 15 18 16 19 17 20 18 21 28 22 29 23
REMARK SMILES IDX 30 24 31 26 32 27 35 28 33 29 34 30 36 31 5 32 6 33 7 34
REMARK SMILES IDX 8 35 3 38 4 39 2 40 1 41
REMARK H PARENT 19 10 28 25 6 36
REMARK Flexibility Score:   91.900
ROOT
ATOM      1  C   UNL     1      -6.268  -1.484  12.407  1.00  0.00     0.183 C 
ENDROOT
BRANCH   1   2
ATOM      2  C   UNL     1      -6.722  -1.757  11.002  1.00  0.00     0.113 A 
ATOM      3  C   UNL     1      -6.690  -1.818   8.775  1.00  0.00     0.139 A 
ATOM      4  N   UNL     1      -5.954  -1.596   9.941  1.00  0.00    -0.234 NA
ATOM      5  C   UNL     1      -7.998  -2.203   8.989  1.00  0.00     0.101 A 
ATOM      6  S   UNL     1      -8.328  -2.266  10.672  1.00  0.00    -0.125 S 
BRANCH   3   7
ATOM      7  C   UNL     1      -6.071  -1.600   7.465  1.00  0.00     0.271 C 
ATOM      8  N   UNL     1      -4.920  -2.335   7.320  1.00  0.00    -0.341 N 
ATOM      9  O   UNL     1      -6.514  -0.828   6.624  1.00  0.00    -0.267 OA
ATOM     10  H   UNL     1      -4.690  -2.951   8.099  1.00  0.00     0.164 HD
BRANCH   8  11
ATOM     11  C   UNL     1      -3.991  -2.189   6.212  1.00  0.00     0.140 C 
BRANCH  11  12
ATOM     12  C   UNL     1      -2.706  -1.560   6.756  1.00  0.00     0.091 C 
ATOM     13  S   UNL     1      -2.046  -2.076   8.290  1.00  0.00    -0.106 SA
ATOM     14  C   UNL     1      -0.516  -1.180   7.948  1.00  0.00     0.113 C 
ATOM     15  N   UNL     1      -2.107  -0.584   6.147  1.00  0.00    -0.267 NA
ATOM     16  C   UNL     1      -0.947  -0.105   6.962  1.00  0.00     0.205 CG0
ATOM     17  G   UNL     1      -1.295   1.199   7.698  1.00  0.00     0.000 G0
ENDBRANCH  11  12
BRANCH  11  18
ATOM     18  C   UNL     1      -3.823  -3.471   5.357  1.00  0.00     0.015 C 
ATOM     19  C   UNL     1      -2.924  -4.482   6.081  1.00  0.00     0.010 C 
BRANCH  18  20
ATOM     20  C   UNL     1      -5.146  -4.120   4.900  1.00  0.00     0.002 C 
ATOM     21  C   UNL     1      -5.834  -3.344   3.783  1.00  0.00     0.004 C 
ENDBRANCH  18  20
ENDBRANCH  11  18
ENDBRANCH   8  11
ENDBRANCH   3   7
ENDBRANCH   1   2
BRANCH   1  22
ATOM     22  N   UNL     1      -5.335  -0.380  12.353  1.00  0.00    -0.348 N 
ATOM     23  C   UNL     1      -4.001  -0.472  12.644  1.00  0.00     0.249 C 
ATOM     24  O   UNL     1      -3.441  -1.532  12.901  1.00  0.00    -0.272 OA
ATOM     25  H   UNL     1      -5.700   0.554  12.170  1.00  0.00     0.163 HD
BRANCH  23  26
ATOM     26  C   UNL     1      -3.277   0.880  12.553  1.00  0.00     0.238 C 
ATOM     27  N   UNL     1      -2.550   0.961  11.256  1.00  0.00    -0.236 NA
ATOM     28  C   UNL     1      -4.250   2.046  12.547  1.00  0.00     0.206 C 
ATOM     29  C   UNL     1      -3.212   1.866  10.599  1.00  0.00     0.208 C 
ATOM     30  O   UNL     1      -4.275   2.470  11.185  1.00  0.00    -0.474 OA
ATOM     31  C   UNL     1      -3.775   3.208  13.409  1.00  0.00     0.056 C 
BRANCH  29  32
ATOM     32  C   UNL     1      -2.953   2.311   9.163  1.00  0.00     0.171 C 
BRANCH  32  33
ATOM     33  N   UNL     1      -2.489   1.198   8.349  1.00  0.00    -0.342 N 
ATOM     34  C   UNL     1      -1.277   1.209   7.701  1.00  0.00     0.246 CG0
ATOM     35  O   UNL     1      -0.506   2.164   7.737  1.00  0.00    -0.273 OA
ATOM     36  H   UNL     1      -3.070   0.380   8.201  1.00  0.00     0.164 HD
ATOM     37  G   UNL     1      -0.950  -0.088   6.943  1.00  0.00     0.000 G0
ENDBRANCH  32  33
BRANCH  32  38
ATOM     38  C   UNL     1      -4.213   2.996   8.571  1.00  0.00     0.017 C 
ATOM     39  C   UNL     1      -3.838   4.351   7.959  1.00  0.00     0.010 C 
BRANCH  38  40
ATOM     40  C   UNL     1      -4.965   2.102   7.559  1.00  0.00     0.002 C 
ATOM     41  C   UNL     1      -5.143   2.747   6.191  1.00  0.00     0.004 C 
ENDBRANCH  38  40
ENDBRANCH  32  38
ENDBRANCH  29  32
ENDBRANCH  23  26
ENDBRANCH   1  22
TORSDOF 4
ENDMDL
MODEL 13
REMARK VINA RESULT:    -5.542      2.332      5.985
REMARK INTER + INTRA:         -11.244
REMARK INTER:                  -9.673
REMARK INTRA:                  -1.571
REMARK UNBOUND:                -1.815
REMARK SMILES CC[C@H](C)[C@@H]1NC(=O)[C@H]2CSC(=N2)[C@@H]([C@@H](C)CC)NC(=O)c2csc(n2)CNC(=O)[C@H]2N=C1O[C@@H]2C
REMARK SMILES IDX 27 1 25 2 22 3 26 4 23 5 24 6 20 7 19 8 21 9 14 11 12 12
REMARK SMILES IDX 11 13 10 14 13 15 9 16 15 18 16 19 17 20 18 21 28 22 29 23
REMARK SMILES IDX 30 24 31 26 32 27 35 28 33 29 34 30 36 31 5 32 6 33 7 34
REMARK SMILES IDX 8 35 3 38 4 39 2 40 1 41
REMARK H PARENT 19 10 28 25 6 36
REMARK Flexibility Score:   91.900
ROOT
ATOM      1  C   UNL     1      -2.570  -1.959  10.951  1.00  0.00     0.183 C 
ENDROOT
BRANCH   1   2
ATOM      2  C   UNL     1      -1.925  -1.602   9.642  1.00  0.00     0.113 A 
ATOM      3  C   UNL     1      -1.448  -0.441   7.801  1.00  0.00     0.139 A 
ATOM      4  N   UNL     1      -2.070  -0.430   9.051  1.00  0.00    -0.234 NA
ATOM      5  C   UNL     1      -0.790  -1.617   7.499  1.00  0.00     0.101 A 
ATOM      6  S   UNL     1      -0.970  -2.741   8.784  1.00  0.00    -0.125 S 
BRANCH   3   7
ATOM      7  C   UNL     1      -1.561   0.721   6.917  1.00  0.00     0.271 C 
ATOM      8  N   UNL     1      -1.218   1.884   7.562  1.00  0.00    -0.341 N 
ATOM      9  O   UNL     1      -1.947   0.658   5.756  1.00  0.00    -0.267 OA
ATOM     10  H   UNL     1      -0.892   1.775   8.522  1.00  0.00     0.164 HD
BRANCH   8  11
ATOM     11  C   UNL     1      -1.407   3.214   7.006  1.00  0.00     0.140 C 
BRANCH  11  12
ATOM     12  C   UNL     1      -2.328   3.991   7.951  1.00  0.00     0.091 C 
ATOM     13  S   UNL     1      -2.109   3.895   9.682  1.00  0.00    -0.106 SA
ATOM     14  C   UNL     1      -3.250   5.275   9.916  1.00  0.00     0.113 C 
ATOM     15  N   UNL     1      -3.336   4.679   7.514  1.00  0.00    -0.267 NA
ATOM     16  C   UNL     1      -4.114   5.237   8.665  1.00  0.00     0.205 CG0
ATOM     17  G   UNL     1      -5.391   4.418   8.911  1.00  0.00     0.000 G0
ENDBRANCH  11  12
BRANCH  11  18
ATOM     18  C   UNL     1      -0.088   3.918   6.595  1.00  0.00     0.015 C 
ATOM     19  C   UNL     1       0.923   2.894   6.064  1.00  0.00     0.010 C 
BRANCH  18  20
ATOM     20  C   UNL     1      -0.265   5.096   5.615  1.00  0.00     0.002 C 
ATOM     21  C   UNL     1       0.104   6.442   6.229  1.00  0.00     0.004 C 
ENDBRANCH  18  20
ENDBRANCH  11  18
ENDBRANCH   8  11
ENDBRANCH   3   7
ENDBRANCH   1   2
BRANCH   1  22
ATOM     22  N   UNL     1      -3.430  -0.858  11.324  1.00  0.00    -0.348 N 
ATOM     23  C   UNL     1      -4.635  -0.991  11.958  1.00  0.00     0.249 C 
ATOM     24  O   UNL     1      -5.071  -2.066  12.355  1.00  0.00    -0.272 OA
ATOM     25  H   UNL     1      -3.173   0.081  11.023  1.00  0.00     0.163 HD
BRANCH  23  26
ATOM     26  C   UNL     1      -5.346   0.354  12.173  1.00  0.00     0.238 C 
ATOM     27  N   UNL     1      -5.005   1.274  11.052  1.00  0.00    -0.236 NA
ATOM     28  C   UNL     1      -6.858   0.210  12.136  1.00  0.00     0.206 C 
ATOM     29  C   UNL     1      -6.127   1.382  10.405  1.00  0.00     0.208 C 
ATOM     30  O   UNL     1      -7.224   0.726  10.857  1.00  0.00    -0.474 OA
ATOM     31  C   UNL     1      -7.550   1.039  13.210  1.00  0.00     0.056 C 
BRANCH  29  32
ATOM     32  C   UNL     1      -6.352   2.154   9.108  1.00  0.00     0.171 C 
BRANCH  32  33
ATOM     33  N   UNL     1      -5.258   3.079   8.858  1.00  0.00    -0.342 N 
ATOM     34  C   UNL     1      -5.415   4.444   8.906  1.00  0.00     0.246 CG0
ATOM     35  O   UNL     1      -6.493   4.986   9.138  1.00  0.00    -0.273 OA
ATOM     36  H   UNL     1      -4.336   2.743   8.599  1.00  0.00     0.164 HD
ATOM     37  G   UNL     1      -4.123   5.243   8.670  1.00  0.00     0.000 G0
ENDBRANCH  32  33
BRANCH  32  38
ATOM     38  C   UNL     1      -6.585   1.176   7.927  1.00  0.00     0.017 C 
ATOM     39  C   UNL     1      -6.763   1.960   6.620  1.00  0.00     0.010 C 
BRANCH  38  40
ATOM     40  C   UNL     1      -5.476   0.106   7.802  1.00  0.00     0.002 C 
ATOM     41  C   UNL     1      -5.254  -0.378   6.375  1.00  0.00     0.004 C 
ENDBRANCH  38  40
ENDBRANCH  32  38
ENDBRANCH  29  32
ENDBRANCH  23  26
ENDBRANCH   1  22
TORSDOF 4
ENDMDL
MODEL 14
REMARK VINA RESULT:    -5.540      2.622      6.690
REMARK INTER + INTRA:         -11.242
REMARK INTER:                  -9.640
REMARK INTRA:                  -1.602
REMARK UNBOUND:                -1.815
REMARK SMILES CC[C@H](C)[C@@H]1NC(=O)[C@H]2CSC(=N2)[C@@H]([C@@H](C)CC)NC(=O)c2csc(n2)CNC(=O)[C@H]2N=C1O[C@@H]2C
REMARK SMILES IDX 27 1 25 2 22 3 26 4 23 5 24 6 20 7 19 8 21 9 14 11 12 12
REMARK SMILES IDX 11 13 10 14 13 15 9 16 15 18 16 19 17 20 18 21 28 22 29 23
REMARK SMILES IDX 30 24 31 26 32 27 35 28 33 29 34 30 36 31 5 32 6 33 7 34
REMARK SMILES IDX 8 35 3 38 4 39 2 40 1 41
REMARK H PARENT 19 10 28 25 6 36
REMARK Flexibility Score:   91.900
ROOT
ATOM      1  C   UNL     1      -2.661  -1.375  11.727  1.00  0.00     0.183 C 
ENDROOT
BRANCH   1   2
ATOM      2  C   UNL     1      -2.236  -1.124  10.309  1.00  0.00     0.113 A 
ATOM      3  C   UNL     1      -1.917  -0.039   8.389  1.00  0.00     0.139 A 
ATOM      4  N   UNL     1      -2.258   0.066   9.738  1.00  0.00    -0.234 NA
ATOM      5  C   UNL     1      -1.585  -1.317   7.981  1.00  0.00     0.101 A 
ATOM      6  S   UNL     1      -1.723  -2.411   9.296  1.00  0.00    -0.125 S 
BRANCH   3   7
ATOM      7  C   UNL     1      -1.970   1.142   7.525  1.00  0.00     0.271 C 
ATOM      8  N   UNL     1      -1.135   2.135   7.974  1.00  0.00    -0.341 N 
ATOM      9  O   UNL     1      -2.697   1.236   6.544  1.00  0.00    -0.267 OA
ATOM     10  H   UNL     1      -0.572   1.902   8.792  1.00  0.00     0.164 HD
BRANCH   8  11
ATOM     11  C   UNL     1      -1.109   3.486   7.437  1.00  0.00     0.140 C 
BRANCH  11  12
ATOM     12  C   UNL     1      -1.489   4.448   8.566  1.00  0.00     0.091 C 
ATOM     13  S   UNL     1      -0.265   5.405   9.366  1.00  0.00    -0.106 SA
ATOM     14  C   UNL     1      -1.545   6.394  10.169  1.00  0.00     0.113 C 
ATOM     15  N   UNL     1      -2.701   4.533   9.017  1.00  0.00    -0.267 NA
ATOM     16  C   UNL     1      -2.751   5.469  10.184  1.00  0.00     0.205 CG0
ATOM     17  G   UNL     1      -2.822   4.691  11.508  1.00  0.00     0.000 G0
ENDBRANCH  11  12
BRANCH  11  18
ATOM     18  C   UNL     1       0.181   3.826   6.648  1.00  0.00     0.015 C 
ATOM     19  C   UNL     1       0.872   2.540   6.172  1.00  0.00     0.010 C 
BRANCH  18  20
ATOM     20  C   UNL     1      -0.017   4.821   5.487  1.00  0.00     0.002 C 
ATOM     21  C   UNL     1       0.434   6.236   5.833  1.00  0.00     0.004 C 
ENDBRANCH  18  20
ENDBRANCH  11  18
ENDBRANCH   8  11
ENDBRANCH   3   7
ENDBRANCH   1   2
BRANCH   1  22
ATOM     22  N   UNL     1      -3.719  -0.438  12.034  1.00  0.00    -0.348 N 
ATOM     23  C   UNL     1      -4.447  -0.436  13.192  1.00  0.00     0.249 C 
ATOM     24  O   UNL     1      -4.215  -1.187  14.134  1.00  0.00    -0.272 OA
ATOM     25  H   UNL     1      -4.010   0.218  11.310  1.00  0.00     0.163 HD
BRANCH  23  26
ATOM     26  C   UNL     1      -5.540   0.644  13.207  1.00  0.00     0.238 C 
ATOM     27  N   UNL     1      -5.078   1.798  14.028  1.00  0.00    -0.236 NA
ATOM     28  C   UNL     1      -5.800   1.209  11.821  1.00  0.00     0.206 C 
ATOM     29  C   UNL     1      -4.898   2.736  13.147  1.00  0.00     0.208 C 
ATOM     30  O   UNL     1      -5.160   2.484  11.841  1.00  0.00    -0.474 OA
ATOM     31  C   UNL     1      -7.283   1.413  11.542  1.00  0.00     0.056 C 
BRANCH  29  32
ATOM     32  C   UNL     1      -4.354   4.136  13.416  1.00  0.00     0.171 C 
BRANCH  32  33
ATOM     33  N   UNL     1      -4.048   4.823  12.171  1.00  0.00    -0.342 N 
ATOM     34  C   UNL     1      -2.839   4.694  11.531  1.00  0.00     0.246 CG0
ATOM     35  O   UNL     1      -1.917   4.013  11.972  1.00  0.00    -0.273 OA
ATOM     36  H   UNL     1      -4.715   5.458  11.746  1.00  0.00     0.164 HD
ATOM     37  G   UNL     1      -2.739   5.455  10.198  1.00  0.00     0.000 G0
ENDBRANCH  32  33
BRANCH  32  38
ATOM     38  C   UNL     1      -5.335   4.938  14.312  1.00  0.00     0.017 C 
ATOM     39  C   UNL     1      -4.939   6.419  14.332  1.00  0.00     0.010 C 
BRANCH  38  40
ATOM     40  C   UNL     1      -6.814   4.750  13.904  1.00  0.00     0.002 C 
ATOM     41  C   UNL     1      -7.342   5.855  12.999  1.00  0.00     0.004 C 
ENDBRANCH  38  40
ENDBRANCH  32  38
ENDBRANCH  29  32
ENDBRANCH  23  26
ENDBRANCH   1  22
TORSDOF 4
ENDMDL
MODEL 15
REMARK VINA RESULT:    -5.539      2.789      6.650
REMARK INTER + INTRA:         -11.240
REMARK INTER:                  -9.316
REMARK INTRA:                  -1.925
REMARK UNBOUND:                -1.815
REMARK SMILES CC[C@H](C)[C@@H]1NC(=O)[C@H]2CSC(=N2)[C@@H]([C@@H](C)CC)NC(=O)c2csc(n2)CNC(=O)[C@H]2N=C1O[C@@H]2C
REMARK SMILES IDX 27 1 25 2 22 3 26 4 23 5 24 6 20 7 19 8 21 9 14 11 12 12
REMARK SMILES IDX 11 13 10 14 13 15 9 16 15 18 16 19 17 20 18 21 28 22 29 23
REMARK SMILES IDX 30 24 31 26 32 27 35 28 33 29 34 30 36 31 5 32 6 33 7 34
REMARK SMILES IDX 8 35 3 38 4 39 2 40 1 41
REMARK H PARENT 19 10 28 25 6 36
REMARK Flexibility Score:   91.900
ROOT
ATOM      1  C   UNL     1      -6.488   3.906  11.533  1.00  0.00     0.183 C 
ENDROOT
BRANCH   1   2
ATOM      2  C   UNL     1      -4.997   3.867  11.704  1.00  0.00     0.113 A 
ATOM      3  C   UNL     1      -2.834   3.905  11.165  1.00  0.00     0.139 A 
ATOM      4  N   UNL     1      -4.142   4.137  10.734  1.00  0.00    -0.234 NA
ATOM      5  C   UNL     1      -2.728   3.516  12.486  1.00  0.00     0.101 A 
ATOM      6  S   UNL     1      -4.286   3.412  13.199  1.00  0.00    -0.125 S 
BRANCH   3   7
ATOM      7  C   UNL     1      -1.718   4.042  10.227  1.00  0.00     0.271 C 
ATOM      8  N   UNL     1      -2.065   3.631   8.964  1.00  0.00    -0.341 N 
ATOM      9  O   UNL     1      -0.606   4.443  10.547  1.00  0.00    -0.267 OA
ATOM     10  H   UNL     1      -3.037   3.345   8.845  1.00  0.00     0.164 HD
BRANCH   8  11
ATOM     11  C   UNL     1      -1.123   3.474   7.868  1.00  0.00     0.140 C 
BRANCH  11  12
ATOM     12  C   UNL     1      -0.900   1.975   7.652  1.00  0.00     0.091 C 
ATOM     13  S   UNL     1      -0.056   1.399   6.233  1.00  0.00    -0.106 SA
ATOM     14  C   UNL     1       0.059  -0.252   6.956  1.00  0.00     0.113 C 
ATOM     15  N   UNL     1      -1.385   1.085   8.460  1.00  0.00    -0.267 NA
ATOM     16  C   UNL     1      -1.100  -0.290   7.940  1.00  0.00     0.205 CG0
ATOM     17  G   UNL     1      -2.351  -0.897   7.283  1.00  0.00     0.000 G0
ENDBRANCH  11  12
BRANCH  11  18
ATOM     18  C   UNL     1      -1.477   4.307   6.609  1.00  0.00     0.015 C 
ATOM     19  C   UNL     1      -2.860   3.911   6.076  1.00  0.00     0.010 C 
BRANCH  18  20
ATOM     20  C   UNL     1      -1.360   5.834   6.792  1.00  0.00     0.002 C 
ATOM     21  C   UNL     1      -0.027   6.260   7.396  1.00  0.00     0.004 C 
ENDBRANCH  18  20
ENDBRANCH  11  18
ENDBRANCH   8  11
ENDBRANCH   3   7
ENDBRANCH   1   2
BRANCH   1  22
ATOM     22  N   UNL     1      -6.815   3.077  10.394  1.00  0.00    -0.348 N 
ATOM     23  C   UNL     1      -6.818   1.709  10.400  1.00  0.00     0.249 C 
ATOM     24  O   UNL     1      -6.624   1.041  11.410  1.00  0.00    -0.272 OA
ATOM     25  H   UNL     1      -6.972   3.530   9.494  1.00  0.00     0.163 HD
BRANCH  23  26
ATOM     26  C   UNL     1      -7.151   1.107   9.027  1.00  0.00     0.238 C 
ATOM     27  N   UNL     1      -5.885   0.785   8.312  1.00  0.00    -0.236 NA
ATOM     28  C   UNL     1      -7.896  -0.211   9.148  1.00  0.00     0.206 C 
ATOM     29  C   UNL     1      -5.876  -0.514   8.293  1.00  0.00     0.208 C 
ATOM     30  O   UNL     1      -6.909  -1.196   8.846  1.00  0.00    -0.474 OA
ATOM     31  C   UNL     1      -9.032  -0.335   8.141  1.00  0.00     0.056 C 
BRANCH  29  32
ATOM     32  C   UNL     1      -4.764  -1.403   7.743  1.00  0.00     0.171 C 
BRANCH  32  33
ATOM     33  N   UNL     1      -3.457  -0.916   8.156  1.00  0.00    -0.342 N 
ATOM     34  C   UNL     1      -2.372  -0.901   7.312  1.00  0.00     0.246 CG0
ATOM     35  O   UNL     1      -2.414  -1.319   6.158  1.00  0.00    -0.273 OA
ATOM     36  H   UNL     1      -3.291  -0.601   9.105  1.00  0.00     0.164 HD
ATOM     37  G   UNL     1      -1.099  -0.292   7.923  1.00  0.00     0.000 G0
ENDBRANCH  32  33
BRANCH  32  38
ATOM     38  C   UNL     1      -5.002  -2.882   8.147  1.00  0.00     0.017 C 
ATOM     39  C   UNL     1      -4.730  -3.805   6.952  1.00  0.00     0.010 C 
BRANCH  38  40
ATOM     40  C   UNL     1      -4.187  -3.306   9.390  1.00  0.00     0.002 C 
ATOM     41  C   UNL     1      -3.001  -4.205   9.064  1.00  0.00     0.004 C 
ENDBRANCH  38  40
ENDBRANCH  32  38
ENDBRANCH  29  32
ENDBRANCH  23  26
ENDBRANCH   1  22
TORSDOF 4
ENDMDL
MODEL 16
REMARK VINA RESULT:    -5.501      2.584      5.525
REMARK INTER + INTRA:         -11.175
REMARK INTER:                  -9.443
REMARK INTRA:                  -1.732
REMARK UNBOUND:                -1.815
REMARK SMILES CC[C@H](C)[C@@H]1NC(=O)[C@H]2CSC(=N2)[C@@H]([C@@H](C)CC)NC(=O)c2csc(n2)CNC(=O)[C@H]2N=C1O[C@@H]2C
REMARK SMILES IDX 27 1 25 2 22 3 26 4 23 5 24 6 20 7 19 8 21 9 14 11 12 12
REMARK SMILES IDX 11 13 10 14 13 15 9 16 15 18 16 19 17 20 18 21 28 22 29 23
REMARK SMILES IDX 30 24 31 26 32 27 35 28 33 29 34 30 36 31 5 32 6 33 7 34
REMARK SMILES IDX 8 35 3 38 4 39 2 40 1 41
REMARK H PARENT 19 10 28 25 6 36
REMARK Flexibility Score:   91.900
ROOT
ATOM      1  C   UNL     1      -3.052   5.927  10.064  1.00  0.00     0.183 C 
ENDROOT
BRANCH   1   2
ATOM      2  C   UNL     1      -4.146   4.943  10.366  1.00  0.00     0.113 A 
ATOM      3  C   UNL     1      -5.232   3.000  10.468  1.00  0.00     0.139 A 
ATOM      4  N   UNL     1      -4.015   3.637  10.221  1.00  0.00    -0.234 NA
ATOM      5  C   UNL     1      -6.253   3.846  10.855  1.00  0.00     0.101 A 
ATOM      6  S   UNL     1      -5.694   5.469  10.888  1.00  0.00    -0.125 S 
BRANCH   3   7
ATOM      7  C   UNL     1      -5.356   1.554  10.272  1.00  0.00     0.271 C 
ATOM      8  N   UNL     1      -4.168   0.908  10.510  1.00  0.00    -0.341 N 
ATOM      9  O   UNL     1      -6.386   1.002   9.906  1.00  0.00    -0.267 OA
ATOM     10  H   UNL     1      -3.402   1.498  10.831  1.00  0.00     0.164 HD
BRANCH   8  11
ATOM     11  C   UNL     1      -3.929  -0.497  10.220  1.00  0.00     0.140 C 
BRANCH  11  12
ATOM     12  C   UNL     1      -2.708  -0.585   9.300  1.00  0.00     0.091 C 
ATOM     13  S   UNL     1      -1.167   0.070   9.805  1.00  0.00    -0.106 SA
ATOM     14  C   UNL     1      -0.350  -0.752   8.421  1.00  0.00     0.113 C 
ATOM     15  N   UNL     1      -2.784  -1.074   8.102  1.00  0.00    -0.267 NA
ATOM     16  C   UNL     1      -1.467  -0.932   7.405  1.00  0.00     0.205 CG0
ATOM     17  G   UNL     1      -1.495   0.242   6.413  1.00  0.00     0.000 G0
ENDBRANCH  11  12
BRANCH  11  18
ATOM     18  C   UNL     1      -3.913  -1.406  11.475  1.00  0.00     0.015 C 
ATOM     19  C   UNL     1      -3.365  -2.795  11.123  1.00  0.00     0.010 C 
BRANCH  18  20
ATOM     20  C   UNL     1      -3.187  -0.806  12.697  1.00  0.00     0.002 C 
ATOM     21  C   UNL     1      -4.110  -0.591  13.891  1.00  0.00     0.004 C 
ENDBRANCH  18  20
ENDBRANCH  11  18
ENDBRANCH   8  11
ENDBRANCH   3   7
ENDBRANCH   1   2
BRANCH   1  22
ATOM     22  N   UNL     1      -2.394   5.486   8.855  1.00  0.00    -0.348 N 
ATOM     23  C   UNL     1      -1.075   5.134   8.769  1.00  0.00     0.249 C 
ATOM     24  O   UNL     1      -0.330   5.075   9.741  1.00  0.00    -0.272 OA
ATOM     25  H   UNL     1      -2.917   5.517   7.980  1.00  0.00     0.163 HD
BRANCH  23  26
ATOM     26  C   UNL     1      -0.650   4.762   7.340  1.00  0.00     0.238 C 
ATOM     27  N   UNL     1      -0.986   3.334   7.083  1.00  0.00    -0.236 NA
ATOM     28  C   UNL     1      -1.415   5.555   6.295  1.00  0.00     0.206 C 
ATOM     29  C   UNL     1      -1.950   3.407   6.215  1.00  0.00     0.208 C 
ATOM     30  O   UNL     1      -2.364   4.623   5.779  1.00  0.00    -0.474 OA
ATOM     31  C   UNL     1      -0.526   6.026   5.152  1.00  0.00     0.056 C 
BRANCH  29  32
ATOM     32  C   UNL     1      -2.740   2.235   5.640  1.00  0.00     0.171 C 
BRANCH  32  33
ATOM     33  N   UNL     1      -2.586   1.049   6.467  1.00  0.00    -0.342 N 
ATOM     34  C   UNL     1      -1.478   0.238   6.402  1.00  0.00     0.246 CG0
ATOM     35  O   UNL     1      -0.548   0.437   5.624  1.00  0.00    -0.273 OA
ATOM     36  H   UNL     1      -3.319   0.755   7.104  1.00  0.00     0.164 HD
ATOM     37  G   UNL     1      -1.483  -0.930   7.401  1.00  0.00     0.000 G0
ENDBRANCH  32  33
BRANCH  32  38
ATOM     38  C   UNL     1      -4.227   2.630   5.437  1.00  0.00     0.017 C 
ATOM     39  C   UNL     1      -4.746   2.064   4.110  1.00  0.00     0.010 C 
BRANCH  38  40
ATOM     40  C   UNL     1      -5.127   2.215   6.624  1.00  0.00     0.002 C 
ATOM     41  C   UNL     1      -6.385   1.468   6.202  1.00  0.00     0.004 C 
ENDBRANCH  38  40
ENDBRANCH  32  38
ENDBRANCH  29  32
ENDBRANCH  23  26
ENDBRANCH   1  22
TORSDOF 4
ENDMDL
MODEL 17
REMARK VINA RESULT:    -5.494      2.956      4.282
REMARK INTER + INTRA:         -11.164
REMARK INTER:                  -9.610
REMARK INTRA:                  -1.553
REMARK UNBOUND:                -1.815
REMARK SMILES CC[C@H](C)[C@@H]1NC(=O)[C@H]2CSC(=N2)[C@@H]([C@@H](C)CC)NC(=O)c2csc(n2)CNC(=O)[C@H]2N=C1O[C@@H]2C
REMARK SMILES IDX 27 1 25 2 22 3 26 4 23 5 24 6 20 7 19 8 21 9 14 11 12 12
REMARK SMILES IDX 11 13 10 14 13 15 9 16 15 18 16 19 17 20 18 21 28 22 29 23
REMARK SMILES IDX 30 24 31 26 32 27 35 28 33 29 34 30 36 31 5 32 6 33 7 34
REMARK SMILES IDX 8 35 3 38 4 39 2 40 1 41
REMARK H PARENT 19 10 28 25 6 36
REMARK Flexibility Score:   91.900
ROOT
ATOM      1  C   UNL     1      -1.394  -2.309   6.798  1.00  0.00     0.183 C 
ENDROOT
BRANCH   1   2
ATOM      2  C   UNL     1      -2.843  -2.703   6.813  1.00  0.00     0.113 A 
ATOM      3  C   UNL     1      -4.944  -2.895   7.530  1.00  0.00     0.139 A 
ATOM      4  N   UNL     1      -3.711  -2.266   7.707  1.00  0.00    -0.234 NA
ATOM      5  C   UNL     1      -4.996  -3.762   6.456  1.00  0.00     0.101 A 
ATOM      6  S   UNL     1      -3.473  -3.813   5.665  1.00  0.00    -0.125 S 
BRANCH   3   7
ATOM      7  C   UNL     1      -6.038  -2.642   8.471  1.00  0.00     0.271 C 
ATOM      8  N   UNL     1      -6.619  -1.417   8.254  1.00  0.00    -0.341 N 
ATOM      9  O   UNL     1      -6.364  -3.418   9.360  1.00  0.00    -0.267 OA
ATOM     10  H   UNL     1      -6.255  -0.892   7.459  1.00  0.00     0.164 HD
BRANCH   8  11
ATOM     11  C   UNL     1      -7.599  -0.809   9.138  1.00  0.00     0.140 C 
BRANCH  11  12
ATOM     12  C   UNL     1      -6.980   0.464   9.721  1.00  0.00     0.091 C 
ATOM     13  S   UNL     1      -7.992   1.810  10.189  1.00  0.00    -0.106 SA
ATOM     14  C   UNL     1      -6.595   2.587  11.027  1.00  0.00     0.113 C 
ATOM     15  N   UNL     1      -5.697   0.621   9.820  1.00  0.00    -0.267 NA
ATOM     16  C   UNL     1      -5.384   1.996  10.321  1.00  0.00     0.205 CG0
ATOM     17  G   UNL     1      -4.927   2.908   9.171  1.00  0.00     0.000 G0
ENDBRANCH  11  12
BRANCH  11  18
ATOM     18  C   UNL     1      -9.010  -0.665   8.512  1.00  0.00     0.015 C 
ATOM     19  C   UNL     1      -8.954  -0.931   7.002  1.00  0.00     0.010 C 
BRANCH  18  20
ATOM     20  C   UNL     1     -10.107  -1.508   9.192  1.00  0.00     0.002 C 
ATOM     21  C   UNL     1     -10.161  -1.308  10.703  1.00  0.00     0.004 C 
ENDBRANCH  18  20
ENDBRANCH  11  18
ENDBRANCH   8  11
ENDBRANCH   3   7
ENDBRANCH   1   2
BRANCH   1  22
ATOM     22  N   UNL     1      -1.323  -0.940   6.339  1.00  0.00    -0.348 N 
ATOM     23  C   UNL     1      -0.500   0.018   6.868  1.00  0.00     0.249 C 
ATOM     24  O   UNL     1       0.330  -0.216   7.739  1.00  0.00    -0.272 OA
ATOM     25  H   UNL     1      -1.987  -0.631   5.630  1.00  0.00     0.163 HD
BRANCH  23  26
ATOM     26  C   UNL     1      -0.688   1.393   6.210  1.00  0.00     0.238 C 
ATOM     27  N   UNL     1      -2.050   1.906   6.525  1.00  0.00    -0.236 NA
ATOM     28  C   UNL     1       0.275   2.427   6.768  1.00  0.00     0.206 C 
ATOM     29  C   UNL     1      -1.815   2.904   7.323  1.00  0.00     0.208 C 
ATOM     30  O   UNL     1      -0.535   3.223   7.633  1.00  0.00    -0.474 OA
ATOM     31  C   UNL     1       0.860   3.324   5.687  1.00  0.00     0.056 C 
BRANCH  29  32
ATOM     32  C   UNL     1      -2.861   3.767   8.025  1.00  0.00     0.171 C 
BRANCH  32  33
ATOM     33  N   UNL     1      -3.520   3.022   9.086  1.00  0.00    -0.342 N 
ATOM     34  C   UNL     1      -4.887   2.897   9.165  1.00  0.00     0.246 CG0
ATOM     35  O   UNL     1      -5.655   3.423   8.364  1.00  0.00    -0.273 OA
ATOM     36  H   UNL     1      -2.988   2.595   9.836  1.00  0.00     0.164 HD
ATOM     37  G   UNL     1      -5.381   2.021  10.328  1.00  0.00     0.000 G0
ENDBRANCH  32  33
BRANCH  32  38
ATOM     38  C   UNL     1      -2.223   5.087   8.533  1.00  0.00     0.017 C 
ATOM     39  C   UNL     1      -3.161   6.267   8.250  1.00  0.00     0.010 C 
BRANCH  38  40
ATOM     40  C   UNL     1      -1.817   5.026  10.023  1.00  0.00     0.002 C 
ATOM     41  C   UNL     1      -2.085   6.320  10.781  1.00  0.00     0.004 C 
ENDBRANCH  38  40
ENDBRANCH  32  38
ENDBRANCH  29  32
ENDBRANCH  23  26
ENDBRANCH   1  22
TORSDOF 4
ENDMDL
MODEL 18
REMARK VINA RESULT:    -5.476      2.956      5.648
REMARK INTER + INTRA:         -11.132
REMARK INTER:                  -9.491
REMARK INTRA:                  -1.641
REMARK UNBOUND:                -1.815
REMARK SMILES CC[C@H](C)[C@@H]1NC(=O)[C@H]2CSC(=N2)[C@@H]([C@@H](C)CC)NC(=O)c2csc(n2)CNC(=O)[C@H]2N=C1O[C@@H]2C
REMARK SMILES IDX 27 1 25 2 22 3 26 4 23 5 24 6 20 7 19 8 21 9 14 11 12 12
REMARK SMILES IDX 11 13 10 14 13 15 9 16 15 18 16 19 17 20 18 21 28 22 29 23
REMARK SMILES IDX 30 24 31 26 32 27 35 28 33 29 34 30 36 31 5 32 6 33 7 34
REMARK SMILES IDX 8 35 3 38 4 39 2 40 1 41
REMARK H PARENT 19 10 28 25 6 36
REMARK Flexibility Score:   91.900
ROOT
ATOM      1  C   UNL     1      -0.937  -1.302   6.869  1.00  0.00     0.183 C 
ENDROOT
BRANCH   1   2
ATOM      2  C   UNL     1      -1.250   0.129   7.200  1.00  0.00     0.113 A 
ATOM      3  C   UNL     1      -2.245   1.877   8.160  1.00  0.00     0.139 A 
ATOM      4  N   UNL     1      -2.066   0.493   8.173  1.00  0.00    -0.234 NA
ATOM      5  C   UNL     1      -1.503   2.541   7.202  1.00  0.00     0.101 A 
ATOM      6  S   UNL     1      -0.586   1.418   6.283  1.00  0.00    -0.125 S 
BRANCH   3   7
ATOM      7  C   UNL     1      -3.189   2.503   9.088  1.00  0.00     0.271 C 
ATOM      8  N   UNL     1      -3.296   1.792  10.257  1.00  0.00    -0.341 N 
ATOM      9  O   UNL     1      -3.826   3.517   8.830  1.00  0.00    -0.267 OA
ATOM     10  H   UNL     1      -2.685   0.980  10.337  1.00  0.00     0.164 HD
BRANCH   8  11
ATOM     11  C   UNL     1      -4.286   2.058  11.288  1.00  0.00     0.140 C 
BRANCH  11  12
ATOM     12  C   UNL     1      -5.037   0.753  11.566  1.00  0.00     0.091 C 
ATOM     13  S   UNL     1      -4.179  -0.768  11.632  1.00  0.00    -0.106 SA
ATOM     14  C   UNL     1      -5.639  -1.577  12.320  1.00  0.00     0.113 C 
ATOM     15  N   UNL     1      -6.327   0.716  11.688  1.00  0.00    -0.267 NA
ATOM     16  C   UNL     1      -6.788  -0.700  11.846  1.00  0.00     0.205 CG0
ATOM     17  G   UNL     1      -7.374  -1.236  10.530  1.00  0.00     0.000 G0
ENDBRANCH  11  12
BRANCH  11  18
ATOM     18  C   UNL     1      -3.724   2.806  12.524  1.00  0.00     0.015 C 
ATOM     19  C   UNL     1      -2.193   2.887  12.449  1.00  0.00     0.010 C 
BRANCH  18  20
ATOM     20  C   UNL     1      -4.349   4.193  12.777  1.00  0.00     0.002 C 
ATOM     21  C   UNL     1      -4.048   5.194  11.667  1.00  0.00     0.004 C 
ENDBRANCH  18  20
ENDBRANCH  11  18
ENDBRANCH   8  11
ENDBRANCH   3   7
ENDBRANCH   1   2
BRANCH   1  22
ATOM     22  N   UNL     1      -2.196  -1.999   6.728  1.00  0.00    -0.348 N 
ATOM     23  C   UNL     1      -2.572  -3.086   7.470  1.00  0.00     0.249 C 
ATOM     24  O   UNL     1      -1.905  -3.531   8.397  1.00  0.00    -0.272 OA
ATOM     25  H   UNL     1      -2.819  -1.725   5.970  1.00  0.00     0.163 HD
BRANCH  23  26
ATOM     26  C   UNL     1      -3.941  -3.645   7.055  1.00  0.00     0.238 C 
ATOM     27  N   UNL     1      -4.945  -3.314   8.103  1.00  0.00    -0.236 NA
ATOM     28  C   UNL     1      -4.456  -3.000   5.780  1.00  0.00     0.206 C 
ATOM     29  C   UNL     1      -5.711  -2.442   7.517  1.00  0.00     0.208 C 
ATOM     30  O   UNL     1      -5.460  -2.092   6.232  1.00  0.00    -0.474 OA
ATOM     31  C   UNL     1      -5.100  -4.005   4.834  1.00  0.00     0.056 C 
BRANCH  29  32
ATOM     32  C   UNL     1      -6.880  -1.695   8.152  1.00  0.00     0.171 C 
BRANCH  32  33
ATOM     33  N   UNL     1      -6.525  -1.196   9.471  1.00  0.00    -0.342 N 
ATOM     34  C   UNL     1      -7.397  -1.221  10.533  1.00  0.00     0.246 CG0
ATOM     35  O   UNL     1      -8.548  -1.640  10.444  1.00  0.00    -0.273 OA
ATOM     36  H   UNL     1      -5.619  -0.773   9.645  1.00  0.00     0.164 HD
ATOM     37  G   UNL     1      -6.807  -0.702  11.854  1.00  0.00     0.000 G0
ENDBRANCH  32  33
BRANCH  32  38
ATOM     38  C   UNL     1      -7.383  -0.571   7.207  1.00  0.00     0.017 C 
ATOM     39  C   UNL     1      -8.907  -0.653   7.054  1.00  0.00     0.010 C 
BRANCH  38  40
ATOM     40  C   UNL     1      -6.930   0.838   7.653  1.00  0.00     0.002 C 
ATOM     41  C   UNL     1      -7.044   1.890   6.557  1.00  0.00     0.004 C 
ENDBRANCH  38  40
ENDBRANCH  32  38
ENDBRANCH  29  32
ENDBRANCH  23  26
ENDBRANCH   1  22
TORSDOF 4
ENDMDL
MODEL 19
REMARK VINA RESULT:    -5.473      2.602      5.451
REMARK INTER + INTRA:         -11.127
REMARK INTER:                  -9.260
REMARK INTRA:                  -1.867
REMARK UNBOUND:                -1.815
REMARK SMILES CC[C@H](C)[C@@H]1NC(=O)[C@H]2CSC(=N2)[C@@H]([C@@H](C)CC)NC(=O)c2csc(n2)CNC(=O)[C@H]2N=C1O[C@@H]2C
REMARK SMILES IDX 27 1 25 2 22 3 26 4 23 5 24 6 20 7 19 8 21 9 14 11 12 12
REMARK SMILES IDX 11 13 10 14 13 15 9 16 15 18 16 19 17 20 18 21 28 22 29 23
REMARK SMILES IDX 30 24 31 26 32 27 35 28 33 29 34 30 36 31 5 32 6 33 7 34
REMARK SMILES IDX 8 35 3 38 4 39 2 40 1 41
REMARK H PARENT 19 10 28 25 6 36
REMARK Flexibility Score:   91.900
ROOT
ATOM      1  C   UNL     1      -0.053   0.366   5.876  1.00  0.00     0.183 C 
ENDROOT
BRANCH   1   2
ATOM      2  C   UNL     1      -0.461   1.661   6.519  1.00  0.00     0.113 A 
ATOM      3  C   UNL     1      -1.697   3.125   7.656  1.00  0.00     0.139 A 
ATOM      4  N   UNL     1      -1.513   1.786   7.307  1.00  0.00    -0.234 NA
ATOM      5  C   UNL     1      -0.732   3.982   7.164  1.00  0.00     0.101 A 
ATOM      6  S   UNL     1       0.412   3.110   6.229  1.00  0.00    -0.125 S 
BRANCH   3   7
ATOM      7  C   UNL     1      -2.864   3.523   8.446  1.00  0.00     0.271 C 
ATOM      8  N   UNL     1      -2.691   3.245   9.780  1.00  0.00    -0.341 N 
ATOM      9  O   UNL     1      -3.879   4.010   7.964  1.00  0.00    -0.267 OA
ATOM     10  H   UNL     1      -1.782   2.860  10.035  1.00  0.00     0.164 HD
BRANCH   8  11
ATOM     11  C   UNL     1      -3.740   3.353  10.780  1.00  0.00     0.140 C 
BRANCH  11  12
ATOM     12  C   UNL     1      -4.021   1.947  11.320  1.00  0.00     0.091 C 
ATOM     13  S   UNL     1      -2.706   0.909  11.820  1.00  0.00    -0.106 SA
ATOM     14  C   UNL     1      -3.879  -0.231  12.583  1.00  0.00     0.113 C 
ATOM     15  N   UNL     1      -5.218   1.452  11.357  1.00  0.00    -0.267 NA
ATOM     16  C   UNL     1      -5.172   0.032  11.828  1.00  0.00     0.205 CG0
ATOM     17  G   UNL     1      -5.321  -0.942  10.648  1.00  0.00     0.000 G0
ENDBRANCH  11  12
BRANCH  11  18
ATOM     18  C   UNL     1      -3.492   4.460  11.837  1.00  0.00     0.015 C 
ATOM     19  C   UNL     1      -3.588   5.848  11.190  1.00  0.00     0.010 C 
BRANCH  18  20
ATOM     20  C   UNL     1      -4.379   4.361  13.094  1.00  0.00     0.002 C 
ATOM     21  C   UNL     1      -5.611   5.257  13.025  1.00  0.00     0.004 C 
ENDBRANCH  18  20
ENDBRANCH  11  18
ENDBRANCH   8  11
ENDBRANCH   3   7
ENDBRANCH   1   2
BRANCH   1  22
ATOM     22  N   UNL     1      -0.890  -0.675   6.429  1.00  0.00    -0.348 N 
ATOM     23  C   UNL     1      -0.570  -1.435   7.520  1.00  0.00     0.249 C 
ATOM     24  O   UNL     1       0.434  -1.249   8.198  1.00  0.00    -0.272 OA
ATOM     25  H   UNL     1      -1.742  -0.928   5.929  1.00  0.00     0.163 HD
BRANCH  23  26
ATOM     26  C   UNL     1      -1.632  -2.499   7.837  1.00  0.00     0.238 C 
ATOM     27  N   UNL     1      -2.697  -1.893   8.684  1.00  0.00    -0.236 NA
ATOM     28  C   UNL     1      -2.339  -2.988   6.584  1.00  0.00     0.206 C 
ATOM     29  C   UNL     1      -3.725  -1.858   7.890  1.00  0.00     0.208 C 
ATOM     30  O   UNL     1      -3.610  -2.343   6.629  1.00  0.00    -0.474 OA
ATOM     31  C   UNL     1      -2.557  -4.495   6.587  1.00  0.00     0.056 C 
BRANCH  29  32
ATOM     32  C   UNL     1      -5.094  -1.262   8.208  1.00  0.00     0.171 C 
BRANCH  32  33
ATOM     33  N   UNL     1      -5.042  -0.461   9.421  1.00  0.00    -0.342 N 
ATOM     34  C   UNL     1      -5.346  -0.971  10.660  1.00  0.00     0.246 CG0
ATOM     35  O   UNL     1      -5.707  -2.132  10.837  1.00  0.00    -0.273 OA
ATOM     36  H   UNL     1      -4.813   0.527   9.387  1.00  0.00     0.164 HD
ATOM     37  G   UNL     1      -5.172   0.024  11.819  1.00  0.00     0.000 G0
ENDBRANCH  32  33
BRANCH  32  38
ATOM     38  C   UNL     1      -5.635  -0.466   6.992  1.00  0.00     0.017 C 
ATOM     39  C   UNL     1      -7.137  -0.727   6.818  1.00  0.00     0.010 C 
BRANCH  38  40
ATOM     40  C   UNL     1      -5.326   1.046   7.075  1.00  0.00     0.002 C 
ATOM     41  C   UNL     1      -4.967   1.669   5.733  1.00  0.00     0.004 C 
ENDBRANCH  38  40
ENDBRANCH  32  38
ENDBRANCH  29  32
ENDBRANCH  23  26
ENDBRANCH   1  22
TORSDOF 4
ENDMDL
MODEL 20
REMARK VINA RESULT:    -5.451      2.906      6.023
REMARK INTER + INTRA:         -11.090
REMARK INTER:                  -9.228
REMARK INTRA:                  -1.862
REMARK UNBOUND:                -1.815
REMARK SMILES CC[C@H](C)[C@@H]1NC(=O)[C@H]2CSC(=N2)[C@@H]([C@@H](C)CC)NC(=O)c2csc(n2)CNC(=O)[C@H]2N=C1O[C@@H]2C
REMARK SMILES IDX 27 1 25 2 22 3 26 4 23 5 24 6 20 7 19 8 21 9 14 11 12 12
REMARK SMILES IDX 11 13 10 14 13 15 9 16 15 18 16 19 17 20 18 21 28 22 29 23
REMARK SMILES IDX 30 24 31 26 32 27 35 28 33 29 34 30 36 31 5 32 6 33 7 34
REMARK SMILES IDX 8 35 3 38 4 39 2 40 1 41
REMARK H PARENT 19 10 28 25 6 36
REMARK Flexibility Score:   91.900
ROOT
ATOM      1  C   UNL     1      -2.048   3.900   6.026  1.00  0.00     0.183 C 
ENDROOT
BRANCH   1   2
ATOM      2  C   UNL     1      -1.241   2.660   6.282  1.00  0.00     0.113 A 
ATOM      3  C   UNL     1      -0.736   0.612   7.003  1.00  0.00     0.139 A 
ATOM      4  N   UNL     1      -1.750   1.544   6.770  1.00  0.00    -0.234 NA
ATOM      5  C   UNL     1       0.524   1.032   6.625  1.00  0.00     0.101 A 
ATOM      6  S   UNL     1       0.451   2.626   5.992  1.00  0.00    -0.125 S 
BRANCH   3   7
ATOM      7  C   UNL     1      -1.051  -0.669   7.638  1.00  0.00     0.271 C 
ATOM      8  N   UNL     1      -2.383  -0.763   7.956  1.00  0.00    -0.341 N 
ATOM      9  O   UNL     1      -0.215  -1.531   7.882  1.00  0.00    -0.267 OA
ATOM     10  H   UNL     1      -2.961   0.026   7.669  1.00  0.00     0.164 HD
BRANCH   8  11
ATOM     11  C   UNL     1      -2.959  -1.831   8.758  1.00  0.00     0.140 C 
BRANCH  11  12
ATOM     12  C   UNL     1      -3.431  -1.222  10.081  1.00  0.00     0.091 C 
ATOM     13  S   UNL     1      -4.795  -1.904  10.935  1.00  0.00    -0.106 SA
ATOM     14  C   UNL     1      -4.403  -0.905  12.387  1.00  0.00     0.113 C 
ATOM     15  N   UNL     1      -2.895  -0.150  10.574  1.00  0.00    -0.267 NA
ATOM     16  C   UNL     1      -3.628   0.270  11.810  1.00  0.00     0.205 CG0
ATOM     17  G   UNL     1      -4.569   1.450  11.516  1.00  0.00     0.000 G0
ENDBRANCH  11  12
BRANCH  11  18
ATOM     18  C   UNL     1      -3.986  -2.707   7.997  1.00  0.00     0.015 C 
ATOM     19  C   UNL     1      -4.432  -2.009   6.705  1.00  0.00     0.010 C 
BRANCH  18  20
ATOM     20  C   UNL     1      -3.524  -4.153   7.725  1.00  0.00     0.002 C 
ATOM     21  C   UNL     1      -2.317  -4.559   8.562  1.00  0.00     0.004 C 
ENDBRANCH  18  20
ENDBRANCH  11  18
ENDBRANCH   8  11
ENDBRANCH   3   7
ENDBRANCH   1   2
BRANCH   1  22
ATOM     22  N   UNL     1      -2.249   4.556   7.299  1.00  0.00    -0.348 N 
ATOM     23  C   UNL     1      -3.012   5.676   7.486  1.00  0.00     0.249 C 
ATOM     24  O   UNL     1      -3.677   6.194   6.596  1.00  0.00    -0.272 OA
ATOM     25  H   UNL     1      -1.724   4.220   8.105  1.00  0.00     0.163 HD
BRANCH  23  26
ATOM     26  C   UNL     1      -2.992   6.174   8.939  1.00  0.00     0.238 C 
ATOM     27  N   UNL     1      -4.219   5.701   9.638  1.00  0.00    -0.236 NA
ATOM     28  C   UNL     1      -1.828   5.593   9.723  1.00  0.00     0.206 C 
ATOM     29  C   UNL     1      -3.762   4.827  10.484  1.00  0.00     0.208 C 
ATOM     30  O   UNL     1      -2.428   4.590  10.542  1.00  0.00    -0.474 OA
ATOM     31  C   UNL     1      -1.159   6.621  10.625  1.00  0.00     0.056 C 
BRANCH  29  32
ATOM     32  C   UNL     1      -4.592   3.959  11.426  1.00  0.00     0.171 C 
BRANCH  32  33
ATOM     33  N   UNL     1      -3.923   2.696  11.694  1.00  0.00    -0.342 N 
ATOM     34  C   UNL     1      -4.542   1.480  11.530  1.00  0.00     0.246 CG0
ATOM     35  O   UNL     1      -5.711   1.367  11.170  1.00  0.00    -0.273 OA
ATOM     36  H   UNL     1      -2.974   2.671  12.052  1.00  0.00     0.164 HD
ATOM     37  G   UNL     1      -3.643   0.265  11.809  1.00  0.00     0.000 G0
ENDBRANCH  32  33
BRANCH  32  38
ATOM     38  C   UNL     1      -4.931   4.739  12.724  1.00  0.00     0.017 C 
ATOM     39  C   UNL     1      -6.431   5.060  12.768  1.00  0.00     0.010 C 
BRANCH  38  40
ATOM     40  C   UNL     1      -4.467   4.009  14.005  1.00  0.00     0.002 C 
ATOM     41  C   UNL     1      -4.462   4.895  15.244  1.00  0.00     0.004 C 
ENDBRANCH  38  40
ENDBRANCH  32  38
ENDBRANCH  29  32
ENDBRANCH  23  26
ENDBRANCH   1  22
TORSDOF 4
ENDMDL
MODEL 21
REMARK VINA RESULT:    -5.402      3.007      5.331
REMARK INTER + INTRA:         -11.007
REMARK INTER:                  -9.112
REMARK INTRA:                  -1.895
REMARK UNBOUND:                -1.815
REMARK SMILES CC[C@H](C)[C@@H]1NC(=O)[C@H]2CSC(=N2)[C@@H]([C@@H](C)CC)NC(=O)c2csc(n2)CNC(=O)[C@H]2N=C1O[C@@H]2C
REMARK SMILES IDX 27 1 25 2 22 3 26 4 23 5 24 6 20 7 19 8 21 9 14 11 12 12
REMARK SMILES IDX 11 13 10 14 13 15 9 16 15 18 16 19 17 20 18 21 28 22 29 23
REMARK SMILES IDX 30 24 31 26 32 27 35 28 33 29 34 30 36 31 5 32 6 33 7 34
REMARK SMILES IDX 8 35 3 38 4 39 2 40 1 41
REMARK H PARENT 19 10 28 25 6 36
REMARK Flexibility Score:   91.900
ROOT
ATOM      1  C   UNL     1      -7.631  -1.688   6.608  1.00  0.00     0.183 C 
ENDROOT
BRANCH   1   2
ATOM      2  C   UNL     1      -7.680  -1.240   8.041  1.00  0.00     0.113 A 
ATOM      3  C   UNL     1      -7.039  -0.284   9.949  1.00  0.00     0.139 A 
ATOM      4  N   UNL     1      -6.795  -0.422   8.581  1.00  0.00    -0.234 NA
ATOM      5  C   UNL     1      -8.150  -0.966  10.404  1.00  0.00     0.101 A 
ATOM      6  S   UNL     1      -8.894  -1.814   9.110  1.00  0.00    -0.125 S 
BRANCH   3   7
ATOM      7  C   UNL     1      -6.123   0.500  10.781  1.00  0.00     0.271 C 
ATOM      8  N   UNL     1      -5.144   1.101  10.029  1.00  0.00    -0.341 N 
ATOM      9  O   UNL     1      -6.208   0.575  12.001  1.00  0.00    -0.267 OA
ATOM     10  H   UNL     1      -5.218   0.965   9.021  1.00  0.00     0.164 HD
BRANCH   8  11
ATOM     11  C   UNL     1      -3.990   1.786  10.587  1.00  0.00     0.140 C 
BRANCH  11  12
ATOM     12  C   UNL     1      -2.771   1.424   9.733  1.00  0.00     0.091 C 
ATOM     13  S   UNL     1      -2.750   1.775   8.021  1.00  0.00    -0.106 SA
ATOM     14  C   UNL     1      -0.984   1.406   7.954  1.00  0.00     0.113 C 
ATOM     15  N   UNL     1      -1.755   0.787  10.224  1.00  0.00    -0.267 NA
ATOM     16  C   UNL     1      -0.770   0.478   9.139  1.00  0.00     0.205 CG0
ATOM     17  G   UNL     1      -0.877  -0.993   8.704  1.00  0.00     0.000 G0
ENDBRANCH  11  12
BRANCH  11  18
ATOM     18  C   UNL     1      -4.222   3.296  10.852  1.00  0.00     0.015 C 
ATOM     19  C   UNL     1      -2.965   4.101  10.495  1.00  0.00     0.010 C 
BRANCH  18  20
ATOM     20  C   UNL     1      -5.478   3.884  10.177  1.00  0.00     0.002 C 
ATOM     21  C   UNL     1      -5.157   4.699   8.929  1.00  0.00     0.004 C 
ENDBRANCH  18  20
ENDBRANCH  11  18
ENDBRANCH   8  11
ENDBRANCH   3   7
ENDBRANCH   1   2
BRANCH   1  22
ATOM     22  N   UNL     1      -6.318  -2.246   6.373  1.00  0.00    -0.348 N 
ATOM     23  C   UNL     1      -5.425  -1.774   5.450  1.00  0.00     0.249 C 
ATOM     24  O   UNL     1      -5.619  -0.766   4.780  1.00  0.00    -0.272 OA
ATOM     25  H   UNL     1      -6.061  -3.102   6.863  1.00  0.00     0.163 HD
BRANCH  23  26
ATOM     26  C   UNL     1      -4.135  -2.607   5.391  1.00  0.00     0.238 C 
ATOM     27  N   UNL     1      -3.165  -2.081   6.392  1.00  0.00    -0.236 NA
ATOM     28  C   UNL     1      -4.375  -4.056   5.779  1.00  0.00     0.206 C 
ATOM     29  C   UNL     1      -3.112  -3.028   7.280  1.00  0.00     0.208 C 
ATOM     30  O   UNL     1      -3.849  -4.151   7.102  1.00  0.00    -0.474 OA
ATOM     31  C   UNL     1      -3.622  -5.032   4.885  1.00  0.00     0.056 C 
BRANCH  29  32
ATOM     32  C   UNL     1      -2.321  -3.001   8.585  1.00  0.00     0.171 C 
BRANCH  32  33
ATOM     33  N   UNL     1      -2.037  -1.633   8.992  1.00  0.00    -0.342 N 
ATOM     34  C   UNL     1      -0.856  -1.000   8.690  1.00  0.00     0.246 CG0
ATOM     35  O   UNL     1       0.059  -1.545   8.077  1.00  0.00    -0.273 OA
ATOM     36  H   UNL     1      -2.698  -1.106   9.553  1.00  0.00     0.164 HD
ATOM     37  G   UNL     1      -0.778   0.462   9.159  1.00  0.00     0.000 G0
ENDBRANCH  32  33
BRANCH  32  38
ATOM     38  C   UNL     1      -3.060  -3.807   9.685  1.00  0.00     0.017 C 
ATOM     39  C   UNL     1      -2.087  -4.175  10.812  1.00  0.00     0.010 C 
BRANCH  38  40
ATOM     40  C   UNL     1      -4.311  -3.080  10.228  1.00  0.00     0.002 C 
ATOM     41  C   UNL     1      -5.615  -3.811   9.938  1.00  0.00     0.004 C 
ENDBRANCH  38  40
ENDBRANCH  32  38
ENDBRANCH  29  32
ENDBRANCH  23  26
ENDBRANCH   1  22
TORSDOF 4
ENDMDL
MODEL 22
REMARK VINA RESULT:    -5.395      2.344      3.246
REMARK INTER + INTRA:         -10.994
REMARK INTER:                  -9.681
REMARK INTRA:                  -1.313
REMARK UNBOUND:                -1.815
REMARK SMILES CC[C@H](C)[C@@H]1NC(=O)[C@H]2CSC(=N2)[C@@H]([C@@H](C)CC)NC(=O)c2csc(n2)CNC(=O)[C@H]2N=C1O[C@@H]2C
REMARK SMILES IDX 27 1 25 2 22 3 26 4 23 5 24 6 20 7 19 8 21 9 14 11 12 12
REMARK SMILES IDX 11 13 10 14 13 15 9 16 15 18 16 19 17 20 18 21 28 22 29 23
REMARK SMILES IDX 30 24 31 26 32 27 35 28 33 29 34 30 36 31 5 32 6 33 7 34
REMARK SMILES IDX 8 35 3 38 4 39 2 40 1 41
REMARK H PARENT 19 10 28 25 6 36
REMARK Flexibility Score:   91.900
ROOT
ATOM      1  C   UNL     1      -1.927  -2.665   7.687  1.00  0.00     0.183 C 
ENDROOT
BRANCH   1   2
ATOM      2  C   UNL     1      -2.253  -2.347   9.118  1.00  0.00     0.113 A 
ATOM      3  C   UNL     1      -2.731  -1.138  10.928  1.00  0.00     0.139 A 
ATOM      4  N   UNL     1      -2.607  -1.146   9.538  1.00  0.00    -0.234 NA
ATOM      5  C   UNL     1      -2.522  -2.365  11.528  1.00  0.00     0.101 A 
ATOM      6  S   UNL     1      -2.138  -3.545  10.342  1.00  0.00    -0.125 S 
BRANCH   3   7
ATOM      7  C   UNL     1      -3.021   0.113  11.632  1.00  0.00     0.271 C 
ATOM      8  N   UNL     1      -4.261   0.603  11.303  1.00  0.00    -0.341 N 
ATOM      9  O   UNL     1      -2.234   0.665  12.390  1.00  0.00    -0.267 OA
ATOM     10  H   UNL     1      -4.813   0.020  10.675  1.00  0.00     0.164 HD
BRANCH   8  11
ATOM     11  C   UNL     1      -4.751   1.915  11.693  1.00  0.00     0.140 C 
BRANCH  11  12
ATOM     12  C   UNL     1      -5.142   2.668  10.418  1.00  0.00     0.091 C 
ATOM     13  S   UNL     1      -5.767   1.804   9.033  1.00  0.00    -0.106 SA
ATOM     14  C   UNL     1      -6.259   3.363   8.267  1.00  0.00     0.113 C 
ATOM     15  N   UNL     1      -4.959   3.945  10.292  1.00  0.00    -0.267 NA
ATOM     16  C   UNL     1      -5.332   4.383   8.910  1.00  0.00     0.205 CG0
ATOM     17  G   UNL     1      -4.079   4.600   8.046  1.00  0.00     0.000 G0
ENDBRANCH  11  12
BRANCH  11  18
ATOM     18  C   UNL     1      -5.809   1.882  12.826  1.00  0.00     0.015 C 
ATOM     19  C   UNL     1      -5.622   0.631  13.695  1.00  0.00     0.010 C 
BRANCH  18  20
ATOM     20  C   UNL     1      -5.874   3.161  13.685  1.00  0.00     0.002 C 
ATOM     21  C   UNL     1      -7.135   3.981  13.437  1.00  0.00     0.004 C 
ENDBRANCH  18  20
ENDBRANCH  11  18
ENDBRANCH   8  11
ENDBRANCH   3   7
ENDBRANCH   1   2
BRANCH   1  22
ATOM     22  N   UNL     1      -1.480  -1.440   7.062  1.00  0.00    -0.348 N 
ATOM     23  C   UNL     1      -2.301  -0.533   6.449  1.00  0.00     0.249 C 
ATOM     24  O   UNL     1      -3.523  -0.629   6.442  1.00  0.00    -0.272 OA
ATOM     25  H   UNL     1      -0.477  -1.270   6.992  1.00  0.00     0.163 HD
BRANCH  23  26
ATOM     26  C   UNL     1      -1.531   0.642   5.828  1.00  0.00     0.238 C 
ATOM     27  N   UNL     1      -2.254   1.911   6.117  1.00  0.00    -0.236 NA
ATOM     28  C   UNL     1      -0.153   0.809   6.446  1.00  0.00     0.206 C 
ATOM     29  C   UNL     1      -1.466   2.520   6.952  1.00  0.00     0.208 C 
ATOM     30  O   UNL     1      -0.295   1.937   7.309  1.00  0.00    -0.474 OA
ATOM     31  C   UNL     1       0.918   1.123   5.410  1.00  0.00     0.056 C 
BRANCH  29  32
ATOM     32  C   UNL     1      -1.739   3.850   7.648  1.00  0.00     0.171 C 
BRANCH  32  33
ATOM     33  N   UNL     1      -3.004   3.811   8.365  1.00  0.00    -0.342 N 
ATOM     34  C   UNL     1      -4.066   4.620   8.039  1.00  0.00     0.246 CG0
ATOM     35  O   UNL     1      -4.021   5.454   7.138  1.00  0.00    -0.273 OA
ATOM     36  H   UNL     1      -3.134   3.202   9.166  1.00  0.00     0.164 HD
ATOM     37  G   UNL     1      -5.330   4.382   8.881  1.00  0.00     0.000 G0
ENDBRANCH  32  33
BRANCH  32  38
ATOM     38  C   UNL     1      -0.548   4.238   8.564  1.00  0.00     0.017 C 
ATOM     39  C   UNL     1      -0.030   5.633   8.192  1.00  0.00     0.010 C 
BRANCH  38  40
ATOM     40  C   UNL     1      -0.888   4.139  10.069  1.00  0.00     0.002 C 
ATOM     41  C   UNL     1      -0.992   5.492  10.760  1.00  0.00     0.004 C 
ENDBRANCH  38  40
ENDBRANCH  32  38
ENDBRANCH  29  32
ENDBRANCH  23  26
ENDBRANCH   1  22
TORSDOF 4
ENDMDL
MODEL 23
REMARK VINA RESULT:    -5.359      6.600      9.712
REMARK INTER + INTRA:         -10.933
REMARK INTER:                  -9.265
REMARK INTRA:                  -1.668
REMARK UNBOUND:                -1.815
REMARK SMILES CC[C@H](C)[C@@H]1NC(=O)[C@H]2CSC(=N2)[C@@H]([C@@H](C)CC)NC(=O)c2csc(n2)CNC(=O)[C@H]2N=C1O[C@@H]2C
REMARK SMILES IDX 27 1 25 2 22 3 26 4 23 5 24 6 20 7 19 8 21 9 14 11 12 12
REMARK SMILES IDX 11 13 10 14 13 15 9 16 15 18 16 19 17 20 18 21 28 22 29 23
REMARK SMILES IDX 30 24 31 26 32 27 35 28 33 29 34 30 36 31 5 32 6 33 7 34
REMARK SMILES IDX 8 35 3 38 4 39 2 40 1 41
REMARK H PARENT 19 10 28 25 6 36
REMARK Flexibility Score:   91.900
ROOT
ATOM      1  C   UNL     1      -6.800  10.375   7.344  1.00  0.00     0.183 C 
ENDROOT
BRANCH   1   2
ATOM      2  C   UNL     1      -5.678   9.604   6.710  1.00  0.00     0.113 A 
ATOM      3  C   UNL     1      -4.176   7.989   6.393  1.00  0.00     0.139 A 
ATOM      4  N   UNL     1      -5.316   8.393   7.090  1.00  0.00    -0.234 NA
ATOM      5  C   UNL     1      -3.732   8.894   5.449  1.00  0.00     0.101 A 
ATOM      6  S   UNL     1      -4.738  10.285   5.445  1.00  0.00    -0.125 S 
BRANCH   3   7
ATOM      7  C   UNL     1      -3.531   6.715   6.718  1.00  0.00     0.271 C 
ATOM      8  N   UNL     1      -4.279   5.981   7.607  1.00  0.00    -0.341 N 
ATOM      9  O   UNL     1      -2.443   6.370   6.275  1.00  0.00    -0.267 OA
ATOM     10  H   UNL     1      -5.176   6.389   7.869  1.00  0.00     0.164 HD
BRANCH   8  11
ATOM     11  C   UNL     1      -3.816   4.766   8.257  1.00  0.00     0.140 C 
BRANCH  11  12
ATOM     12  C   UNL     1      -4.152   4.874   9.747  1.00  0.00     0.091 C 
ATOM     13  S   UNL     1      -3.973   3.489  10.799  1.00  0.00    -0.106 SA
ATOM     14  C   UNL     1      -4.189   4.545  12.247  1.00  0.00     0.113 C 
ATOM     15  N   UNL     1      -4.645   5.955  10.264  1.00  0.00    -0.267 NA
ATOM     16  C   UNL     1      -4.972   5.732  11.707  1.00  0.00     0.205 CG0
ATOM     17  G   UNL     1      -6.482   5.520  11.901  1.00  0.00     0.000 G0
ENDBRANCH  11  12
BRANCH  11  18
ATOM     18  C   UNL     1      -4.256   3.463   7.543  1.00  0.00     0.015 C 
ATOM     19  C   UNL     1      -5.739   3.540   7.154  1.00  0.00     0.010 C 
BRANCH  18  20
ATOM     20  C   UNL     1      -3.379   3.058   6.341  1.00  0.00     0.002 C 
ATOM     21  C   UNL     1      -4.193   2.700   5.103  1.00  0.00     0.004 C 
ENDBRANCH  18  20
ENDBRANCH  11  18
ENDBRANCH   8  11
ENDBRANCH   3   7
ENDBRANCH   1   2
BRANCH   1  22
ATOM     22  N   UNL     1      -7.800   9.418   7.763  1.00  0.00    -0.348 N 
ATOM     23  C   UNL     1      -8.999   9.744   8.335  1.00  0.00     0.249 C 
ATOM     24  O   UNL     1      -9.386  10.899   8.474  1.00  0.00    -0.272 OA
ATOM     25  H   UNL     1      -7.572   8.426   7.712  1.00  0.00     0.163 HD
BRANCH  23  26
ATOM     26  C   UNL     1      -9.828   8.511   8.724  1.00  0.00     0.238 C 
ATOM     27  N   UNL     1      -8.935   7.496   9.349  1.00  0.00    -0.236 NA
ATOM     28  C   UNL     1     -10.873   8.837   9.777  1.00  0.00     0.206 C 
ATOM     29  C   UNL     1      -9.314   7.491  10.592  1.00  0.00     0.208 C 
ATOM     30  O   UNL     1     -10.328   8.301  10.982  1.00  0.00    -0.474 OA
ATOM     31  C   UNL     1     -12.209   8.160   9.504  1.00  0.00     0.056 C 
BRANCH  29  32
ATOM     32  C   UNL     1      -8.688   6.682  11.725  1.00  0.00     0.171 C 
BRANCH  32  33
ATOM     33  N   UNL     1      -7.238   6.661  11.609  1.00  0.00    -0.342 N 
ATOM     34  C   UNL     1      -6.486   5.555  11.923  1.00  0.00     0.246 CG0
ATOM     35  O   UNL     1      -6.974   4.511  12.348  1.00  0.00    -0.273 OA
ATOM     36  H   UNL     1      -6.723   7.487  11.324  1.00  0.00     0.164 HD
ATOM     37  G   UNL     1      -4.978   5.719  11.676  1.00  0.00     0.000 G0
ENDBRANCH  32  33
BRANCH  32  38
ATOM     38  C   UNL     1      -9.168   7.215  13.101  1.00  0.00     0.017 C 
ATOM     39  C   UNL     1     -10.058   6.172  13.788  1.00  0.00     0.010 C 
BRANCH  38  40
ATOM     40  C   UNL     1      -8.002   7.659  14.014  1.00  0.00     0.002 C 
ATOM     41  C   UNL     1      -8.387   8.747  15.008  1.00  0.00     0.004 C 
ENDBRANCH  38  40
ENDBRANCH  32  38
ENDBRANCH  29  32
ENDBRANCH  23  26
ENDBRANCH   1  22
TORSDOF 4
ENDMDL
MODEL 24
REMARK VINA RESULT:    -5.347      2.395      5.398
REMARK INTER + INTRA:         -10.914
REMARK INTER:                  -9.687
REMARK INTRA:                  -1.227
REMARK UNBOUND:                -1.815
REMARK SMILES CC[C@H](C)[C@@H]1NC(=O)[C@H]2CSC(=N2)[C@@H]([C@@H](C)CC)NC(=O)c2csc(n2)CNC(=O)[C@H]2N=C1O[C@@H]2C
REMARK SMILES IDX 27 1 25 2 22 3 26 4 23 5 24 6 20 7 19 8 21 9 14 11 12 12
REMARK SMILES IDX 11 13 10 14 13 15 9 16 15 18 16 19 17 20 18 21 28 22 29 23
REMARK SMILES IDX 30 24 31 26 32 27 35 28 33 29 34 30 36 31 5 32 6 33 7 34
REMARK SMILES IDX 8 35 3 38 4 39 2 40 1 41
REMARK H PARENT 19 10 28 25 6 36
REMARK Flexibility Score:   91.900
ROOT
ATOM      1  C   UNL     1       0.134   4.273   7.174  1.00  0.00     0.183 C 
ENDROOT
BRANCH   1   2
ATOM      2  C   UNL     1      -0.445   4.570   8.527  1.00  0.00     0.113 A 
ATOM      3  C   UNL     1      -1.604   4.280  10.408  1.00  0.00     0.139 A 
ATOM      4  N   UNL     1      -1.088   3.678   9.259  1.00  0.00    -0.234 NA
ATOM      5  C   UNL     1      -1.285   5.617  10.547  1.00  0.00     0.101 A 
ATOM      6  S   UNL     1      -0.345   6.142   9.210  1.00  0.00    -0.125 S 
BRANCH   3   7
ATOM      7  C   UNL     1      -2.444   3.507  11.326  1.00  0.00     0.271 C 
ATOM      8  N   UNL     1      -3.288   2.662  10.649  1.00  0.00    -0.341 N 
ATOM      9  O   UNL     1      -2.413   3.631  12.544  1.00  0.00    -0.267 OA
ATOM     10  H   UNL     1      -3.182   2.651   9.635  1.00  0.00     0.164 HD
BRANCH   8  11
ATOM     11  C   UNL     1      -4.363   1.908  11.274  1.00  0.00     0.140 C 
BRANCH  11  12
ATOM     12  C   UNL     1      -3.920   0.445  11.363  1.00  0.00     0.091 C 
ATOM     13  S   UNL     1      -2.462   0.010  12.223  1.00  0.00    -0.106 SA
ATOM     14  C   UNL     1      -2.918  -1.735  12.140  1.00  0.00     0.113 C 
ATOM     15  N   UNL     1      -4.557  -0.504  10.752  1.00  0.00    -0.267 NA
ATOM     16  C   UNL     1      -3.838  -1.804  10.931  1.00  0.00     0.205 CG0
ATOM     17  G   UNL     1      -3.045  -2.171   9.665  1.00  0.00     0.000 G0
ENDBRANCH  11  12
BRANCH  11  18
ATOM     18  C   UNL     1      -4.904   2.545  12.579  1.00  0.00     0.015 C 
ATOM     19  C   UNL     1      -6.083   3.478  12.271  1.00  0.00     0.010 C 
BRANCH  18  20
ATOM     20  C   UNL     1      -5.259   1.536  13.690  1.00  0.00     0.002 C 
ATOM     21  C   UNL     1      -6.752   1.485  13.993  1.00  0.00     0.004 C 
ENDBRANCH  18  20
ENDBRANCH  11  18
ENDBRANCH   8  11
ENDBRANCH   3   7
ENDBRANCH   1   2
BRANCH   1  22
ATOM     22  N   UNL     1      -0.742   3.321   6.528  1.00  0.00    -0.348 N 
ATOM     23  C   UNL     1      -0.447   1.999   6.331  1.00  0.00     0.249 C 
ATOM     24  O   UNL     1       0.568   1.465   6.765  1.00  0.00    -0.272 OA
ATOM     25  H   UNL     1      -1.605   3.664   6.109  1.00  0.00     0.163 HD
BRANCH  23  26
ATOM     26  C   UNL     1      -1.549   1.251   5.567  1.00  0.00     0.238 C 
ATOM     27  N   UNL     1      -1.440  -0.207   5.850  1.00  0.00    -0.236 NA
ATOM     28  C   UNL     1      -2.938   1.652   6.033  1.00  0.00     0.206 C 
ATOM     29  C   UNL     1      -2.498  -0.452   6.564  1.00  0.00     0.208 C 
ATOM     30  O   UNL     1      -3.365   0.554   6.836  1.00  0.00    -0.474 OA
ATOM     31  C   UNL     1      -3.916   1.820   4.878  1.00  0.00     0.056 C 
BRANCH  29  32
ATOM     32  C   UNL     1      -2.869  -1.787   7.202  1.00  0.00     0.171 C 
BRANCH  32  33
ATOM     33  N   UNL     1      -3.499  -1.586   8.498  1.00  0.00    -0.342 N 
ATOM     34  C   UNL     1      -3.060  -2.212   9.640  1.00  0.00     0.246 CG0
ATOM     35  O   UNL     1      -2.122  -3.006   9.651  1.00  0.00    -0.273 OA
ATOM     36  H   UNL     1      -4.318  -0.997   8.597  1.00  0.00     0.164 HD
ATOM     37  G   UNL     1      -3.823  -1.819  10.916  1.00  0.00     0.000 G0
ENDBRANCH  32  33
BRANCH  32  38
ATOM     38  C   UNL     1      -3.750  -2.624   6.237  1.00  0.00     0.017 C 
ATOM     39  C   UNL     1      -3.451  -4.119   6.414  1.00  0.00     0.010 C 
BRANCH  38  40
ATOM     40  C   UNL     1      -5.259  -2.324   6.385  1.00  0.00     0.002 C 
ATOM     41  C   UNL     1      -6.000  -2.257   5.056  1.00  0.00     0.004 C 
ENDBRANCH  38  40
ENDBRANCH  32  38
ENDBRANCH  29  32
ENDBRANCH  23  26
ENDBRANCH   1  22
TORSDOF 4
ENDMDL
MODEL 25
REMARK VINA RESULT:    -5.310      3.277      5.973
REMARK INTER + INTRA:         -10.850
REMARK INTER:                  -8.927
REMARK INTRA:                  -1.922
REMARK UNBOUND:                -1.815
REMARK SMILES CC[C@H](C)[C@@H]1NC(=O)[C@H]2CSC(=N2)[C@@H]([C@@H](C)CC)NC(=O)c2csc(n2)CNC(=O)[C@H]2N=C1O[C@@H]2C
REMARK SMILES IDX 27 1 25 2 22 3 26 4 23 5 24 6 20 7 19 8 21 9 14 11 12 12
REMARK SMILES IDX 11 13 10 14 13 15 9 16 15 18 16 19 17 20 18 21 28 22 29 23
REMARK SMILES IDX 30 24 31 26 32 27 35 28 33 29 34 30 36 31 5 32 6 33 7 34
REMARK SMILES IDX 8 35 3 38 4 39 2 40 1 41
REMARK H PARENT 19 10 28 25 6 36
REMARK Flexibility Score:   91.900
ROOT
ATOM      1  C   UNL     1      -1.327   1.108   8.143  1.00  0.00     0.183 C 
ENDROOT
BRANCH   1   2
ATOM      2  C   UNL     1      -2.245   2.207   8.594  1.00  0.00     0.113 A 
ATOM      3  C   UNL     1      -4.017   3.199   9.512  1.00  0.00     0.139 A 
ATOM      4  N   UNL     1      -3.303   2.009   9.359  1.00  0.00    -0.234 NA
ATOM      5  C   UNL     1      -3.442   4.294   8.898  1.00  0.00     0.101 A 
ATOM      6  S   UNL     1      -1.998   3.831   8.094  1.00  0.00    -0.125 S 
BRANCH   3   7
ATOM      7  C   UNL     1      -5.288   3.202  10.241  1.00  0.00     0.271 C 
ATOM      8  N   UNL     1      -5.258   2.344  11.312  1.00  0.00    -0.341 N 
ATOM      9  O   UNL     1      -6.261   3.866   9.907  1.00  0.00    -0.267 OA
ATOM     10  H   UNL     1      -4.368   1.876  11.478  1.00  0.00     0.164 HD
BRANCH   8  11
ATOM     11  C   UNL     1      -6.422   1.993  12.110  1.00  0.00     0.140 C 
BRANCH  11  12
ATOM     12  C   UNL     1      -6.590   0.472  12.050  1.00  0.00     0.091 C 
ATOM     13  S   UNL     1      -5.197  -0.580  12.142  1.00  0.00    -0.106 SA
ATOM     14  C   UNL     1      -6.276  -2.010  12.367  1.00  0.00     0.113 C 
ATOM     15  N   UNL     1      -7.745  -0.084  11.858  1.00  0.00    -0.267 NA
ATOM     16  C   UNL     1      -7.588  -1.568  11.738  1.00  0.00     0.205 CG0
ATOM     17  G   UNL     1      -7.663  -2.011  10.268  1.00  0.00     0.000 G0
ENDBRANCH  11  12
BRANCH  11  18
ATOM     18  C   UNL     1      -6.435   2.633  13.522  1.00  0.00     0.015 C 
ATOM     19  C   UNL     1      -5.053   3.206  13.862  1.00  0.00     0.010 C 
BRANCH  18  20
ATOM     20  C   UNL     1      -7.549   3.675  13.746  1.00  0.00     0.002 C 
ATOM     21  C   UNL     1      -8.923   3.183  13.306  1.00  0.00     0.004 C 
ENDBRANCH  18  20
ENDBRANCH  11  18
ENDBRANCH   8  11
ENDBRANCH   3   7
ENDBRANCH   1   2
BRANCH   1  22
ATOM     22  N   UNL     1      -2.106  -0.108   8.079  1.00  0.00    -0.348 N 
ATOM     23  C   UNL     1      -2.732  -0.575   6.956  1.00  0.00     0.249 C 
ATOM     24  O   UNL     1      -2.623  -0.045   5.856  1.00  0.00    -0.272 OA
ATOM     25  H   UNL     1      -2.280  -0.618   8.945  1.00  0.00     0.163 HD
BRANCH  23  26
ATOM     26  C   UNL     1      -3.531  -1.862   7.211  1.00  0.00     0.238 C 
ATOM     27  N   UNL     1      -4.628  -1.576   8.177  1.00  0.00    -0.236 NA
ATOM     28  C   UNL     1      -4.219  -2.364   5.952  1.00  0.00     0.206 C 
ATOM     29  C   UNL     1      -5.700  -1.679   7.450  1.00  0.00     0.208 C 
ATOM     30  O   UNL     1      -5.587  -2.005   6.139  1.00  0.00    -0.474 OA
ATOM     31  C   UNL     1      -4.129  -3.876   5.801  1.00  0.00     0.056 C 
BRANCH  29  32
ATOM     32  C   UNL     1      -7.132  -1.415   7.907  1.00  0.00     0.171 C 
BRANCH  32  33
ATOM     33  N   UNL     1      -7.178  -1.130   9.332  1.00  0.00    -0.342 N 
ATOM     34  C   UNL     1      -7.664  -2.029  10.252  1.00  0.00     0.246 CG0
ATOM     35  O   UNL     1      -8.118  -3.127   9.941  1.00  0.00    -0.273 OA
ATOM     36  H   UNL     1      -6.883  -0.231   9.697  1.00  0.00     0.164 HD
ATOM     37  G   UNL     1      -7.570  -1.559  11.713  1.00  0.00     0.000 G0
ENDBRANCH  32  33
BRANCH  32  38
ATOM     38  C   UNL     1      -7.774  -0.289   7.054  1.00  0.00     0.017 C 
ATOM     39  C   UNL     1      -9.304  -0.382   7.126  1.00  0.00     0.010 C 
BRANCH  38  40
ATOM     40  C   UNL     1      -7.271   1.121   7.440  1.00  0.00     0.002 C 
ATOM     41  C   UNL     1      -6.459   1.800   6.345  1.00  0.00     0.004 C 
ENDBRANCH  38  40
ENDBRANCH  32  38
ENDBRANCH  29  32
ENDBRANCH  23  26
ENDBRANCH   1  22
TORSDOF 4
ENDMDL
MODEL 26
REMARK VINA RESULT:    -5.309      2.584      5.974
REMARK INTER + INTRA:         -10.848
REMARK INTER:                  -9.530
REMARK INTRA:                  -1.318
REMARK UNBOUND:                -1.815
REMARK SMILES CC[C@H](C)[C@@H]1NC(=O)[C@H]2CSC(=N2)[C@@H]([C@@H](C)CC)NC(=O)c2csc(n2)CNC(=O)[C@H]2N=C1O[C@@H]2C
REMARK SMILES IDX 27 1 25 2 22 3 26 4 23 5 24 6 20 7 19 8 21 9 14 11 12 12
REMARK SMILES IDX 11 13 10 14 13 15 9 16 15 18 16 19 17 20 18 21 28 22 29 23
REMARK SMILES IDX 30 24 31 26 32 27 35 28 33 29 34 30 36 31 5 32 6 33 7 34
REMARK SMILES IDX 8 35 3 38 4 39 2 40 1 41
REMARK H PARENT 19 10 28 25 6 36
REMARK Flexibility Score:   91.900
ROOT
ATOM      1  C   UNL     1      -5.305   2.286  11.592  1.00  0.00     0.183 C 
ENDROOT
BRANCH   1   2
ATOM      2  C   UNL     1      -5.915   1.282  10.656  1.00  0.00     0.113 A 
ATOM      3  C   UNL     1      -6.120  -0.080   8.904  1.00  0.00     0.139 A 
ATOM      4  N   UNL     1      -5.258   0.717   9.660  1.00  0.00    -0.234 NA
ATOM      5  C   UNL     1      -7.412  -0.144   9.388  1.00  0.00     0.101 A 
ATOM      6  S   UNL     1      -7.564   0.826  10.797  1.00  0.00    -0.125 S 
BRANCH   3   7
ATOM      7  C   UNL     1      -5.636  -0.731   7.685  1.00  0.00     0.271 C 
ATOM      8  N   UNL     1      -4.343  -1.171   7.826  1.00  0.00    -0.341 N 
ATOM      9  O   UNL     1      -6.298  -0.835   6.660  1.00  0.00    -0.267 OA
ATOM     10  H   UNL     1      -3.929  -1.035   8.747  1.00  0.00     0.164 HD
BRANCH   8  11
ATOM     11  C   UNL     1      -3.532  -1.686   6.735  1.00  0.00     0.140 C 
BRANCH  11  12
ATOM     12  C   UNL     1      -2.165  -0.999   6.800  1.00  0.00     0.091 C 
ATOM     13  S   UNL     1      -1.195  -1.089   8.252  1.00  0.00    -0.106 SA
ATOM     14  C   UNL     1       0.223  -0.414   7.362  1.00  0.00     0.113 C 
ATOM     15  N   UNL     1      -1.713  -0.274   5.826  1.00  0.00    -0.267 NA
ATOM     16  C   UNL     1      -0.411   0.355   6.213  1.00  0.00     0.205 CG0
ATOM     17  G   UNL     1      -0.606   1.832   6.591  1.00  0.00     0.000 G0
ENDBRANCH  11  12
BRANCH  11  18
ATOM     18  C   UNL     1      -3.521  -3.233   6.633  1.00  0.00     0.015 C 
ATOM     19  C   UNL     1      -4.351  -3.849   7.767  1.00  0.00     0.010 C 
BRANCH  18  20
ATOM     20  C   UNL     1      -3.942  -3.792   5.259  1.00  0.00     0.002 C 
ATOM     21  C   UNL     1      -3.283  -5.128   4.932  1.00  0.00     0.004 C 
ENDBRANCH  18  20
ENDBRANCH  11  18
ENDBRANCH   8  11
ENDBRANCH   3   7
ENDBRANCH   1   2
BRANCH   1  22
ATOM     22  N   UNL     1      -3.990   2.608  11.084  1.00  0.00    -0.348 N 
ATOM     23  C   UNL     1      -3.023   3.272  11.788  1.00  0.00     0.249 C 
ATOM     24  O   UNL     1      -3.148   3.589  12.966  1.00  0.00    -0.272 OA
ATOM     25  H   UNL     1      -3.786   2.407  10.105  1.00  0.00     0.163 HD
BRANCH  23  26
ATOM     26  C   UNL     1      -1.750   3.518  10.965  1.00  0.00     0.238 C 
ATOM     27  N   UNL     1      -1.854   2.790   9.670  1.00  0.00    -0.236 NA
ATOM     28  C   UNL     1      -1.585   4.982  10.596  1.00  0.00     0.206 C 
ATOM     29  C   UNL     1      -1.971   3.747   8.799  1.00  0.00     0.208 C 
ATOM     30  O   UNL     1      -1.953   5.036   9.218  1.00  0.00    -0.474 OA
ATOM     31  C   UNL     1      -0.147   5.462  10.734  1.00  0.00     0.056 C 
BRANCH  29  32
ATOM     32  C   UNL     1      -2.187   3.582   7.297  1.00  0.00     0.171 C 
BRANCH  32  33
ATOM     33  N   UNL     1      -1.858   2.231   6.870  1.00  0.00    -0.342 N 
ATOM     34  C   UNL     1      -0.576   1.842   6.563  1.00  0.00     0.246 CG0
ATOM     35  O   UNL     1       0.383   2.609   6.599  1.00  0.00    -0.273 OA
ATOM     36  H   UNL     1      -2.580   1.529   6.748  1.00  0.00     0.164 HD
ATOM     37  G   UNL     1      -0.432   0.358   6.191  1.00  0.00     0.000 G0
ENDBRANCH  32  33
BRANCH  32  38
ATOM     38  C   UNL     1      -3.632   3.993   6.908  1.00  0.00     0.017 C 
ATOM     39  C   UNL     1      -3.600   5.209   5.974  1.00  0.00     0.010 C 
BRANCH  38  40
ATOM     40  C   UNL     1      -4.446   2.828   6.299  1.00  0.00     0.002 C 
ATOM     41  C   UNL     1      -4.415   2.794   4.777  1.00  0.00     0.004 C 
ENDBRANCH  38  40
ENDBRANCH  32  38
ENDBRANCH  29  32
ENDBRANCH  23  26
ENDBRANCH   1  22
TORSDOF 4
ENDMDL
MODEL 27
REMARK VINA RESULT:    -5.291      2.460      4.833
REMARK INTER + INTRA:         -10.817
REMARK INTER:                  -9.192
REMARK INTRA:                  -1.626
REMARK UNBOUND:                -1.815
REMARK SMILES CC[C@H](C)[C@@H]1NC(=O)[C@H]2CSC(=N2)[C@@H]([C@@H](C)CC)NC(=O)c2csc(n2)CNC(=O)[C@H]2N=C1O[C@@H]2C
REMARK SMILES IDX 27 1 25 2 22 3 26 4 23 5 24 6 20 7 19 8 21 9 14 11 12 12
REMARK SMILES IDX 11 13 10 14 13 15 9 16 15 18 16 19 17 20 18 21 28 22 29 23
REMARK SMILES IDX 30 24 31 26 32 27 35 28 33 29 34 30 36 31 5 32 6 33 7 34
REMARK SMILES IDX 8 35 3 38 4 39 2 40 1 41
REMARK H PARENT 19 10 28 25 6 36
REMARK Flexibility Score:   91.900
ROOT
ATOM      1  C   UNL     1      -7.797  -1.469   9.624  1.00  0.00     0.183 C 
ENDROOT
BRANCH   1   2
ATOM      2  C   UNL     1      -7.067  -0.662  10.660  1.00  0.00     0.113 A 
ATOM      3  C   UNL     1      -5.405   0.442  11.653  1.00  0.00     0.139 A 
ATOM      4  N   UNL     1      -5.862  -0.154  10.475  1.00  0.00    -0.234 NA
ATOM      5  C   UNL     1      -6.312   0.420  12.694  1.00  0.00     0.101 A 
ATOM      6  S   UNL     1      -7.751  -0.380  12.208  1.00  0.00    -0.125 S 
BRANCH   3   7
ATOM      7  C   UNL     1      -4.048   0.988  11.718  1.00  0.00     0.271 C 
ATOM      8  N   UNL     1      -3.932   2.144  10.987  1.00  0.00    -0.341 N 
ATOM      9  O   UNL     1      -3.128   0.454  12.325  1.00  0.00    -0.267 OA
ATOM     10  H   UNL     1      -4.792   2.481  10.555  1.00  0.00     0.164 HD
BRANCH   8  11
ATOM     11  C   UNL     1      -2.671   2.813  10.710  1.00  0.00     0.140 C 
BRANCH  11  12
ATOM     12  C   UNL     1      -2.454   2.795   9.194  1.00  0.00     0.091 C 
ATOM     13  S   UNL     1      -3.717   3.329   8.110  1.00  0.00    -0.106 SA
ATOM     14  C   UNL     1      -2.552   3.327   6.731  1.00  0.00     0.113 C 
ATOM     15  N   UNL     1      -1.371   2.322   8.661  1.00  0.00    -0.267 NA
ATOM     16  C   UNL     1      -1.485   2.336   7.168  1.00  0.00     0.205 CG0
ATOM     17  G   UNL     1      -1.796   0.930   6.629  1.00  0.00     0.000 G0
ENDBRANCH  11  12
BRANCH  11  18
ATOM     18  C   UNL     1      -2.518   4.186  11.412  1.00  0.00     0.015 C 
ATOM     19  C   UNL     1      -1.237   4.888  10.942  1.00  0.00     0.010 C 
BRANCH  18  20
ATOM     20  C   UNL     1      -3.745   5.113  11.290  1.00  0.00     0.002 C 
ATOM     21  C   UNL     1      -4.365   5.460  12.639  1.00  0.00     0.004 C 
ENDBRANCH  18  20
ENDBRANCH  11  18
ENDBRANCH   8  11
ENDBRANCH   3   7
ENDBRANCH   1   2
BRANCH   1  22
ATOM     22  N   UNL     1      -7.018  -1.417   8.407  1.00  0.00    -0.348 N 
ATOM     23  C   UNL     1      -7.354  -0.691   7.297  1.00  0.00     0.249 C 
ATOM     24  O   UNL     1      -8.318   0.064   7.254  1.00  0.00    -0.272 OA
ATOM     25  H   UNL     1      -6.204  -2.026   8.327  1.00  0.00     0.163 HD
BRANCH  23  26
ATOM     26  C   UNL     1      -6.360  -0.879   6.140  1.00  0.00     0.238 C 
ATOM     27  N   UNL     1      -5.054  -0.266   6.510  1.00  0.00    -0.236 NA
ATOM     28  C   UNL     1      -6.062  -2.345   5.879  1.00  0.00     0.206 C 
ATOM     29  C   UNL     1      -4.273  -1.295   6.653  1.00  0.00     0.208 C 
ATOM     30  O   UNL     1      -4.764  -2.540   6.438  1.00  0.00    -0.474 OA
ATOM     31  C   UNL     1      -6.006  -2.675   4.393  1.00  0.00     0.056 C 
BRANCH  29  32
ATOM     32  C   UNL     1      -2.815  -1.267   7.104  1.00  0.00     0.171 C 
BRANCH  32  33
ATOM     33  N   UNL     1      -2.412   0.080   7.476  1.00  0.00    -0.342 N 
ATOM     34  C   UNL     1      -1.774   0.930   6.604  1.00  0.00     0.246 CG0
ATOM     35  O   UNL     1      -1.474   0.610   5.456  1.00  0.00    -0.273 OA
ATOM     36  H   UNL     1      -2.557   0.430   8.417  1.00  0.00     0.164 HD
ATOM     37  G   UNL     1      -1.487   2.328   7.173  1.00  0.00     0.000 G0
ENDBRANCH  32  33
BRANCH  32  38
ATOM     38  C   UNL     1      -2.580  -2.294   8.243  1.00  0.00     0.017 C 
ATOM     39  C   UNL     1      -1.077  -2.478   8.485  1.00  0.00     0.010 C 
BRANCH  38  40
ATOM     40  C   UNL     1      -3.326  -1.929   9.547  1.00  0.00     0.002 C 
ATOM     41  C   UNL     1      -3.265  -3.018  10.610  1.00  0.00     0.004 C 
ENDBRANCH  38  40
ENDBRANCH  32  38
ENDBRANCH  29  32
ENDBRANCH  23  26
ENDBRANCH   1  22
TORSDOF 4
ENDMDL
MODEL 28
REMARK VINA RESULT:    -5.257      2.869      6.449
REMARK INTER + INTRA:         -10.759
REMARK INTER:                  -8.852
REMARK INTRA:                  -1.908
REMARK UNBOUND:                -1.815
REMARK SMILES CC[C@H](C)[C@@H]1NC(=O)[C@H]2CSC(=N2)[C@@H]([C@@H](C)CC)NC(=O)c2csc(n2)CNC(=O)[C@H]2N=C1O[C@@H]2C
REMARK SMILES IDX 27 1 25 2 22 3 26 4 23 5 24 6 20 7 19 8 21 9 14 11 12 12
REMARK SMILES IDX 11 13 10 14 13 15 9 16 15 18 16 19 17 20 18 21 28 22 29 23
REMARK SMILES IDX 30 24 31 26 32 27 35 28 33 29 34 30 36 31 5 32 6 33 7 34
REMARK SMILES IDX 8 35 3 38 4 39 2 40 1 41
REMARK H PARENT 19 10 28 25 6 36
REMARK Flexibility Score:   91.900
ROOT
ATOM      1  C   UNL     1      -1.297  -1.719   9.326  1.00  0.00     0.183 C 
ENDROOT
BRANCH   1   2
ATOM      2  C   UNL     1      -1.313  -0.589   8.337  1.00  0.00     0.113 A 
ATOM      3  C   UNL     1      -1.518   1.483   7.540  1.00  0.00     0.139 A 
ATOM      4  N   UNL     1      -1.415   0.682   8.680  1.00  0.00    -0.234 NA
ATOM      5  C   UNL     1      -1.431   0.793   6.347  1.00  0.00     0.101 A 
ATOM      6  S   UNL     1      -1.243  -0.887   6.647  1.00  0.00    -0.125 S 
BRANCH   3   7
ATOM      7  C   UNL     1      -1.741   2.924   7.674  1.00  0.00     0.271 C 
ATOM      8  N   UNL     1      -2.323   3.236   8.878  1.00  0.00    -0.341 N 
ATOM      9  O   UNL     1      -1.470   3.738   6.801  1.00  0.00    -0.267 OA
ATOM     10  H   UNL     1      -2.467   2.452   9.514  1.00  0.00     0.164 HD
BRANCH   8  11
ATOM     11  C   UNL     1      -2.833   4.553   9.223  1.00  0.00     0.140 C 
BRANCH  11  12
ATOM     12  C   UNL     1      -4.348   4.435   9.411  1.00  0.00     0.091 C 
ATOM     13  S   UNL     1      -5.219   5.616  10.361  1.00  0.00    -0.106 SA
ATOM     14  C   UNL     1      -6.790   4.962   9.758  1.00  0.00     0.113 C 
ATOM     15  N   UNL     1      -5.022   3.432   8.943  1.00  0.00    -0.267 NA
ATOM     16  C   UNL     1      -6.453   3.530   9.371  1.00  0.00     0.205 CG0
ATOM     17  G   UNL     1      -6.745   2.570  10.536  1.00  0.00     0.000 G0
ENDBRANCH  11  12
BRANCH  11  18
ATOM     18  C   UNL     1      -2.049   5.254  10.362  1.00  0.00     0.015 C 
ATOM     19  C   UNL     1      -1.278   4.222  11.195  1.00  0.00     0.010 C 
BRANCH  18  20
ATOM     20  C   UNL     1      -1.132   6.404   9.900  1.00  0.00     0.002 C 
ATOM     21  C   UNL     1      -0.038   5.945   8.942  1.00  0.00     0.004 C 
ENDBRANCH  18  20
ENDBRANCH  11  18
ENDBRANCH   8  11
ENDBRANCH   3   7
ENDBRANCH   1   2
BRANCH   1  22
ATOM     22  N   UNL     1      -2.672  -2.042   9.635  1.00  0.00    -0.348 N 
ATOM     23  C   UNL     1      -3.145  -2.311  10.891  1.00  0.00     0.249 C 
ATOM     24  O   UNL     1      -2.459  -2.221  11.902  1.00  0.00    -0.272 OA
ATOM     25  H   UNL     1      -3.326  -2.165   8.863  1.00  0.00     0.163 HD
BRANCH  23  26
ATOM     26  C   UNL     1      -4.637  -2.677  10.898  1.00  0.00     0.238 C 
ATOM     27  N   UNL     1      -5.380  -1.690  11.731  1.00  0.00    -0.236 NA
ATOM     28  C   UNL     1      -5.253  -2.584   9.512  1.00  0.00     0.206 C 
ATOM     29  C   UNL     1      -6.084  -1.033  10.858  1.00  0.00     0.208 C 
ATOM     30  O   UNL     1      -6.004  -1.371   9.547  1.00  0.00    -0.474 OA
ATOM     31  C   UNL     1      -6.203  -3.736   9.216  1.00  0.00     0.056 C 
BRANCH  29  32
ATOM     32  C   UNL     1      -6.992   0.160  11.141  1.00  0.00     0.171 C 
BRANCH  32  33
ATOM     33  N   UNL     1      -6.764   1.226  10.178  1.00  0.00    -0.342 N 
ATOM     34  C   UNL     1      -6.759   2.555  10.530  1.00  0.00     0.246 CG0
ATOM     35  O   UNL     1      -6.971   2.945  11.676  1.00  0.00    -0.273 OA
ATOM     36  H   UNL     1      -6.636   1.024   9.192  1.00  0.00     0.164 HD
ATOM     37  G   UNL     1      -6.440   3.519   9.376  1.00  0.00     0.000 G0
ENDBRANCH  32  33
BRANCH  32  38
ATOM     38  C   UNL     1      -8.476  -0.287  11.193  1.00  0.00     0.017 C 
ATOM     39  C   UNL     1      -9.213   0.461  12.311  1.00  0.00     0.010 C 
BRANCH  38  40
ATOM     40  C   UNL     1      -9.199  -0.136   9.834  1.00  0.00     0.002 C 
ATOM     41  C   UNL     1     -10.036  -1.349   9.451  1.00  0.00     0.004 C 
ENDBRANCH  38  40
ENDBRANCH  32  38
ENDBRANCH  29  32
ENDBRANCH  23  26
ENDBRANCH   1  22
TORSDOF 4
ENDMDL
MODEL 29
REMARK VINA RESULT:    -5.256      2.541      5.479
REMARK INTER + INTRA:         -10.759
REMARK INTER:                 -10.268
REMARK INTRA:                  -0.491
REMARK UNBOUND:                -1.815
REMARK SMILES CC[C@H](C)[C@@H]1NC(=O)[C@H]2CSC(=N2)[C@@H]([C@@H](C)CC)NC(=O)c2csc(n2)CNC(=O)[C@H]2N=C1O[C@@H]2C
REMARK SMILES IDX 27 1 25 2 22 3 26 4 23 5 24 6 20 7 19 8 21 9 14 11 12 12
REMARK SMILES IDX 11 13 10 14 13 15 9 16 15 18 16 19 17 20 18 21 28 22 29 23
REMARK SMILES IDX 30 24 31 26 32 27 35 28 33 29 34 30 36 31 5 32 6 33 7 34
REMARK SMILES IDX 8 35 3 38 4 39 2 40 1 41
REMARK H PARENT 19 10 28 25 6 36
REMARK Flexibility Score:   91.900
ROOT
ATOM      1  C   UNL     1      -4.432   2.639  12.974  1.00  0.00     0.183 C 
ENDROOT
BRANCH   1   2
ATOM      2  C   UNL     1      -4.025   1.249  12.577  1.00  0.00     0.113 A 
ATOM      3  C   UNL     1      -3.266  -0.419  11.309  1.00  0.00     0.139 A 
ATOM      4  N   UNL     1      -3.406   0.963  11.446  1.00  0.00    -0.234 NA
ATOM      5  C   UNL     1      -3.736  -1.151  12.382  1.00  0.00     0.101 A 
ATOM      6  S   UNL     1      -4.389  -0.101  13.573  1.00  0.00    -0.125 S 
BRANCH   3   7
ATOM      7  C   UNL     1      -2.695  -0.980  10.083  1.00  0.00     0.271 C 
ATOM      8  N   UNL     1      -3.465  -0.684   8.985  1.00  0.00    -0.341 N 
ATOM      9  O   UNL     1      -1.675  -1.657  10.054  1.00  0.00    -0.267 OA
ATOM     10  H   UNL     1      -4.275  -0.090   9.162  1.00  0.00     0.164 HD
BRANCH   8  11
ATOM     11  C   UNL     1      -3.260  -1.256   7.664  1.00  0.00     0.140 C 
BRANCH  11  12
ATOM     12  C   UNL     1      -2.129  -0.477   6.987  1.00  0.00     0.091 C 
ATOM     13  S   UNL     1      -0.462  -0.771   7.424  1.00  0.00    -0.106 SA
ATOM     14  C   UNL     1       0.095   0.193   6.003  1.00  0.00     0.113 C 
ATOM     15  N   UNL     1      -2.362   0.467   6.130  1.00  0.00    -0.267 NA
ATOM     16  C   UNL     1      -1.078   1.118   5.720  1.00  0.00     0.205 CG0
ATOM     17  G   UNL     1      -0.893   2.466   6.436  1.00  0.00     0.000 G0
ENDBRANCH  11  12
BRANCH  11  18
ATOM     18  C   UNL     1      -3.132  -2.801   7.659  1.00  0.00     0.015 C 
ATOM     19  C   UNL     1      -4.477  -3.450   8.010  1.00  0.00     0.010 C 
BRANCH  18  20
ATOM     20  C   UNL     1      -2.540  -3.394   6.364  1.00  0.00     0.002 C 
ATOM     21  C   UNL     1      -3.477  -4.384   5.681  1.00  0.00     0.004 C 
ENDBRANCH  18  20
ENDBRANCH  11  18
ENDBRANCH   8  11
ENDBRANCH   3   7
ENDBRANCH   1   2
BRANCH   1  22
ATOM     22  N   UNL     1      -4.594   3.406  11.759  1.00  0.00    -0.348 N 
ATOM     23  C   UNL     1      -3.671   4.286  11.263  1.00  0.00     0.249 C 
ATOM     24  O   UNL     1      -2.563   4.450  11.762  1.00  0.00    -0.272 OA
ATOM     25  H   UNL     1      -5.490   3.362  11.275  1.00  0.00     0.163 HD
BRANCH  23  26
ATOM     26  C   UNL     1      -4.149   4.994   9.987  1.00  0.00     0.238 C 
ATOM     27  N   UNL     1      -2.966   5.429   9.194  1.00  0.00    -0.236 NA
ATOM     28  C   UNL     1      -4.927   4.060   9.076  1.00  0.00     0.206 C 
ATOM     29  C   UNL     1      -3.005   4.656   8.150  1.00  0.00     0.208 C 
ATOM     30  O   UNL     1      -4.008   3.752   8.029  1.00  0.00    -0.474 OA
ATOM     31  C   UNL     1      -6.153   4.726   8.466  1.00  0.00     0.056 C 
BRANCH  29  32
ATOM     32  C   UNL     1      -1.981   4.609   7.020  1.00  0.00     0.171 C 
BRANCH  32  33
ATOM     33  N   UNL     1      -1.968   3.300   6.385  1.00  0.00    -0.342 N 
ATOM     34  C   UNL     1      -0.866   2.479   6.402  1.00  0.00     0.246 CG0
ATOM     35  O   UNL     1       0.197   2.796   6.930  1.00  0.00    -0.273 OA
ATOM     36  H   UNL     1      -2.773   2.960   5.869  1.00  0.00     0.164 HD
ATOM     37  G   UNL     1      -1.078   1.115   5.726  1.00  0.00     0.000 G0
ENDBRANCH  32  33
BRANCH  32  38
ATOM     38  C   UNL     1      -2.236   5.758   6.009  1.00  0.00     0.017 C 
ATOM     39  C   UNL     1      -3.420   6.615   6.473  1.00  0.00     0.010 C 
BRANCH  38  40
ATOM     40  C   UNL     1      -0.979   6.618   5.745  1.00  0.00     0.002 C 
ATOM     41  C   UNL     1       0.129   5.871   5.015  1.00  0.00     0.004 C 
ENDBRANCH  38  40
ENDBRANCH  32  38
ENDBRANCH  29  32
ENDBRANCH  23  26
ENDBRANCH   1  22
TORSDOF 4
ENDMDL
MODEL 30
REMARK VINA RESULT:    -5.255      3.072      5.158
REMARK INTER + INTRA:         -10.756
REMARK INTER:                 -10.116
REMARK INTRA:                  -0.641
REMARK UNBOUND:                -1.815
REMARK SMILES CC[C@H](C)[C@@H]1NC(=O)[C@H]2CSC(=N2)[C@@H]([C@@H](C)CC)NC(=O)c2csc(n2)CNC(=O)[C@H]2N=C1O[C@@H]2C
REMARK SMILES IDX 27 1 25 2 22 3 26 4 23 5 24 6 20 7 19 8 21 9 14 11 12 12
REMARK SMILES IDX 11 13 10 14 13 15 9 16 15 18 16 19 17 20 18 21 28 22 29 23
REMARK SMILES IDX 30 24 31 26 32 27 35 28 33 29 34 30 36 31 5 32 6 33 7 34
REMARK SMILES IDX 8 35 3 38 4 39 2 40 1 41
REMARK H PARENT 19 10 28 25 6 36
REMARK Flexibility Score:   91.900
ROOT
ATOM      1  C   UNL     1      -7.206   0.583   6.571  1.00  0.00     0.183 C 
ENDROOT
BRANCH   1   2
ATOM      2  C   UNL     1      -7.984  -0.290   7.513  1.00  0.00     0.113 A 
ATOM      3  C   UNL     1      -8.579  -1.304   9.406  1.00  0.00     0.139 A 
ATOM      4  N   UNL     1      -7.789  -0.314   8.818  1.00  0.00    -0.234 NA
ATOM      5  C   UNL     1      -9.406  -1.973   8.526  1.00  0.00     0.101 A 
ATOM      6  S   UNL     1      -9.179  -1.378   6.932  1.00  0.00    -0.125 S 
BRANCH   3   7
ATOM      7  C   UNL     1      -8.458  -1.584  10.839  1.00  0.00     0.271 C 
ATOM      8  N   UNL     1      -7.896  -0.529  11.515  1.00  0.00    -0.341 N 
ATOM      9  O   UNL     1      -8.788  -2.644  11.355  1.00  0.00    -0.267 OA
ATOM     10  H   UNL     1      -7.695   0.297  10.953  1.00  0.00     0.164 HD
BRANCH   8  11
ATOM     11  C   UNL     1      -7.479  -0.580  12.906  1.00  0.00     0.140 C 
BRANCH  11  12
ATOM     12  C   UNL     1      -5.956  -0.426  12.946  1.00  0.00     0.091 C 
ATOM     13  S   UNL     1      -5.181   0.937  12.173  1.00  0.00    -0.106 SA
ATOM     14  C   UNL     1      -3.622   0.529  12.988  1.00  0.00     0.113 C 
ATOM     15  N   UNL     1      -5.189  -1.323  13.481  1.00  0.00    -0.267 NA
ATOM     16  C   UNL     1      -3.752  -0.959  13.278  1.00  0.00     0.205 CG0
ATOM     17  G   UNL     1      -3.130  -1.790  12.143  1.00  0.00     0.000 G0
ENDBRANCH  11  12
BRANCH  11  18
ATOM     18  C   UNL     1      -8.290   0.353  13.841  1.00  0.00     0.015 C 
ATOM     19  C   UNL     1      -7.347   1.259  14.644  1.00  0.00     0.010 C 
BRANCH  18  20
ATOM     20  C   UNL     1      -9.393   1.170  13.138  1.00  0.00     0.002 C 
ATOM     21  C   UNL     1     -10.731   1.117  13.868  1.00  0.00     0.004 C 
ENDBRANCH  18  20
ENDBRANCH  11  18
ENDBRANCH   8  11
ENDBRANCH   3   7
ENDBRANCH   1   2
BRANCH   1  22
ATOM     22  N   UNL     1      -5.849   0.652   7.066  1.00  0.00    -0.348 N 
ATOM     23  C   UNL     1      -4.729   0.548   6.287  1.00  0.00     0.249 C 
ATOM     24  O   UNL     1      -4.765   0.468   5.065  1.00  0.00    -0.272 OA
ATOM     25  H   UNL     1      -5.703   0.696   8.074  1.00  0.00     0.163 HD
BRANCH  23  26
ATOM     26  C   UNL     1      -3.429   0.602   7.104  1.00  0.00     0.238 C 
ATOM     27  N   UNL     1      -3.692   0.098   8.480  1.00  0.00    -0.236 NA
ATOM     28  C   UNL     1      -2.360  -0.313   6.533  1.00  0.00     0.206 C 
ATOM     29  C   UNL     1      -3.047  -1.029   8.513  1.00  0.00     0.208 C 
ATOM     30  O   UNL     1      -2.349  -1.429   7.422  1.00  0.00    -0.474 OA
ATOM     31  C   UNL     1      -0.978   0.327   6.539  1.00  0.00     0.056 C 
BRANCH  29  32
ATOM     32  C   UNL     1      -3.023  -2.025   9.669  1.00  0.00     0.171 C 
BRANCH  32  33
ATOM     33  N   UNL     1      -3.539  -1.420  10.887  1.00  0.00    -0.342 N 
ATOM     34  C   UNL     1      -3.104  -1.785  12.138  1.00  0.00     0.246 CG0
ATOM     35  O   UNL     1      -2.268  -2.665  12.327  1.00  0.00    -0.273 OA
ATOM     36  H   UNL     1      -4.276  -0.723  10.854  1.00  0.00     0.164 HD
ATOM     37  G   UNL     1      -3.732  -0.983  13.290  1.00  0.00     0.000 G0
ENDBRANCH  32  33
BRANCH  32  38
ATOM     38  C   UNL     1      -3.780  -3.323   9.283  1.00  0.00     0.017 C 
ATOM     39  C   UNL     1      -4.866  -3.011   8.246  1.00  0.00     0.010 C 
BRANCH  38  40
ATOM     40  C   UNL     1      -2.838  -4.449   8.799  1.00  0.00     0.002 C 
ATOM     41  C   UNL     1      -2.722  -4.537   7.283  1.00  0.00     0.004 C 
ENDBRANCH  38  40
ENDBRANCH  32  38
ENDBRANCH  29  32
ENDBRANCH  23  26
ENDBRANCH   1  22
TORSDOF 4
ENDMDL
MODEL 31
REMARK VINA RESULT:    -5.253      3.369      6.668
REMARK INTER + INTRA:         -10.752
REMARK INTER:                  -9.133
REMARK INTRA:                  -1.619
REMARK UNBOUND:                -1.815
REMARK SMILES CC[C@H](C)[C@@H]1NC(=O)[C@H]2CSC(=N2)[C@@H]([C@@H](C)CC)NC(=O)c2csc(n2)CNC(=O)[C@H]2N=C1O[C@@H]2C
REMARK SMILES IDX 27 1 25 2 22 3 26 4 23 5 24 6 20 7 19 8 21 9 14 11 12 12
REMARK SMILES IDX 11 13 10 14 13 15 9 16 15 18 16 19 17 20 18 21 28 22 29 23
REMARK SMILES IDX 30 24 31 26 32 27 35 28 33 29 34 30 36 31 5 32 6 33 7 34
REMARK SMILES IDX 8 35 3 38 4 39 2 40 1 41
REMARK H PARENT 19 10 28 25 6 36
REMARK Flexibility Score:   91.900
ROOT
ATOM      1  C   UNL     1      -4.011  -2.961   9.283  1.00  0.00     0.183 C 
ENDROOT
BRANCH   1   2
ATOM      2  C   UNL     1      -3.151  -1.972   8.550  1.00  0.00     0.113 A 
ATOM      3  C   UNL     1      -2.567  -0.108   7.478  1.00  0.00     0.139 A 
ATOM      4  N   UNL     1      -3.535  -0.743   8.260  1.00  0.00    -0.234 NA
ATOM      5  C   UNL     1      -1.435  -0.863   7.243  1.00  0.00     0.101 A 
ATOM      6  S   UNL     1      -1.587  -2.403   7.987  1.00  0.00    -0.125 S 
BRANCH   3   7
ATOM      7  C   UNL     1      -2.818   1.235   6.950  1.00  0.00     0.271 C 
ATOM      8  N   UNL     1      -2.953   2.158   7.957  1.00  0.00    -0.341 N 
ATOM      9  O   UNL     1      -2.927   1.487   5.756  1.00  0.00    -0.267 OA
ATOM     10  H   UNL     1      -2.812   1.803   8.902  1.00  0.00     0.164 HD
BRANCH   8  11
ATOM     11  C   UNL     1      -3.389   3.530   7.755  1.00  0.00     0.140 C 
BRANCH  11  12
ATOM     12  C   UNL     1      -4.566   3.793   8.699  1.00  0.00     0.091 C 
ATOM     13  S   UNL     1      -4.310   4.579  10.239  1.00  0.00    -0.106 SA
ATOM     14  C   UNL     1      -6.091   4.789  10.442  1.00  0.00     0.113 C 
ATOM     15  N   UNL     1      -5.766   3.383   8.431  1.00  0.00    -0.267 NA
ATOM     16  C   UNL     1      -6.680   3.686   9.577  1.00  0.00     0.205 CG0
ATOM     17  G   UNL     1      -6.948   2.424  10.413  1.00  0.00     0.000 G0
ENDBRANCH  11  12
BRANCH  11  18
ATOM     18  C   UNL     1      -2.238   4.568   7.783  1.00  0.00     0.015 C 
ATOM     19  C   UNL     1      -0.942   3.945   7.246  1.00  0.00     0.010 C 
BRANCH  18  20
ATOM     20  C   UNL     1      -2.555   5.903   7.079  1.00  0.00     0.002 C 
ATOM     21  C   UNL     1      -1.701   6.139   5.838  1.00  0.00     0.004 C 
ENDBRANCH  18  20
ENDBRANCH  11  18
ENDBRANCH   8  11
ENDBRANCH   3   7
ENDBRANCH   1   2
BRANCH   1  22
ATOM     22  N   UNL     1      -5.388  -2.565   9.087  1.00  0.00    -0.348 N 
ATOM     23  C   UNL     1      -6.473  -3.340   9.395  1.00  0.00     0.249 C 
ATOM     24  O   UNL     1      -6.386  -4.428   9.954  1.00  0.00    -0.272 OA
ATOM     25  H   UNL     1      -5.576  -1.685   8.608  1.00  0.00     0.163 HD
BRANCH  23  26
ATOM     26  C   UNL     1      -7.806  -2.673   9.022  1.00  0.00     0.238 C 
ATOM     27  N   UNL     1      -8.335  -1.937  10.204  1.00  0.00    -0.236 NA
ATOM     28  C   UNL     1      -7.633  -1.625   7.936  1.00  0.00     0.206 C 
ATOM     29  C   UNL     1      -8.217  -0.691   9.857  1.00  0.00     0.208 C 
ATOM     30  O   UNL     1      -7.717  -0.384   8.635  1.00  0.00    -0.474 OA
ATOM     31  C   UNL     1      -8.744  -1.673   6.895  1.00  0.00     0.056 C 
BRANCH  29  32
ATOM     32  C   UNL     1      -8.542   0.524  10.722  1.00  0.00     0.171 C 
BRANCH  32  33
ATOM     33  N   UNL     1      -8.121   1.754  10.069  1.00  0.00    -0.342 N 
ATOM     34  C   UNL     1      -6.984   2.435  10.432  1.00  0.00     0.246 CG0
ATOM     35  O   UNL     1      -6.252   2.074  11.350  1.00  0.00    -0.273 OA
ATOM     36  H   UNL     1      -8.682   2.176   9.336  1.00  0.00     0.164 HD
ATOM     37  G   UNL     1      -6.686   3.678   9.579  1.00  0.00     0.000 G0
ENDBRANCH  32  33
BRANCH  32  38
ATOM     38  C   UNL     1     -10.047   0.535  11.099  1.00  0.00     0.017 C 
ATOM     39  C   UNL     1     -10.372   1.781  11.932  1.00  0.00     0.010 C 
BRANCH  38  40
ATOM     40  C   UNL     1     -10.977   0.414   9.869  1.00  0.00     0.002 C 
ATOM     41  C   UNL     1     -11.983  -0.724   9.976  1.00  0.00     0.004 C 
ENDBRANCH  38  40
ENDBRANCH  32  38
ENDBRANCH  29  32
ENDBRANCH  23  26
ENDBRANCH   1  22
TORSDOF 4
ENDMDL
MODEL 32
REMARK VINA RESULT:    -5.252      2.335      5.834
REMARK INTER + INTRA:         -10.752
REMARK INTER:                  -9.159
REMARK INTRA:                  -1.593
REMARK UNBOUND:                -1.815
REMARK SMILES CC[C@H](C)[C@@H]1NC(=O)[C@H]2CSC(=N2)[C@@H]([C@@H](C)CC)NC(=O)c2csc(n2)CNC(=O)[C@H]2N=C1O[C@@H]2C
REMARK SMILES IDX 27 1 25 2 22 3 26 4 23 5 24 6 20 7 19 8 21 9 14 11 12 12
REMARK SMILES IDX 11 13 10 14 13 15 9 16 15 18 16 19 17 20 18 21 28 22 29 23
REMARK SMILES IDX 30 24 31 26 32 27 35 28 33 29 34 30 36 31 5 32 6 33 7 34
REMARK SMILES IDX 8 35 3 38 4 39 2 40 1 41
REMARK H PARENT 19 10 28 25 6 36
REMARK Flexibility Score:   91.900
ROOT
ATOM      1  C   UNL     1      -5.103   1.017  12.653  1.00  0.00     0.183 C 
ENDROOT
BRANCH   1   2
ATOM      2  C   UNL     1      -5.163  -0.358  12.052  1.00  0.00     0.113 A 
ATOM      3  C   UNL     1      -5.057  -1.968  10.514  1.00  0.00     0.139 A 
ATOM      4  N   UNL     1      -4.774  -0.635  10.821  1.00  0.00    -0.234 NA
ATOM      5  C   UNL     1      -5.608  -2.689  11.555  1.00  0.00     0.101 A 
ATOM      6  S   UNL     1      -5.800  -1.685  12.934  1.00  0.00    -0.125 S 
BRANCH   3   7
ATOM      7  C   UNL     1      -4.804  -2.479   9.166  1.00  0.00     0.271 C 
ATOM      8  N   UNL     1      -3.561  -2.114   8.711  1.00  0.00    -0.341 N 
ATOM      9  O   UNL     1      -5.620  -3.123   8.518  1.00  0.00    -0.267 OA
ATOM     10  H   UNL     1      -2.984  -1.598   9.373  1.00  0.00     0.164 HD
BRANCH   8  11
ATOM     11  C   UNL     1      -3.099  -2.313   7.347  1.00  0.00     0.140 C 
BRANCH  11  12
ATOM     12  C   UNL     1      -2.283  -1.082   6.943  1.00  0.00     0.091 C 
ATOM     13  S   UNL     1      -0.922  -0.563   7.910  1.00  0.00    -0.106 SA
ATOM     14  C   UNL     1      -0.411   0.574   6.604  1.00  0.00     0.113 C 
ATOM     15  N   UNL     1      -2.609  -0.344   5.928  1.00  0.00    -0.267 NA
ATOM     16  C   UNL     1      -1.699   0.842   5.842  1.00  0.00     0.205 CG0
ATOM     17  G   UNL     1      -2.394   2.105   6.375  1.00  0.00     0.000 G0
ENDBRANCH  11  12
BRANCH  11  18
ATOM     18  C   UNL     1      -2.434  -3.691   7.101  1.00  0.00     0.015 C 
ATOM     19  C   UNL     1      -2.227  -4.430   8.430  1.00  0.00     0.010 C 
BRANCH  18  20
ATOM     20  C   UNL     1      -3.156  -4.581   6.068  1.00  0.00     0.002 C 
ATOM     21  C   UNL     1      -4.112  -3.799   5.175  1.00  0.00     0.004 C 
ENDBRANCH  18  20
ENDBRANCH  11  18
ENDBRANCH   8  11
ENDBRANCH   3   7
ENDBRANCH   1   2
BRANCH   1  22
ATOM     22  N   UNL     1      -4.309   1.841  11.769  1.00  0.00    -0.348 N 
ATOM     23  C   UNL     1      -3.388   2.765  12.183  1.00  0.00     0.249 C 
ATOM     24  O   UNL     1      -3.081   2.928  13.359  1.00  0.00    -0.272 OA
ATOM     25  H   UNL     1      -4.499   1.802  10.769  1.00  0.00     0.163 HD
BRANCH  23  26
ATOM     26  C   UNL     1      -2.743   3.527  11.016  1.00  0.00     0.238 C 
ATOM     27  N   UNL     1      -2.870   2.718   9.772  1.00  0.00    -0.236 NA
ATOM     28  C   UNL     1      -3.458   4.835  10.725  1.00  0.00     0.206 C 
ATOM     29  C   UNL     1      -3.717   3.400   9.059  1.00  0.00     0.208 C 
ATOM     30  O   UNL     1      -4.215   4.562   9.547  1.00  0.00    -0.474 OA
ATOM     31  C   UNL     1      -2.493   5.976  10.430  1.00  0.00     0.056 C 
BRANCH  29  32
ATOM     32  C   UNL     1      -4.282   3.001   7.699  1.00  0.00     0.171 C 
BRANCH  32  33
ATOM     33  N   UNL     1      -3.509   1.916   7.114  1.00  0.00    -0.342 N 
ATOM     34  C   UNL     1      -2.396   2.133   6.338  1.00  0.00     0.246 CG0
ATOM     35  O   UNL     1      -1.982   3.256   6.059  1.00  0.00    -0.273 OA
ATOM     36  H   UNL     1      -3.793   0.949   7.230  1.00  0.00     0.164 HD
ATOM     37  G   UNL     1      -1.689   0.853   5.866  1.00  0.00     0.000 G0
ENDBRANCH  32  33
BRANCH  32  38
ATOM     38  C   UNL     1      -5.791   2.660   7.816  1.00  0.00     0.017 C 
ATOM     39  C   UNL     1      -6.458   2.741   6.437  1.00  0.00     0.010 C 
BRANCH  38  40
ATOM     40  C   UNL     1      -6.050   1.295   8.494  1.00  0.00     0.002 C 
ATOM     41  C   UNL     1      -6.684   0.265   7.569  1.00  0.00     0.004 C 
ENDBRANCH  38  40
ENDBRANCH  32  38
ENDBRANCH  29  32
ENDBRANCH  23  26
ENDBRANCH   1  22
TORSDOF 4
ENDMDL
MODEL 33
REMARK VINA RESULT:    -5.252      2.925      6.081
REMARK INTER + INTRA:         -10.751
REMARK INTER:                  -9.050
REMARK INTRA:                  -1.701
REMARK UNBOUND:                -1.815
REMARK SMILES CC[C@H](C)[C@@H]1NC(=O)[C@H]2CSC(=N2)[C@@H]([C@@H](C)CC)NC(=O)c2csc(n2)CNC(=O)[C@H]2N=C1O[C@@H]2C
REMARK SMILES IDX 27 1 25 2 22 3 26 4 23 5 24 6 20 7 19 8 21 9 14 11 12 12
REMARK SMILES IDX 11 13 10 14 13 15 9 16 15 18 16 19 17 20 18 21 28 22 29 23
REMARK SMILES IDX 30 24 31 26 32 27 35 28 33 29 34 30 36 31 5 32 6 33 7 34
REMARK SMILES IDX 8 35 3 38 4 39 2 40 1 41
REMARK H PARENT 19 10 28 25 6 36
REMARK Flexibility Score:   91.900
ROOT
ATOM      1  C   UNL     1      -0.179  -0.340   6.245  1.00  0.00     0.183 C 
ENDROOT
BRANCH   1   2
ATOM      2  C   UNL     1      -0.447   1.132   6.372  1.00  0.00     0.113 A 
ATOM      3  C   UNL     1      -1.588   3.030   6.622  1.00  0.00     0.139 A 
ATOM      4  N   UNL     1      -1.623   1.636   6.697  1.00  0.00    -0.234 NA
ATOM      5  C   UNL     1      -0.353   3.554   6.294  1.00  0.00     0.101 A 
ATOM      6  S   UNL     1       0.780   2.289   6.050  1.00  0.00    -0.125 S 
BRANCH   3   7
ATOM      7  C   UNL     1      -2.810   3.806   6.843  1.00  0.00     0.271 C 
ATOM      8  N   UNL     1      -3.248   3.702   8.140  1.00  0.00    -0.341 N 
ATOM      9  O   UNL     1      -3.382   4.439   5.965  1.00  0.00    -0.267 OA
ATOM     10  H   UNL     1      -2.653   3.158   8.764  1.00  0.00     0.164 HD
BRANCH   8  11
ATOM     11  C   UNL     1      -4.527   4.205   8.614  1.00  0.00     0.140 C 
BRANCH  11  12
ATOM     12  C   UNL     1      -5.150   3.133   9.512  1.00  0.00     0.091 C 
ATOM     13  S   UNL     1      -4.213   2.388  10.786  1.00  0.00    -0.106 SA
ATOM     14  C   UNL     1      -5.709   1.644  11.470  1.00  0.00     0.113 C 
ATOM     15  N   UNL     1      -6.352   2.689   9.320  1.00  0.00    -0.267 NA
ATOM     16  C   UNL     1      -6.649   1.577  10.276  1.00  0.00     0.205 CG0
ATOM     17  G   UNL     1      -6.545   0.211   9.579  1.00  0.00     0.000 G0
ENDBRANCH  11  12
BRANCH  11  18
ATOM     18  C   UNL     1      -4.463   5.640   9.197  1.00  0.00     0.015 C 
ATOM     19  C   UNL     1      -3.207   5.811  10.062  1.00  0.00     0.010 C 
BRANCH  18  20
ATOM     20  C   UNL     1      -4.585   6.767   8.151  1.00  0.00     0.002 C 
ATOM     21  C   UNL     1      -5.593   7.840   8.546  1.00  0.00     0.004 C 
ENDBRANCH  18  20
ENDBRANCH  11  18
ENDBRANCH   8  11
ENDBRANCH   3   7
ENDBRANCH   1   2
BRANCH   1  22
ATOM     22  N   UNL     1      -1.147  -1.029   7.069  1.00  0.00    -0.348 N 
ATOM     23  C   UNL     1      -0.924  -1.441   8.355  1.00  0.00     0.249 C 
ATOM     24  O   UNL     1       0.105  -1.189   8.973  1.00  0.00    -0.272 OA
ATOM     25  H   UNL     1      -2.031  -1.308   6.647  1.00  0.00     0.163 HD
BRANCH  23  26
ATOM     26  C   UNL     1      -2.120  -2.196   8.954  1.00  0.00     0.238 C 
ATOM     27  N   UNL     1      -3.280  -1.268   9.065  1.00  0.00    -0.236 NA
ATOM     28  C   UNL     1      -2.588  -3.326   8.054  1.00  0.00     0.206 C 
ATOM     29  C   UNL     1      -4.111  -1.722   8.176  1.00  0.00     0.208 C 
ATOM     30  O   UNL     1      -3.778  -2.819   7.451  1.00  0.00    -0.474 OA
ATOM     31  C   UNL     1      -2.938  -4.587   8.834  1.00  0.00     0.056 C 
BRANCH  29  32
ATOM     32  C   UNL     1      -5.456  -1.109   7.798  1.00  0.00     0.171 C 
BRANCH  32  33
ATOM     33  N   UNL     1      -5.695   0.118   8.542  1.00  0.00    -0.342 N 
ATOM     34  C   UNL     1      -6.580   0.187   9.591  1.00  0.00     0.246 CG0
ATOM     35  O   UNL     1      -7.253  -0.770   9.965  1.00  0.00    -0.273 OA
ATOM     36  H   UNL     1      -5.237   0.985   8.283  1.00  0.00     0.164 HD
ATOM     37  G   UNL     1      -6.642   1.560  10.281  1.00  0.00     0.000 G0
ENDBRANCH  32  33
BRANCH  32  38
ATOM     38  C   UNL     1      -5.546  -0.901   6.263  1.00  0.00     0.017 C 
ATOM     39  C   UNL     1      -6.613  -1.827   5.667  1.00  0.00     0.010 C 
BRANCH  38  40
ATOM     40  C   UNL     1      -5.788   0.574   5.868  1.00  0.00     0.002 C 
ATOM     41  C   UNL     1      -4.745   1.126   4.904  1.00  0.00     0.004 C 
ENDBRANCH  38  40
ENDBRANCH  32  38
ENDBRANCH  29  32
ENDBRANCH  23  26
ENDBRANCH   1  22
TORSDOF 4
ENDMDL
MODEL 34
REMARK VINA RESULT:    -5.226      2.923      5.631
REMARK INTER + INTRA:         -10.708
REMARK INTER:                  -8.951
REMARK INTRA:                  -1.757
REMARK UNBOUND:                -1.815
REMARK SMILES CC[C@H](C)[C@@H]1NC(=O)[C@H]2CSC(=N2)[C@@H]([C@@H](C)CC)NC(=O)c2csc(n2)CNC(=O)[C@H]2N=C1O[C@@H]2C
REMARK SMILES IDX 27 1 25 2 22 3 26 4 23 5 24 6 20 7 19 8 21 9 14 11 12 12
REMARK SMILES IDX 11 13 10 14 13 15 9 16 15 18 16 19 17 20 18 21 28 22 29 23
REMARK SMILES IDX 30 24 31 26 32 27 35 28 33 29 34 30 36 31 5 32 6 33 7 34
REMARK SMILES IDX 8 35 3 38 4 39 2 40 1 41
REMARK H PARENT 19 10 28 25 6 36
REMARK Flexibility Score:   91.900
ROOT
ATOM      1  C   UNL     1      -7.982  -0.101   7.265  1.00  0.00     0.183 C 
ENDROOT
BRANCH   1   2
ATOM      2  C   UNL     1      -7.500   0.499   8.554  1.00  0.00     0.113 A 
ATOM      3  C   UNL     1      -6.091   1.302  10.082  1.00  0.00     0.139 A 
ATOM      4  N   UNL     1      -6.258   0.899   8.756  1.00  0.00    -0.234 NA
ATOM      5  C   UNL     1      -7.241   1.252  10.845  1.00  0.00     0.101 A 
ATOM      6  S   UNL     1      -8.550   0.668   9.902  1.00  0.00    -0.125 S 
BRANCH   3   7
ATOM      7  C   UNL     1      -4.765   1.694  10.567  1.00  0.00     0.271 C 
ATOM      8  N   UNL     1      -3.982   2.188   9.554  1.00  0.00    -0.341 N 
ATOM      9  O   UNL     1      -4.399   1.560  11.728  1.00  0.00    -0.267 OA
ATOM     10  H   UNL     1      -4.433   2.261   8.643  1.00  0.00     0.164 HD
BRANCH   8  11
ATOM     11  C   UNL     1      -2.564   2.483   9.687  1.00  0.00     0.140 C 
BRANCH  11  12
ATOM     12  C   UNL     1      -1.848   1.906   8.463  1.00  0.00     0.091 C 
ATOM     13  S   UNL     1      -2.448   2.222   6.852  1.00  0.00    -0.106 SA
ATOM     14  C   UNL     1      -0.928   1.557   6.141  1.00  0.00     0.113 C 
ATOM     15  N   UNL     1      -0.829   1.113   8.574  1.00  0.00    -0.267 NA
ATOM     16  C   UNL     1      -0.408   0.625   7.224  1.00  0.00     0.205 CG0
ATOM     17  G   UNL     1      -0.896  -0.813   6.983  1.00  0.00     0.000 G0
ENDBRANCH  11  12
BRANCH  11  18
ATOM     18  C   UNL     1      -2.258   3.964  10.031  1.00  0.00     0.015 C 
ATOM     19  C   UNL     1      -1.701   4.078  11.456  1.00  0.00     0.010 C 
BRANCH  18  20
ATOM     20  C   UNL     1      -1.354   4.688   9.012  1.00  0.00     0.002 C 
ATOM     21  C   UNL     1       0.089   4.818   9.484  1.00  0.00     0.004 C 
ENDBRANCH  18  20
ENDBRANCH  11  18
ENDBRANCH   8  11
ENDBRANCH   3   7
ENDBRANCH   1   2
BRANCH   1  22
ATOM     22  N   UNL     1      -6.822  -0.591   6.555  1.00  0.00    -0.348 N 
ATOM     23  C   UNL     1      -6.703  -1.849   6.029  1.00  0.00     0.249 C 
ATOM     24  O   UNL     1      -7.615  -2.668   6.034  1.00  0.00    -0.272 OA
ATOM     25  H   UNL     1      -5.994   0.003   6.511  1.00  0.00     0.163 HD
BRANCH  23  26
ATOM     26  C   UNL     1      -5.332  -2.097   5.382  1.00  0.00     0.238 C 
ATOM     27  N   UNL     1      -4.269  -1.510   6.245  1.00  0.00    -0.236 NA
ATOM     28  C   UNL     1      -5.008  -3.578   5.287  1.00  0.00     0.206 C 
ATOM     29  C   UNL     1      -3.652  -2.556   6.709  1.00  0.00     0.208 C 
ATOM     30  O   UNL     1      -4.059  -3.792   6.331  1.00  0.00    -0.474 OA
ATOM     31  C   UNL     1      -4.363  -3.951   3.959  1.00  0.00     0.056 C 
BRANCH  29  32
ATOM     32  C   UNL     1      -2.506  -2.556   7.716  1.00  0.00     0.171 C 
BRANCH  32  33
ATOM     33  N   UNL     1      -1.895  -1.239   7.809  1.00  0.00    -0.342 N 
ATOM     34  C   UNL     1      -0.880  -0.833   6.976  1.00  0.00     0.246 CG0
ATOM     35  O   UNL     1      -0.393  -1.556   6.110  1.00  0.00    -0.273 OA
ATOM     36  H   UNL     1      -2.178  -0.579   8.526  1.00  0.00     0.164 HD
ATOM     37  G   UNL     1      -0.414   0.616   7.199  1.00  0.00     0.000 G0
ENDBRANCH  32  33
BRANCH  32  38
ATOM     38  C   UNL     1      -2.991  -3.084   9.092  1.00  0.00     0.017 C 
ATOM     39  C   UNL     1      -1.808  -3.652   9.886  1.00  0.00     0.010 C 
BRANCH  38  40
ATOM     40  C   UNL     1      -3.765  -2.022   9.906  1.00  0.00     0.002 C 
ATOM     41  C   UNL     1      -3.238  -1.837  11.323  1.00  0.00     0.004 C 
ENDBRANCH  38  40
ENDBRANCH  32  38
ENDBRANCH  29  32
ENDBRANCH  23  26
ENDBRANCH   1  22
TORSDOF 4
ENDMDL
MODEL 35
REMARK VINA RESULT:    -5.200      2.609      7.372
REMARK INTER + INTRA:         -10.662
REMARK INTER:                  -9.245
REMARK INTRA:                  -1.417
REMARK UNBOUND:                -1.815
REMARK SMILES CC[C@H](C)[C@@H]1NC(=O)[C@H]2CSC(=N2)[C@@H]([C@@H](C)CC)NC(=O)c2csc(n2)CNC(=O)[C@H]2N=C1O[C@@H]2C
REMARK SMILES IDX 27 1 25 2 22 3 26 4 23 5 24 6 20 7 19 8 21 9 14 11 12 12
REMARK SMILES IDX 11 13 10 14 13 15 9 16 15 18 16 19 17 20 18 21 28 22 29 23
REMARK SMILES IDX 30 24 31 26 32 27 35 28 33 29 34 30 36 31 5 32 6 33 7 34
REMARK SMILES IDX 8 35 3 38 4 39 2 40 1 41
REMARK H PARENT 19 10 28 25 6 36
REMARK Flexibility Score:   91.900
ROOT
ATOM      1  C   UNL     1      -6.205   3.297  11.737  1.00  0.00     0.183 C 
ENDROOT
BRANCH   1   2
ATOM      2  C   UNL     1      -5.008   4.161  11.461  1.00  0.00     0.113 A 
ATOM      3  C   UNL     1      -3.042   4.794  10.624  1.00  0.00     0.139 A 
ATOM      4  N   UNL     1      -4.081   3.862  10.570  1.00  0.00    -0.234 NA
ATOM      5  C   UNL     1      -3.241   5.820  11.526  1.00  0.00     0.101 A 
ATOM      6  S   UNL     1      -4.736   5.609  12.341  1.00  0.00    -0.125 S 
BRANCH   3   7
ATOM      7  C   UNL     1      -1.850   4.611   9.793  1.00  0.00     0.271 C 
ATOM      8  N   UNL     1      -2.179   4.260   8.507  1.00  0.00    -0.341 N 
ATOM      9  O   UNL     1      -0.705   4.726  10.211  1.00  0.00    -0.267 OA
ATOM     10  H   UNL     1      -3.177   4.227   8.300  1.00  0.00     0.164 HD
BRANCH   8  11
ATOM     11  C   UNL     1      -1.216   3.832   7.505  1.00  0.00     0.140 C 
BRANCH  11  12
ATOM     12  C   UNL     1      -1.313   2.309   7.380  1.00  0.00     0.091 C 
ATOM     13  S   UNL     1      -1.578   1.561   5.823  1.00  0.00    -0.106 SA
ATOM     14  C   UNL     1      -1.196  -0.059   6.522  1.00  0.00     0.113 C 
ATOM     15  N   UNL     1      -1.278   1.532   8.417  1.00  0.00    -0.267 NA
ATOM     16  C   UNL     1      -1.502   0.111   8.001  1.00  0.00     0.205 CG0
ATOM     17  G   UNL     1      -2.942  -0.330   8.313  1.00  0.00     0.000 G0
ENDBRANCH  11  12
BRANCH  11  18
ATOM     18  C   UNL     1      -1.283   4.638   6.182  1.00  0.00     0.015 C 
ATOM     19  C   UNL     1      -2.359   5.728   6.273  1.00  0.00     0.010 C 
BRANCH  18  20
ATOM     20  C   UNL     1       0.066   5.216   5.710  1.00  0.00     0.002 C 
ATOM     21  C   UNL     1       0.074   6.740   5.655  1.00  0.00     0.004 C 
ENDBRANCH  18  20
ENDBRANCH  11  18
ENDBRANCH   8  11
ENDBRANCH   3   7
ENDBRANCH   1   2
BRANCH   1  22
ATOM     22  N   UNL     1      -5.722   1.962  12.007  1.00  0.00    -0.348 N 
ATOM     23  C   UNL     1      -6.493   0.934  12.478  1.00  0.00     0.249 C 
ATOM     24  O   UNL     1      -7.705   1.023  12.640  1.00  0.00    -0.272 OA
ATOM     25  H   UNL     1      -4.722   1.783  11.926  1.00  0.00     0.163 HD
BRANCH  23  26
ATOM     26  C   UNL     1      -5.689  -0.352  12.721  1.00  0.00     0.238 C 
ATOM     27  N   UNL     1      -5.837  -1.253  11.544  1.00  0.00    -0.236 NA
ATOM     28  C   UNL     1      -4.199  -0.077  12.837  1.00  0.00     0.206 C 
ATOM     29  C   UNL     1      -4.653  -1.239  11.007  1.00  0.00     0.208 C 
ATOM     30  O   UNL     1      -3.668  -0.508  11.585  1.00  0.00    -0.474 OA
ATOM     31  C   UNL     1      -3.541  -0.884  13.949  1.00  0.00     0.056 C 
BRANCH  29  32
ATOM     32  C   UNL     1      -4.237  -1.938   9.716  1.00  0.00     0.171 C 
BRANCH  32  33
ATOM     33  N   UNL     1      -2.981  -1.401   9.216  1.00  0.00    -0.342 N 
ATOM     34  C   UNL     1      -2.924  -0.347   8.335  1.00  0.00     0.246 CG0
ATOM     35  O   UNL     1      -3.925   0.203   7.883  1.00  0.00    -0.273 OA
ATOM     36  H   UNL     1      -2.093  -1.816   9.476  1.00  0.00     0.164 HD
ATOM     37  G   UNL     1      -1.500   0.106   7.976  1.00  0.00     0.000 G0
ENDBRANCH  32  33
BRANCH  32  38
ATOM     38  C   UNL     1      -4.186  -3.475   9.923  1.00  0.00     0.017 C 
ATOM     39  C   UNL     1      -5.565  -4.089   9.651  1.00  0.00     0.010 C 
BRANCH  38  40
ATOM     40  C   UNL     1      -3.083  -4.160   9.084  1.00  0.00     0.002 C 
ATOM     41  C   UNL     1      -1.835  -4.506   9.886  1.00  0.00     0.004 C 
ENDBRANCH  38  40
ENDBRANCH  32  38
ENDBRANCH  29  32
ENDBRANCH  23  26
ENDBRANCH   1  22
TORSDOF 4
ENDMDL
MODEL 36
REMARK VINA RESULT:    -5.193      3.847      5.858
REMARK INTER + INTRA:         -10.652
REMARK INTER:                  -9.090
REMARK INTRA:                  -1.562
REMARK UNBOUND:                -1.815
REMARK SMILES CC[C@H](C)[C@@H]1NC(=O)[C@H]2CSC(=N2)[C@@H]([C@@H](C)CC)NC(=O)c2csc(n2)CNC(=O)[C@H]2N=C1O[C@@H]2C
REMARK SMILES IDX 27 1 25 2 22 3 26 4 23 5 24 6 20 7 19 8 21 9 14 11 12 12
REMARK SMILES IDX 11 13 10 14 13 15 9 16 15 18 16 19 17 20 18 21 28 22 29 23
REMARK SMILES IDX 30 24 31 26 32 27 35 28 33 29 34 30 36 31 5 32 6 33 7 34
REMARK SMILES IDX 8 35 3 38 4 39 2 40 1 41
REMARK H PARENT 19 10 28 25 6 36
REMARK Flexibility Score:   91.900
ROOT
ATOM      1  C   UNL     1      -6.937  -2.499  12.120  1.00  0.00     0.183 C 
ENDROOT
BRANCH   1   2
ATOM      2  C   UNL     1      -7.835  -1.353  12.488  1.00  0.00     0.113 A 
ATOM      3  C   UNL     1      -8.628   0.392  13.625  1.00  0.00     0.139 A 
ATOM      4  N   UNL     1      -7.555  -0.482  13.441  1.00  0.00    -0.234 NA
ATOM      5  C   UNL     1      -9.683   0.194  12.756  1.00  0.00     0.101 A 
ATOM      6  S   UNL     1      -9.345  -1.120  11.706  1.00  0.00    -0.125 S 
BRANCH   3   7
ATOM      7  C   UNL     1      -8.588   1.386  14.700  1.00  0.00     0.271 C 
ATOM      8  N   UNL     1      -8.216   2.622  14.232  1.00  0.00    -0.341 N 
ATOM      9  O   UNL     1      -8.824   1.129  15.874  1.00  0.00    -0.267 OA
ATOM     10  H   UNL     1      -8.074   2.688  13.225  1.00  0.00     0.164 HD
BRANCH   8  11
ATOM     11  C   UNL     1      -7.908   3.760  15.084  1.00  0.00     0.140 C 
BRANCH  11  12
ATOM     12  C   UNL     1      -6.611   4.392  14.571  1.00  0.00     0.091 C 
ATOM     13  S   UNL     1      -6.582   6.062  14.053  1.00  0.00    -0.106 SA
ATOM     14  C   UNL     1      -4.778   6.030  14.006  1.00  0.00     0.113 C 
ATOM     15  N   UNL     1      -5.520   3.707  14.433  1.00  0.00    -0.267 NA
ATOM     16  C   UNL     1      -4.454   4.556  13.814  1.00  0.00     0.205 CG0
ATOM     17  G   UNL     1      -4.286   4.226  12.322  1.00  0.00     0.000 G0
ENDBRANCH  11  12
BRANCH  11  18
ATOM     18  C   UNL     1      -9.103   4.722  15.307  1.00  0.00     0.015 C 
ATOM     19  C   UNL     1     -10.230   4.414  14.313  1.00  0.00     0.010 C 
BRANCH  18  20
ATOM     20  C   UNL     1      -9.627   4.772  16.757  1.00  0.00     0.002 C 
ATOM     21  C   UNL     1      -8.784   5.661  17.664  1.00  0.00     0.004 C 
ENDBRANCH  18  20
ENDBRANCH  11  18
ENDBRANCH   8  11
ENDBRANCH   3   7
ENDBRANCH   1   2
BRANCH   1  22
ATOM     22  N   UNL     1      -5.883  -1.971  11.282  1.00  0.00    -0.348 N 
ATOM     23  C   UNL     1      -4.648  -1.592  11.731  1.00  0.00     0.249 C 
ATOM     24  O   UNL     1      -4.277  -1.744  12.890  1.00  0.00    -0.272 OA
ATOM     25  H   UNL     1      -6.091  -1.784  10.302  1.00  0.00     0.163 HD
BRANCH  23  26
ATOM     26  C   UNL     1      -3.760  -1.017  10.617  1.00  0.00     0.238 C 
ATOM     27  N   UNL     1      -4.198   0.372  10.308  1.00  0.00    -0.236 NA
ATOM     28  C   UNL     1      -2.309  -0.899  11.049  1.00  0.00     0.206 C 
ATOM     29  C   UNL     1      -3.214   1.099  10.745  1.00  0.00     0.208 C 
ATOM     30  O   UNL     1      -2.134   0.495  11.299  1.00  0.00    -0.474 OA
ATOM     31  C   UNL     1      -1.337  -1.323   9.956  1.00  0.00     0.056 C 
BRANCH  29  32
ATOM     32  C   UNL     1      -3.151   2.624  10.757  1.00  0.00     0.171 C 
BRANCH  32  33
ATOM     33  N   UNL     1      -3.416   3.145  12.088  1.00  0.00    -0.342 N 
ATOM     34  C   UNL     1      -4.265   4.202  12.315  1.00  0.00     0.246 CG0
ATOM     35  O   UNL     1      -4.844   4.802  11.413  1.00  0.00    -0.273 OA
ATOM     36  H   UNL     1      -2.947   2.764  12.903  1.00  0.00     0.164 HD
ATOM     37  G   UNL     1      -4.455   4.560  13.798  1.00  0.00     0.000 G0
ENDBRANCH  32  33
BRANCH  32  38
ATOM     38  C   UNL     1      -1.794   3.115  10.185  1.00  0.00     0.017 C 
ATOM     39  C   UNL     1      -1.852   3.157   8.653  1.00  0.00     0.010 C 
BRANCH  38  40
ATOM     40  C   UNL     1      -1.347   4.472  10.775  1.00  0.00     0.002 C 
ATOM     41  C   UNL     1      -1.791   5.672   9.949  1.00  0.00     0.004 C 
ENDBRANCH  38  40
ENDBRANCH  32  38
ENDBRANCH  29  32
ENDBRANCH  23  26
ENDBRANCH   1  22
TORSDOF 4
ENDMDL
MODEL 37
REMARK VINA RESULT:    -5.174      2.770      5.822
REMARK INTER + INTRA:         -10.618
REMARK INTER:                  -9.114
REMARK INTRA:                  -1.504
REMARK UNBOUND:                -1.815
REMARK SMILES CC[C@H](C)[C@@H]1NC(=O)[C@H]2CSC(=N2)[C@@H]([C@@H](C)CC)NC(=O)c2csc(n2)CNC(=O)[C@H]2N=C1O[C@@H]2C
REMARK SMILES IDX 27 1 25 2 22 3 26 4 23 5 24 6 20 7 19 8 21 9 14 11 12 12
REMARK SMILES IDX 11 13 10 14 13 15 9 16 15 18 16 19 17 20 18 21 28 22 29 23
REMARK SMILES IDX 30 24 31 26 32 27 35 28 33 29 34 30 36 31 5 32 6 33 7 34
REMARK SMILES IDX 8 35 3 38 4 39 2 40 1 41
REMARK H PARENT 19 10 28 25 6 36
REMARK Flexibility Score:   91.900
ROOT
ATOM      1  C   UNL     1      -3.578  -3.208  10.581  1.00  0.00     0.183 C 
ENDROOT
BRANCH   1   2
ATOM      2  C   UNL     1      -2.590  -2.389   9.801  1.00  0.00     0.113 A 
ATOM      3  C   UNL     1      -1.725  -0.652   8.705  1.00  0.00     0.139 A 
ATOM      4  N   UNL     1      -2.748  -1.104   9.541  1.00  0.00    -0.234 NA
ATOM      5  C   UNL     1      -0.775  -1.605   8.396  1.00  0.00     0.101 A 
ATOM      6  S   UNL     1      -1.174  -3.100   9.140  1.00  0.00    -0.125 S 
BRANCH   3   7
ATOM      7  C   UNL     1      -1.746   0.723   8.200  1.00  0.00     0.271 C 
ATOM      8  N   UNL     1      -2.053   1.622   9.191  1.00  0.00    -0.341 N 
ATOM      9  O   UNL     1      -1.546   1.020   7.029  1.00  0.00    -0.267 OA
ATOM     10  H   UNL     1      -2.170   1.227  10.123  1.00  0.00     0.164 HD
BRANCH   8  11
ATOM     11  C   UNL     1      -2.330   3.030   8.960  1.00  0.00     0.140 C 
BRANCH  11  12
ATOM     12  C   UNL     1      -3.486   3.439   9.877  1.00  0.00     0.091 C 
ATOM     13  S   UNL     1      -3.525   2.912  11.544  1.00  0.00    -0.106 SA
ATOM     14  C   UNL     1      -4.870   4.065  11.890  1.00  0.00     0.113 C 
ATOM     15  N   UNL     1      -4.501   4.117   9.443  1.00  0.00    -0.267 NA
ATOM     16  C   UNL     1      -5.517   4.275  10.530  1.00  0.00     0.205 CG0
ATOM     17  G   UNL     1      -6.690   3.300  10.330  1.00  0.00     0.000 G0
ENDBRANCH  11  12
BRANCH  11  18
ATOM     18  C   UNL     1      -1.070   3.934   8.994  1.00  0.00     0.015 C 
ATOM     19  C   UNL     1      -0.724   4.423   7.582  1.00  0.00     0.010 C 
BRANCH  18  20
ATOM     20  C   UNL     1      -1.145   5.106   9.994  1.00  0.00     0.002 C 
ATOM     21  C   UNL     1       0.224   5.683  10.337  1.00  0.00     0.004 C 
ENDBRANCH  18  20
ENDBRANCH  11  18
ENDBRANCH   8  11
ENDBRANCH   3   7
ENDBRANCH   1   2
BRANCH   1  22
ATOM     22  N   UNL     1      -4.561  -2.297  11.124  1.00  0.00    -0.348 N 
ATOM     23  C   UNL     1      -5.812  -2.660  11.544  1.00  0.00     0.249 C 
ATOM     24  O   UNL     1      -6.198  -3.823  11.579  1.00  0.00    -0.272 OA
ATOM     25  H   UNL     1      -4.351  -1.299  11.121  1.00  0.00     0.163 HD
BRANCH  23  26
ATOM     26  C   UNL     1      -6.650  -1.464  12.020  1.00  0.00     0.238 C 
ATOM     27  N   UNL     1      -6.247  -0.248  11.260  1.00  0.00    -0.236 NA
ATOM     28  C   UNL     1      -8.129  -1.654  11.729  1.00  0.00     0.206 C 
ATOM     29  C   UNL     1      -7.284  -0.006  10.515  1.00  0.00     0.208 C 
ATOM     30  O   UNL     1      -8.372  -0.809  10.605  1.00  0.00    -0.474 OA
ATOM     31  C   UNL     1      -9.015  -1.198  12.881  1.00  0.00     0.056 C 
BRANCH  29  32
ATOM     32  C   UNL     1      -7.406   1.096   9.467  1.00  0.00     0.171 C 
BRANCH  32  33
ATOM     33  N   UNL     1      -6.421   2.142   9.695  1.00  0.00    -0.342 N 
ATOM     34  C   UNL     1      -6.722   3.315  10.345  1.00  0.00     0.246 CG0
ATOM     35  O   UNL     1      -7.847   3.581  10.760  1.00  0.00    -0.273 OA
ATOM     36  H   UNL     1      -5.473   2.055   9.343  1.00  0.00     0.164 HD
ATOM     37  G   UNL     1      -5.527   4.262  10.536  1.00  0.00     0.000 G0
ENDBRANCH  32  33
BRANCH  32  38
ATOM     38  C   UNL     1      -7.318   0.498   8.038  1.00  0.00     0.017 C 
ATOM     39  C   UNL     1      -8.723   0.360   7.437  1.00  0.00     0.010 C 
BRANCH  38  40
ATOM     40  C   UNL     1      -6.377   1.297   7.107  1.00  0.00     0.002 C 
ATOM     41  C   UNL     1      -7.111   2.237   6.159  1.00  0.00     0.004 C 
ENDBRANCH  38  40
ENDBRANCH  32  38
ENDBRANCH  29  32
ENDBRANCH  23  26
ENDBRANCH   1  22
TORSDOF 4
ENDMDL
MODEL 38
REMARK VINA RESULT:    -5.088      2.573      6.562
REMARK INTER + INTRA:         -10.472
REMARK INTER:                  -9.398
REMARK INTRA:                  -1.074
REMARK UNBOUND:                -1.815
REMARK SMILES CC[C@H](C)[C@@H]1NC(=O)[C@H]2CSC(=N2)[C@@H]([C@@H](C)CC)NC(=O)c2csc(n2)CNC(=O)[C@H]2N=C1O[C@@H]2C
REMARK SMILES IDX 27 1 25 2 22 3 26 4 23 5 24 6 20 7 19 8 21 9 14 11 12 12
REMARK SMILES IDX 11 13 10 14 13 15 9 16 15 18 16 19 17 20 18 21 28 22 29 23
REMARK SMILES IDX 30 24 31 26 32 27 35 28 33 29 34 30 36 31 5 32 6 33 7 34
REMARK SMILES IDX 8 35 3 38 4 39 2 40 1 41
REMARK H PARENT 19 10 28 25 6 36
REMARK Flexibility Score:   91.900
ROOT
ATOM      1  C   UNL     1      -3.835   3.785   8.657  1.00  0.00     0.183 C 
ENDROOT
BRANCH   1   2
ATOM      2  C   UNL     1      -2.632   3.142   8.028  1.00  0.00     0.113 A 
ATOM      3  C   UNL     1      -1.246   1.540   7.337  1.00  0.00     0.139 A 
ATOM      4  N   UNL     1      -2.517   1.842   7.831  1.00  0.00    -0.234 NA
ATOM      5  C   UNL     1      -0.442   2.640   7.116  1.00  0.00     0.101 A 
ATOM      6  S   UNL     1      -1.273   4.077   7.554  1.00  0.00    -0.125 S 
BRANCH   3   7
ATOM      7  C   UNL     1      -0.852   0.144   7.134  1.00  0.00     0.271 C 
ATOM      8  N   UNL     1      -1.924  -0.706   7.248  1.00  0.00    -0.341 N 
ATOM      9  O   UNL     1       0.300  -0.214   6.923  1.00  0.00    -0.267 OA
ATOM     10  H   UNL     1      -2.827  -0.259   7.402  1.00  0.00     0.164 HD
BRANCH   8  11
ATOM     11  C   UNL     1      -1.817  -2.156   7.282  1.00  0.00     0.140 C 
BRANCH  11  12
ATOM     12  C   UNL     1      -2.014  -2.607   8.732  1.00  0.00     0.091 C 
ATOM     13  S   UNL     1      -2.471  -4.255   9.094  1.00  0.00    -0.106 SA
ATOM     14  C   UNL     1      -2.118  -3.982  10.843  1.00  0.00     0.113 C 
ATOM     15  N   UNL     1      -1.924  -1.782   9.727  1.00  0.00    -0.267 NA
ATOM     16  C   UNL     1      -2.270  -2.478  11.006  1.00  0.00     0.205 CG0
ATOM     17  G   UNL     1      -3.695  -2.121  11.457  1.00  0.00     0.000 G0
ENDBRANCH  11  12
BRANCH  11  18
ATOM     18  C   UNL     1      -2.678  -2.877   6.213  1.00  0.00     0.015 C 
ATOM     19  C   UNL     1      -2.261  -4.348   6.094  1.00  0.00     0.010 C 
BRANCH  18  20
ATOM     20  C   UNL     1      -4.201  -2.737   6.410  1.00  0.00     0.002 C 
ATOM     21  C   UNL     1      -4.977  -2.784   5.099  1.00  0.00     0.004 C 
ENDBRANCH  18  20
ENDBRANCH  11  18
ENDBRANCH   8  11
ENDBRANCH   3   7
ENDBRANCH   1   2
BRANCH   1  22
ATOM     22  N   UNL     1      -4.761   2.728   8.998  1.00  0.00    -0.348 N 
ATOM     23  C   UNL     1      -5.809   2.327   8.215  1.00  0.00     0.249 C 
ATOM     24  O   UNL     1      -6.019   2.773   7.092  1.00  0.00    -0.272 OA
ATOM     25  H   UNL     1      -4.692   2.302   9.922  1.00  0.00     0.163 HD
BRANCH  23  26
ATOM     26  C   UNL     1      -6.651   1.220   8.867  1.00  0.00     0.238 C 
ATOM     27  N   UNL     1      -5.745   0.241   9.530  1.00  0.00    -0.236 NA
ATOM     28  C   UNL     1      -7.543   1.761   9.972  1.00  0.00     0.206 C 
ATOM     29  C   UNL     1      -5.973   0.433  10.795  1.00  0.00     0.208 C 
ATOM     30  O   UNL     1      -6.888   1.358  11.174  1.00  0.00    -0.474 OA
ATOM     31  C   UNL     1      -8.937   1.148   9.949  1.00  0.00     0.056 C 
BRANCH  29  32
ATOM     32  C   UNL     1      -5.261  -0.254  11.957  1.00  0.00     0.171 C 
BRANCH  32  33
ATOM     33  N   UNL     1      -3.967  -0.772  11.540  1.00  0.00    -0.342 N 
ATOM     34  C   UNL     1      -3.686  -2.116  11.496  1.00  0.00     0.246 CG0
ATOM     35  O   UNL     1      -4.493  -2.981  11.828  1.00  0.00    -0.273 OA
ATOM     36  H   UNL     1      -3.205  -0.147  11.300  1.00  0.00     0.164 HD
ATOM     37  G   UNL     1      -2.281  -2.457  10.972  1.00  0.00     0.000 G0
ENDBRANCH  32  33
BRANCH  32  38
ATOM     38  C   UNL     1      -5.155   0.704  13.172  1.00  0.00     0.017 C 
ATOM     39  C   UNL     1      -5.229  -0.093  14.480  1.00  0.00     0.010 C 
BRANCH  38  40
ATOM     40  C   UNL     1      -3.898   1.603  13.123  1.00  0.00     0.002 C 
ATOM     41  C   UNL     1      -4.213   3.085  12.975  1.00  0.00     0.004 C 
ENDBRANCH  38  40
ENDBRANCH  32  38
ENDBRANCH  29  32
ENDBRANCH  23  26
ENDBRANCH   1  22
TORSDOF 4
ENDMDL
MODEL 39
REMARK VINA RESULT:    -5.051      3.509      6.326
REMARK INTER + INTRA:         -10.410
REMARK INTER:                  -9.124
REMARK INTRA:                  -1.286
REMARK UNBOUND:                -1.815
REMARK SMILES CC[C@H](C)[C@@H]1NC(=O)[C@H]2CSC(=N2)[C@@H]([C@@H](C)CC)NC(=O)c2csc(n2)CNC(=O)[C@H]2N=C1O[C@@H]2C
REMARK SMILES IDX 27 1 25 2 22 3 26 4 23 5 24 6 20 7 19 8 21 9 14 11 12 12
REMARK SMILES IDX 11 13 10 14 13 15 9 16 15 18 16 19 17 20 18 21 28 22 29 23
REMARK SMILES IDX 30 24 31 26 32 27 35 28 33 29 34 30 36 31 5 32 6 33 7 34
REMARK SMILES IDX 8 35 3 38 4 39 2 40 1 41
REMARK H PARENT 19 10 28 25 6 36
REMARK Flexibility Score:   91.900
ROOT
ATOM      1  C   UNL     1      -2.745   3.735  11.174  1.00  0.00     0.183 C 
ENDROOT
BRANCH   1   2
ATOM      2  C   UNL     1      -4.100   3.490  11.773  1.00  0.00     0.113 A 
ATOM      3  C   UNL     1      -6.280   3.040  11.885  1.00  0.00     0.139 A 
ATOM      4  N   UNL     1      -5.139   3.060  11.081  1.00  0.00    -0.234 NA
ATOM      5  C   UNL     1      -6.060   3.405  13.199  1.00  0.00     0.101 A 
ATOM      6  S   UNL     1      -4.407   3.805  13.433  1.00  0.00    -0.125 S 
BRANCH   3   7
ATOM      7  C   UNL     1      -7.579   2.692  11.306  1.00  0.00     0.271 C 
ATOM      8  N   UNL     1      -7.679   1.344  11.063  1.00  0.00    -0.341 N 
ATOM      9  O   UNL     1      -8.449   3.512  11.042  1.00  0.00    -0.267 OA
ATOM     10  H   UNL     1      -6.881   0.782  11.359  1.00  0.00     0.164 HD
BRANCH   8  11
ATOM     11  C   UNL     1      -8.769   0.725  10.326  1.00  0.00     0.140 C 
BRANCH  11  12
ATOM     12  C   UNL     1      -8.172  -0.373   9.441  1.00  0.00     0.091 C 
ATOM     13  S   UNL     1      -6.983  -1.482  10.082  1.00  0.00    -0.106 SA
ATOM     14  C   UNL     1      -7.148  -2.526   8.618  1.00  0.00     0.113 C 
ATOM     15  N   UNL     1      -8.465  -0.476   8.182  1.00  0.00    -0.267 NA
ATOM     16  C   UNL     1      -7.656  -1.566   7.553  1.00  0.00     0.205 CG0
ATOM     17  G   UNL     1      -6.485  -0.984   6.744  1.00  0.00     0.000 G0
ENDBRANCH  11  12
BRANCH  11  18
ATOM     18  C   UNL     1      -9.977   0.319  11.208  1.00  0.00     0.015 C 
ATOM     19  C   UNL     1      -9.531   0.109  12.662  1.00  0.00     0.010 C 
BRANCH  18  20
ATOM     20  C   UNL     1     -11.187   1.271  11.122  1.00  0.00     0.002 C 
ATOM     21  C   UNL     1     -12.369   0.664  10.375  1.00  0.00     0.004 C 
ENDBRANCH  18  20
ENDBRANCH  11  18
ENDBRANCH   8  11
ENDBRANCH   3   7
ENDBRANCH   1   2
BRANCH   1  22
ATOM     22  N   UNL     1      -2.519   2.708  10.181  1.00  0.00    -0.348 N 
ATOM     23  C   UNL     1      -2.276   1.391  10.463  1.00  0.00     0.249 C 
ATOM     24  O   UNL     1      -2.311   0.929  11.598  1.00  0.00    -0.272 OA
ATOM     25  H   UNL     1      -2.448   2.987   9.204  1.00  0.00     0.163 HD
BRANCH  23  26
ATOM     26  C   UNL     1      -2.019   0.551   9.203  1.00  0.00     0.238 C 
ATOM     27  N   UNL     1      -3.319   0.060   8.667  1.00  0.00    -0.236 NA
ATOM     28  C   UNL     1      -1.404   1.375   8.085  1.00  0.00     0.206 C 
ATOM     29  C   UNL     1      -3.454   0.724   7.558  1.00  0.00     0.208 C 
ATOM     30  O   UNL     1      -2.485   1.594   7.180  1.00  0.00    -0.474 OA
ATOM     31  C   UNL     1      -0.297   0.630   7.351  1.00  0.00     0.056 C 
BRANCH  29  32
ATOM     32  C   UNL     1      -4.653   0.676   6.615  1.00  0.00     0.171 C 
BRANCH  32  33
ATOM     33  N   UNL     1      -5.797   0.052   7.261  1.00  0.00    -0.342 N 
ATOM     34  C   UNL     1      -6.481  -1.000   6.701  1.00  0.00     0.246 CG0
ATOM     35  O   UNL     1      -6.198  -1.477   5.605  1.00  0.00    -0.273 OA
ATOM     36  H   UNL     1      -6.156   0.402   8.142  1.00  0.00     0.164 HD
ATOM     37  G   UNL     1      -7.622  -1.553   7.571  1.00  0.00     0.000 G0
ENDBRANCH  32  33
BRANCH  32  38
ATOM     38  C   UNL     1      -4.975   2.094   6.074  1.00  0.00     0.017 C 
ATOM     39  C   UNL     1      -4.717   2.152   4.563  1.00  0.00     0.010 C 
BRANCH  38  40
ATOM     40  C   UNL     1      -6.405   2.562   6.426  1.00  0.00     0.002 C 
ATOM     41  C   UNL     1      -6.588   2.909   7.898  1.00  0.00     0.004 C 
ENDBRANCH  38  40
ENDBRANCH  32  38
ENDBRANCH  29  32
ENDBRANCH  23  26
ENDBRANCH   1  22
TORSDOF 4
ENDMDL
MODEL 40
REMARK VINA RESULT:    -5.034      3.002      4.241
REMARK INTER + INTRA:         -10.381
REMARK INTER:                  -8.904
REMARK INTRA:                  -1.476
REMARK UNBOUND:                -1.815
REMARK SMILES CC[C@H](C)[C@@H]1NC(=O)[C@H]2CSC(=N2)[C@@H]([C@@H](C)CC)NC(=O)c2csc(n2)CNC(=O)[C@H]2N=C1O[C@@H]2C
REMARK SMILES IDX 27 1 25 2 22 3 26 4 23 5 24 6 20 7 19 8 21 9 14 11 12 12
REMARK SMILES IDX 11 13 10 14 13 15 9 16 15 18 16 19 17 20 18 21 28 22 29 23
REMARK SMILES IDX 30 24 31 26 32 27 35 28 33 29 34 30 36 31 5 32 6 33 7 34
REMARK SMILES IDX 8 35 3 38 4 39 2 40 1 41
REMARK H PARENT 19 10 28 25 6 36
REMARK Flexibility Score:   91.900
ROOT
ATOM      1  C   UNL     1      -7.261  -1.473   5.962  1.00  0.00     0.183 C 
ENDROOT
BRANCH   1   2
ATOM      2  C   UNL     1      -8.082  -1.384   7.216  1.00  0.00     0.113 A 
ATOM      3  C   UNL     1      -8.572  -1.113   9.373  1.00  0.00     0.139 A 
ATOM      4  N   UNL     1      -7.603  -0.978   8.377  1.00  0.00    -0.234 NA
ATOM      5  C   UNL     1      -9.796  -1.569   8.922  1.00  0.00     0.101 A 
ATOM      6  S   UNL     1      -9.732  -1.860   7.232  1.00  0.00    -0.125 S 
BRANCH   3   7
ATOM      7  C   UNL     1      -8.237  -0.817  10.767  1.00  0.00     0.271 C 
ATOM      8  N   UNL     1      -7.750   0.459  10.911  1.00  0.00    -0.341 N 
ATOM      9  O   UNL     1      -8.348  -1.626  11.680  1.00  0.00    -0.267 OA
ATOM     10  H   UNL     1      -7.738   1.024  10.063  1.00  0.00     0.164 HD
BRANCH   8  11
ATOM     11  C   UNL     1      -7.161   0.976  12.135  1.00  0.00     0.140 C 
BRANCH  11  12
ATOM     12  C   UNL     1      -5.770   1.518  11.795  1.00  0.00     0.091 C 
ATOM     13  S   UNL     1      -5.507   3.237  11.615  1.00  0.00    -0.106 SA
ATOM     14  C   UNL     1      -3.720   2.977  11.617  1.00  0.00     0.113 C 
ATOM     15  N   UNL     1      -4.766   0.734  11.558  1.00  0.00    -0.267 NA
ATOM     16  C   UNL     1      -3.571   1.537  11.150  1.00  0.00     0.205 CG0
ATOM     17  G   UNL     1      -3.364   1.478   9.628  1.00  0.00     0.000 G0
ENDBRANCH  11  12
BRANCH  11  18
ATOM     18  C   UNL     1      -8.094   1.923  12.932  1.00  0.00     0.015 C 
ATOM     19  C   UNL     1      -9.144   2.547  12.003  1.00  0.00     0.010 C 
BRANCH  18  20
ATOM     20  C   UNL     1      -8.749   1.287  14.175  1.00  0.00     0.002 C 
ATOM     21  C   UNL     1     -10.236   1.007  13.987  1.00  0.00     0.004 C 
ENDBRANCH  18  20
ENDBRANCH  11  18
ENDBRANCH   8  11
ENDBRANCH   3   7
ENDBRANCH   1   2
BRANCH   1  22
ATOM     22  N   UNL     1      -5.907  -1.796   6.354  1.00  0.00    -0.348 N 
ATOM     23  C   UNL     1      -5.050  -2.578   5.628  1.00  0.00     0.249 C 
ATOM     24  O   UNL     1      -5.322  -3.019   4.517  1.00  0.00    -0.272 OA
ATOM     25  H   UNL     1      -5.584  -1.496   7.274  1.00  0.00     0.163 HD
BRANCH  23  26
ATOM     26  C   UNL     1      -3.699  -2.788   6.327  1.00  0.00     0.238 C 
ATOM     27  N   UNL     1      -2.875  -1.556   6.184  1.00  0.00    -0.236 NA
ATOM     28  C   UNL     1      -3.859  -2.999   7.823  1.00  0.00     0.206 C 
ATOM     29  C   UNL     1      -2.833  -1.084   7.394  1.00  0.00     0.208 C 
ATOM     30  O   UNL     1      -3.458  -1.755   8.393  1.00  0.00    -0.474 OA
ATOM     31  C   UNL     1      -2.948  -4.096   8.359  1.00  0.00     0.056 C 
BRANCH  29  32
ATOM     32  C   UNL     1      -2.176   0.221   7.834  1.00  0.00     0.171 C 
BRANCH  32  33
ATOM     33  N   UNL     1      -2.461   0.501   9.232  1.00  0.00    -0.342 N 
ATOM     34  C   UNL     1      -3.349   1.474   9.627  1.00  0.00     0.246 CG0
ATOM     35  O   UNL     1      -3.947   2.196   8.834  1.00  0.00    -0.273 OA
ATOM     36  H   UNL     1      -1.980   0.006   9.975  1.00  0.00     0.164 HD
ATOM     37  G   UNL     1      -3.553   1.571  11.147  1.00  0.00     0.000 G0
ENDBRANCH  32  33
BRANCH  32  38
ATOM     38  C   UNL     1      -0.654   0.192   7.532  1.00  0.00     0.017 C 
ATOM     39  C   UNL     1      -0.072  -1.181   7.893  1.00  0.00     0.010 C 
BRANCH  38  40
ATOM     40  C   UNL     1      -0.321   0.585   6.074  1.00  0.00     0.002 C 
ATOM     41  C   UNL     1       0.656   1.749   5.965  1.00  0.00     0.004 C 
ENDBRANCH  38  40
ENDBRANCH  32  38
ENDBRANCH  29  32
ENDBRANCH  23  26
ENDBRANCH   1  22
TORSDOF 4
ENDMDL
MODEL 41
REMARK VINA RESULT:    -5.026      6.051      8.756
REMARK INTER + INTRA:         -10.367
REMARK INTER:                  -9.127
REMARK INTRA:                  -1.240
REMARK UNBOUND:                -1.815
REMARK SMILES CC[C@H](C)[C@@H]1NC(=O)[C@H]2CSC(=N2)[C@@H]([C@@H](C)CC)NC(=O)c2csc(n2)CNC(=O)[C@H]2N=C1O[C@@H]2C
REMARK SMILES IDX 27 1 25 2 22 3 26 4 23 5 24 6 20 7 19 8 21 9 14 11 12 12
REMARK SMILES IDX 11 13 10 14 13 15 9 16 15 18 16 19 17 20 18 21 28 22 29 23
REMARK SMILES IDX 30 24 31 26 32 27 35 28 33 29 34 30 36 31 5 32 6 33 7 34
REMARK SMILES IDX 8 35 3 38 4 39 2 40 1 41
REMARK H PARENT 19 10 28 25 6 36
REMARK Flexibility Score:   91.900
ROOT
ATOM      1  C   UNL     1      -9.023   5.160  16.595  1.00  0.00     0.183 C 
ENDROOT
BRANCH   1   2
ATOM      2  C   UNL     1      -9.165   3.699  16.277  1.00  0.00     0.113 A 
ATOM      3  C   UNL     1      -8.861   1.752  15.235  1.00  0.00     0.139 A 
ATOM      4  N   UNL     1      -8.417   3.067  15.392  1.00  0.00    -0.234 NA
ATOM      5  C   UNL     1      -9.913   1.402  16.059  1.00  0.00     0.101 A 
ATOM      6  S   UNL     1     -10.374   2.740  17.030  1.00  0.00    -0.125 S 
BRANCH   3   7
ATOM      7  C   UNL     1      -8.244   0.885  14.230  1.00  0.00     0.271 C 
ATOM      8  N   UNL     1      -6.985   1.317  13.893  1.00  0.00    -0.341 N 
ATOM      9  O   UNL     1      -8.803  -0.085  13.732  1.00  0.00    -0.267 OA
ATOM     10  H   UNL     1      -6.644   2.127  14.410  1.00  0.00     0.164 HD
BRANCH   8  11
ATOM     11  C   UNL     1      -6.202   0.775  12.795  1.00  0.00     0.140 C 
BRANCH  11  12
ATOM     12  C   UNL     1      -6.137   1.837  11.694  1.00  0.00     0.091 C 
ATOM     13  S   UNL     1      -4.596   2.368  11.061  1.00  0.00    -0.106 SA
ATOM     14  C   UNL     1      -5.432   3.221   9.707  1.00  0.00     0.113 C 
ATOM     15  N   UNL     1      -7.200   2.429  11.248  1.00  0.00    -0.267 NA
ATOM     16  C   UNL     1      -6.823   3.489  10.261  1.00  0.00     0.205 CG0
ATOM     17  G   UNL     1      -6.893   4.885  10.901  1.00  0.00     0.000 G0
ENDBRANCH  11  12
BRANCH  11  18
ATOM     18  C   UNL     1      -4.851   0.153  13.232  1.00  0.00     0.015 C 
ATOM     19  C   UNL     1      -4.837  -0.087  14.747  1.00  0.00     0.010 C 
BRANCH  18  20
ATOM     20  C   UNL     1      -4.445  -1.117  12.457  1.00  0.00     0.002 C 
ATOM     21  C   UNL     1      -2.945  -1.203  12.198  1.00  0.00     0.004 C 
ENDBRANCH  18  20
ENDBRANCH  11  18
ENDBRANCH   8  11
ENDBRANCH   3   7
ENDBRANCH   1   2
BRANCH   1  22
ATOM     22  N   UNL     1      -9.436   5.900  15.424  1.00  0.00    -0.348 N 
ATOM     23  C   UNL     1      -8.878   7.079  15.010  1.00  0.00     0.249 C 
ATOM     24  O   UNL     1      -7.903   7.588  15.552  1.00  0.00    -0.272 OA
ATOM     25  H   UNL     1     -10.254   5.576  14.910  1.00  0.00     0.163 HD
BRANCH  23  26
ATOM     26  C   UNL     1      -9.564   7.657  13.764  1.00  0.00     0.238 C 
ATOM     27  N   UNL     1      -8.526   8.117  12.800  1.00  0.00    -0.236 NA
ATOM     28  C   UNL     1     -10.373   6.608  13.021  1.00  0.00     0.206 C 
ATOM     29  C   UNL     1      -8.634   7.269  11.821  1.00  0.00     0.208 C 
ATOM     30  O   UNL     1      -9.569   6.290  11.886  1.00  0.00    -0.474 OA
ATOM     31  C   UNL     1     -11.714   7.140  12.534  1.00  0.00     0.056 C 
BRANCH  29  32
ATOM     32  C   UNL     1      -7.757   7.213  10.573  1.00  0.00     0.171 C 
BRANCH  32  33
ATOM     33  N   UNL     1      -7.556   5.839  10.140  1.00  0.00    -0.342 N 
ATOM     34  C   UNL     1      -6.885   4.913  10.902  1.00  0.00     0.246 CG0
ATOM     35  O   UNL     1      -6.383   5.179  11.991  1.00  0.00    -0.273 OA
ATOM     36  H   UNL     1      -7.878   5.523   9.231  1.00  0.00     0.164 HD
ATOM     37  G   UNL     1      -6.834   3.503  10.292  1.00  0.00     0.000 G0
ENDBRANCH  32  33
BRANCH  32  38
ATOM     38  C   UNL     1      -8.349   8.109   9.453  1.00  0.00     0.017 C 
ATOM     39  C   UNL     1      -7.663   9.481   9.457  1.00  0.00     0.010 C 
BRANCH  38  40
ATOM     40  C   UNL     1      -8.289   7.447   8.057  1.00  0.00     0.002 C 
ATOM     41  C   UNL     1      -9.318   7.996   7.077  1.00  0.00     0.004 C 
ENDBRANCH  38  40
ENDBRANCH  32  38
ENDBRANCH  29  32
ENDBRANCH  23  26
ENDBRANCH   1  22
TORSDOF 4
ENDMDL
MODEL 42
REMARK VINA RESULT:    -5.011      5.528      8.103
REMARK INTER + INTRA:         -10.341
REMARK INTER:                  -8.821
REMARK INTRA:                  -1.519
REMARK UNBOUND:                -1.815
REMARK SMILES CC[C@H](C)[C@@H]1NC(=O)[C@H]2CSC(=N2)[C@@H]([C@@H](C)CC)NC(=O)c2csc(n2)CNC(=O)[C@H]2N=C1O[C@@H]2C
REMARK SMILES IDX 27 1 25 2 22 3 26 4 23 5 24 6 20 7 19 8 21 9 14 11 12 12
REMARK SMILES IDX 11 13 10 14 13 15 9 16 15 18 16 19 17 20 18 21 28 22 29 23
REMARK SMILES IDX 30 24 31 26 32 27 35 28 33 29 34 30 36 31 5 32 6 33 7 34
REMARK SMILES IDX 8 35 3 38 4 39 2 40 1 41
REMARK H PARENT 19 10 28 25 6 36
REMARK Flexibility Score:   91.900
ROOT
ATOM      1  C   UNL     1      -4.672   7.853   7.397  1.00  0.00     0.183 C 
ENDROOT
BRANCH   1   2
ATOM      2  C   UNL     1      -3.792   6.639   7.481  1.00  0.00     0.113 A 
ATOM      3  C   UNL     1      -2.610   4.978   8.384  1.00  0.00     0.139 A 
ATOM      4  N   UNL     1      -3.550   5.987   8.604  1.00  0.00    -0.234 NA
ATOM      5  C   UNL     1      -2.203   4.853   7.070  1.00  0.00     0.101 A 
ATOM      6  S   UNL     1      -2.985   6.029   6.094  1.00  0.00    -0.125 S 
BRANCH   3   7
ATOM      7  C   UNL     1      -2.110   4.185   9.508  1.00  0.00     0.271 C 
ATOM      8  N   UNL     1      -3.131   3.558  10.179  1.00  0.00    -0.341 N 
ATOM      9  O   UNL     1      -0.928   4.121   9.824  1.00  0.00    -0.267 OA
ATOM     10  H   UNL     1      -4.062   3.686   9.784  1.00  0.00     0.164 HD
BRANCH   8  11
ATOM     11  C   UNL     1      -2.969   2.855  11.441  1.00  0.00     0.140 C 
BRANCH  11  12
ATOM     12  C   UNL     1      -3.733   3.636  12.515  1.00  0.00     0.091 C 
ATOM     13  S   UNL     1      -4.123   2.890  14.047  1.00  0.00    -0.106 SA
ATOM     14  C   UNL     1      -4.604   4.494  14.721  1.00  0.00     0.113 C 
ATOM     15  N   UNL     1      -4.177   4.836  12.306  1.00  0.00    -0.267 NA
ATOM     16  C   UNL     1      -4.972   5.302  13.486  1.00  0.00     0.205 CG0
ATOM     17  G   UNL     1      -6.480   5.208  13.203  1.00  0.00     0.000 G0
ENDBRANCH  11  12
BRANCH  11  18
ATOM     18  C   UNL     1      -3.260   1.335  11.358  1.00  0.00     0.015 C 
ATOM     19  C   UNL     1      -3.568   0.928   9.911  1.00  0.00     0.010 C 
BRANCH  18  20
ATOM     20  C   UNL     1      -2.171   0.435  11.977  1.00  0.00     0.002 C 
ATOM     21  C   UNL     1      -2.743  -0.735  12.768  1.00  0.00     0.004 C 
ENDBRANCH  18  20
ENDBRANCH  11  18
ENDBRANCH   8  11
ENDBRANCH   3   7
ENDBRANCH   1   2
BRANCH   1  22
ATOM     22  N   UNL     1      -6.001   7.453   7.804  1.00  0.00    -0.348 N 
ATOM     23  C   UNL     1      -7.007   8.319   8.138  1.00  0.00     0.249 C 
ATOM     24  O   UNL     1      -6.905   9.537   8.042  1.00  0.00    -0.272 OA
ATOM     25  H   UNL     1      -6.188   6.460   7.939  1.00  0.00     0.163 HD
BRANCH  23  26
ATOM     26  C   UNL     1      -8.288   7.598   8.584  1.00  0.00     0.238 C 
ATOM     27  N   UNL     1      -7.944   6.572   9.607  1.00  0.00    -0.236 NA
ATOM     28  C   UNL     1      -9.263   8.542   9.266  1.00  0.00     0.206 C 
ATOM     29  C   UNL     1      -8.462   7.053  10.697  1.00  0.00     0.208 C 
ATOM     30  O   UNL     1      -9.135   8.230  10.653  1.00  0.00    -0.474 OA
ATOM     31  C   UNL     1     -10.706   8.298   8.844  1.00  0.00     0.056 C 
BRANCH  29  32
ATOM     32  C   UNL     1      -8.354   6.448  12.094  1.00  0.00     0.171 C 
BRANCH  32  33
ATOM     33  N   UNL     1      -6.963   6.324  12.500  1.00  0.00    -0.342 N 
ATOM     34  C   UNL     1      -6.489   5.239  13.197  1.00  0.00     0.246 CG0
ATOM     35  O   UNL     1      -7.204   4.306  13.552  1.00  0.00    -0.273 OA
ATOM     36  H   UNL     1      -6.294   7.063  12.312  1.00  0.00     0.164 HD
ATOM     37  G   UNL     1      -4.977   5.274  13.478  1.00  0.00     0.000 G0
ENDBRANCH  32  33
BRANCH  32  38
ATOM     38  C   UNL     1      -9.199   7.265  13.106  1.00  0.00     0.017 C 
ATOM     39  C   UNL     1     -10.258   6.365  13.756  1.00  0.00     0.010 C 
BRANCH  38  40
ATOM     40  C   UNL     1      -8.337   7.986  14.167  1.00  0.00     0.002 C 
ATOM     41  C   UNL     1      -9.131   8.932  15.058  1.00  0.00     0.004 C 
ENDBRANCH  38  40
ENDBRANCH  32  38
ENDBRANCH  29  32
ENDBRANCH  23  26
ENDBRANCH   1  22
TORSDOF 4
ENDMDL
MODEL 43
REMARK VINA RESULT:    -4.993      3.011      4.860
REMARK INTER + INTRA:         -10.310
REMARK INTER:                  -8.701
REMARK INTRA:                  -1.610
REMARK UNBOUND:                -1.815
REMARK SMILES CC[C@H](C)[C@@H]1NC(=O)[C@H]2CSC(=N2)[C@@H]([C@@H](C)CC)NC(=O)c2csc(n2)CNC(=O)[C@H]2N=C1O[C@@H]2C
REMARK SMILES IDX 27 1 25 2 22 3 26 4 23 5 24 6 20 7 19 8 21 9 14 11 12 12
REMARK SMILES IDX 11 13 10 14 13 15 9 16 15 18 16 19 17 20 18 21 28 22 29 23
REMARK SMILES IDX 30 24 31 26 32 27 35 28 33 29 34 30 36 31 5 32 6 33 7 34
REMARK SMILES IDX 8 35 3 38 4 39 2 40 1 41
REMARK H PARENT 19 10 28 25 6 36
REMARK Flexibility Score:   91.900
ROOT
ATOM      1  C   UNL     1      -1.426  -0.950   8.930  1.00  0.00     0.183 C 
ENDROOT
BRANCH   1   2
ATOM      2  C   UNL     1      -2.469  -2.001   9.181  1.00  0.00     0.113 A 
ATOM      3  C   UNL     1      -4.467  -2.901   9.586  1.00  0.00     0.139 A 
ATOM      4  N   UNL     1      -3.764  -1.751   9.220  1.00  0.00    -0.234 NA
ATOM      5  C   UNL     1      -3.678  -4.022   9.760  1.00  0.00     0.101 A 
ATOM      6  S   UNL     1      -2.029  -3.632   9.488  1.00  0.00    -0.125 S 
BRANCH   3   7
ATOM      7  C   UNL     1      -5.915  -2.841   9.791  1.00  0.00     0.271 C 
ATOM      8  N   UNL     1      -6.466  -1.736   9.190  1.00  0.00    -0.341 N 
ATOM      9  O   UNL     1      -6.544  -3.662  10.448  1.00  0.00    -0.267 OA
ATOM     10  H   UNL     1      -5.820  -1.156   8.657  1.00  0.00     0.164 HD
BRANCH   8  11
ATOM     11  C   UNL     1      -7.843  -1.307   9.374  1.00  0.00     0.140 C 
BRANCH  11  12
ATOM     12  C   UNL     1      -7.864  -0.266  10.497  1.00  0.00     0.091 C 
ATOM     13  S   UNL     1      -9.289   0.707  10.778  1.00  0.00    -0.106 SA
ATOM     14  C   UNL     1      -8.603   1.281  12.347  1.00  0.00     0.113 C 
ATOM     15  N   UNL     1      -6.820  -0.017  11.223  1.00  0.00    -0.267 NA
ATOM     16  C   UNL     1      -7.103   1.115  12.160  1.00  0.00     0.205 CG0
ATOM     17  G   UNL     1      -6.471   2.420  11.651  1.00  0.00     0.000 G0
ENDBRANCH  11  12
BRANCH  11  18
ATOM     18  C   UNL     1      -8.562  -0.916   8.058  1.00  0.00     0.015 C 
ATOM     19  C   UNL     1      -7.853   0.271   7.393  1.00  0.00     0.010 C 
BRANCH  18  20
ATOM     20  C   UNL     1      -8.767  -2.078   7.065  1.00  0.00     0.002 C 
ATOM     21  C   UNL     1     -10.026  -1.924   6.219  1.00  0.00     0.004 C 
ENDBRANCH  18  20
ENDBRANCH  11  18
ENDBRANCH   8  11
ENDBRANCH   3   7
ENDBRANCH   1   2
BRANCH   1  22
ATOM     22  N   UNL     1      -2.118   0.270   8.577  1.00  0.00    -0.348 N 
ATOM     23  C   UNL     1      -2.560   0.580   7.320  1.00  0.00     0.249 C 
ATOM     24  O   UNL     1      -2.487  -0.194   6.372  1.00  0.00    -0.272 OA
ATOM     25  H   UNL     1      -2.213   0.995   9.287  1.00  0.00     0.163 HD
BRANCH  23  26
ATOM     26  C   UNL     1      -3.209   1.970   7.243  1.00  0.00     0.238 C 
ATOM     27  N   UNL     1      -4.293   2.063   8.259  1.00  0.00    -0.236 NA
ATOM     28  C   UNL     1      -2.228   3.076   7.593  1.00  0.00     0.206 C 
ATOM     29  C   UNL     1      -3.820   2.910   9.123  1.00  0.00     0.208 C 
ATOM     30  O   UNL     1      -2.600   3.464   8.914  1.00  0.00    -0.474 OA
ATOM     31  C   UNL     1      -2.358   4.285   6.676  1.00  0.00     0.056 C 
BRANCH  29  32
ATOM     32  C   UNL     1      -4.483   3.335  10.430  1.00  0.00     0.171 C 
BRANCH  32  33
ATOM     33  N   UNL     1      -5.239   2.236  11.011  1.00  0.00    -0.342 N 
ATOM     34  C   UNL     1      -6.438   2.421  11.655  1.00  0.00     0.246 CG0
ATOM     35  O   UNL     1      -6.951   3.526  11.814  1.00  0.00    -0.273 OA
ATOM     36  H   UNL     1      -4.882   1.287  10.991  1.00  0.00     0.164 HD
ATOM     37  G   UNL     1      -7.105   1.125  12.144  1.00  0.00     0.000 G0
ENDBRANCH  32  33
BRANCH  32  38
ATOM     38  C   UNL     1      -3.429   3.915  11.410  1.00  0.00     0.017 C 
ATOM     39  C   UNL     1      -3.913   5.260  11.968  1.00  0.00     0.010 C 
BRANCH  38  40
ATOM     40  C   UNL     1      -3.053   2.931  12.542  1.00  0.00     0.002 C 
ATOM     41  C   UNL     1      -3.630   3.314  13.899  1.00  0.00     0.004 C 
ENDBRANCH  38  40
ENDBRANCH  32  38
ENDBRANCH  29  32
ENDBRANCH  23  26
ENDBRANCH   1  22
TORSDOF 4
ENDMDL
MODEL 44
REMARK VINA RESULT:    -4.916      4.281      7.402
REMARK INTER + INTRA:         -10.180
REMARK INTER:                  -8.519
REMARK INTRA:                  -1.661
REMARK UNBOUND:                -1.815
REMARK SMILES CC[C@H](C)[C@@H]1NC(=O)[C@H]2CSC(=N2)[C@@H]([C@@H](C)CC)NC(=O)c2csc(n2)CNC(=O)[C@H]2N=C1O[C@@H]2C
REMARK SMILES IDX 27 1 25 2 22 3 26 4 23 5 24 6 20 7 19 8 21 9 14 11 12 12
REMARK SMILES IDX 11 13 10 14 13 15 9 16 15 18 16 19 17 20 18 21 28 22 29 23
REMARK SMILES IDX 30 24 31 26 32 27 35 28 33 29 34 30 36 31 5 32 6 33 7 34
REMARK SMILES IDX 8 35 3 38 4 39 2 40 1 41
REMARK H PARENT 19 10 28 25 6 36
REMARK Flexibility Score:   91.900
ROOT
ATOM      1  C   UNL     1      -3.148   1.880  12.386  1.00  0.00     0.183 C 
ENDROOT
BRANCH   1   2
ATOM      2  C   UNL     1      -4.364   2.658  12.802  1.00  0.00     0.113 A 
ATOM      3  C   UNL     1      -6.475   3.369  12.829  1.00  0.00     0.139 A 
ATOM      4  N   UNL     1      -5.580   2.411  12.350  1.00  0.00    -0.234 NA
ATOM      5  C   UNL     1      -5.917   4.295  13.689  1.00  0.00     0.101 A 
ATOM      6  S   UNL     1      -4.241   3.983  13.887  1.00  0.00    -0.125 S 
BRANCH   3   7
ATOM      7  C   UNL     1      -7.869   3.358  12.380  1.00  0.00     0.271 C 
ATOM      8  N   UNL     1      -8.501   2.187  12.719  1.00  0.00    -0.341 N 
ATOM      9  O   UNL     1      -8.389   4.272  11.751  1.00  0.00    -0.267 OA
ATOM     10  H   UNL     1      -7.945   1.529  13.264  1.00  0.00     0.164 HD
BRANCH   8  11
ATOM     11  C   UNL     1      -9.823   1.807  12.251  1.00  0.00     0.140 C 
BRANCH  11  12
ATOM     12  C   UNL     1      -9.785   0.318  11.895  1.00  0.00     0.091 C 
ATOM     13  S   UNL     1      -9.140  -0.849  13.025  1.00  0.00    -0.106 SA
ATOM     14  C   UNL     1      -9.797  -2.201  12.025  1.00  0.00     0.113 C 
ATOM     15  N   UNL     1     -10.155  -0.120  10.732  1.00  0.00    -0.267 NA
ATOM     16  C   UNL     1      -9.908  -1.593  10.635  1.00  0.00     0.205 CG0
ATOM     17  G   UNL     1      -8.642  -1.884   9.813  1.00  0.00     0.000 G0
ENDBRANCH  11  12
BRANCH  11  18
ATOM     18  C   UNL     1     -10.977   2.264  13.180  1.00  0.00     0.015 C 
ATOM     19  C   UNL     1     -10.505   2.300  14.640  1.00  0.00     0.010 C 
BRANCH  18  20
ATOM     20  C   UNL     1     -11.647   3.591  12.771  1.00  0.00     0.002 C 
ATOM     21  C   UNL     1     -11.051   4.802  13.481  1.00  0.00     0.004 C 
ENDBRANCH  18  20
ENDBRANCH  11  18
ENDBRANCH   8  11
ENDBRANCH   3   7
ENDBRANCH   1   2
BRANCH   1  22
ATOM     22  N   UNL     1      -3.603   0.601  11.887  1.00  0.00    -0.348 N 
ATOM     23  C   UNL     1      -3.603  -0.562  12.608  1.00  0.00     0.249 C 
ATOM     24  O   UNL     1      -3.293  -0.618  13.793  1.00  0.00    -0.272 OA
ATOM     25  H   UNL     1      -3.863   0.530  10.904  1.00  0.00     0.163 HD
BRANCH  23  26
ATOM     26  C   UNL     1      -4.091  -1.768  11.793  1.00  0.00     0.238 C 
ATOM     27  N   UNL     1      -5.486  -1.519  11.334  1.00  0.00    -0.236 NA
ATOM     28  C   UNL     1      -3.276  -1.965  10.526  1.00  0.00     0.206 C 
ATOM     29  C   UNL     1      -5.355  -1.370  10.050  1.00  0.00     0.208 C 
ATOM     30  O   UNL     1      -4.127  -1.482   9.488  1.00  0.00    -0.474 OA
ATOM     31  C   UNL     1      -2.962  -3.431  10.255  1.00  0.00     0.056 C 
BRANCH  29  32
ATOM     32  C   UNL     1      -6.464  -1.017   9.063  1.00  0.00     0.171 C 
BRANCH  32  33
ATOM     33  N   UNL     1      -7.741  -0.878   9.744  1.00  0.00    -0.342 N 
ATOM     34  C   UNL     1      -8.659  -1.898   9.814  1.00  0.00     0.246 CG0
ATOM     35  O   UNL     1      -8.485  -2.994   9.286  1.00  0.00    -0.273 OA
ATOM     36  H   UNL     1      -8.017   0.002  10.166  1.00  0.00     0.164 HD
ATOM     37  G   UNL     1      -9.919  -1.567  10.630  1.00  0.00     0.000 G0
ENDBRANCH  32  33
BRANCH  32  38
ATOM     38  C   UNL     1      -6.084   0.248   8.249  1.00  0.00     0.017 C 
ATOM     39  C   UNL     1      -6.205  -0.036   6.746  1.00  0.00     0.010 C 
BRANCH  38  40
ATOM     40  C   UNL     1      -6.898   1.496   8.659  1.00  0.00     0.002 C 
ATOM     41  C   UNL     1      -6.051   2.753   8.813  1.00  0.00     0.004 C 
ENDBRANCH  38  40
ENDBRANCH  32  38
ENDBRANCH  29  32
ENDBRANCH  23  26
ENDBRANCH   1  22
TORSDOF 4
ENDMDL
MODEL 45
REMARK VINA RESULT:    -4.886      2.968      6.933
REMARK INTER + INTRA:         -10.129
REMARK INTER:                  -8.517
REMARK INTRA:                  -1.612
REMARK UNBOUND:                -1.815
REMARK SMILES CC[C@H](C)[C@@H]1NC(=O)[C@H]2CSC(=N2)[C@@H]([C@@H](C)CC)NC(=O)c2csc(n2)CNC(=O)[C@H]2N=C1O[C@@H]2C
REMARK SMILES IDX 27 1 25 2 22 3 26 4 23 5 24 6 20 7 19 8 21 9 14 11 12 12
REMARK SMILES IDX 11 13 10 14 13 15 9 16 15 18 16 19 17 20 18 21 28 22 29 23
REMARK SMILES IDX 30 24 31 26 32 27 35 28 33 29 34 30 36 31 5 32 6 33 7 34
REMARK SMILES IDX 8 35 3 38 4 39 2 40 1 41
REMARK H PARENT 19 10 28 25 6 36
REMARK Flexibility Score:   91.900
ROOT
ATOM      1  C   UNL     1      -7.655   3.207  11.507  1.00  0.00     0.183 C 
ENDROOT
BRANCH   1   2
ATOM      2  C   UNL     1      -6.408   4.042  11.546  1.00  0.00     0.113 A 
ATOM      3  C   UNL     1      -4.330   4.708  11.094  1.00  0.00     0.139 A 
ATOM      4  N   UNL     1      -5.378   3.856  10.741  1.00  0.00    -0.234 NA
ATOM      5  C   UNL     1      -4.618   5.569  12.134  1.00  0.00     0.101 A 
ATOM      6  S   UNL     1      -6.216   5.297  12.701  1.00  0.00    -0.125 S 
BRANCH   3   7
ATOM      7  C   UNL     1      -3.042   4.612  10.402  1.00  0.00     0.271 C 
ATOM      8  N   UNL     1      -3.194   4.681   9.039  1.00  0.00    -0.341 N 
ATOM      9  O   UNL     1      -1.972   4.455  10.976  1.00  0.00    -0.267 OA
ATOM     10  H   UNL     1      -4.146   4.837   8.709  1.00  0.00     0.164 HD
BRANCH   8  11
ATOM     11  C   UNL     1      -2.127   4.430   8.085  1.00  0.00     0.140 C 
BRANCH  11  12
ATOM     12  C   UNL     1      -2.609   3.345   7.117  1.00  0.00     0.091 C 
ATOM     13  S   UNL     1      -4.259   3.339   6.541  1.00  0.00    -0.106 SA
ATOM     14  C   UNL     1      -3.836   2.095   5.303  1.00  0.00     0.113 C 
ATOM     15  N   UNL     1      -1.846   2.363   6.751  1.00  0.00    -0.267 NA
ATOM     16  C   UNL     1      -2.615   1.407   5.893  1.00  0.00     0.205 CG0
ATOM     17  G   UNL     1      -3.027   0.162   6.695  1.00  0.00     0.000 G0
ENDBRANCH  11  12
BRANCH  11  18
ATOM     18  C   UNL     1      -1.539   5.713   7.444  1.00  0.00     0.015 C 
ATOM     19  C   UNL     1      -0.005   5.666   7.463  1.00  0.00     0.010 C 
BRANCH  18  20
ATOM     20  C   UNL     1      -2.075   6.034   6.034  1.00  0.00     0.002 C 
ATOM     21  C   UNL     1      -1.015   6.632   5.116  1.00  0.00     0.004 C 
ENDBRANCH  18  20
ENDBRANCH  11  18
ENDBRANCH   8  11
ENDBRANCH   3   7
ENDBRANCH   1   2
BRANCH   1  22
ATOM     22  N   UNL     1      -7.478   2.211  10.473  1.00  0.00    -0.348 N 
ATOM     23  C   UNL     1      -7.845   0.898  10.585  1.00  0.00     0.249 C 
ATOM     24  O   UNL     1      -8.446   0.448  11.554  1.00  0.00    -0.272 OA
ATOM     25  H   UNL     1      -6.967   2.473   9.631  1.00  0.00     0.163 HD
BRANCH  23  26
ATOM     26  C   UNL     1      -7.478   0.070   9.344  1.00  0.00     0.238 C 
ATOM     27  N   UNL     1      -6.136   0.489   8.853  1.00  0.00    -0.236 NA
ATOM     28  C   UNL     1      -7.349  -1.410   9.666  1.00  0.00     0.206 C 
ATOM     29  C   UNL     1      -5.388  -0.541   9.114  1.00  0.00     0.208 C 
ATOM     30  O   UNL     1      -5.941  -1.638   9.687  1.00  0.00    -0.474 OA
ATOM     31  C   UNL     1      -7.969  -2.296   8.594  1.00  0.00     0.056 C 
BRANCH  29  32
ATOM     32  C   UNL     1      -3.882  -0.646   8.888  1.00  0.00     0.171 C 
BRANCH  32  33
ATOM     33  N   UNL     1      -3.418   0.398   7.989  1.00  0.00    -0.342 N 
ATOM     34  C   UNL     1      -3.026   0.143   6.696  1.00  0.00     0.246 CG0
ATOM     35  O   UNL     1      -3.013  -0.985   6.210  1.00  0.00    -0.273 OA
ATOM     36  H   UNL     1      -3.332   1.359   8.302  1.00  0.00     0.164 HD
ATOM     37  G   UNL     1      -2.626   1.392   5.893  1.00  0.00     0.000 G0
ENDBRANCH  32  33
BRANCH  32  38
ATOM     38  C   UNL     1      -3.128  -0.643  10.243  1.00  0.00     0.017 C 
ATOM     39  C   UNL     1      -1.869  -1.513  10.148  1.00  0.00     0.010 C 
BRANCH  38  40
ATOM     40  C   UNL     1      -2.799   0.782  10.746  1.00  0.00     0.002 C 
ATOM     41  C   UNL     1      -2.930   0.942  12.255  1.00  0.00     0.004 C 
ENDBRANCH  38  40
ENDBRANCH  32  38
ENDBRANCH  29  32
ENDBRANCH  23  26
ENDBRANCH   1  22
TORSDOF 4
ENDMDL
MODEL 46
REMARK VINA RESULT:    -4.819      3.032      6.190
REMARK INTER + INTRA:         -10.015
REMARK INTER:                  -8.790
REMARK INTRA:                  -1.225
REMARK UNBOUND:                -1.815
REMARK SMILES CC[C@H](C)[C@@H]1NC(=O)[C@H]2CSC(=N2)[C@@H]([C@@H](C)CC)NC(=O)c2csc(n2)CNC(=O)[C@H]2N=C1O[C@@H]2C
REMARK SMILES IDX 27 1 25 2 22 3 26 4 23 5 24 6 20 7 19 8 21 9 14 11 12 12
REMARK SMILES IDX 11 13 10 14 13 15 9 16 15 18 16 19 17 20 18 21 28 22 29 23
REMARK SMILES IDX 30 24 31 26 32 27 35 28 33 29 34 30 36 31 5 32 6 33 7 34
REMARK SMILES IDX 8 35 3 38 4 39 2 40 1 41
REMARK H PARENT 19 10 28 25 6 36
REMARK Flexibility Score:   91.900
ROOT
ATOM      1  C   UNL     1      -1.821   5.397   8.310  1.00  0.00     0.183 C 
ENDROOT
BRANCH   1   2
ATOM      2  C   UNL     1      -1.247   4.182   7.641  1.00  0.00     0.113 A 
ATOM      3  C   UNL     1      -0.670   2.053   7.324  1.00  0.00     0.139 A 
ATOM      4  N   UNL     1      -1.414   2.952   8.090  1.00  0.00    -0.234 NA
ATOM      5  C   UNL     1       0.006   2.627   6.264  1.00  0.00     0.101 A 
ATOM      6  S   UNL     1      -0.271   4.320   6.235  1.00  0.00    -0.125 S 
BRANCH   3   7
ATOM      7  C   UNL     1      -0.620   0.637   7.697  1.00  0.00     0.271 C 
ATOM      8  N   UNL     1      -1.711   0.274   8.448  1.00  0.00    -0.341 N 
ATOM      9  O   UNL     1       0.301  -0.113   7.400  1.00  0.00    -0.267 OA
ATOM     10  H   UNL     1      -2.408   1.003   8.594  1.00  0.00     0.164 HD
BRANCH   8  11
ATOM     11  C   UNL     1      -1.850  -1.009   9.118  1.00  0.00     0.140 C 
BRANCH  11  12
ATOM     12  C   UNL     1      -2.286  -0.739  10.562  1.00  0.00     0.091 C 
ATOM     13  S   UNL     1      -3.000  -2.011  11.525  1.00  0.00    -0.106 SA
ATOM     14  C   UNL     1      -2.836  -0.996  13.009  1.00  0.00     0.113 C 
ATOM     15  N   UNL     1      -2.211   0.441  11.092  1.00  0.00    -0.267 NA
ATOM     16  C   UNL     1      -2.804   0.424  12.467  1.00  0.00     0.205 CG0
ATOM     17  G   UNL     1      -4.215   1.036  12.463  1.00  0.00     0.000 G0
ENDBRANCH  11  12
BRANCH  11  18
ATOM     18  C   UNL     1      -2.689  -2.045   8.328  1.00  0.00     0.015 C 
ATOM     19  C   UNL     1      -3.308  -1.395   7.083  1.00  0.00     0.010 C 
BRANCH  18  20
ATOM     20  C   UNL     1      -1.938  -3.344   7.971  1.00  0.00     0.002 C 
ATOM     21  C   UNL     1      -2.556  -4.583   8.610  1.00  0.00     0.004 C 
ENDBRANCH  18  20
ENDBRANCH  11  18
ENDBRANCH   8  11
ENDBRANCH   3   7
ENDBRANCH   1   2
BRANCH   1  22
ATOM     22  N   UNL     1      -3.195   5.098   8.646  1.00  0.00    -0.348 N 
ATOM     23  C   UNL     1      -4.151   4.711   7.747  1.00  0.00     0.249 C 
ATOM     24  O   UNL     1      -3.912   4.495   6.564  1.00  0.00    -0.272 OA
ATOM     25  H   UNL     1      -3.507   5.265   9.602  1.00  0.00     0.163 HD
BRANCH  23  26
ATOM     26  C   UNL     1      -5.532   4.518   8.391  1.00  0.00     0.238 C 
ATOM     27  N   UNL     1      -5.504   3.309   9.260  1.00  0.00    -0.236 NA
ATOM     28  C   UNL     1      -5.896   5.671   9.311  1.00  0.00     0.206 C 
ATOM     29  C   UNL     1      -5.595   3.801  10.459  1.00  0.00     0.208 C 
ATOM     30  O   UNL     1      -5.701   5.143  10.622  1.00  0.00    -0.474 OA
ATOM     31  C   UNL     1      -7.351   6.095   9.168  1.00  0.00     0.056 C 
BRANCH  29  32
ATOM     32  C   UNL     1      -5.542   3.015  11.766  1.00  0.00     0.171 C 
BRANCH  32  33
ATOM     33  N   UNL     1      -4.283   2.297  11.890  1.00  0.00    -0.342 N 
ATOM     34  C   UNL     1      -4.196   1.046  12.452  1.00  0.00     0.246 CG0
ATOM     35  O   UNL     1      -5.165   0.450  12.914  1.00  0.00    -0.273 OA
ATOM     36  H   UNL     1      -3.408   2.717  11.594  1.00  0.00     0.164 HD
ATOM     37  G   UNL     1      -2.785   0.436  12.433  1.00  0.00     0.000 G0
ENDBRANCH  32  33
BRANCH  32  38
ATOM     38  C   UNL     1      -5.813   3.951  12.974  1.00  0.00     0.017 C 
ATOM     39  C   UNL     1      -6.885   3.339  13.884  1.00  0.00     0.010 C 
BRANCH  38  40
ATOM     40  C   UNL     1      -4.531   4.305  13.762  1.00  0.00     0.002 C 
ATOM     41  C   UNL     1      -4.552   5.704  14.363  1.00  0.00     0.004 C 
ENDBRANCH  38  40
ENDBRANCH  32  38
ENDBRANCH  29  32
ENDBRANCH  23  26
ENDBRANCH   1  22
TORSDOF 4
ENDMDL
MODEL 47
REMARK VINA RESULT:    -4.809      3.095      5.145
REMARK INTER + INTRA:          -9.997
REMARK INTER:                  -8.759
REMARK INTRA:                  -1.238
REMARK UNBOUND:                -1.815
REMARK SMILES CC[C@H](C)[C@@H]1NC(=O)[C@H]2CSC(=N2)[C@@H]([C@@H](C)CC)NC(=O)c2csc(n2)CNC(=O)[C@H]2N=C1O[C@@H]2C
REMARK SMILES IDX 27 1 25 2 22 3 26 4 23 5 24 6 20 7 19 8 21 9 14 11 12 12
REMARK SMILES IDX 11 13 10 14 13 15 9 16 15 18 16 19 17 20 18 21 28 22 29 23
REMARK SMILES IDX 30 24 31 26 32 27 35 28 33 29 34 30 36 31 5 32 6 33 7 34
REMARK SMILES IDX 8 35 3 38 4 39 2 40 1 41
REMARK H PARENT 19 10 28 25 6 36
REMARK Flexibility Score:   91.900
ROOT
ATOM      1  C   UNL     1      -1.382  -0.903   7.028  1.00  0.00     0.183 C 
ENDROOT
BRANCH   1   2
ATOM      2  C   UNL     1      -1.559   0.319   7.884  1.00  0.00     0.113 A 
ATOM      3  C   UNL     1      -2.411   1.671   9.437  1.00  0.00     0.139 A 
ATOM      4  N   UNL     1      -2.381   0.376   8.916  1.00  0.00    -0.234 NA
ATOM      5  C   UNL     1      -1.555   2.558   8.813  1.00  0.00     0.101 A 
ATOM      6  S   UNL     1      -0.716   1.773   7.539  1.00  0.00    -0.125 S 
BRANCH   3   7
ATOM      7  C   UNL     1      -3.330   2.001  10.528  1.00  0.00     0.271 C 
ATOM      8  N   UNL     1      -4.281   1.026  10.701  1.00  0.00    -0.341 N 
ATOM      9  O   UNL     1      -3.271   3.037  11.178  1.00  0.00    -0.267 OA
ATOM     10  H   UNL     1      -4.188   0.208  10.099  1.00  0.00     0.164 HD
BRANCH   8  11
ATOM     11  C   UNL     1      -5.435   1.155  11.576  1.00  0.00     0.140 C 
BRANCH  11  12
ATOM     12  C   UNL     1      -6.604   0.412  10.924  1.00  0.00     0.091 C 
ATOM     13  S   UNL     1      -6.591  -1.331  10.801  1.00  0.00    -0.106 SA
ATOM     14  C   UNL     1      -8.331  -1.324  10.319  1.00  0.00     0.113 C 
ATOM     15  N   UNL     1      -7.599   1.040  10.380  1.00  0.00    -0.267 NA
ATOM     16  C   UNL     1      -8.531   0.064   9.731  1.00  0.00     0.205 CG0
ATOM     17  G   UNL     1      -8.329   0.044   8.207  1.00  0.00     0.000 G0
ENDBRANCH  11  12
BRANCH  11  18
ATOM     18  C   UNL     1      -5.142   0.813  13.059  1.00  0.00     0.015 C 
ATOM     19  C   UNL     1      -6.419   0.941  13.900  1.00  0.00     0.010 C 
BRANCH  18  20
ATOM     20  C   UNL     1      -4.455  -0.550  13.283  1.00  0.00     0.002 C 
ATOM     21  C   UNL     1      -2.934  -0.450  13.320  1.00  0.00     0.004 C 
ENDBRANCH  18  20
ENDBRANCH  11  18
ENDBRANCH   8  11
ENDBRANCH   3   7
ENDBRANCH   1   2
BRANCH   1  22
ATOM     22  N   UNL     1      -2.692  -1.477   6.818  1.00  0.00    -0.348 N 
ATOM     23  C   UNL     1      -2.930  -2.798   6.548  1.00  0.00     0.249 C 
ATOM     24  O   UNL     1      -2.051  -3.652   6.542  1.00  0.00    -0.272 OA
ATOM     25  H   UNL     1      -3.495  -0.851   6.780  1.00  0.00     0.163 HD
BRANCH  23  26
ATOM     26  C   UNL     1      -4.419  -3.099   6.317  1.00  0.00     0.238 C 
ATOM     27  N   UNL     1      -5.242  -2.128   7.091  1.00  0.00    -0.236 NA
ATOM     28  C   UNL     1      -4.819  -2.905   4.865  1.00  0.00     0.206 C 
ATOM     29  C   UNL     1      -5.787  -1.396   6.166  1.00  0.00     0.208 C 
ATOM     30  O   UNL     1      -5.526  -1.666   4.863  1.00  0.00    -0.474 OA
ATOM     31  C   UNL     1      -5.754  -3.999   4.366  1.00  0.00     0.056 C 
BRANCH  29  32
ATOM     32  C   UNL     1      -6.685  -0.182   6.385  1.00  0.00     0.171 C 
BRANCH  32  33
ATOM     33  N   UNL     1      -7.056  -0.057   7.785  1.00  0.00    -0.342 N 
ATOM     34  C   UNL     1      -8.364   0.024   8.201  1.00  0.00     0.246 CG0
ATOM     35  O   UNL     1      -9.315   0.022   7.424  1.00  0.00    -0.273 OA
ATOM     36  H   UNL     1      -6.351   0.013   8.511  1.00  0.00     0.164 HD
ATOM     37  G   UNL     1      -8.545   0.092   9.726  1.00  0.00     0.000 G0
ENDBRANCH  32  33
BRANCH  32  38
ATOM     38  C   UNL     1      -6.009   1.100   5.832  1.00  0.00     0.017 C 
ATOM     39  C   UNL     1      -7.040   2.229   5.709  1.00  0.00     0.010 C 
BRANCH  38  40
ATOM     40  C   UNL     1      -4.781   1.540   6.662  1.00  0.00     0.002 C 
ATOM     41  C   UNL     1      -4.965   2.880   7.361  1.00  0.00     0.004 C 
ENDBRANCH  38  40
ENDBRANCH  32  38
ENDBRANCH  29  32
ENDBRANCH  23  26
ENDBRANCH   1  22
TORSDOF 4
ENDMDL
MODEL 48
REMARK VINA RESULT:    -4.803      2.716      4.182
REMARK INTER + INTRA:          -9.987
REMARK INTER:                  -8.931
REMARK INTRA:                  -1.056
REMARK UNBOUND:                -1.815
REMARK SMILES CC[C@H](C)[C@@H]1NC(=O)[C@H]2CSC(=N2)[C@@H]([C@@H](C)CC)NC(=O)c2csc(n2)CNC(=O)[C@H]2N=C1O[C@@H]2C
REMARK SMILES IDX 27 1 25 2 22 3 26 4 23 5 24 6 20 7 19 8 21 9 14 11 12 12
REMARK SMILES IDX 11 13 10 14 13 15 9 16 15 18 16 19 17 20 18 21 28 22 29 23
REMARK SMILES IDX 30 24 31 26 32 27 35 28 33 29 34 30 36 31 5 32 6 33 7 34
REMARK SMILES IDX 8 35 3 38 4 39 2 40 1 41
REMARK H PARENT 19 10 28 25 6 36
REMARK Flexibility Score:   91.900
ROOT
ATOM      1  C   UNL     1      -0.514  -1.270   7.650  1.00  0.00     0.183 C 
ENDROOT
BRANCH   1   2
ATOM      2  C   UNL     1      -1.529  -1.809   8.617  1.00  0.00     0.113 A 
ATOM      3  C   UNL     1      -3.363  -1.898   9.880  1.00  0.00     0.139 A 
ATOM      4  N   UNL     1      -2.691  -1.229   8.855  1.00  0.00    -0.234 NA
ATOM      5  C   UNL     1      -2.709  -3.017  10.357  1.00  0.00     0.101 A 
ATOM      6  S   UNL     1      -1.218  -3.227   9.533  1.00  0.00    -0.125 S 
BRANCH   3   7
ATOM      7  C   UNL     1      -4.634  -1.376  10.387  1.00  0.00     0.271 C 
ATOM      8  N   UNL     1      -5.440  -0.931   9.369  1.00  0.00    -0.341 N 
ATOM      9  O   UNL     1      -4.919  -1.316  11.576  1.00  0.00    -0.267 OA
ATOM     10  H   UNL     1      -5.077  -1.068   8.426  1.00  0.00     0.164 HD
BRANCH   8  11
ATOM     11  C   UNL     1      -6.677  -0.193   9.568  1.00  0.00     0.140 C 
BRANCH  11  12
ATOM     12  C   UNL     1      -6.601   1.087   8.731  1.00  0.00     0.091 C 
ATOM     13  S   UNL     1      -6.176   1.016   7.037  1.00  0.00    -0.106 SA
ATOM     14  C   UNL     1      -6.672   2.739   6.827  1.00  0.00     0.113 C 
ATOM     15  N   UNL     1      -6.772   2.261   9.254  1.00  0.00    -0.267 NA
ATOM     16  C   UNL     1      -6.534   3.321   8.224  1.00  0.00     0.205 CG0
ATOM     17  G   UNL     1      -5.150   3.965   8.411  1.00  0.00     0.000 G0
ENDBRANCH  11  12
BRANCH  11  18
ATOM     18  C   UNL     1      -7.957  -1.051   9.401  1.00  0.00     0.015 C 
ATOM     19  C   UNL     1      -7.605  -2.433   8.834  1.00  0.00     0.010 C 
BRANCH  18  20
ATOM     20  C   UNL     1      -8.826  -1.167  10.669  1.00  0.00     0.002 C 
ATOM     21  C   UNL     1     -10.310  -1.330  10.361  1.00  0.00     0.004 C 
ENDBRANCH  18  20
ENDBRANCH  11  18
ENDBRANCH   8  11
ENDBRANCH   3   7
ENDBRANCH   1   2
BRANCH   1  22
ATOM     22  N   UNL     1      -0.961   0.042   7.240  1.00  0.00    -0.348 N 
ATOM     23  C   UNL     1      -0.256   0.886   6.425  1.00  0.00     0.249 C 
ATOM     24  O   UNL     1       0.801   0.574   5.887  1.00  0.00    -0.272 OA
ATOM     25  H   UNL     1      -1.819   0.411   7.648  1.00  0.00     0.163 HD
BRANCH  23  26
ATOM     26  C   UNL     1      -0.960   2.234   6.212  1.00  0.00     0.238 C 
ATOM     27  N   UNL     1      -2.195   2.280   7.044  1.00  0.00    -0.236 NA
ATOM     28  C   UNL     1      -0.109   3.401   6.683  1.00  0.00     0.206 C 
ATOM     29  C   UNL     1      -1.911   3.168   7.950  1.00  0.00     0.208 C 
ATOM     30  O   UNL     1      -0.706   3.788   7.920  1.00  0.00    -0.474 OA
ATOM     31  C   UNL     1      -0.161   4.585   5.727  1.00  0.00     0.056 C 
BRANCH  29  32
ATOM     32  C   UNL     1      -2.794   3.575   9.126  1.00  0.00     0.171 C 
BRANCH  32  33
ATOM     33  N   UNL     1      -4.168   3.147   8.916  1.00  0.00    -0.342 N 
ATOM     34  C   UNL     1      -5.134   3.982   8.407  1.00  0.00     0.246 CG0
ATOM     35  O   UNL     1      -4.920   5.156   8.116  1.00  0.00    -0.273 OA
ATOM     36  H   UNL     1      -4.473   2.215   9.177  1.00  0.00     0.164 HD
ATOM     37  G   UNL     1      -6.507   3.319   8.207  1.00  0.00     0.000 G0
ENDBRANCH  32  33
BRANCH  32  38
ATOM     38  C   UNL     1      -2.203   3.043  10.458  1.00  0.00     0.017 C 
ATOM     39  C   UNL     1      -1.853   1.555  10.323  1.00  0.00     0.010 C 
BRANCH  38  40
ATOM     40  C   UNL     1      -0.993   3.869  10.954  1.00  0.00     0.002 C 
ATOM     41  C   UNL     1      -1.275   5.363  11.052  1.00  0.00     0.004 C 
ENDBRANCH  38  40
ENDBRANCH  32  38
ENDBRANCH  29  32
ENDBRANCH  23  26
ENDBRANCH   1  22
TORSDOF 4
ENDMDL
MODEL 49
REMARK VINA RESULT:    -4.760      2.397      3.156
REMARK INTER + INTRA:          -9.915
REMARK INTER:                  -8.257
REMARK INTRA:                  -1.658
REMARK UNBOUND:                -1.815
REMARK SMILES CC[C@H](C)[C@@H]1NC(=O)[C@H]2CSC(=N2)[C@@H]([C@@H](C)CC)NC(=O)c2csc(n2)CNC(=O)[C@H]2N=C1O[C@@H]2C
REMARK SMILES IDX 27 1 25 2 22 3 26 4 23 5 24 6 20 7 19 8 21 9 14 11 12 12
REMARK SMILES IDX 11 13 10 14 13 15 9 16 15 18 16 19 17 20 18 21 28 22 29 23
REMARK SMILES IDX 30 24 31 26 32 27 35 28 33 29 34 30 36 31 5 32 6 33 7 34
REMARK SMILES IDX 8 35 3 38 4 39 2 40 1 41
REMARK H PARENT 19 10 28 25 6 36
REMARK Flexibility Score:   91.900
ROOT
ATOM      1  C   UNL     1      -1.559  -1.147   7.830  1.00  0.00     0.183 C 
ENDROOT
BRANCH   1   2
ATOM      2  C   UNL     1      -2.200  -1.859   8.987  1.00  0.00     0.113 A 
ATOM      3  C   UNL     1      -3.641  -2.288  10.632  1.00  0.00     0.139 A 
ATOM      4  N   UNL     1      -3.367  -1.517   9.500  1.00  0.00    -0.234 NA
ATOM      5  C   UNL     1      -2.687  -3.245  10.916  1.00  0.00     0.101 A 
ATOM      6  S   UNL     1      -1.413  -3.169   9.769  1.00  0.00    -0.125 S 
BRANCH   3   7
ATOM      7  C   UNL     1      -4.840  -2.019  11.429  1.00  0.00     0.271 C 
ATOM      8  N   UNL     1      -5.807  -1.384  10.690  1.00  0.00    -0.341 N 
ATOM      9  O   UNL     1      -4.944  -2.298  12.617  1.00  0.00    -0.267 OA
ATOM     10  H   UNL     1      -5.586  -1.239   9.706  1.00  0.00     0.164 HD
BRANCH   8  11
ATOM     11  C   UNL     1      -7.027  -0.825  11.249  1.00  0.00     0.140 C 
BRANCH  11  12
ATOM     12  C   UNL     1      -6.768   0.653  11.557  1.00  0.00     0.091 C 
ATOM     13  S   UNL     1      -8.092   1.723  11.954  1.00  0.00    -0.106 SA
ATOM     14  C   UNL     1      -6.924   2.993  12.483  1.00  0.00     0.113 C 
ATOM     15  N   UNL     1      -5.586   1.176  11.465  1.00  0.00    -0.267 NA
ATOM     16  C   UNL     1      -5.655   2.650  11.718  1.00  0.00     0.205 CG0
ATOM     17  G   UNL     1      -5.585   3.437  10.399  1.00  0.00     0.000 G0
ENDBRANCH  11  12
BRANCH  11  18
ATOM     18  C   UNL     1      -8.302  -1.143  10.426  1.00  0.00     0.015 C 
ATOM     19  C   UNL     1      -7.939  -1.937   9.164  1.00  0.00     0.010 C 
BRANCH  18  20
ATOM     20  C   UNL     1      -9.427  -1.835  11.222  1.00  0.00     0.002 C 
ATOM     21  C   UNL     1      -8.961  -2.366  12.573  1.00  0.00     0.004 C 
ENDBRANCH  18  20
ENDBRANCH  11  18
ENDBRANCH   8  11
ENDBRANCH   3   7
ENDBRANCH   1   2
BRANCH   1  22
ATOM     22  N   UNL     1      -2.540  -0.233   7.288  1.00  0.00    -0.348 N 
ATOM     23  C   UNL     1      -3.550  -0.588   6.436  1.00  0.00     0.249 C 
ATOM     24  O   UNL     1      -3.777  -1.748   6.110  1.00  0.00    -0.272 OA
ATOM     25  H   UNL     1      -2.431   0.763   7.479  1.00  0.00     0.163 HD
BRANCH  23  26
ATOM     26  C   UNL     1      -4.398   0.611   5.986  1.00  0.00     0.238 C 
ATOM     27  N   UNL     1      -4.922   1.320   7.186  1.00  0.00    -0.236 NA
ATOM     28  C   UNL     1      -3.573   1.641   5.233  1.00  0.00     0.206 C 
ATOM     29  C   UNL     1      -4.272   2.446   7.174  1.00  0.00     0.208 C 
ATOM     30  O   UNL     1      -3.387   2.693   6.178  1.00  0.00    -0.474 OA
ATOM     31  C   UNL     1      -4.303   2.200   4.019  1.00  0.00     0.056 C 
BRANCH  29  32
ATOM     32  C   UNL     1      -4.355   3.549   8.225  1.00  0.00     0.171 C 
BRANCH  32  33
ATOM     33  N   UNL     1      -4.578   2.990   9.549  1.00  0.00    -0.342 N 
ATOM     34  C   UNL     1      -5.566   3.445  10.389  1.00  0.00     0.246 CG0
ATOM     35  O   UNL     1      -6.318   4.371  10.099  1.00  0.00    -0.273 OA
ATOM     36  H   UNL     1      -3.978   2.259   9.917  1.00  0.00     0.164 HD
ATOM     37  G   UNL     1      -5.673   2.681  11.719  1.00  0.00     0.000 G0
ENDBRANCH  32  33
BRANCH  32  38
ATOM     38  C   UNL     1      -3.094   4.452   8.165  1.00  0.00     0.017 C 
ATOM     39  C   UNL     1      -3.501   5.909   7.912  1.00  0.00     0.010 C 
BRANCH  38  40
ATOM     40  C   UNL     1      -2.199   4.320   9.419  1.00  0.00     0.002 C 
ATOM     41  C   UNL     1      -2.145   5.586  10.264  1.00  0.00     0.004 C 
ENDBRANCH  38  40
ENDBRANCH  32  38
ENDBRANCH  29  32
ENDBRANCH  23  26
ENDBRANCH   1  22
TORSDOF 4
ENDMDL
MODEL 50
REMARK VINA RESULT:    -4.715      3.616      6.067
REMARK INTER + INTRA:          -9.838
REMARK INTER:                  -8.777
REMARK INTRA:                  -1.060
REMARK UNBOUND:                -1.815
REMARK SMILES CC[C@H](C)[C@@H]1NC(=O)[C@H]2CSC(=N2)[C@@H]([C@@H](C)CC)NC(=O)c2csc(n2)CNC(=O)[C@H]2N=C1O[C@@H]2C
REMARK SMILES IDX 27 1 25 2 22 3 26 4 23 5 24 6 20 7 19 8 21 9 14 11 12 12
REMARK SMILES IDX 11 13 10 14 13 15 9 16 15 18 16 19 17 20 18 21 28 22 29 23
REMARK SMILES IDX 30 24 31 26 32 27 35 28 33 29 34 30 36 31 5 32 6 33 7 34
REMARK SMILES IDX 8 35 3 38 4 39 2 40 1 41
REMARK H PARENT 19 10 28 25 6 36
REMARK Flexibility Score:   91.900
ROOT
ATOM      1  C   UNL     1      -2.019   2.047  10.013  1.00  0.00     0.183 C 
ENDROOT
BRANCH   1   2
ATOM      2  C   UNL     1      -3.054   1.927  11.094  1.00  0.00     0.113 A 
ATOM      3  C   UNL     1      -4.984   1.418  12.086  1.00  0.00     0.139 A 
ATOM      4  N   UNL     1      -4.179   1.249  10.958  1.00  0.00    -0.234 NA
ATOM      5  C   UNL     1      -4.416   2.184  13.085  1.00  0.00     0.101 A 
ATOM      6  S   UNL     1      -2.860   2.724  12.602  1.00  0.00    -0.125 S 
BRANCH   3   7
ATOM      7  C   UNL     1      -6.329   0.838  12.120  1.00  0.00     0.271 C 
ATOM      8  N   UNL     1      -7.245   1.646  11.493  1.00  0.00    -0.341 N 
ATOM      9  O   UNL     1      -6.599  -0.221  12.673  1.00  0.00    -0.267 OA
ATOM     10  H   UNL     1      -6.866   2.487  11.058  1.00  0.00     0.164 HD
BRANCH   8  11
ATOM     11  C   UNL     1      -8.682   1.431  11.527  1.00  0.00     0.140 C 
BRANCH  11  12
ATOM     12  C   UNL     1      -8.997   0.226  10.637  1.00  0.00     0.091 C 
ATOM     13  S   UNL     1      -9.604  -1.258  11.334  1.00  0.00    -0.106 SA
ATOM     14  C   UNL     1     -10.007  -1.882   9.689  1.00  0.00     0.113 C 
ATOM     15  N   UNL     1      -8.761   0.232   9.363  1.00  0.00    -0.267 NA
ATOM     16  C   UNL     1      -9.066  -1.111   8.776  1.00  0.00     0.205 CG0
ATOM     17  G   UNL     1      -7.775  -1.908   8.529  1.00  0.00     0.000 G0
ENDBRANCH  11  12
BRANCH  11  18
ATOM     18  C   UNL     1      -9.283   1.409  12.955  1.00  0.00     0.015 C 
ATOM     19  C   UNL     1      -8.688   2.541  13.804  1.00  0.00     0.010 C 
BRANCH  18  20
ATOM     20  C   UNL     1     -10.824   1.417  13.007  1.00  0.00     0.002 C 
ATOM     21  C   UNL     1     -11.434   2.670  12.388  1.00  0.00     0.004 C 
ENDBRANCH  18  20
ENDBRANCH  11  18
ENDBRANCH   8  11
ENDBRANCH   3   7
ENDBRANCH   1   2
BRANCH   1  22
ATOM     22  N   UNL     1      -2.610   1.551   8.790  1.00  0.00    -0.348 N 
ATOM     23  C   UNL     1      -1.968   0.757   7.880  1.00  0.00     0.249 C 
ATOM     24  O   UNL     1      -0.839   0.311   8.054  1.00  0.00    -0.272 OA
ATOM     25  H   UNL     1      -3.541   1.879   8.535  1.00  0.00     0.163 HD
BRANCH  23  26
ATOM     26  C   UNL     1      -2.835   0.438   6.653  1.00  0.00     0.238 C 
ATOM     27  N   UNL     1      -3.350  -0.956   6.764  1.00  0.00    -0.236 NA
ATOM     28  C   UNL     1      -4.068   1.322   6.581  1.00  0.00     0.206 C 
ATOM     29  C   UNL     1      -4.623  -0.788   6.964  1.00  0.00     0.208 C 
ATOM     30  O   UNL     1      -5.131   0.468   7.001  1.00  0.00    -0.474 OA
ATOM     31  C   UNL     1      -4.361   1.803   5.167  1.00  0.00     0.056 C 
BRANCH  29  32
ATOM     32  C   UNL     1      -5.650  -1.886   7.226  1.00  0.00     0.171 C 
BRANCH  32  33
ATOM     33  N   UNL     1      -6.941  -1.316   7.576  1.00  0.00    -0.342 N 
ATOM     34  C   UNL     1      -7.786  -1.902   8.488  1.00  0.00     0.246 CG0
ATOM     35  O   UNL     1      -7.530  -2.961   9.056  1.00  0.00    -0.273 OA
ATOM     36  H   UNL     1      -7.283  -0.474   7.126  1.00  0.00     0.164 HD
ATOM     37  G   UNL     1      -9.076  -1.110   8.762  1.00  0.00     0.000 G0
ENDBRANCH  32  33
BRANCH  32  38
ATOM     38  C   UNL     1      -5.735  -2.849   6.012  1.00  0.00     0.017 C 
ATOM     39  C   UNL     1      -5.872  -2.048   4.712  1.00  0.00     0.010 C 
BRANCH  38  40
ATOM     40  C   UNL     1      -4.551  -3.842   5.947  1.00  0.00     0.002 C 
ATOM     41  C   UNL     1      -4.067  -4.120   4.530  1.00  0.00     0.004 C 
ENDBRANCH  38  40
ENDBRANCH  32  38
ENDBRANCH  29  32
ENDBRANCH  23  26
ENDBRANCH   1  22
TORSDOF 4
ENDMDL
