MODEL 1
REMARK VINA RESULT:    -6.695      0.000      0.000
REMARK INTER + INTRA:         -27.202
REMARK INTER:                 -20.002
REMARK INTRA:                  -7.200
REMARK UNBOUND:                -7.200
REMARK SMILES C=C1C(=O)N[C@H](C)C(=O)N[C@@H](CC(C)C)C(=O)N[C@@H](C(=O)O)[C@H](C)C(=O)N[C@@H](CCCN=C(N)N)C(=O)N[C@@H](/C=C/C(C)=C/[C@H](C)[C@H](Cc2ccccc2)OC)[C@H](C)C(=O)N[C@@H](C(=O)O)CCC(=O)N1C
REMARK SMILES IDX 39 1 38 2 37 3 36 4 28 6 27 7 25 8 26 9 23 11 24 12 19 13
REMARK SMILES IDX 18 14 16 15 17 16 11 18 10 19 8 20 9 21 12 24 13 25 14 26
REMARK SMILES IDX 15 27 20 28 21 29 22 30 29 32 30 33 31 34 32 35 33 36 34 37
REMARK SMILES IDX 35 38 57 43 58 44 59 45 60 46 61 47 62 49 66 50 67 51 68 52
REMARK SMILES IDX 69 53 70 54 71 55 2 56 1 57 3 58 4 59 5 60 6 62 7 63 63 65
REMARK SMILES IDX 64 66 65 67 40 69 41 70 42 71 44 72 43 73 45 74 46 75 47 76
REMARK SMILES IDX 55 77 56 78 48 79 49 80 50 81 54 82 51 83 53 84 52 85
REMARK H PARENT 38 5 27 10 18 17 10 22 22 31 34 39 34 40 35 41 35 42 61 48
REMARK H PARENT 5 61 65 68
REMARK Flexibility Score:  369.900
ROOT
ATOM      1  C   UNL     1      -7.693  11.496   4.677  1.00  0.00     0.117 C 
ENDROOT
BRANCH   1   2
ATOM      2  N   UNL     1      -6.397  10.817   4.692  1.00  0.00    -0.347 N 
ATOM      3  O   UNL     1      -5.684  11.549   6.747  1.00  0.00    -0.273 OA
ATOM      4  C   UNL     1      -5.532  10.825   5.769  1.00  0.00     0.243 C 
ATOM      5  H   UNL     1      -6.120  10.264   3.895  1.00  0.00     0.164 HD
BRANCH   4   6
ATOM      6  C   UNL     1      -4.266   9.957   5.558  1.00  0.00     0.171 C 
BRANCH   6   7
ATOM      7  N   UNL     1      -3.221  10.731   4.869  1.00  0.00    -0.344 N 
ATOM      8  C   UNL     1      -3.037  10.609   3.509  1.00  0.00     0.226 C 
ATOM      9  O   UNL     1      -3.704   9.848   2.818  1.00  0.00    -0.275 OA
ATOM     10  H   UNL     1      -2.605  11.319   5.417  1.00  0.00     0.164 HD
BRANCH   8  11
ATOM     11  C   UNL     1      -1.957  11.513   2.940  1.00  0.00     0.109 C 
ATOM     12  C   UNL     1      -1.274  12.289   4.066  1.00  0.00     0.021 C 
BRANCH  11  13
ATOM     13  C   UNL     1      -1.005  10.691   2.049  1.00  0.00     0.204 C 
BRANCH  13  14
ATOM     14  N   UNL     1      -0.074  11.544   1.304  1.00  0.00    -0.340 N 
ATOM     15  C   UNL     1       0.289  11.293  -0.002  1.00  0.00     0.243 C 
ATOM     16  O   UNL     1      -0.191  10.369  -0.655  1.00  0.00    -0.273 OA
ATOM     17  H   UNL     1       0.473  12.232   1.829  1.00  0.00     0.164 HD
BRANCH  15  18
ATOM     18  C   UNL     1       1.437  12.200  -0.510  1.00  0.00     0.171 C 
BRANCH  18  19
ATOM     19  N   UNL     1       0.925  12.906  -1.682  1.00  0.00    -0.343 N 
ATOM     20  C   UNL     1       1.411  12.659  -2.952  1.00  0.00     0.242 CG0
ATOM     21  O   UNL     1       2.384  11.932  -3.138  1.00  0.00    -0.273 OA
ATOM     22  H   UNL     1       0.198  13.603  -1.565  1.00  0.00     0.164 HD
ATOM     23  G   UNL     1       0.694  13.441  -4.072  1.00  0.00     0.000 G0
ENDBRANCH  18  19
BRANCH  18  24
ATOM     24  C   UNL     1       1.880  13.178   0.586  1.00  0.00     0.038 C 
BRANCH  24  25
ATOM     25  C   UNL     1       3.339  12.999   1.058  1.00  0.00    -0.015 C 
ATOM     26  C   UNL     1       3.893  14.253   1.735  1.00  0.00     0.007 C 
ATOM     27  C   UNL     1       4.223  12.623  -0.134  1.00  0.00     0.007 C 
ENDBRANCH  24  25
ENDBRANCH  18  24
ENDBRANCH  15  18
ENDBRANCH  13  14
BRANCH  13  28
ATOM     28  C   UNL     1      -0.165   9.680   2.835  1.00  0.00     0.327 C 
ATOM     29  O   UNL     1      -0.524   8.570   3.197  1.00  0.00    -0.250 OA
BRANCH  28  30
ATOM     30  O   UNL     1       1.030  10.170   3.219  1.00  0.00    -0.480 OA
ATOM     31  H   UNL     1       0.808  10.855   3.883  1.00  0.00     0.296 HD
ENDBRANCH  28  30
ENDBRANCH  13  28
ENDBRANCH  11  13
ENDBRANCH   8  11
ENDBRANCH   6   7
BRANCH   6  32
ATOM     32  C   UNL     1      -3.768   9.453   6.917  1.00  0.00     0.037 C 
BRANCH  32  33
ATOM     33  C   UNL     1      -2.524  10.214   7.396  1.00  0.00     0.026 C 
BRANCH  33  34
ATOM     34  C   UNL     1      -1.318   9.295   7.598  1.00  0.00     0.146 C 
BRANCH  34  35
ATOM     35  N   UNL     1      -1.096   8.536   6.376  1.00  0.00    -0.254 NA
ATOM     36  C   UNL     1      -1.093   7.256   6.439  1.00  0.00     0.185 C 
ATOM     37  N   UNL     1      -0.895   6.546   5.318  1.00  0.00    -0.370 N 
ATOM     38  N   UNL     1      -1.269   6.463   7.511  1.00  0.00    -0.370 N 
ATOM     39  H   UNL     1      -0.765   7.073   4.464  1.00  0.00     0.159 HD
ATOM     40  H   UNL     1      -1.050   5.555   5.252  1.00  0.00     0.159 HD
ATOM     41  H   UNL     1      -1.105   5.471   7.457  1.00  0.00     0.159 HD
ATOM     42  H   UNL     1      -1.412   6.862   8.426  1.00  0.00     0.159 HD
ENDBRANCH  34  35
ENDBRANCH  33  34
ENDBRANCH  32  33
ENDBRANCH   6  32
ENDBRANCH   4   6
ENDBRANCH   1   2
BRANCH   1  43
ATOM     43  C   UNL     1      -8.810  10.436   4.906  1.00  0.00     0.102 C 
ATOM     44  C   UNL     1      -9.989  10.569   3.928  1.00  0.00     0.020 C 
BRANCH  43  45
ATOM     45  C   UNL     1      -9.227  10.386   6.379  1.00  0.00     0.225 C 
ATOM     46  O   UNL     1     -10.245  10.922   6.806  1.00  0.00    -0.275 OA
ATOM     47  N   UNL     1      -8.333   9.774   7.227  1.00  0.00    -0.342 N 
ATOM     48  H   UNL     1      -7.585   9.211   6.845  1.00  0.00     0.164 HD
BRANCH  47  49
ATOM     49  C   UNL     1      -8.616   9.621   8.658  1.00  0.00     0.192 C 
BRANCH  49  50
ATOM     50  C   UNL     1      -7.322   9.787   9.459  1.00  0.00     0.047 C 
BRANCH  50  51
ATOM     51  C   UNL     1      -7.339  11.046  10.337  1.00  0.00     0.103 C 
BRANCH  51  52
ATOM     52  C   UNL     1      -8.295  10.906  11.520  1.00  0.00     0.226 C 
ATOM     53  O   UNL     1      -8.124  10.001  12.339  1.00  0.00    -0.275 OA
BRANCH  52  54
ATOM     54  N   UNL     1      -9.291  11.893  11.641  1.00  0.00    -0.311 N 
ATOM     55  C   UNL     1      -9.139  13.009  12.584  1.00  0.00     0.153 C 
BRANCH  54  56
ATOM     56  C   UNL     1     -10.460  11.853  10.863  1.00  0.00     0.102 C 
ATOM     57  C   UNL     1     -10.700  12.631   9.795  1.00  0.00     0.043 C 
BRANCH  56  58
ATOM     58  C   UNL     1     -11.555  10.857  11.163  1.00  0.00     0.268 C 
ATOM     59  O   UNL     1     -11.597  10.196  12.192  1.00  0.00    -0.268 OA
ATOM     60  N   UNL     1     -12.530  10.819  10.194  1.00  0.00    -0.339 N 
ATOM     61  H   UNL     1     -12.417  11.390   9.366  1.00  0.00     0.164 HD
BRANCH  60  62
ATOM     62  C   UNL     1     -13.714   9.969  10.314  1.00  0.00     0.168 CG0
ATOM     63  C   UNL     1     -14.989  10.804  10.320  1.00  0.00     0.041 C 
ATOM     64  G   UNL     1     -13.613   9.119  11.598  1.00  0.00     0.000 G0
ENDBRANCH  60  62
ENDBRANCH  56  58
ENDBRANCH  54  56
ENDBRANCH  52  54
ENDBRANCH  51  52
ENDBRANCH  50  51
ENDBRANCH  49  50
BRANCH  49  65
ATOM     65  C   UNL     1      -9.234   8.249   8.969  1.00  0.00     0.326 C 
ATOM     66  O   UNL     1      -9.615   7.436   8.139  1.00  0.00    -0.250 OA
BRANCH  65  67
ATOM     67  O   UNL     1      -9.399   7.991  10.285  1.00  0.00    -0.480 OA
ATOM     68  H   UNL     1      -9.394   7.010  10.331  1.00  0.00     0.296 HD
ENDBRANCH  65  67
ENDBRANCH  49  65
ENDBRANCH  47  49
ENDBRANCH  43  45
ENDBRANCH   1  43
BRANCH   1  69
ATOM     69  C   UNL     1      -7.722  12.329   3.409  1.00  0.00    -0.001 C 
ATOM     70  C   UNL     1      -8.182  13.584   3.266  1.00  0.00     0.001 C 
BRANCH  70  71
ATOM     71  C   UNL     1      -8.185  14.386   2.041  1.00  0.00    -0.055 C 
ATOM     72  C   UNL     1      -8.929  13.946   1.004  1.00  0.00    -0.018 C 
ATOM     73  C   UNL     1      -7.364  15.649   2.026  1.00  0.00     0.044 C 
BRANCH  72  74
ATOM     74  C   UNL     1      -9.123  14.564  -0.373  1.00  0.00     0.038 C 
ATOM     75  C   UNL     1     -10.586  14.332  -0.771  1.00  0.00     0.015 C 
BRANCH  74  76
ATOM     76  C   UNL     1      -8.075  13.953  -1.349  1.00  0.00     0.128 C 
BRANCH  76  77
ATOM     77  O   UNL     1      -8.619  13.894  -2.679  1.00  0.00    -0.381 OA
ATOM     78  C   UNL     1      -8.059  14.851  -3.568  1.00  0.00     0.195 C 
ENDBRANCH  76  77
BRANCH  76  79
ATOM     79  C   UNL     1      -6.690  14.644  -1.298  1.00  0.00     0.068 C 
BRANCH  79  80
ATOM     80  C   UNL     1      -5.492  13.801  -0.930  1.00  0.00    -0.045 A 
ATOM     81  C   UNL     1      -5.639  12.627  -0.180  1.00  0.00     0.004 A 
ATOM     82  C   UNL     1      -4.203  14.200  -1.312  1.00  0.00     0.004 A 
ATOM     83  C   UNL     1      -4.525  11.861   0.169  1.00  0.00     0.000 A 
ATOM     84  C   UNL     1      -3.089  13.433  -0.962  1.00  0.00     0.000 A 
ATOM     85  C   UNL     1      -3.251  12.263  -0.223  1.00  0.00     0.000 A 
ENDBRANCH  79  80
ENDBRANCH  76  79
ENDBRANCH  74  76
ENDBRANCH  72  74
ENDBRANCH  70  71
ENDBRANCH   1  69
TORSDOF 17
ENDMDL
MODEL 2
REMARK VINA RESULT:    -6.593      2.373      3.478
REMARK INTER + INTRA:         -26.896
REMARK INTER:                 -21.677
REMARK INTRA:                  -5.219
REMARK UNBOUND:                -7.200
REMARK SMILES C=C1C(=O)N[C@H](C)C(=O)N[C@@H](CC(C)C)C(=O)N[C@@H](C(=O)O)[C@H](C)C(=O)N[C@@H](CCCN=C(N)N)C(=O)N[C@@H](/C=C/C(C)=C/[C@H](C)[C@H](Cc2ccccc2)OC)[C@H](C)C(=O)N[C@@H](C(=O)O)CCC(=O)N1C
REMARK SMILES IDX 39 1 38 2 37 3 36 4 28 6 27 7 25 8 26 9 23 11 24 12 19 13
REMARK SMILES IDX 18 14 16 15 17 16 11 18 10 19 8 20 9 21 12 24 13 25 14 26
REMARK SMILES IDX 15 27 20 28 21 29 22 30 29 32 30 33 31 34 32 35 33 36 34 37
REMARK SMILES IDX 35 38 57 43 58 44 59 45 60 46 61 47 62 49 66 50 67 51 68 52
REMARK SMILES IDX 69 53 70 54 71 55 2 56 1 57 3 58 4 59 5 60 6 62 7 63 63 65
REMARK SMILES IDX 64 66 65 67 40 69 41 70 42 71 44 72 43 73 45 74 46 75 47 76
REMARK SMILES IDX 55 77 56 78 48 79 49 80 50 81 54 82 51 83 53 84 52 85
REMARK H PARENT 38 5 27 10 18 17 10 22 22 31 34 39 34 40 35 41 35 42 61 48
REMARK H PARENT 5 61 65 68
REMARK Flexibility Score:  369.900
ROOT
ATOM      1  C   UNL     1      -7.598  11.444   4.781  1.00  0.00     0.117 C 
ENDROOT
BRANCH   1   2
ATOM      2  N   UNL     1      -6.222  11.025   5.048  1.00  0.00    -0.347 N 
ATOM      3  O   UNL     1      -5.876   9.837   3.115  1.00  0.00    -0.273 OA
ATOM      4  C   UNL     1      -5.437  10.329   4.149  1.00  0.00     0.243 C 
ATOM      5  H   UNL     1      -5.783  11.294   5.916  1.00  0.00     0.164 HD
BRANCH   4   6
ATOM      6  C   UNL     1      -3.989  10.085   4.644  1.00  0.00     0.171 C 
BRANCH   6   7
ATOM      7  N   UNL     1      -3.035  10.885   3.858  1.00  0.00    -0.344 N 
ATOM      8  C   UNL     1      -1.986  10.280   3.200  1.00  0.00     0.226 C 
ATOM      9  O   UNL     1      -1.782   9.073   3.253  1.00  0.00    -0.275 OA
ATOM     10  H   UNL     1      -3.132  11.892   3.846  1.00  0.00     0.164 HD
BRANCH   8  11
ATOM     11  C   UNL     1      -1.124  11.232   2.389  1.00  0.00     0.109 C 
ATOM     12  C   UNL     1      -1.452  12.679   2.755  1.00  0.00     0.021 C 
BRANCH  11  13
ATOM     13  C   UNL     1       0.361  10.845   2.538  1.00  0.00     0.204 C 
BRANCH  13  14
ATOM     14  N   UNL     1       1.094  10.976   1.275  1.00  0.00    -0.340 N 
ATOM     15  C   UNL     1       1.739   9.918   0.671  1.00  0.00     0.243 C 
ATOM     16  O   UNL     1       1.694   8.774   1.120  1.00  0.00    -0.273 OA
ATOM     17  H   UNL     1       1.297  11.919   0.933  1.00  0.00     0.164 HD
BRANCH  15  18
ATOM     18  C   UNL     1       2.616  10.336  -0.535  1.00  0.00     0.171 C 
BRANCH  18  19
ATOM     19  N   UNL     1       3.988  10.434  -0.041  1.00  0.00    -0.343 N 
ATOM     20  C   UNL     1       4.445  11.557   0.621  1.00  0.00     0.242 CG0
ATOM     21  O   UNL     1       3.763  12.575   0.709  1.00  0.00    -0.273 OA
ATOM     22  H   UNL     1       4.628   9.662  -0.192  1.00  0.00     0.164 HD
ATOM     23  G   UNL     1       5.895  11.446   1.136  1.00  0.00     0.000 G0
ENDBRANCH  18  19
BRANCH  18  24
ATOM     24  C   UNL     1       2.499   9.310  -1.670  1.00  0.00     0.038 C 
BRANCH  24  25
ATOM     25  C   UNL     1       1.659   9.778  -2.877  1.00  0.00    -0.015 C 
ATOM     26  C   UNL     1       1.095  11.187  -2.687  1.00  0.00     0.007 C 
ATOM     27  C   UNL     1       0.513   8.793  -3.120  1.00  0.00     0.007 C 
ENDBRANCH  24  25
ENDBRANCH  18  24
ENDBRANCH  15  18
ENDBRANCH  13  14
BRANCH  13  28
ATOM     28  C   UNL     1       1.102  11.687   3.582  1.00  0.00     0.327 C 
ATOM     29  O   UNL     1       0.992  11.594   4.795  1.00  0.00    -0.250 OA
BRANCH  28  30
ATOM     30  O   UNL     1       1.845  12.671   3.037  1.00  0.00    -0.480 OA
ATOM     31  H   UNL     1       1.842  12.473   2.077  1.00  0.00     0.296 HD
ENDBRANCH  28  30
ENDBRANCH  13  28
ENDBRANCH  11  13
ENDBRANCH   8  11
ENDBRANCH   6   7
BRANCH   6  32
ATOM     32  C   UNL     1      -3.900  10.436   6.133  1.00  0.00     0.037 C 
BRANCH  32  33
ATOM     33  C   UNL     1      -2.620  11.214   6.470  1.00  0.00     0.026 C 
BRANCH  33  34
ATOM     34  C   UNL     1      -2.727  11.971   7.794  1.00  0.00     0.146 C 
BRANCH  34  35
ATOM     35  N   UNL     1      -4.127  12.283   8.045  1.00  0.00    -0.254 NA
ATOM     36  C   UNL     1      -4.428  13.448   8.484  1.00  0.00     0.185 C 
ATOM     37  N   UNL     1      -5.716  13.747   8.714  1.00  0.00    -0.370 N 
ATOM     38  N   UNL     1      -3.614  14.481   8.766  1.00  0.00    -0.370 N 
ATOM     39  H   UNL     1      -6.393  13.022   8.515  1.00  0.00     0.159 HD
ATOM     40  H   UNL     1      -6.047  14.681   8.889  1.00  0.00     0.159 HD
ATOM     41  H   UNL     1      -3.958  15.301   9.238  1.00  0.00     0.159 HD
ATOM     42  H   UNL     1      -2.616  14.392   8.655  1.00  0.00     0.159 HD
ENDBRANCH  34  35
ENDBRANCH  33  34
ENDBRANCH  32  33
ENDBRANCH   6  32
ENDBRANCH   4   6
ENDBRANCH   1   2
BRANCH   1  43
ATOM     43  C   UNL     1      -8.549  10.255   5.106  1.00  0.00     0.102 C 
ATOM     44  C   UNL     1      -9.699  10.098   4.096  1.00  0.00     0.020 C 
BRANCH  43  45
ATOM     45  C   UNL     1      -9.007  10.300   6.567  1.00  0.00     0.225 C 
ATOM     46  O   UNL     1      -9.999  10.920   6.940  1.00  0.00    -0.275 OA
ATOM     47  N   UNL     1      -8.177   9.672   7.467  1.00  0.00    -0.342 N 
ATOM     48  H   UNL     1      -7.458   9.046   7.132  1.00  0.00     0.164 HD
BRANCH  47  49
ATOM     49  C   UNL     1      -8.506   9.604   8.894  1.00  0.00     0.192 C 
BRANCH  49  50
ATOM     50  C   UNL     1      -7.236   9.804   9.725  1.00  0.00     0.047 C 
BRANCH  50  51
ATOM     51  C   UNL     1      -7.289  11.084  10.570  1.00  0.00     0.103 C 
BRANCH  51  52
ATOM     52  C   UNL     1      -8.203  10.933  11.784  1.00  0.00     0.226 C 
ATOM     53  O   UNL     1      -7.966  10.059  12.621  1.00  0.00    -0.275 OA
BRANCH  52  54
ATOM     54  N   UNL     1      -9.240  11.875  11.910  1.00  0.00    -0.311 N 
ATOM     55  C   UNL     1      -9.118  13.017  12.826  1.00  0.00     0.153 C 
BRANCH  54  56
ATOM     56  C   UNL     1     -10.425  11.764  11.164  1.00  0.00     0.102 C 
ATOM     57  C   UNL     1     -10.680  12.425  10.023  1.00  0.00     0.043 C 
BRANCH  56  58
ATOM     58  C   UNL     1     -11.523  10.817  11.590  1.00  0.00     0.268 C 
ATOM     59  O   UNL     1     -11.410   9.599  11.549  1.00  0.00    -0.268 OA
ATOM     60  N   UNL     1     -12.630  11.462  12.086  1.00  0.00    -0.339 N 
ATOM     61  H   UNL     1     -12.650  12.475  12.076  1.00  0.00     0.164 HD
BRANCH  60  62
ATOM     62  C   UNL     1     -13.785  10.735  12.612  1.00  0.00     0.168 CG0
ATOM     63  C   UNL     1     -13.832  10.810  14.134  1.00  0.00     0.041 C 
ATOM     64  G   UNL     1     -13.730   9.267  12.140  1.00  0.00     0.000 G0
ENDBRANCH  60  62
ENDBRANCH  56  58
ENDBRANCH  54  56
ENDBRANCH  52  54
ENDBRANCH  51  52
ENDBRANCH  50  51
ENDBRANCH  49  50
BRANCH  49  65
ATOM     65  C   UNL     1      -9.149   8.258   9.263  1.00  0.00     0.326 C 
ATOM     66  O   UNL     1      -9.612   7.450   8.471  1.00  0.00    -0.250 OA
BRANCH  65  67
ATOM     67  O   UNL     1      -9.235   8.020  10.590  1.00  0.00    -0.480 OA
ATOM     68  H   UNL     1      -8.850   7.122  10.690  1.00  0.00     0.296 HD
ENDBRANCH  65  67
ENDBRANCH  49  65
ENDBRANCH  47  49
ENDBRANCH  43  45
ENDBRANCH   1  43
BRANCH   1  69
ATOM     69  C   UNL     1      -7.601  12.023   3.378  1.00  0.00    -0.001 C 
ATOM     70  C   UNL     1      -8.499  12.871   2.846  1.00  0.00     0.001 C 
BRANCH  70  71
ATOM     71  C   UNL     1      -8.480  13.441   1.498  1.00  0.00    -0.055 C 
ATOM     72  C   UNL     1      -7.280  13.594   0.898  1.00  0.00    -0.018 C 
ATOM     73  C   UNL     1      -9.799  13.808   0.871  1.00  0.00     0.044 C 
BRANCH  72  74
ATOM     74  C   UNL     1      -6.956  14.147  -0.482  1.00  0.00     0.038 C 
ATOM     75  C   UNL     1      -5.606  13.555  -0.902  1.00  0.00     0.015 C 
BRANCH  74  76
ATOM     76  C   UNL     1      -6.996  15.703  -0.419  1.00  0.00     0.128 C 
BRANCH  76  77
ATOM     77  O   UNL     1      -8.113  16.196  -1.179  1.00  0.00    -0.381 OA
ATOM     78  C   UNL     1      -8.512  15.333  -2.235  1.00  0.00     0.195 C 
ENDBRANCH  76  77
BRANCH  76  79
ATOM     79  C   UNL     1      -6.949  16.276   1.019  1.00  0.00     0.068 C 
BRANCH  79  80
ATOM     80  C   UNL     1      -5.910  17.327   1.328  1.00  0.00    -0.045 A 
ATOM     81  C   UNL     1      -6.238  18.471   2.067  1.00  0.00     0.004 A 
ATOM     82  C   UNL     1      -4.598  17.186   0.851  1.00  0.00     0.004 A 
ATOM     83  C   UNL     1      -5.275  19.446   2.336  1.00  0.00     0.000 A 
ATOM     84  C   UNL     1      -3.635  18.161   1.120  1.00  0.00     0.000 A 
ATOM     85  C   UNL     1      -3.973  19.290   1.864  1.00  0.00     0.000 A 
ENDBRANCH  79  80
ENDBRANCH  76  79
ENDBRANCH  74  76
ENDBRANCH  72  74
ENDBRANCH  70  71
ENDBRANCH   1  69
TORSDOF 17
ENDMDL
MODEL 3
REMARK VINA RESULT:    -6.577      4.919      7.754
REMARK INTER + INTRA:         -26.850
REMARK INTER:                 -20.585
REMARK INTRA:                  -6.264
REMARK UNBOUND:                -7.200
REMARK SMILES C=C1C(=O)N[C@H](C)C(=O)N[C@@H](CC(C)C)C(=O)N[C@@H](C(=O)O)[C@H](C)C(=O)N[C@@H](CCCN=C(N)N)C(=O)N[C@@H](/C=C/C(C)=C/[C@H](C)[C@H](Cc2ccccc2)OC)[C@H](C)C(=O)N[C@@H](C(=O)O)CCC(=O)N1C
REMARK SMILES IDX 39 1 38 2 37 3 36 4 28 6 27 7 25 8 26 9 23 11 24 12 19 13
REMARK SMILES IDX 18 14 16 15 17 16 11 18 10 19 8 20 9 21 12 24 13 25 14 26
REMARK SMILES IDX 15 27 20 28 21 29 22 30 29 32 30 33 31 34 32 35 33 36 34 37
REMARK SMILES IDX 35 38 57 43 58 44 59 45 60 46 61 47 62 49 66 50 67 51 68 52
REMARK SMILES IDX 69 53 70 54 71 55 2 56 1 57 3 58 4 59 5 60 6 62 7 63 63 65
REMARK SMILES IDX 64 66 65 67 40 69 41 70 42 71 44 72 43 73 45 74 46 75 47 76
REMARK SMILES IDX 55 77 56 78 48 79 49 80 50 81 54 82 51 83 53 84 52 85
REMARK H PARENT 38 5 27 10 18 17 10 22 22 31 34 39 34 40 35 41 35 42 61 48
REMARK H PARENT 5 61 65 68
REMARK Flexibility Score:  369.900
ROOT
ATOM      1  C   UNL     1      -2.612   7.616   8.347  1.00  0.00     0.117 C 
ENDROOT
BRANCH   1   2
ATOM      2  N   UNL     1      -1.748   7.413   7.184  1.00  0.00    -0.347 N 
ATOM      3  O   UNL     1       0.258   7.875   8.199  1.00  0.00    -0.273 OA
ATOM      4  C   UNL     1      -0.368   7.470   7.226  1.00  0.00     0.243 C 
ATOM      5  H   UNL     1      -2.162   7.167   6.297  1.00  0.00     0.164 HD
BRANCH   4   6
ATOM      6  C   UNL     1       0.311   7.133   5.874  1.00  0.00     0.171 C 
BRANCH   6   7
ATOM      7  N   UNL     1       0.666   8.366   5.155  1.00  0.00    -0.344 N 
ATOM      8  C   UNL     1      -0.092   8.801   4.089  1.00  0.00     0.226 C 
ATOM      9  O   UNL     1      -1.068   8.184   3.677  1.00  0.00    -0.275 OA
ATOM     10  H   UNL     1       1.504   8.867   5.422  1.00  0.00     0.164 HD
BRANCH   8  11
ATOM     11  C   UNL     1       0.370  10.116   3.488  1.00  0.00     0.109 C 
ATOM     12  C   UNL     1      -0.002  11.276   4.411  1.00  0.00     0.021 C 
BRANCH  11  13
ATOM     13  C   UNL     1       1.867  10.028   3.128  1.00  0.00     0.204 C 
BRANCH  13  14
ATOM     14  N   UNL     1       2.136  10.499   1.766  1.00  0.00    -0.340 N 
ATOM     15  C   UNL     1       2.587   9.670   0.762  1.00  0.00     0.243 C 
ATOM     16  O   UNL     1       2.739   8.460   0.924  1.00  0.00    -0.273 OA
ATOM     17  H   UNL     1       2.176  11.509   1.606  1.00  0.00     0.164 HD
BRANCH  15  18
ATOM     18  C   UNL     1       2.998  10.424  -0.526  1.00  0.00     0.171 C 
BRANCH  18  19
ATOM     19  N   UNL     1       4.459  10.434  -0.557  1.00  0.00    -0.343 N 
ATOM     20  C   UNL     1       5.185  11.590  -0.345  1.00  0.00     0.242 CG0
ATOM     21  O   UNL     1       4.637  12.686  -0.253  1.00  0.00    -0.273 OA
ATOM     22  H   UNL     1       4.959   9.572  -0.745  1.00  0.00     0.164 HD
ATOM     23  G   UNL     1       6.715  11.390  -0.337  1.00  0.00     0.000 G0
ENDBRANCH  18  19
BRANCH  18  24
ATOM     24  C   UNL     1       2.415   9.736  -1.766  1.00  0.00     0.038 C 
BRANCH  24  25
ATOM     25  C   UNL     1       0.891   9.494  -1.712  1.00  0.00    -0.015 C 
ATOM     26  C   UNL     1       0.407   8.561  -2.822  1.00  0.00     0.007 C 
ATOM     27  C   UNL     1       0.154  10.833  -1.807  1.00  0.00     0.007 C 
ENDBRANCH  24  25
ENDBRANCH  18  24
ENDBRANCH  15  18
ENDBRANCH  13  14
BRANCH  13  28
ATOM     28  C   UNL     1       2.763  10.835   4.072  1.00  0.00     0.327 C 
ATOM     29  O   UNL     1       3.057  10.537   5.220  1.00  0.00    -0.250 OA
BRANCH  28  30
ATOM     30  O   UNL     1       3.138  12.024   3.558  1.00  0.00    -0.480 OA
ATOM     31  H   UNL     1       2.685  12.065   2.691  1.00  0.00     0.296 HD
ENDBRANCH  28  30
ENDBRANCH  13  28
ENDBRANCH  11  13
ENDBRANCH   8  11
ENDBRANCH   6   7
BRANCH   6  32
ATOM     32  C   UNL     1       1.554   6.275   6.136  1.00  0.00     0.037 C 
BRANCH  32  33
ATOM     33  C   UNL     1       1.487   4.922   5.413  1.00  0.00     0.026 C 
BRANCH  33  34
ATOM     34  C   UNL     1       1.169   5.070   3.924  1.00  0.00     0.146 C 
BRANCH  34  35
ATOM     35  N   UNL     1       1.908   4.058   3.183  1.00  0.00    -0.254 NA
ATOM     36  C   UNL     1       1.339   3.488   2.187  1.00  0.00     0.185 C 
ATOM     37  N   UNL     1       2.013   2.557   1.494  1.00  0.00    -0.370 N 
ATOM     38  N   UNL     1       0.103   3.684   1.694  1.00  0.00    -0.370 N 
ATOM     39  H   UNL     1       2.958   2.360   1.798  1.00  0.00     0.159 HD
ATOM     40  H   UNL     1       1.708   2.194   0.607  1.00  0.00     0.159 HD
ATOM     41  H   UNL     1      -0.280   3.073   0.991  1.00  0.00     0.159 HD
ATOM     42  H   UNL     1      -0.522   4.345   2.127  1.00  0.00     0.159 HD
ENDBRANCH  34  35
ENDBRANCH  33  34
ENDBRANCH  32  33
ENDBRANCH   6  32
ENDBRANCH   4   6
ENDBRANCH   1   2
BRANCH   1  43
ATOM     43  C   UNL     1      -3.333   6.274   8.668  1.00  0.00     0.102 C 
ATOM     44  C   UNL     1      -4.358   6.388   9.810  1.00  0.00     0.020 C 
BRANCH  43  45
ATOM     45  C   UNL     1      -2.324   5.137   8.850  1.00  0.00     0.225 C 
ATOM     46  O   UNL     1      -2.052   4.332   7.963  1.00  0.00    -0.275 OA
ATOM     47  N   UNL     1      -1.798   5.009  10.115  1.00  0.00    -0.342 N 
ATOM     48  H   UNL     1      -1.911   5.759  10.783  1.00  0.00     0.164 HD
BRANCH  47  49
ATOM     49  C   UNL     1      -0.793   3.988  10.428  1.00  0.00     0.192 C 
BRANCH  49  50
ATOM     50  C   UNL     1      -1.356   3.013  11.465  1.00  0.00     0.047 C 
BRANCH  50  51
ATOM     51  C   UNL     1      -2.493   3.632  12.289  1.00  0.00     0.103 C 
BRANCH  51  52
ATOM     52  C   UNL     1      -3.867   3.165  11.813  1.00  0.00     0.226 C 
ATOM     53  O   UNL     1      -3.987   2.666  10.693  1.00  0.00    -0.275 OA
BRANCH  52  54
ATOM     54  N   UNL     1      -4.920   3.268  12.741  1.00  0.00    -0.311 N 
ATOM     55  C   UNL     1      -4.809   4.143  13.916  1.00  0.00     0.153 C 
BRANCH  54  56
ATOM     56  C   UNL     1      -6.114   2.547  12.577  1.00  0.00     0.102 C 
ATOM     57  C   UNL     1      -7.314   3.094  12.321  1.00  0.00     0.043 C 
BRANCH  56  58
ATOM     58  C   UNL     1      -6.122   1.037  12.635  1.00  0.00     0.268 C 
ATOM     59  O   UNL     1      -5.890   0.405  13.656  1.00  0.00    -0.268 OA
ATOM     60  N   UNL     1      -6.480   0.453  11.443  1.00  0.00    -0.339 N 
ATOM     61  H   UNL     1      -6.647   1.047  10.640  1.00  0.00     0.164 HD
BRANCH  60  62
ATOM     62  C   UNL     1      -6.612  -0.996  11.295  1.00  0.00     0.168 CG0
ATOM     63  C   UNL     1      -5.458  -1.570  10.481  1.00  0.00     0.041 C 
ATOM     64  G   UNL     1      -7.965  -1.327  10.633  1.00  0.00     0.000 G0
ENDBRANCH  60  62
ENDBRANCH  56  58
ENDBRANCH  54  56
ENDBRANCH  52  54
ENDBRANCH  51  52
ENDBRANCH  50  51
ENDBRANCH  49  50
BRANCH  49  65
ATOM     65  C   UNL     1       0.502   4.614  10.968  1.00  0.00     0.326 C 
ATOM     66  O   UNL     1       1.052   5.609  10.518  1.00  0.00    -0.250 OA
BRANCH  65  67
ATOM     67  O   UNL     1       1.071   3.938  11.991  1.00  0.00    -0.480 OA
ATOM     68  H   UNL     1       1.383   4.648  12.592  1.00  0.00     0.296 HD
ENDBRANCH  65  67
ENDBRANCH  49  65
ENDBRANCH  47  49
ENDBRANCH  43  45
ENDBRANCH   1  43
BRANCH   1  69
ATOM     69  C   UNL     1      -3.450   8.844   8.045  1.00  0.00    -0.001 C 
ATOM     70  C   UNL     1      -3.454  10.014   8.709  1.00  0.00     0.001 C 
BRANCH  70  71
ATOM     71  C   UNL     1      -4.252  11.201   8.394  1.00  0.00    -0.055 C 
ATOM     72  C   UNL     1      -5.551  11.018   8.076  1.00  0.00    -0.018 C 
ATOM     73  C   UNL     1      -3.569  12.542   8.455  1.00  0.00     0.044 C 
BRANCH  72  74
ATOM     74  C   UNL     1      -6.608  12.051   7.712  1.00  0.00     0.038 C 
ATOM     75  C   UNL     1      -7.541  12.189   8.921  1.00  0.00     0.015 C 
BRANCH  74  76
ATOM     76  C   UNL     1      -7.308  11.608   6.394  1.00  0.00     0.128 C 
BRANCH  76  77
ATOM     77  O   UNL     1      -7.279  12.681   5.438  1.00  0.00    -0.381 OA
ATOM     78  C   UNL     1      -8.486  12.823   4.702  1.00  0.00     0.195 C 
ENDBRANCH  76  77
BRANCH  76  79
ATOM     79  C   UNL     1      -6.772  10.274   5.814  1.00  0.00     0.068 C 
BRANCH  79  80
ATOM     80  C   UNL     1      -5.846  10.342   4.625  1.00  0.00    -0.045 A 
ATOM     81  C   UNL     1      -6.345  10.288   3.317  1.00  0.00     0.004 A 
ATOM     82  C   UNL     1      -4.458  10.432   4.813  1.00  0.00     0.004 A 
ATOM     83  C   UNL     1      -5.480  10.337   2.222  1.00  0.00     0.000 A 
ATOM     84  C   UNL     1      -3.594  10.480   3.717  1.00  0.00     0.000 A 
ATOM     85  C   UNL     1      -4.105  10.434   2.422  1.00  0.00     0.000 A 
ENDBRANCH  79  80
ENDBRANCH  76  79
ENDBRANCH  74  76
ENDBRANCH  72  74
ENDBRANCH  70  71
ENDBRANCH   1  69
TORSDOF 17
ENDMDL
MODEL 4
REMARK VINA RESULT:    -6.535      4.439      8.685
REMARK INTER + INTRA:         -26.724
REMARK INTER:                 -19.079
REMARK INTRA:                  -7.645
REMARK UNBOUND:                -7.200
REMARK SMILES C=C1C(=O)N[C@H](C)C(=O)N[C@@H](CC(C)C)C(=O)N[C@@H](C(=O)O)[C@H](C)C(=O)N[C@@H](CCCN=C(N)N)C(=O)N[C@@H](/C=C/C(C)=C/[C@H](C)[C@H](Cc2ccccc2)OC)[C@H](C)C(=O)N[C@@H](C(=O)O)CCC(=O)N1C
REMARK SMILES IDX 39 1 38 2 37 3 36 4 28 6 27 7 25 8 26 9 23 11 24 12 19 13
REMARK SMILES IDX 18 14 16 15 17 16 11 18 10 19 8 20 9 21 12 24 13 25 14 26
REMARK SMILES IDX 15 27 20 28 21 29 22 30 29 32 30 33 31 34 32 35 33 36 34 37
REMARK SMILES IDX 35 38 57 43 58 44 59 45 60 46 61 47 62 49 66 50 67 51 68 52
REMARK SMILES IDX 69 53 70 54 71 55 2 56 1 57 3 58 4 59 5 60 6 62 7 63 63 65
REMARK SMILES IDX 64 66 65 67 40 69 41 70 42 71 44 72 43 73 45 74 46 75 47 76
REMARK SMILES IDX 55 77 56 78 48 79 49 80 50 81 54 82 51 83 53 84 52 85
REMARK H PARENT 38 5 27 10 18 17 10 22 22 31 34 39 34 40 35 41 35 42 61 48
REMARK H PARENT 5 61 65 68
REMARK Flexibility Score:  369.900
ROOT
ATOM      1  C   UNL     1       1.467   8.038   5.000  1.00  0.00     0.117 C 
ENDROOT
BRANCH   1   2
ATOM      2  N   UNL     1       1.193   8.754   3.753  1.00  0.00    -0.347 N 
ATOM      3  O   UNL     1       2.469  10.615   4.174  1.00  0.00    -0.273 OA
ATOM      4  C   UNL     1       1.791   9.948   3.400  1.00  0.00     0.243 C 
ATOM      5  H   UNL     1       0.570   8.343   3.074  1.00  0.00     0.164 HD
BRANCH   4   6
ATOM      6  C   UNL     1       1.393  10.451   1.989  1.00  0.00     0.171 C 
BRANCH   6   7
ATOM      7  N   UNL     1       2.558  11.029   1.301  1.00  0.00    -0.344 N 
ATOM      8  C   UNL     1       2.749  12.394   1.268  1.00  0.00     0.226 C 
ATOM      9  O   UNL     1       1.963  13.183   1.779  1.00  0.00    -0.275 OA
ATOM     10  H   UNL     1       3.194  10.414   0.809  1.00  0.00     0.164 HD
BRANCH   8  11
ATOM     11  C   UNL     1       4.024  12.831   0.569  1.00  0.00     0.109 C 
ATOM     12  C   UNL     1       4.839  11.608   0.148  1.00  0.00     0.021 C 
BRANCH  11  13
ATOM     13  C   UNL     1       3.683  13.807  -0.574  1.00  0.00     0.204 C 
BRANCH  13  14
ATOM     14  N   UNL     1       2.295  13.665  -1.026  1.00  0.00    -0.340 N 
ATOM     15  C   UNL     1       1.942  12.940  -2.143  1.00  0.00     0.243 C 
ATOM     16  O   UNL     1       2.763  12.308  -2.807  1.00  0.00    -0.273 OA
ATOM     17  H   UNL     1       1.590  14.282  -0.614  1.00  0.00     0.164 HD
BRANCH  15  18
ATOM     18  C   UNL     1       0.455  13.103  -2.543  1.00  0.00     0.171 C 
BRANCH  18  19
ATOM     19  N   UNL     1       0.362  12.756  -3.959  1.00  0.00    -0.343 N 
ATOM     20  C   UNL     1       0.411  13.718  -4.950  1.00  0.00     0.242 CG0
ATOM     21  O   UNL     1       0.402  14.917  -4.683  1.00  0.00    -0.273 OA
ATOM     22  H   UNL     1       0.252  11.785  -4.228  1.00  0.00     0.164 HD
ATOM     23  G   UNL     1       0.377  13.155  -6.386  1.00  0.00     0.000 G0
ENDBRANCH  18  19
BRANCH  18  24
ATOM     24  C   UNL     1      -0.439  12.201  -1.683  1.00  0.00     0.038 C 
BRANCH  24  25
ATOM     25  C   UNL     1      -0.891  12.827  -0.347  1.00  0.00    -0.015 C 
ATOM     26  C   UNL     1      -1.792  11.893   0.461  1.00  0.00     0.007 C 
ATOM     27  C   UNL     1      -1.625  14.143  -0.618  1.00  0.00     0.007 C 
ENDBRANCH  24  25
ENDBRANCH  18  24
ENDBRANCH  15  18
ENDBRANCH  13  14
BRANCH  13  28
ATOM     28  C   UNL     1       3.888  15.277  -0.195  1.00  0.00     0.327 C 
ATOM     29  O   UNL     1       3.964  16.220  -0.968  1.00  0.00    -0.250 OA
BRANCH  28  30
ATOM     30  O   UNL     1       4.105  15.457   1.124  1.00  0.00    -0.480 OA
ATOM     31  H   UNL     1       3.525  14.796   1.556  1.00  0.00     0.296 HD
ENDBRANCH  28  30
ENDBRANCH  13  28
ENDBRANCH  11  13
ENDBRANCH   8  11
ENDBRANCH   6   7
BRANCH   6  32
ATOM     32  C   UNL     1       0.807   9.284   1.185  1.00  0.00     0.037 C 
BRANCH  32  33
ATOM     33  C   UNL     1       1.703   8.886   0.004  1.00  0.00     0.026 C 
BRANCH  33  34
ATOM     34  C   UNL     1       0.903   8.606  -1.268  1.00  0.00     0.146 C 
BRANCH  34  35
ATOM     35  N   UNL     1       1.641   9.126  -2.411  1.00  0.00    -0.254 NA
ATOM     36  C   UNL     1       1.035   9.239  -3.534  1.00  0.00     0.185 C 
ATOM     37  N   UNL     1       1.704   9.722  -4.593  1.00  0.00    -0.370 N 
ATOM     38  N   UNL     1      -0.238   8.934  -3.841  1.00  0.00    -0.370 N 
ATOM     39  H   UNL     1       2.669   9.985  -4.438  1.00  0.00     0.159 HD
ATOM     40  H   UNL     1       1.260  10.002  -5.450  1.00  0.00     0.159 HD
ATOM     41  H   UNL     1      -0.559   8.936  -4.796  1.00  0.00     0.159 HD
ATOM     42  H   UNL     1      -0.855   8.545  -3.145  1.00  0.00     0.159 HD
ENDBRANCH  34  35
ENDBRANCH  33  34
ENDBRANCH  32  33
ENDBRANCH   6  32
ENDBRANCH   4   6
ENDBRANCH   1   2
BRANCH   1  43
ATOM     43  C   UNL     1       1.633   6.525   4.676  1.00  0.00     0.102 C 
ATOM     44  C   UNL     1       2.415   6.259   3.379  1.00  0.00     0.020 C 
BRANCH  43  45
ATOM     45  C   UNL     1       0.288   5.796   4.751  1.00  0.00     0.225 C 
ATOM     46  O   UNL     1      -0.583   5.905   3.893  1.00  0.00    -0.275 OA
ATOM     47  N   UNL     1       0.070   5.072   5.901  1.00  0.00    -0.342 N 
ATOM     48  H   UNL     1       0.843   4.870   6.519  1.00  0.00     0.164 HD
BRANCH  47  49
ATOM     49  C   UNL     1      -1.158   4.294   6.095  1.00  0.00     0.192 C 
BRANCH  49  50
ATOM     50  C   UNL     1      -2.069   5.013   7.094  1.00  0.00     0.047 C 
BRANCH  50  51
ATOM     51  C   UNL     1      -1.784   4.600   8.544  1.00  0.00     0.103 C 
BRANCH  51  52
ATOM     52  C   UNL     1      -3.066   4.446   9.360  1.00  0.00     0.226 C 
ATOM     53  O   UNL     1      -4.098   4.058   8.808  1.00  0.00    -0.275 OA
BRANCH  52  54
ATOM     54  N   UNL     1      -2.964   4.694  10.741  1.00  0.00    -0.311 N 
ATOM     55  C   UNL     1      -1.997   5.668  11.265  1.00  0.00     0.153 C 
BRANCH  54  56
ATOM     56  C   UNL     1      -3.782   4.026  11.668  1.00  0.00     0.102 C 
ATOM     57  C   UNL     1      -3.495   2.843  12.234  1.00  0.00     0.043 C 
BRANCH  56  58
ATOM     58  C   UNL     1      -5.076   4.643  12.143  1.00  0.00     0.268 C 
ATOM     59  O   UNL     1      -5.199   5.183  13.234  1.00  0.00    -0.268 OA
ATOM     60  N   UNL     1      -6.077   4.592  11.202  1.00  0.00    -0.339 N 
ATOM     61  H   UNL     1      -5.898   4.117  10.326  1.00  0.00     0.164 HD
BRANCH  60  62
ATOM     62  C   UNL     1      -7.393   5.186  11.432  1.00  0.00     0.168 CG0
ATOM     63  C   UNL     1      -7.737   6.193  10.342  1.00  0.00     0.041 C 
ATOM     64  G   UNL     1      -7.423   5.856  12.822  1.00  0.00     0.000 G0
ENDBRANCH  60  62
ENDBRANCH  56  58
ENDBRANCH  54  56
ENDBRANCH  52  54
ENDBRANCH  51  52
ENDBRANCH  50  51
ENDBRANCH  49  50
BRANCH  49  65
ATOM     65  C   UNL     1      -0.856   2.878   6.610  1.00  0.00     0.326 C 
ATOM     66  O   UNL     1       0.104   2.561   7.297  1.00  0.00    -0.250 OA
BRANCH  65  67
ATOM     67  O   UNL     1      -1.725   1.930   6.194  1.00  0.00    -0.480 OA
ATOM     68  H   UNL     1      -2.331   1.821   6.958  1.00  0.00     0.296 HD
ENDBRANCH  65  67
ENDBRANCH  49  65
ENDBRANCH  47  49
ENDBRANCH  43  45
ENDBRANCH   1  43
BRANCH   1  69
ATOM     69  C   UNL     1       0.389   8.465   5.979  1.00  0.00    -0.001 C 
ATOM     70  C   UNL     1       0.454   8.453   7.322  1.00  0.00     0.001 C 
BRANCH  70  71
ATOM     71  C   UNL     1      -0.585   8.888   8.257  1.00  0.00    -0.055 C 
ATOM     72  C   UNL     1      -1.861   8.903   7.815  1.00  0.00    -0.018 C 
ATOM     73  C   UNL     1      -0.160   9.280   9.648  1.00  0.00     0.044 C 
BRANCH  72  74
ATOM     74  C   UNL     1      -3.131   9.299   8.554  1.00  0.00     0.038 C 
ATOM     75  C   UNL     1      -3.787   8.006   9.052  1.00  0.00     0.015 C 
BRANCH  74  76
ATOM     76  C   UNL     1      -4.017  10.155   7.601  1.00  0.00     0.128 C 
BRANCH  76  77
ATOM     77  O   UNL     1      -4.468  11.339   8.282  1.00  0.00    -0.381 OA
ATOM     78  C   UNL     1      -5.512  11.098   9.216  1.00  0.00     0.195 C 
ENDBRANCH  76  77
BRANCH  76  79
ATOM     79  C   UNL     1      -3.356  10.465   6.235  1.00  0.00     0.068 C 
BRANCH  79  80
ATOM     80  C   UNL     1      -4.229  10.434   5.004  1.00  0.00    -0.045 A 
ATOM     81  C   UNL     1      -3.667  10.434   3.720  1.00  0.00     0.004 A 
ATOM     82  C   UNL     1      -5.626  10.434   5.128  1.00  0.00     0.004 A 
ATOM     83  C   UNL     1      -4.482  10.420   2.586  1.00  0.00     0.000 A 
ATOM     84  C   UNL     1      -6.440  10.421   3.993  1.00  0.00     0.000 A 
ATOM     85  C   UNL     1      -5.868  10.412   2.723  1.00  0.00     0.000 A 
ENDBRANCH  79  80
ENDBRANCH  76  79
ENDBRANCH  74  76
ENDBRANCH  72  74
ENDBRANCH  70  71
ENDBRANCH   1  69
TORSDOF 17
ENDMDL
MODEL 5
REMARK VINA RESULT:    -6.525      3.555      6.931
REMARK INTER + INTRA:         -26.694
REMARK INTER:                 -18.550
REMARK INTRA:                  -8.144
REMARK UNBOUND:                -7.200
REMARK SMILES C=C1C(=O)N[C@H](C)C(=O)N[C@@H](CC(C)C)C(=O)N[C@@H](C(=O)O)[C@H](C)C(=O)N[C@@H](CCCN=C(N)N)C(=O)N[C@@H](/C=C/C(C)=C/[C@H](C)[C@H](Cc2ccccc2)OC)[C@H](C)C(=O)N[C@@H](C(=O)O)CCC(=O)N1C
REMARK SMILES IDX 39 1 38 2 37 3 36 4 28 6 27 7 25 8 26 9 23 11 24 12 19 13
REMARK SMILES IDX 18 14 16 15 17 16 11 18 10 19 8 20 9 21 12 24 13 25 14 26
REMARK SMILES IDX 15 27 20 28 21 29 22 30 29 32 30 33 31 34 32 35 33 36 34 37
REMARK SMILES IDX 35 38 57 43 58 44 59 45 60 46 61 47 62 49 66 50 67 51 68 52
REMARK SMILES IDX 69 53 70 54 71 55 2 56 1 57 3 58 4 59 5 60 6 62 7 63 63 65
REMARK SMILES IDX 64 66 65 67 40 69 41 70 42 71 44 72 43 73 45 74 46 75 47 76
REMARK SMILES IDX 55 77 56 78 48 79 49 80 50 81 54 82 51 83 53 84 52 85
REMARK H PARENT 38 5 27 10 18 17 10 22 22 31 34 39 34 40 35 41 35 42 61 48
REMARK H PARENT 5 61 65 68
REMARK Flexibility Score:  369.900
ROOT
ATOM      1  C   UNL     1      -3.241  10.712   3.197  1.00  0.00     0.117 C 
ENDROOT
BRANCH   1   2
ATOM      2  N   UNL     1      -2.672   9.808   4.198  1.00  0.00    -0.347 N 
ATOM      3  O   UNL     1      -1.521  11.375   5.417  1.00  0.00    -0.273 OA
ATOM      4  C   UNL     1      -1.930  10.226   5.285  1.00  0.00     0.243 C 
ATOM      5  H   UNL     1      -2.864   8.819   4.136  1.00  0.00     0.164 HD
BRANCH   4   6
ATOM      6  C   UNL     1      -1.520   9.076   6.240  1.00  0.00     0.171 C 
BRANCH   6   7
ATOM      7  N   UNL     1      -0.177   9.318   6.789  1.00  0.00    -0.344 N 
ATOM      8  C   UNL     1       0.708   8.276   6.967  1.00  0.00     0.226 C 
ATOM      9  O   UNL     1       0.422   7.115   6.703  1.00  0.00    -0.275 OA
ATOM     10  H   UNL     1       0.073  10.254   7.082  1.00  0.00     0.164 HD
BRANCH   8  11
ATOM     11  C   UNL     1       2.071   8.695   7.491  1.00  0.00     0.109 C 
ATOM     12  C   UNL     1       2.465   7.826   8.685  1.00  0.00     0.021 C 
BRANCH  11  13
ATOM     13  C   UNL     1       3.091   8.711   6.335  1.00  0.00     0.204 C 
BRANCH  13  14
ATOM     14  N   UNL     1       2.898   7.588   5.413  1.00  0.00    -0.340 N 
ATOM     15  C   UNL     1       3.919   7.058   4.655  1.00  0.00     0.243 C 
ATOM     16  O   UNL     1       5.081   7.451   4.745  1.00  0.00    -0.273 OA
ATOM     17  H   UNL     1       1.939   7.318   5.179  1.00  0.00     0.164 HD
BRANCH  15  18
ATOM     18  C   UNL     1       3.439   6.024   3.606  1.00  0.00     0.171 C 
BRANCH  18  19
ATOM     19  N   UNL     1       3.785   4.705   4.131  1.00  0.00    -0.343 N 
ATOM     20  C   UNL     1       4.923   4.035   3.727  1.00  0.00     0.242 CG0
ATOM     21  O   UNL     1       5.627   4.456   2.812  1.00  0.00    -0.273 OA
ATOM     22  H   UNL     1       3.171   4.261   4.806  1.00  0.00     0.164 HD
ATOM     23  G   UNL     1       5.162   2.692   4.447  1.00  0.00     0.000 G0
ENDBRANCH  18  19
BRANCH  18  24
ATOM     24  C   UNL     1       1.930   6.157   3.367  1.00  0.00     0.038 C 
BRANCH  24  25
ATOM     25  C   UNL     1       1.164   4.818   3.331  1.00  0.00    -0.015 C 
ATOM     26  C   UNL     1       0.874   4.347   1.905  1.00  0.00     0.007 C 
ATOM     27  C   UNL     1      -0.150   4.956   4.104  1.00  0.00     0.007 C 
ENDBRANCH  24  25
ENDBRANCH  18  24
ENDBRANCH  15  18
ENDBRANCH  13  14
BRANCH  13  28
ATOM     28  C   UNL     1       3.041   9.996   5.503  1.00  0.00     0.327 C 
ATOM     29  O   UNL     1       2.034  10.549   5.088  1.00  0.00    -0.250 OA
BRANCH  28  30
ATOM     30  O   UNL     1       4.262  10.441   5.143  1.00  0.00    -0.480 OA
ATOM     31  H   UNL     1       4.539   9.832   4.428  1.00  0.00     0.296 HD
ENDBRANCH  28  30
ENDBRANCH  13  28
ENDBRANCH  11  13
ENDBRANCH   8  11
ENDBRANCH   6   7
BRANCH   6  32
ATOM     32  C   UNL     1      -2.558   8.960   7.362  1.00  0.00     0.037 C 
BRANCH  32  33
ATOM     33  C   UNL     1      -2.405  10.072   8.409  1.00  0.00     0.026 C 
BRANCH  33  34
ATOM     34  C   UNL     1      -3.550  11.084   8.358  1.00  0.00     0.146 C 
BRANCH  34  35
ATOM     35  N   UNL     1      -3.181  12.251   9.147  1.00  0.00    -0.254 NA
ATOM     36  C   UNL     1      -2.694  13.271   8.544  1.00  0.00     0.185 C 
ATOM     37  N   UNL     1      -2.354  14.354   9.261  1.00  0.00    -0.370 N 
ATOM     38  N   UNL     1      -2.454  13.442   7.232  1.00  0.00    -0.370 N 
ATOM     39  H   UNL     1      -2.515  14.306  10.259  1.00  0.00     0.159 HD
ATOM     40  H   UNL     1      -2.133  15.245   8.851  1.00  0.00     0.159 HD
ATOM     41  H   UNL     1      -1.938  14.238   6.896  1.00  0.00     0.159 HD
ATOM     42  H   UNL     1      -2.647  12.702   6.575  1.00  0.00     0.159 HD
ENDBRANCH  34  35
ENDBRANCH  33  34
ENDBRANCH  32  33
ENDBRANCH   6  32
ENDBRANCH   4   6
ENDBRANCH   1   2
BRANCH   1  43
ATOM     43  C   UNL     1      -4.674  10.220   2.843  1.00  0.00     0.102 C 
ATOM     44  C   UNL     1      -5.076  10.505   1.386  1.00  0.00     0.020 C 
BRANCH  43  45
ATOM     45  C   UNL     1      -5.694  10.710   3.875  1.00  0.00     0.225 C 
ATOM     46  O   UNL     1      -5.440  10.813   5.072  1.00  0.00    -0.275 OA
ATOM     47  N   UNL     1      -6.961  10.944   3.392  1.00  0.00    -0.342 N 
ATOM     48  H   UNL     1      -7.113  11.002   2.394  1.00  0.00     0.164 HD
BRANCH  47  49
ATOM     49  C   UNL     1      -8.030  11.449   4.257  1.00  0.00     0.192 C 
BRANCH  49  50
ATOM     50  C   UNL     1      -8.940  10.293   4.680  1.00  0.00     0.047 C 
BRANCH  50  51
ATOM     51  C   UNL     1      -8.603   9.769   6.082  1.00  0.00     0.103 C 
BRANCH  51  52
ATOM     52  C   UNL     1      -9.296  10.576   7.178  1.00  0.00     0.226 C 
ATOM     53  O   UNL     1     -10.341  11.178   6.924  1.00  0.00    -0.275 OA
BRANCH  52  54
ATOM     54  N   UNL     1      -8.719  10.517   8.460  1.00  0.00    -0.311 N 
ATOM     55  C   UNL     1      -7.377  11.061   8.712  1.00  0.00     0.153 C 
BRANCH  54  56
ATOM     56  C   UNL     1      -9.403   9.944   9.545  1.00  0.00     0.102 C 
ATOM     57  C   UNL     1      -9.309   8.657   9.919  1.00  0.00     0.043 C 
BRANCH  56  58
ATOM     58  C   UNL     1     -10.293  10.783  10.431  1.00  0.00     0.268 C 
ATOM     59  O   UNL     1     -10.516  11.968  10.226  1.00  0.00    -0.268 OA
ATOM     60  N   UNL     1     -10.877  10.064  11.447  1.00  0.00    -0.339 N 
ATOM     61  H   UNL     1     -10.632   9.087  11.555  1.00  0.00     0.164 HD
BRANCH  60  62
ATOM     62  C   UNL     1     -11.824  10.667  12.383  1.00  0.00     0.168 CG0
ATOM     63  C   UNL     1     -13.212  10.057  12.227  1.00  0.00     0.041 C 
ATOM     64  G   UNL     1     -11.871  12.193  12.161  1.00  0.00     0.000 G0
ENDBRANCH  60  62
ENDBRANCH  56  58
ENDBRANCH  54  56
ENDBRANCH  52  54
ENDBRANCH  51  52
ENDBRANCH  50  51
ENDBRANCH  49  50
BRANCH  49  65
ATOM     65  C   UNL     1      -8.869  12.526   3.552  1.00  0.00     0.326 C 
ATOM     66  O   UNL     1      -8.441  13.579   3.101  1.00  0.00    -0.250 OA
BRANCH  65  67
ATOM     67  O   UNL     1     -10.194  12.263   3.499  1.00  0.00    -0.480 OA
ATOM     68  H   UNL     1     -10.315  11.550   4.161  1.00  0.00     0.296 HD
ENDBRANCH  65  67
ENDBRANCH  49  65
ENDBRANCH  47  49
ENDBRANCH  43  45
ENDBRANCH   1  43
BRANCH   1  69
ATOM     69  C   UNL     1      -2.208  10.821   2.090  1.00  0.00    -0.001 C 
ATOM     70  C   UNL     1      -1.446  11.886   1.786  1.00  0.00     0.001 C 
BRANCH  70  71
ATOM     71  C   UNL     1      -0.437  11.972   0.728  1.00  0.00    -0.055 C 
ATOM     72  C   UNL     1      -0.732  11.419  -0.467  1.00  0.00    -0.018 C 
ATOM     73  C   UNL     1       0.855  12.680   1.045  1.00  0.00     0.044 C 
BRANCH  72  74
ATOM     74  C   UNL     1       0.109  11.359  -1.735  1.00  0.00     0.038 C 
ATOM     75  C   UNL     1      -0.670  12.098  -2.830  1.00  0.00     0.015 C 
BRANCH  74  76
ATOM     76  C   UNL     1       0.429   9.869  -2.054  1.00  0.00     0.128 C 
BRANCH  76  77
ATOM     77  O   UNL     1      -0.110   9.515  -3.338  1.00  0.00    -0.381 OA
ATOM     78  C   UNL     1       0.649   8.529  -4.025  1.00  0.00     0.195 C 
ENDBRANCH  76  77
BRANCH  76  79
ATOM     79  C   UNL     1       1.928   9.503  -1.911  1.00  0.00     0.068 C 
BRANCH  79  80
ATOM     80  C   UNL     1       2.615   9.832  -0.608  1.00  0.00    -0.045 A 
ATOM     81  C   UNL     1       2.264   9.175   0.579  1.00  0.00     0.004 A 
ATOM     82  C   UNL     1       3.603  10.827  -0.561  1.00  0.00     0.004 A 
ATOM     83  C   UNL     1       2.895   9.495   1.783  1.00  0.00     0.000 A 
ATOM     84  C   UNL     1       4.232  11.147   0.644  1.00  0.00     0.000 A 
ATOM     85  C   UNL     1       3.880  10.480   1.815  1.00  0.00     0.000 A 
ENDBRANCH  79  80
ENDBRANCH  76  79
ENDBRANCH  74  76
ENDBRANCH  72  74
ENDBRANCH  70  71
ENDBRANCH   1  69
TORSDOF 17
ENDMDL
MODEL 6
REMARK VINA RESULT:    -6.513      4.777      8.442
REMARK INTER + INTRA:         -26.658
REMARK INTER:                 -20.399
REMARK INTRA:                  -6.259
REMARK UNBOUND:                -7.200
REMARK SMILES C=C1C(=O)N[C@H](C)C(=O)N[C@@H](CC(C)C)C(=O)N[C@@H](C(=O)O)[C@H](C)C(=O)N[C@@H](CCCN=C(N)N)C(=O)N[C@@H](/C=C/C(C)=C/[C@H](C)[C@H](Cc2ccccc2)OC)[C@H](C)C(=O)N[C@@H](C(=O)O)CCC(=O)N1C
REMARK SMILES IDX 39 1 38 2 37 3 36 4 28 6 27 7 25 8 26 9 23 11 24 12 19 13
REMARK SMILES IDX 18 14 16 15 17 16 11 18 10 19 8 20 9 21 12 24 13 25 14 26
REMARK SMILES IDX 15 27 20 28 21 29 22 30 29 32 30 33 31 34 32 35 33 36 34 37
REMARK SMILES IDX 35 38 57 43 58 44 59 45 60 46 61 47 62 49 66 50 67 51 68 52
REMARK SMILES IDX 69 53 70 54 71 55 2 56 1 57 3 58 4 59 5 60 6 62 7 63 63 65
REMARK SMILES IDX 64 66 65 67 40 69 41 70 42 71 44 72 43 73 45 74 46 75 47 76
REMARK SMILES IDX 55 77 56 78 48 79 49 80 50 81 54 82 51 83 53 84 52 85
REMARK H PARENT 38 5 27 10 18 17 10 22 22 31 34 39 34 40 35 41 35 42 61 48
REMARK H PARENT 5 61 65 68
REMARK Flexibility Score:  369.900
ROOT
ATOM      1  C   UNL     1      -1.775   6.213   7.311  1.00  0.00     0.117 C 
ENDROOT
BRANCH   1   2
ATOM      2  N   UNL     1      -0.921   6.626   6.197  1.00  0.00    -0.347 N 
ATOM      3  O   UNL     1       1.090   5.956   7.079  1.00  0.00    -0.273 OA
ATOM      4  C   UNL     1       0.437   6.380   6.131  1.00  0.00     0.243 C 
ATOM      5  H   UNL     1      -1.337   7.075   5.395  1.00  0.00     0.164 HD
BRANCH   4   6
ATOM      6  C   UNL     1       1.091   6.845   4.805  1.00  0.00     0.171 C 
BRANCH   6   7
ATOM      7  N   UNL     1       1.292   8.302   4.813  1.00  0.00    -0.344 N 
ATOM      8  C   UNL     1       0.426   9.135   4.138  1.00  0.00     0.226 C 
ATOM      9  O   UNL     1      -0.525   8.714   3.490  1.00  0.00    -0.275 OA
ATOM     10  H   UNL     1       2.105   8.683   5.281  1.00  0.00     0.164 HD
BRANCH   8  11
ATOM     11  C   UNL     1       0.736  10.614   4.288  1.00  0.00     0.109 C 
ATOM     12  C   UNL     1       2.248  10.838   4.280  1.00  0.00     0.021 C 
BRANCH  11  13
ATOM     13  C   UNL     1      -0.045  11.420   3.231  1.00  0.00     0.204 C 
BRANCH  13  14
ATOM     14  N   UNL     1       0.171  10.906   1.875  1.00  0.00    -0.340 N 
ATOM     15  C   UNL     1       0.595  11.700   0.831  1.00  0.00     0.243 C 
ATOM     16  O   UNL     1       0.881  12.887   0.979  1.00  0.00    -0.273 OA
ATOM     17  H   UNL     1      -0.191   9.974   1.651  1.00  0.00     0.164 HD
BRANCH  15  18
ATOM     18  C   UNL     1       0.551  10.990  -0.544  1.00  0.00     0.171 C 
BRANCH  18  19
ATOM     19  N   UNL     1      -0.188  11.871  -1.446  1.00  0.00    -0.343 N 
ATOM     20  C   UNL     1      -1.163  11.389  -2.298  1.00  0.00     0.242 CG0
ATOM     21  O   UNL     1      -1.362  10.184  -2.433  1.00  0.00    -0.273 OA
ATOM     22  H   UNL     1       0.021  12.862  -1.455  1.00  0.00     0.164 HD
ATOM     23  G   UNL     1      -1.888  12.478  -3.116  1.00  0.00     0.000 G0
ENDBRANCH  18  19
BRANCH  18  24
ATOM     24  C   UNL     1       1.969  10.719  -1.060  1.00  0.00     0.038 C 
BRANCH  24  25
ATOM     25  C   UNL     1       2.186   9.306  -1.640  1.00  0.00    -0.015 C 
ATOM     26  C   UNL     1       1.940   9.248  -3.148  1.00  0.00     0.007 C 
ATOM     27  C   UNL     1       1.264   8.311  -0.929  1.00  0.00     0.007 C 
ENDBRANCH  24  25
ENDBRANCH  18  24
ENDBRANCH  15  18
ENDBRANCH  13  14
BRANCH  13  28
ATOM     28  C   UNL     1      -1.557  11.433   3.476  1.00  0.00     0.327 C 
ATOM     29  O   UNL     1      -2.126  11.899   4.451  1.00  0.00    -0.250 OA
BRANCH  28  30
ATOM     30  O   UNL     1      -2.250  10.755   2.540  1.00  0.00    -0.480 OA
ATOM     31  H   UNL     1      -2.207  11.328   1.746  1.00  0.00     0.296 HD
ENDBRANCH  28  30
ENDBRANCH  13  28
ENDBRANCH  11  13
ENDBRANCH   8  11
ENDBRANCH   6   7
BRANCH   6  32
ATOM     32  C   UNL     1       2.422   6.110   4.615  1.00  0.00     0.037 C 
BRANCH  32  33
ATOM     33  C   UNL     1       3.015   6.336   3.218  1.00  0.00     0.026 C 
BRANCH  33  34
ATOM     34  C   UNL     1       2.009   6.050   2.102  1.00  0.00     0.146 C 
BRANCH  34  35
ATOM     35  N   UNL     1       2.264   4.718   1.570  1.00  0.00    -0.254 NA
ATOM     36  C   UNL     1       1.415   3.788   1.808  1.00  0.00     0.185 C 
ATOM     37  N   UNL     1       1.638   2.559   1.318  1.00  0.00    -0.370 N 
ATOM     38  N   UNL     1       0.270   3.850   2.510  1.00  0.00    -0.370 N 
ATOM     39  H   UNL     1       2.478   2.434   0.768  1.00  0.00     0.159 HD
ATOM     40  H   UNL     1       0.946   1.830   1.311  1.00  0.00     0.159 HD
ATOM     41  H   UNL     1      -0.243   3.016   2.744  1.00  0.00     0.159 HD
ATOM     42  H   UNL     1      -0.016   4.711   2.950  1.00  0.00     0.159 HD
ENDBRANCH  34  35
ENDBRANCH  33  34
ENDBRANCH  32  33
ENDBRANCH   6  32
ENDBRANCH   4   6
ENDBRANCH   1   2
BRANCH   1  43
ATOM     43  C   UNL     1      -2.115   4.704   7.141  1.00  0.00     0.102 C 
ATOM     44  C   UNL     1      -3.612   4.437   6.908  1.00  0.00     0.020 C 
BRANCH  43  45
ATOM     45  C   UNL     1      -1.504   3.871   8.272  1.00  0.00     0.225 C 
ATOM     46  O   UNL     1      -1.285   2.667   8.176  1.00  0.00    -0.275 OA
ATOM     47  N   UNL     1      -1.296   4.542   9.456  1.00  0.00    -0.342 N 
ATOM     48  H   UNL     1      -1.337   5.551   9.472  1.00  0.00     0.164 HD
BRANCH  47  49
ATOM     49  C   UNL     1      -0.685   3.882  10.613  1.00  0.00     0.192 C 
BRANCH  49  50
ATOM     50  C   UNL     1      -1.481   4.218  11.877  1.00  0.00     0.047 C 
BRANCH  50  51
ATOM     51  C   UNL     1      -2.444   3.091  12.275  1.00  0.00     0.103 C 
BRANCH  51  52
ATOM     52  C   UNL     1      -3.850   3.315  11.721  1.00  0.00     0.226 C 
ATOM     53  O   UNL     1      -4.034   3.309  10.503  1.00  0.00    -0.275 OA
BRANCH  52  54
ATOM     54  N   UNL     1      -4.883   3.445  12.668  1.00  0.00    -0.311 N 
ATOM     55  C   UNL     1      -4.771   4.392  13.785  1.00  0.00     0.153 C 
BRANCH  54  56
ATOM     56  C   UNL     1      -6.058   2.680  12.578  1.00  0.00     0.102 C 
ATOM     57  C   UNL     1      -7.267   3.165  12.252  1.00  0.00     0.043 C 
BRANCH  56  58
ATOM     58  C   UNL     1      -6.031   1.187  12.810  1.00  0.00     0.268 C 
ATOM     59  O   UNL     1      -5.862   0.684  13.912  1.00  0.00    -0.268 OA
ATOM     60  N   UNL     1      -6.281   0.460  11.671  1.00  0.00    -0.339 N 
ATOM     61  H   UNL     1      -6.400   0.953  10.794  1.00  0.00     0.164 HD
BRANCH  60  62
ATOM     62  C   UNL     1      -6.363  -1.000  11.682  1.00  0.00     0.168 CG0
ATOM     63  C   UNL     1      -6.237  -1.566  10.272  1.00  0.00     0.041 C 
ATOM     64  G   UNL     1      -7.693  -1.438  12.329  1.00  0.00     0.000 G0
ENDBRANCH  60  62
ENDBRANCH  56  58
ENDBRANCH  54  56
ENDBRANCH  52  54
ENDBRANCH  51  52
ENDBRANCH  50  51
ENDBRANCH  49  50
BRANCH  49  65
ATOM     65  C   UNL     1       0.778   4.312  10.804  1.00  0.00     0.326 C 
ATOM     66  O   UNL     1       1.694   3.582  11.153  1.00  0.00    -0.250 OA
BRANCH  65  67
ATOM     67  O   UNL     1       1.008   5.630  10.610  1.00  0.00    -0.480 OA
ATOM     68  H   UNL     1       0.141   6.047  10.803  1.00  0.00     0.296 HD
ENDBRANCH  65  67
ENDBRANCH  49  65
ENDBRANCH  47  49
ENDBRANCH  43  45
ENDBRANCH   1  43
BRANCH   1  69
ATOM     69  C   UNL     1      -2.910   7.219   7.371  1.00  0.00    -0.001 C 
ATOM     70  C   UNL     1      -2.813   8.560   7.381  1.00  0.00     0.001 C 
BRANCH  70  71
ATOM     71  C   UNL     1      -3.917   9.521   7.418  1.00  0.00    -0.055 C 
ATOM     72  C   UNL     1      -4.406   9.870   8.626  1.00  0.00    -0.018 C 
ATOM     73  C   UNL     1      -4.424  10.059   6.105  1.00  0.00     0.044 C 
BRANCH  72  74
ATOM     74  C   UNL     1      -5.532  10.835   8.968  1.00  0.00     0.038 C 
ATOM     75  C   UNL     1      -5.186  11.476  10.317  1.00  0.00     0.015 C 
BRANCH  74  76
ATOM     76  C   UNL     1      -6.882  10.059   8.941  1.00  0.00     0.128 C 
BRANCH  76  77
ATOM     77  O   UNL     1      -7.155   9.504  10.238  1.00  0.00    -0.381 OA
ATOM     78  C   UNL     1      -8.498   9.685  10.666  1.00  0.00     0.195 C 
ENDBRANCH  76  77
BRANCH  76  79
ATOM     79  C   UNL     1      -8.069  10.881   8.378  1.00  0.00     0.068 C 
BRANCH  79  80
ATOM     80  C   UNL     1      -8.178  11.033   6.880  1.00  0.00    -0.045 A 
ATOM     81  C   UNL     1      -7.664  12.162   6.230  1.00  0.00     0.004 A 
ATOM     82  C   UNL     1      -8.825  10.050   6.115  1.00  0.00     0.004 A 
ATOM     83  C   UNL     1      -7.781  12.302   4.845  1.00  0.00     0.000 A 
ATOM     84  C   UNL     1      -8.942  10.191   4.731  1.00  0.00     0.000 A 
ATOM     85  C   UNL     1      -8.419  11.315   4.096  1.00  0.00     0.000 A 
ENDBRANCH  79  80
ENDBRANCH  76  79
ENDBRANCH  74  76
ENDBRANCH  72  74
ENDBRANCH  70  71
ENDBRANCH   1  69
TORSDOF 17
ENDMDL
MODEL 7
REMARK VINA RESULT:    -6.506      4.064     13.021
REMARK INTER + INTRA:         -26.636
REMARK INTER:                 -21.787
REMARK INTRA:                  -4.849
REMARK UNBOUND:                -7.200
REMARK SMILES C=C1C(=O)N[C@H](C)C(=O)N[C@@H](CC(C)C)C(=O)N[C@@H](C(=O)O)[C@H](C)C(=O)N[C@@H](CCCN=C(N)N)C(=O)N[C@@H](/C=C/C(C)=C/[C@H](C)[C@H](Cc2ccccc2)OC)[C@H](C)C(=O)N[C@@H](C(=O)O)CCC(=O)N1C
REMARK SMILES IDX 39 1 38 2 37 3 36 4 28 6 27 7 25 8 26 9 23 11 24 12 19 13
REMARK SMILES IDX 18 14 16 15 17 16 11 18 10 19 8 20 9 21 12 24 13 25 14 26
REMARK SMILES IDX 15 27 20 28 21 29 22 30 29 32 30 33 31 34 32 35 33 36 34 37
REMARK SMILES IDX 35 38 57 43 58 44 59 45 60 46 61 47 62 49 66 50 67 51 68 52
REMARK SMILES IDX 69 53 70 54 71 55 2 56 1 57 3 58 4 59 5 60 6 62 7 63 63 65
REMARK SMILES IDX 64 66 65 67 40 69 41 70 42 71 44 72 43 73 45 74 46 75 47 76
REMARK SMILES IDX 55 77 56 78 48 79 49 80 50 81 54 82 51 83 53 84 52 85
REMARK H PARENT 38 5 27 10 18 17 10 22 22 31 34 39 34 40 35 41 35 42 61 48
REMARK H PARENT 5 61 65 68
REMARK Flexibility Score:  369.900
ROOT
ATOM      1  C   UNL     1      -1.394   9.905   3.240  1.00  0.00     0.117 C 
ENDROOT
BRANCH   1   2
ATOM      2  N   UNL     1      -1.515   9.476   4.634  1.00  0.00    -0.347 N 
ATOM      3  O   UNL     1      -0.940   7.274   4.334  1.00  0.00    -0.273 OA
ATOM      4  C   UNL     1      -1.188   8.212   5.085  1.00  0.00     0.243 C 
ATOM      5  H   UNL     1      -1.806  10.143   5.333  1.00  0.00     0.164 HD
BRANCH   4   6
ATOM      6  C   UNL     1      -1.325   8.043   6.619  1.00  0.00     0.171 C 
BRANCH   6   7
ATOM      7  N   UNL     1      -1.881   6.719   6.944  1.00  0.00    -0.344 N 
ATOM      8  C   UNL     1      -2.875   6.587   7.889  1.00  0.00     0.226 C 
ATOM      9  O   UNL     1      -3.324   7.541   8.513  1.00  0.00    -0.275 OA
ATOM     10  H   UNL     1      -1.489   5.900   6.498  1.00  0.00     0.164 HD
BRANCH   8  11
ATOM     11  C   UNL     1      -3.381   5.167   8.070  1.00  0.00     0.109 C 
ATOM     12  C   UNL     1      -3.186   4.371   6.780  1.00  0.00     0.021 C 
BRANCH  11  13
ATOM     13  C   UNL     1      -2.737   4.540   9.322  1.00  0.00     0.204 C 
BRANCH  13  14
ATOM     14  N   UNL     1      -3.733   3.927  10.207  1.00  0.00    -0.340 N 
ATOM     15  C   UNL     1      -4.344   4.613  11.234  1.00  0.00     0.243 C 
ATOM     16  O   UNL     1      -4.142   5.808  11.443  1.00  0.00    -0.273 OA
ATOM     17  H   UNL     1      -3.833   2.909  10.185  1.00  0.00     0.164 HD
BRANCH  15  18
ATOM     18  C   UNL     1      -5.198   3.710  12.159  1.00  0.00     0.171 C 
BRANCH  18  19
ATOM     19  N   UNL     1      -6.443   3.437  11.444  1.00  0.00    -0.343 N 
ATOM     20  C   UNL     1      -7.678   3.682  12.012  1.00  0.00     0.242 CG0
ATOM     21  O   UNL     1      -7.790   4.015  13.189  1.00  0.00    -0.273 OA
ATOM     22  H   UNL     1      -6.404   3.051  10.507  1.00  0.00     0.164 HD
ATOM     23  G   UNL     1      -8.874   3.406  11.078  1.00  0.00     0.000 G0
ENDBRANCH  18  19
BRANCH  18  24
ATOM     24  C   UNL     1      -4.447   2.416  12.495  1.00  0.00     0.038 C 
BRANCH  24  25
ATOM     25  C   UNL     1      -4.005   2.292  13.969  1.00  0.00    -0.015 C 
ATOM     26  C   UNL     1      -4.698   3.309  14.875  1.00  0.00     0.007 C 
ATOM     27  C   UNL     1      -2.487   2.464  14.067  1.00  0.00     0.007 C 
ENDBRANCH  24  25
ENDBRANCH  18  24
ENDBRANCH  15  18
ENDBRANCH  13  14
BRANCH  13  28
ATOM     28  C   UNL     1      -1.699   3.463   8.992  1.00  0.00     0.327 C 
ATOM     29  O   UNL     1      -0.599   3.647   8.493  1.00  0.00    -0.250 OA
BRANCH  28  30
ATOM     30  O   UNL     1      -2.153   2.210   9.200  1.00  0.00    -0.480 OA
ATOM     31  H   UNL     1      -3.064   2.336   9.537  1.00  0.00     0.296 HD
ENDBRANCH  28  30
ENDBRANCH  13  28
ENDBRANCH  11  13
ENDBRANCH   8  11
ENDBRANCH   6   7
BRANCH   6  32
ATOM     32  C   UNL     1       0.049   8.234   7.271  1.00  0.00     0.037 C 
BRANCH  32  33
ATOM     33  C   UNL     1       0.117   9.515   8.115  1.00  0.00     0.026 C 
BRANCH  33  34
ATOM     34  C   UNL     1       0.585  10.724   7.305  1.00  0.00     0.146 C 
BRANCH  34  35
ATOM     35  N   UNL     1      -0.583  11.418   6.780  1.00  0.00    -0.254 NA
ATOM     36  C   UNL     1      -1.035  12.431   7.420  1.00  0.00     0.185 C 
ATOM     37  N   UNL     1      -2.108  13.081   6.942  1.00  0.00    -0.370 N 
ATOM     38  N   UNL     1      -0.581  12.982   8.560  1.00  0.00    -0.370 N 
ATOM     39  H   UNL     1      -2.502  12.732   6.078  1.00  0.00     0.159 HD
ATOM     40  H   UNL     1      -2.414  13.976   7.283  1.00  0.00     0.159 HD
ATOM     41  H   UNL     1      -1.108  13.693   9.040  1.00  0.00     0.159 HD
ATOM     42  H   UNL     1       0.212  12.586   9.040  1.00  0.00     0.159 HD
ENDBRANCH  34  35
ENDBRANCH  33  34
ENDBRANCH  32  33
ENDBRANCH   6  32
ENDBRANCH   4   6
ENDBRANCH   1   2
BRANCH   1  43
ATOM     43  C   UNL     1      -0.247  10.953   3.143  1.00  0.00     0.102 C 
ATOM     44  C   UNL     1      -0.723  12.338   2.672  1.00  0.00     0.020 C 
BRANCH  43  45
ATOM     45  C   UNL     1       0.938  10.399   2.346  1.00  0.00     0.225 C 
ATOM     46  O   UNL     1       2.002  10.998   2.223  1.00  0.00    -0.275 OA
ATOM     47  N   UNL     1       0.706   9.214   1.686  1.00  0.00    -0.342 N 
ATOM     48  H   UNL     1      -0.110   8.664   1.917  1.00  0.00     0.164 HD
BRANCH  47  49
ATOM     49  C   UNL     1       1.759   8.548   0.913  1.00  0.00     0.192 C 
BRANCH  49  50
ATOM     50  C   UNL     1       1.376   8.530  -0.569  1.00  0.00     0.047 C 
BRANCH  50  51
ATOM     51  C   UNL     1       2.428   9.219  -1.450  1.00  0.00     0.103 C 
BRANCH  51  52
ATOM     52  C   UNL     1       1.804  10.247  -2.391  1.00  0.00     0.226 C 
ATOM     53  O   UNL     1       2.256  11.393  -2.429  1.00  0.00    -0.275 OA
BRANCH  52  54
ATOM     54  N   UNL     1       0.773   9.784  -3.230  1.00  0.00    -0.311 N 
ATOM     55  C   UNL     1      -0.610   9.684  -2.744  1.00  0.00     0.153 C 
BRANCH  54  56
ATOM     56  C   UNL     1       1.024   9.408  -4.560  1.00  0.00     0.102 C 
ATOM     57  C   UNL     1       1.410   8.182  -4.951  1.00  0.00     0.043 C 
BRANCH  56  58
ATOM     58  C   UNL     1       0.825  10.386  -5.693  1.00  0.00     0.268 C 
ATOM     59  O   UNL     1       0.891  10.067  -6.872  1.00  0.00    -0.268 OA
ATOM     60  N   UNL     1       0.499  11.651  -5.264  1.00  0.00    -0.339 N 
ATOM     61  H   UNL     1       0.476  11.836  -4.269  1.00  0.00     0.164 HD
BRANCH  60  62
ATOM     62  C   UNL     1       0.203  12.737  -6.197  1.00  0.00     0.168 CG0
ATOM     63  C   UNL     1      -1.226  13.236  -6.019  1.00  0.00     0.041 C 
ATOM     64  G   UNL     1       0.437  12.255  -7.643  1.00  0.00     0.000 G0
ENDBRANCH  60  62
ENDBRANCH  56  58
ENDBRANCH  54  56
ENDBRANCH  52  54
ENDBRANCH  51  52
ENDBRANCH  50  51
ENDBRANCH  49  50
BRANCH  49  65
ATOM     65  C   UNL     1       1.992   7.108   1.396  1.00  0.00     0.326 C 
ATOM     66  O   UNL     1       2.898   6.374   1.031  1.00  0.00    -0.250 OA
BRANCH  65  67
ATOM     67  O   UNL     1       1.057   6.643   2.254  1.00  0.00    -0.480 OA
ATOM     68  H   UNL     1       1.396   6.912   3.135  1.00  0.00     0.296 HD
ENDBRANCH  65  67
ENDBRANCH  49  65
ENDBRANCH  47  49
ENDBRANCH  43  45
ENDBRANCH   1  43
BRANCH   1  69
ATOM     69  C   UNL     1      -2.790  10.302   2.796  1.00  0.00    -0.001 C 
ATOM     70  C   UNL     1      -3.922  10.254   3.520  1.00  0.00     0.001 C 
BRANCH  70  71
ATOM     71  C   UNL     1      -5.261  10.660   3.087  1.00  0.00    -0.055 C 
ATOM     72  C   UNL     1      -6.196  10.854   4.040  1.00  0.00    -0.018 C 
ATOM     73  C   UNL     1      -5.497  10.840   1.610  1.00  0.00     0.044 C 
BRANCH  72  74
ATOM     74  C   UNL     1      -7.651  11.276   3.890  1.00  0.00     0.038 C 
ATOM     75  C   UNL     1      -7.653  12.722   3.380  1.00  0.00     0.015 C 
BRANCH  74  76
ATOM     76  C   UNL     1      -8.377  11.063   5.251  1.00  0.00     0.128 C 
BRANCH  76  77
ATOM     77  O   UNL     1      -9.601  10.336   5.045  1.00  0.00    -0.381 OA
ATOM     78  C   UNL     1     -10.362  10.801   3.939  1.00  0.00     0.195 C 
ENDBRANCH  76  77
BRANCH  76  79
ATOM     79  C   UNL     1      -7.484  10.434   6.349  1.00  0.00     0.068 C 
BRANCH  79  80
ATOM     80  C   UNL     1      -7.655  10.925   7.767  1.00  0.00    -0.045 A 
ATOM     81  C   UNL     1      -6.621  10.802   8.704  1.00  0.00     0.004 A 
ATOM     82  C   UNL     1      -8.872  11.491   8.177  1.00  0.00     0.004 A 
ATOM     83  C   UNL     1      -6.793  11.246  10.016  1.00  0.00     0.000 A 
ATOM     84  C   UNL     1      -9.043  11.934   9.490  1.00  0.00     0.000 A 
ATOM     85  C   UNL     1      -8.003  11.813  10.409  1.00  0.00     0.000 A 
ENDBRANCH  79  80
ENDBRANCH  76  79
ENDBRANCH  74  76
ENDBRANCH  72  74
ENDBRANCH  70  71
ENDBRANCH   1  69
TORSDOF 17
ENDMDL
MODEL 8
REMARK VINA RESULT:    -6.487      4.179      8.045
REMARK INTER + INTRA:         -26.580
REMARK INTER:                 -19.664
REMARK INTRA:                  -6.917
REMARK UNBOUND:                -7.200
REMARK SMILES C=C1C(=O)N[C@H](C)C(=O)N[C@@H](CC(C)C)C(=O)N[C@@H](C(=O)O)[C@H](C)C(=O)N[C@@H](CCCN=C(N)N)C(=O)N[C@@H](/C=C/C(C)=C/[C@H](C)[C@H](Cc2ccccc2)OC)[C@H](C)C(=O)N[C@@H](C(=O)O)CCC(=O)N1C
REMARK SMILES IDX 39 1 38 2 37 3 36 4 28 6 27 7 25 8 26 9 23 11 24 12 19 13
REMARK SMILES IDX 18 14 16 15 17 16 11 18 10 19 8 20 9 21 12 24 13 25 14 26
REMARK SMILES IDX 15 27 20 28 21 29 22 30 29 32 30 33 31 34 32 35 33 36 34 37
REMARK SMILES IDX 35 38 57 43 58 44 59 45 60 46 61 47 62 49 66 50 67 51 68 52
REMARK SMILES IDX 69 53 70 54 71 55 2 56 1 57 3 58 4 59 5 60 6 62 7 63 63 65
REMARK SMILES IDX 64 66 65 67 40 69 41 70 42 71 44 72 43 73 45 74 46 75 47 76
REMARK SMILES IDX 55 77 56 78 48 79 49 80 50 81 54 82 51 83 53 84 52 85
REMARK H PARENT 38 5 27 10 18 17 10 22 22 31 34 39 34 40 35 41 35 42 61 48
REMARK H PARENT 5 61 65 68
REMARK Flexibility Score:  369.900
ROOT
ATOM      1  C   UNL     1      -1.264  10.292   4.684  1.00  0.00     0.117 C 
ENDROOT
BRANCH   1   2
ATOM      2  N   UNL     1      -0.768  10.166   3.313  1.00  0.00    -0.347 N 
ATOM      3  O   UNL     1       0.111  12.276   3.103  1.00  0.00    -0.273 OA
ATOM      4  C   UNL     1      -0.036  11.141   2.663  1.00  0.00     0.243 C 
ATOM      5  H   UNL     1      -0.915   9.303   2.812  1.00  0.00     0.164 HD
BRANCH   4   6
ATOM      6  C   UNL     1       0.442  10.722   1.249  1.00  0.00     0.171 C 
BRANCH   6   7
ATOM      7  N   UNL     1       1.485  11.641   0.766  1.00  0.00    -0.344 N 
ATOM      8  C   UNL     1       1.163  12.700  -0.054  1.00  0.00     0.226 C 
ATOM      9  O   UNL     1       0.019  12.916  -0.436  1.00  0.00    -0.275 OA
ATOM     10  H   UNL     1       2.451  11.455   1.005  1.00  0.00     0.164 HD
BRANCH   8  11
ATOM     11  C   UNL     1       2.341  13.586  -0.422  1.00  0.00     0.109 C 
ATOM     12  C   UNL     1       3.171  13.901   0.823  1.00  0.00     0.021 C 
BRANCH  11  13
ATOM     13  C   UNL     1       3.129  12.951  -1.584  1.00  0.00     0.204 C 
BRANCH  13  14
ATOM     14  N   UNL     1       2.244  12.387  -2.608  1.00  0.00    -0.340 N 
ATOM     15  C   UNL     1       2.041  11.032  -2.758  1.00  0.00     0.243 C 
ATOM     16  O   UNL     1       2.541  10.202  -2.002  1.00  0.00    -0.273 OA
ATOM     17  H   UNL     1       1.922  13.005  -3.357  1.00  0.00     0.164 HD
BRANCH  15  18
ATOM     18  C   UNL     1       1.237  10.664  -4.029  1.00  0.00     0.171 C 
BRANCH  18  19
ATOM     19  N   UNL     1       1.331   9.214  -4.179  1.00  0.00    -0.343 N 
ATOM     20  C   UNL     1       1.973   8.632  -5.255  1.00  0.00     0.242 CG0
ATOM     21  O   UNL     1       2.378   9.303  -6.202  1.00  0.00    -0.273 OA
ATOM     22  H   UNL     1       0.909   8.613  -3.479  1.00  0.00     0.164 HD
ATOM     23  G   UNL     1       2.040   7.092  -5.200  1.00  0.00     0.000 G0
ENDBRANCH  18  19
BRANCH  18  24
ATOM     24  C   UNL     1      -0.221  11.123  -3.899  1.00  0.00     0.038 C 
BRANCH  24  25
ATOM     25  C   UNL     1      -0.649  12.206  -4.912  1.00  0.00    -0.015 C 
ATOM     26  C   UNL     1       0.305  12.303  -6.102  1.00  0.00     0.007 C 
ATOM     27  C   UNL     1      -0.736  13.563  -4.208  1.00  0.00     0.007 C 
ENDBRANCH  24  25
ENDBRANCH  18  24
ENDBRANCH  15  18
ENDBRANCH  13  14
BRANCH  13  28
ATOM     28  C   UNL     1       4.068  13.936  -2.287  1.00  0.00     0.327 C 
ATOM     29  O   UNL     1       3.761  15.030  -2.737  1.00  0.00    -0.250 OA
BRANCH  28  30
ATOM     30  O   UNL     1       5.304  13.437  -2.488  1.00  0.00    -0.480 OA
ATOM     31  H   UNL     1       5.333  13.242  -3.447  1.00  0.00     0.296 HD
ENDBRANCH  28  30
ENDBRANCH  13  28
ENDBRANCH  11  13
ENDBRANCH   8  11
ENDBRANCH   6   7
BRANCH   6  32
ATOM     32  C   UNL     1       0.962   9.281   1.300  1.00  0.00     0.037 C 
BRANCH  32  33
ATOM     33  C   UNL     1       2.451   9.216   1.666  1.00  0.00     0.026 C 
BRANCH  33  34
ATOM     34  C   UNL     1       2.739   8.194   2.768  1.00  0.00     0.146 C 
BRANCH  34  35
ATOM     35  N   UNL     1       3.227   6.967   2.154  1.00  0.00    -0.254 NA
ATOM     36  C   UNL     1       2.500   5.914   2.223  1.00  0.00     0.185 C 
ATOM     37  N   UNL     1       2.938   4.779   1.657  1.00  0.00    -0.370 N 
ATOM     38  N   UNL     1       1.298   5.755   2.804  1.00  0.00    -0.370 N 
ATOM     39  H   UNL     1       3.834   4.822   1.189  1.00  0.00     0.159 HD
ATOM     40  H   UNL     1       2.360   3.969   1.516  1.00  0.00     0.159 HD
ATOM     41  H   UNL     1       0.889   4.841   2.912  1.00  0.00     0.159 HD
ATOM     42  H   UNL     1       0.854   6.522   3.283  1.00  0.00     0.159 HD
ENDBRANCH  34  35
ENDBRANCH  33  34
ENDBRANCH  32  33
ENDBRANCH   6  32
ENDBRANCH   4   6
ENDBRANCH   1   2
BRANCH   1  43
ATOM     43  C   UNL     1      -0.498   9.278   5.583  1.00  0.00     0.102 C 
ATOM     44  C   UNL     1       1.007   9.575   5.696  1.00  0.00     0.020 C 
BRANCH  43  45
ATOM     45  C   UNL     1      -0.818   7.835   5.181  1.00  0.00     0.225 C 
ATOM     46  O   UNL     1      -0.983   7.485   4.016  1.00  0.00    -0.275 OA
ATOM     47  N   UNL     1      -1.006   6.957   6.224  1.00  0.00    -0.342 N 
ATOM     48  H   UNL     1      -0.720   7.220   7.156  1.00  0.00     0.164 HD
BRANCH  47  49
ATOM     49  C   UNL     1      -1.282   5.537   5.989  1.00  0.00     0.192 C 
BRANCH  49  50
ATOM     50  C   UNL     1      -1.822   4.899   7.272  1.00  0.00     0.047 C 
BRANCH  50  51
ATOM     51  C   UNL     1      -3.236   5.389   7.615  1.00  0.00     0.103 C 
BRANCH  51  52
ATOM     52  C   UNL     1      -3.231   6.398   8.761  1.00  0.00     0.226 C 
ATOM     53  O   UNL     1      -3.206   7.605   8.512  1.00  0.00    -0.275 OA
BRANCH  52  54
ATOM     54  N   UNL     1      -3.334   5.870  10.061  1.00  0.00    -0.311 N 
ATOM     55  C   UNL     1      -2.292   6.123  11.065  1.00  0.00     0.153 C 
BRANCH  54  56
ATOM     56  C   UNL     1      -4.436   5.089  10.450  1.00  0.00     0.102 C 
ATOM     57  C   UNL     1      -5.721   5.457  10.323  1.00  0.00     0.043 C 
BRANCH  56  58
ATOM     58  C   UNL     1      -4.242   3.704  11.019  1.00  0.00     0.268 C 
ATOM     59  O   UNL     1      -3.652   2.812  10.424  1.00  0.00    -0.268 OA
ATOM     60  N   UNL     1      -4.736   3.570  12.294  1.00  0.00    -0.339 N 
ATOM     61  H   UNL     1      -5.222   4.354  12.714  1.00  0.00     0.164 HD
BRANCH  60  62
ATOM     62  C   UNL     1      -4.599   2.329  13.057  1.00  0.00     0.168 CG0
ATOM     63  C   UNL     1      -5.856   1.476  12.944  1.00  0.00     0.041 C 
ATOM     64  G   UNL     1      -4.295   2.661  14.532  1.00  0.00     0.000 G0
ENDBRANCH  60  62
ENDBRANCH  56  58
ENDBRANCH  54  56
ENDBRANCH  52  54
ENDBRANCH  51  52
ENDBRANCH  50  51
ENDBRANCH  49  50
BRANCH  49  65
ATOM     65  C   UNL     1      -0.023   4.781   5.536  1.00  0.00     0.326 C 
ATOM     66  O   UNL     1       1.114   4.997   5.928  1.00  0.00    -0.250 OA
BRANCH  65  67
ATOM     67  O   UNL     1      -0.238   3.847   4.584  1.00  0.00    -0.480 OA
ATOM     68  H   UNL     1       0.649   3.715   4.185  1.00  0.00     0.296 HD
ENDBRANCH  65  67
ENDBRANCH  49  65
ENDBRANCH  47  49
ENDBRANCH  43  45
ENDBRANCH   1  43
BRANCH   1  69
ATOM     69  C   UNL     1      -2.776  10.199   4.598  1.00  0.00    -0.001 C 
ATOM     70  C   UNL     1      -3.549  10.434   3.523  1.00  0.00     0.001 C 
BRANCH  70  71
ATOM     71  C   UNL     1      -5.007  10.321   3.446  1.00  0.00    -0.055 C 
ATOM     72  C   UNL     1      -5.729  10.801   4.480  1.00  0.00    -0.018 C 
ATOM     73  C   UNL     1      -5.598   9.683   2.216  1.00  0.00     0.044 C 
BRANCH  72  74
ATOM     74  C   UNL     1      -7.239  10.823   4.673  1.00  0.00     0.038 C 
ATOM     75  C   UNL     1      -7.772  12.057   3.934  1.00  0.00     0.015 C 
BRANCH  74  76
ATOM     76  C   UNL     1      -7.550  10.791   6.198  1.00  0.00     0.128 C 
BRANCH  76  77
ATOM     77  O   UNL     1      -8.622   9.870   6.461  1.00  0.00    -0.381 OA
ATOM     78  C   UNL     1      -8.864   9.655   7.845  1.00  0.00     0.195 C 
ENDBRANCH  76  77
BRANCH  76  79
ATOM     79  C   UNL     1      -6.308  10.535   7.089  1.00  0.00     0.068 C 
BRANCH  79  80
ATOM     80  C   UNL     1      -5.804  11.673   7.943  1.00  0.00    -0.045 A 
ATOM     81  C   UNL     1      -4.460  11.745   8.331  1.00  0.00     0.004 A 
ATOM     82  C   UNL     1      -6.688  12.668   8.389  1.00  0.00     0.004 A 
ATOM     83  C   UNL     1      -4.005  12.793   9.133  1.00  0.00     0.000 A 
ATOM     84  C   UNL     1      -6.232  13.716   9.192  1.00  0.00     0.000 A 
ATOM     85  C   UNL     1      -4.891  13.779   9.562  1.00  0.00     0.000 A 
ENDBRANCH  79  80
ENDBRANCH  76  79
ENDBRANCH  74  76
ENDBRANCH  72  74
ENDBRANCH  70  71
ENDBRANCH   1  69
TORSDOF 17
ENDMDL
MODEL 9
REMARK VINA RESULT:    -6.458      5.651      9.082
REMARK INTER + INTRA:         -26.495
REMARK INTER:                 -17.307
REMARK INTRA:                  -9.188
REMARK UNBOUND:                -7.200
REMARK SMILES C=C1C(=O)N[C@H](C)C(=O)N[C@@H](CC(C)C)C(=O)N[C@@H](C(=O)O)[C@H](C)C(=O)N[C@@H](CCCN=C(N)N)C(=O)N[C@@H](/C=C/C(C)=C/[C@H](C)[C@H](Cc2ccccc2)OC)[C@H](C)C(=O)N[C@@H](C(=O)O)CCC(=O)N1C
REMARK SMILES IDX 39 1 38 2 37 3 36 4 28 6 27 7 25 8 26 9 23 11 24 12 19 13
REMARK SMILES IDX 18 14 16 15 17 16 11 18 10 19 8 20 9 21 12 24 13 25 14 26
REMARK SMILES IDX 15 27 20 28 21 29 22 30 29 32 30 33 31 34 32 35 33 36 34 37
REMARK SMILES IDX 35 38 57 43 58 44 59 45 60 46 61 47 62 49 66 50 67 51 68 52
REMARK SMILES IDX 69 53 70 54 71 55 2 56 1 57 3 58 4 59 5 60 6 62 7 63 63 65
REMARK SMILES IDX 64 66 65 67 40 69 41 70 42 71 44 72 43 73 45 74 46 75 47 76
REMARK SMILES IDX 55 77 56 78 48 79 49 80 50 81 54 82 51 83 53 84 52 85
REMARK H PARENT 38 5 27 10 18 17 10 22 22 31 34 39 34 40 35 41 35 42 61 48
REMARK H PARENT 5 61 65 68
REMARK Flexibility Score:  369.900
ROOT
ATOM      1  C   UNL     1      -1.291   5.603   6.452  1.00  0.00     0.117 C 
ENDROOT
BRANCH   1   2
ATOM      2  N   UNL     1      -0.729   6.128   5.207  1.00  0.00    -0.347 N 
ATOM      3  O   UNL     1       1.427   5.400   5.504  1.00  0.00    -0.273 OA
ATOM      4  C   UNL     1       0.568   5.904   4.788  1.00  0.00     0.243 C 
ATOM      5  H   UNL     1      -1.323   6.647   4.577  1.00  0.00     0.164 HD
BRANCH   4   6
ATOM      6  C   UNL     1       0.884   6.498   3.392  1.00  0.00     0.171 C 
BRANCH   6   7
ATOM      7  N   UNL     1       1.160   7.940   3.497  1.00  0.00    -0.344 N 
ATOM      8  C   UNL     1       0.129   8.854   3.504  1.00  0.00     0.226 C 
ATOM      9  O   UNL     1      -1.047   8.524   3.402  1.00  0.00    -0.275 OA
ATOM     10  H   UNL     1       2.122   8.256   3.515  1.00  0.00     0.164 HD
BRANCH   8  11
ATOM     11  C   UNL     1       0.573  10.297   3.673  1.00  0.00     0.109 C 
ATOM     12  C   UNL     1       0.870  10.587   5.144  1.00  0.00     0.021 C 
BRANCH  11  13
ATOM     13  C   UNL     1       1.733  10.602   2.704  1.00  0.00     0.204 C 
BRANCH  13  14
ATOM     14  N   UNL     1       1.325  10.487   1.301  1.00  0.00    -0.340 N 
ATOM     15  C   UNL     1       2.216  10.229   0.281  1.00  0.00     0.243 C 
ATOM     16  O   UNL     1       3.409  10.015   0.485  1.00  0.00    -0.273 OA
ATOM     17  H   UNL     1       0.385  10.801   1.047  1.00  0.00     0.164 HD
BRANCH  15  18
ATOM     18  C   UNL     1       1.594  10.359  -1.131  1.00  0.00     0.171 C 
BRANCH  18  19
ATOM     19  N   UNL     1       2.287  11.463  -1.793  1.00  0.00    -0.343 N 
ATOM     20  C   UNL     1       2.043  12.781  -1.459  1.00  0.00     0.242 CG0
ATOM     21  O   UNL     1       1.139  13.093  -0.687  1.00  0.00    -0.273 OA
ATOM     22  H   UNL     1       2.962  11.261  -2.522  1.00  0.00     0.164 HD
ATOM     23  G   UNL     1       2.925  13.802  -2.208  1.00  0.00     0.000 G0
ENDBRANCH  18  19
BRANCH  18  24
ATOM     24  C   UNL     1       1.748   9.049  -1.913  1.00  0.00     0.038 C 
BRANCH  24  25
ATOM     25  C   UNL     1       0.525   8.664  -2.772  1.00  0.00    -0.015 C 
ATOM     26  C   UNL     1       0.857   8.587  -4.262  1.00  0.00     0.007 C 
ATOM     27  C   UNL     1      -0.602   9.676  -2.547  1.00  0.00     0.007 C 
ENDBRANCH  24  25
ENDBRANCH  18  24
ENDBRANCH  15  18
ENDBRANCH  13  14
BRANCH  13  28
ATOM     28  C   UNL     1       2.323  12.003   2.892  1.00  0.00     0.327 C 
ATOM     29  O   UNL     1       1.714  13.060   2.819  1.00  0.00    -0.250 OA
BRANCH  28  30
ATOM     30  O   UNL     1       3.663  11.997   3.042  1.00  0.00    -0.480 OA
ATOM     31  H   UNL     1       3.949  11.158   2.624  1.00  0.00     0.296 HD
ENDBRANCH  28  30
ENDBRANCH  13  28
ENDBRANCH  11  13
ENDBRANCH   8  11
ENDBRANCH   6   7
BRANCH   6  32
ATOM     32  C   UNL     1       2.081   5.755   2.788  1.00  0.00     0.037 C 
BRANCH  32  33
ATOM     33  C   UNL     1       3.085   6.711   2.129  1.00  0.00     0.026 C 
BRANCH  33  34
ATOM     34  C   UNL     1       4.425   6.749   2.864  1.00  0.00     0.146 C 
BRANCH  34  35
ATOM     35  N   UNL     1       4.311   7.647   4.004  1.00  0.00    -0.254 NA
ATOM     36  C   UNL     1       4.735   8.850   3.884  1.00  0.00     0.185 C 
ATOM     37  N   UNL     1       4.630   9.687   4.928  1.00  0.00    -0.370 N 
ATOM     38  N   UNL     1       5.301   9.443   2.819  1.00  0.00    -0.370 N 
ATOM     39  H   UNL     1       4.204   9.316   5.767  1.00  0.00     0.159 HD
ATOM     40  H   UNL     1       4.776  10.680   4.861  1.00  0.00     0.159 HD
ATOM     41  H   UNL     1       5.721  10.356   2.892  1.00  0.00     0.159 HD
ATOM     42  H   UNL     1       5.458   8.927   1.967  1.00  0.00     0.159 HD
ENDBRANCH  34  35
ENDBRANCH  33  34
ENDBRANCH  32  33
ENDBRANCH   6  32
ENDBRANCH   4   6
ENDBRANCH   1   2
BRANCH   1  43
ATOM     43  C   UNL     1      -1.799   4.155   6.194  1.00  0.00     0.102 C 
ATOM     44  C   UNL     1      -3.302   3.976   6.471  1.00  0.00     0.020 C 
BRANCH  43  45
ATOM     45  C   UNL     1      -0.910   3.126   6.898  1.00  0.00     0.225 C 
ATOM     46  O   UNL     1      -0.988   1.919   6.690  1.00  0.00    -0.275 OA
ATOM     47  N   UNL     1      -0.068   3.631   7.862  1.00  0.00    -0.342 N 
ATOM     48  H   UNL     1       0.093   4.627   7.913  1.00  0.00     0.164 HD
BRANCH  47  49
ATOM     49  C   UNL     1       0.865   2.769   8.592  1.00  0.00     0.192 C 
BRANCH  49  50
ATOM     50  C   UNL     1       0.959   3.229  10.049  1.00  0.00     0.047 C 
BRANCH  50  51
ATOM     51  C   UNL     1      -0.250   4.075  10.470  1.00  0.00     0.103 C 
BRANCH  51  52
ATOM     52  C   UNL     1      -1.233   3.283  11.332  1.00  0.00     0.226 C 
ATOM     53  O   UNL     1      -0.983   3.093  12.523  1.00  0.00    -0.275 OA
BRANCH  52  54
ATOM     54  N   UNL     1      -2.427   2.877  10.708  1.00  0.00    -0.311 N 
ATOM     55  C   UNL     1      -2.485   1.636   9.923  1.00  0.00     0.153 C 
BRANCH  54  56
ATOM     56  C   UNL     1      -3.604   3.635  10.815  1.00  0.00     0.102 C 
ATOM     57  C   UNL     1      -3.876   4.739  10.099  1.00  0.00     0.043 C 
BRANCH  56  58
ATOM     58  C   UNL     1      -4.712   3.217  11.753  1.00  0.00     0.268 C 
ATOM     59  O   UNL     1      -5.900   3.337  11.482  1.00  0.00    -0.268 OA
ATOM     60  N   UNL     1      -4.251   2.630  12.906  1.00  0.00    -0.339 N 
ATOM     61  H   UNL     1      -3.251   2.577  13.060  1.00  0.00     0.164 HD
BRANCH  60  62
ATOM     62  C   UNL     1      -5.155   2.095  13.924  1.00  0.00     0.168 CG0
ATOM     63  C   UNL     1      -5.105   2.933  15.195  1.00  0.00     0.041 C 
ATOM     64  G   UNL     1      -4.787   0.627  14.222  1.00  0.00     0.000 G0
ENDBRANCH  60  62
ENDBRANCH  56  58
ENDBRANCH  54  56
ENDBRANCH  52  54
ENDBRANCH  51  52
ENDBRANCH  50  51
ENDBRANCH  49  50
BRANCH  49  65
ATOM     65  C   UNL     1       2.267   2.788   7.961  1.00  0.00     0.326 C 
ATOM     66  O   UNL     1       2.937   1.803   7.689  1.00  0.00    -0.250 OA
BRANCH  65  67
ATOM     67  O   UNL     1       2.778   4.023   7.762  1.00  0.00    -0.480 OA
ATOM     68  H   UNL     1       3.529   4.067   8.392  1.00  0.00     0.296 HD
ENDBRANCH  65  67
ENDBRANCH  49  65
ENDBRANCH  47  49
ENDBRANCH  43  45
ENDBRANCH   1  43
BRANCH   1  69
ATOM     69  C   UNL     1      -2.273   6.648   6.948  1.00  0.00    -0.001 C 
ATOM     70  C   UNL     1      -2.135   7.459   8.011  1.00  0.00     0.001 C 
BRANCH  70  71
ATOM     71  C   UNL     1      -3.081   8.480   8.468  1.00  0.00    -0.055 C 
ATOM     72  C   UNL     1      -3.626   9.291   7.538  1.00  0.00    -0.018 C 
ATOM     73  C   UNL     1      -3.384   8.546   9.942  1.00  0.00     0.044 C 
BRANCH  72  74
ATOM     74  C   UNL     1      -4.628  10.424   7.716  1.00  0.00     0.038 C 
ATOM     75  C   UNL     1      -5.523  10.435   6.471  1.00  0.00     0.015 C 
BRANCH  74  76
ATOM     76  C   UNL     1      -3.847  11.747   7.971  1.00  0.00     0.128 C 
BRANCH  76  77
ATOM     77  O   UNL     1      -3.750  11.995   9.384  1.00  0.00    -0.381 OA
ATOM     78  C   UNL     1      -4.416  13.179   9.802  1.00  0.00     0.195 C 
ENDBRANCH  76  77
BRANCH  76  79
ATOM     79  C   UNL     1      -2.475  11.816   7.254  1.00  0.00     0.068 C 
BRANCH  79  80
ATOM     80  C   UNL     1      -1.243  12.019   8.103  1.00  0.00    -0.045 A 
ATOM     81  C   UNL     1      -0.791  13.306   8.423  1.00  0.00     0.004 A 
ATOM     82  C   UNL     1      -0.513  10.913   8.565  1.00  0.00     0.004 A 
ATOM     83  C   UNL     1       0.358  13.485   9.198  1.00  0.00     0.000 A 
ATOM     84  C   UNL     1       0.636  11.094   9.338  1.00  0.00     0.000 A 
ATOM     85  C   UNL     1       1.070  12.378   9.656  1.00  0.00     0.000 A 
ENDBRANCH  79  80
ENDBRANCH  76  79
ENDBRANCH  74  76
ENDBRANCH  72  74
ENDBRANCH  70  71
ENDBRANCH   1  69
TORSDOF 17
ENDMDL
MODEL 10
REMARK VINA RESULT:    -6.442      5.159      8.774
REMARK INTER + INTRA:         -26.445
REMARK INTER:                 -20.816
REMARK INTRA:                  -5.629
REMARK UNBOUND:                -7.200
REMARK SMILES C=C1C(=O)N[C@H](C)C(=O)N[C@@H](CC(C)C)C(=O)N[C@@H](C(=O)O)[C@H](C)C(=O)N[C@@H](CCCN=C(N)N)C(=O)N[C@@H](/C=C/C(C)=C/[C@H](C)[C@H](Cc2ccccc2)OC)[C@H](C)C(=O)N[C@@H](C(=O)O)CCC(=O)N1C
REMARK SMILES IDX 39 1 38 2 37 3 36 4 28 6 27 7 25 8 26 9 23 11 24 12 19 13
REMARK SMILES IDX 18 14 16 15 17 16 11 18 10 19 8 20 9 21 12 24 13 25 14 26
REMARK SMILES IDX 15 27 20 28 21 29 22 30 29 32 30 33 31 34 32 35 33 36 34 37
REMARK SMILES IDX 35 38 57 43 58 44 59 45 60 46 61 47 62 49 66 50 67 51 68 52
REMARK SMILES IDX 69 53 70 54 71 55 2 56 1 57 3 58 4 59 5 60 6 62 7 63 63 65
REMARK SMILES IDX 64 66 65 67 40 69 41 70 42 71 44 72 43 73 45 74 46 75 47 76
REMARK SMILES IDX 55 77 56 78 48 79 49 80 50 81 54 82 51 83 53 84 52 85
REMARK H PARENT 38 5 27 10 18 17 10 22 22 31 34 39 34 40 35 41 35 42 61 48
REMARK H PARENT 5 61 65 68
REMARK Flexibility Score:  369.900
ROOT
ATOM      1  C   UNL     1      -2.281   6.818   8.313  1.00  0.00     0.117 C 
ENDROOT
BRANCH   1   2
ATOM      2  N   UNL     1      -1.888   6.852   6.904  1.00  0.00    -0.347 N 
ATOM      3  O   UNL     1       0.370   6.564   7.201  1.00  0.00    -0.273 OA
ATOM      4  C   UNL     1      -0.601   6.630   6.454  1.00  0.00     0.243 C 
ATOM      5  H   UNL     1      -2.594   6.995   6.197  1.00  0.00     0.164 HD
BRANCH   4   6
ATOM      6  C   UNL     1      -0.471   6.636   4.910  1.00  0.00     0.171 C 
BRANCH   6   7
ATOM      7  N   UNL     1       0.464   7.687   4.477  1.00  0.00    -0.344 N 
ATOM      8  C   UNL     1       0.040   8.710   3.656  1.00  0.00     0.226 C 
ATOM      9  O   UNL     1      -1.108   8.785   3.234  1.00  0.00    -0.275 OA
ATOM     10  H   UNL     1       1.436   7.622   4.750  1.00  0.00     0.164 HD
BRANCH   8  11
ATOM     11  C   UNL     1       1.107   9.744   3.343  1.00  0.00     0.109 C 
ATOM     12  C   UNL     1       2.070   9.879   4.522  1.00  0.00     0.021 C 
BRANCH  11  13
ATOM     13  C   UNL     1       1.775   9.412   1.994  1.00  0.00     0.204 C 
BRANCH  13  14
ATOM     14  N   UNL     1       1.026   9.958   0.858  1.00  0.00    -0.340 N 
ATOM     15  C   UNL     1       0.892   9.290  -0.340  1.00  0.00     0.243 C 
ATOM     16  O   UNL     1       1.341   8.160  -0.520  1.00  0.00    -0.273 OA
ATOM     17  H   UNL     1       0.760  10.946   0.888  1.00  0.00     0.164 HD
BRANCH  15  18
ATOM     18  C   UNL     1       0.241  10.145  -1.455  1.00  0.00     0.171 C 
BRANCH  18  19
ATOM     19  N   UNL     1       1.197  11.200  -1.785  1.00  0.00    -0.343 N 
ATOM     20  C   UNL     1       0.826  12.530  -1.833  1.00  0.00     0.242 CG0
ATOM     21  O   UNL     1      -0.349  12.875  -1.732  1.00  0.00    -0.273 OA
ATOM     22  H   UNL     1       2.159  10.953  -1.991  1.00  0.00     0.164 HD
ATOM     23  G   UNL     1       1.987  13.504  -2.120  1.00  0.00     0.000 G0
ENDBRANCH  18  19
BRANCH  18  24
ATOM     24  C   UNL     1      -0.086   9.280  -2.679  1.00  0.00     0.038 C 
BRANCH  24  25
ATOM     25  C   UNL     1       0.822   9.525  -3.902  1.00  0.00    -0.015 C 
ATOM     26  C   UNL     1       0.138  10.368  -4.979  1.00  0.00     0.007 C 
ATOM     27  C   UNL     1       1.256   8.183  -4.498  1.00  0.00     0.007 C 
ENDBRANCH  24  25
ENDBRANCH  18  24
ENDBRANCH  15  18
ENDBRANCH  13  14
BRANCH  13  28
ATOM     28  C   UNL     1       3.210   9.938   1.886  1.00  0.00     0.327 C 
ATOM     29  O   UNL     1       3.543  11.069   1.568  1.00  0.00    -0.250 OA
BRANCH  28  30
ATOM     30  O   UNL     1       4.140   8.978   2.068  1.00  0.00    -0.480 OA
ATOM     31  H   UNL     1       3.922   8.301   1.395  1.00  0.00     0.296 HD
ENDBRANCH  28  30
ENDBRANCH  13  28
ENDBRANCH  11  13
ENDBRANCH   8  11
ENDBRANCH   6   7
BRANCH   6  32
ATOM     32  C   UNL     1       0.002   5.256   4.439  1.00  0.00     0.037 C 
BRANCH  32  33
ATOM     33  C   UNL     1       1.493   5.248   4.073  1.00  0.00     0.026 C 
BRANCH  33  34
ATOM     34  C   UNL     1       1.725   5.098   2.569  1.00  0.00     0.146 C 
BRANCH  34  35
ATOM     35  N   UNL     1       0.514   4.569   1.957  1.00  0.00    -0.254 NA
ATOM     36  C   UNL     1       0.555   3.408   1.416  1.00  0.00     0.185 C 
ATOM     37  N   UNL     1      -0.556   2.909   0.854  1.00  0.00    -0.370 N 
ATOM     38  N   UNL     1       1.594   2.559   1.317  1.00  0.00    -0.370 N 
ATOM     39  H   UNL     1      -1.386   3.486   0.898  1.00  0.00     0.159 HD
ATOM     40  H   UNL     1      -0.652   1.949   0.569  1.00  0.00     0.159 HD
ATOM     41  H   UNL     1       1.537   1.733   0.745  1.00  0.00     0.159 HD
ATOM     42  H   UNL     1       2.498   2.811   1.683  1.00  0.00     0.159 HD
ENDBRANCH  34  35
ENDBRANCH  33  34
ENDBRANCH  32  33
ENDBRANCH   6  32
ENDBRANCH   4   6
ENDBRANCH   1   2
BRANCH   1  43
ATOM     43  C   UNL     1      -2.760   5.378   8.659  1.00  0.00     0.102 C 
ATOM     44  C   UNL     1      -3.601   4.729   7.547  1.00  0.00     0.020 C 
BRANCH  43  45
ATOM     45  C   UNL     1      -3.418   5.335  10.042  1.00  0.00     0.225 C 
ATOM     46  O   UNL     1      -2.943   5.891  11.028  1.00  0.00    -0.275 OA
ATOM     47  N   UNL     1      -4.541   4.546  10.139  1.00  0.00    -0.342 N 
ATOM     48  H   UNL     1      -5.000   4.224   9.298  1.00  0.00     0.164 HD
BRANCH  47  49
ATOM     49  C   UNL     1      -5.295   4.438  11.391  1.00  0.00     0.192 C 
BRANCH  49  50
ATOM     50  C   UNL     1      -5.168   3.017  11.947  1.00  0.00     0.047 C 
BRANCH  50  51
ATOM     51  C   UNL     1      -3.715   2.649  12.276  1.00  0.00     0.103 C 
BRANCH  51  52
ATOM     52  C   UNL     1      -3.182   1.546  11.364  1.00  0.00     0.226 C 
ATOM     53  O   UNL     1      -3.016   1.774  10.164  1.00  0.00    -0.275 OA
BRANCH  52  54
ATOM     54  N   UNL     1      -2.835   0.332  11.986  1.00  0.00    -0.311 N 
ATOM     55  C   UNL     1      -1.973   0.311  13.175  1.00  0.00     0.153 C 
BRANCH  54  56
ATOM     56  C   UNL     1      -3.302  -0.900  11.498  1.00  0.00     0.102 C 
ATOM     57  C   UNL     1      -2.565  -2.019  11.407  1.00  0.00     0.043 C 
BRANCH  56  58
ATOM     58  C   UNL     1      -4.740  -1.067  11.066  1.00  0.00     0.268 C 
ATOM     59  O   UNL     1      -5.113  -0.920   9.910  1.00  0.00    -0.268 OA
ATOM     60  N   UNL     1      -5.568  -1.465  12.088  1.00  0.00    -0.339 N 
ATOM     61  H   UNL     1      -5.183  -1.554  13.021  1.00  0.00     0.164 HD
BRANCH  60  62
ATOM     62  C   UNL     1      -6.987  -1.746  11.876  1.00  0.00     0.168 CG0
ATOM     63  C   UNL     1      -7.523  -2.691  12.944  1.00  0.00     0.041 C 
ATOM     64  G   UNL     1      -7.192  -2.341  10.468  1.00  0.00     0.000 G0
ENDBRANCH  60  62
ENDBRANCH  56  58
ENDBRANCH  54  56
ENDBRANCH  52  54
ENDBRANCH  51  52
ENDBRANCH  50  51
ENDBRANCH  49  50
BRANCH  49  65
ATOM     65  C   UNL     1      -6.781   4.774  11.188  1.00  0.00     0.326 C 
ATOM     66  O   UNL     1      -7.397   5.653  11.773  1.00  0.00    -0.250 OA
BRANCH  65  67
ATOM     67  O   UNL     1      -7.429   3.964  10.322  1.00  0.00    -0.480 OA
ATOM     68  H   UNL     1      -6.769   3.809   9.613  1.00  0.00     0.296 HD
ENDBRANCH  65  67
ENDBRANCH  49  65
ENDBRANCH  47  49
ENDBRANCH  43  45
ENDBRANCH   1  43
BRANCH   1  69
ATOM     69  C   UNL     1      -3.239   7.978   8.514  1.00  0.00    -0.001 C 
ATOM     70  C   UNL     1      -3.708   8.821   7.579  1.00  0.00     0.001 C 
BRANCH  70  71
ATOM     71  C   UNL     1      -4.650   9.924   7.781  1.00  0.00    -0.055 C 
ATOM     72  C   UNL     1      -5.130  10.118   9.028  1.00  0.00    -0.018 C 
ATOM     73  C   UNL     1      -5.008  10.770   6.587  1.00  0.00     0.044 C 
BRANCH  72  74
ATOM     74  C   UNL     1      -6.106  11.172   9.530  1.00  0.00     0.038 C 
ATOM     75  C   UNL     1      -5.407  11.933  10.663  1.00  0.00     0.015 C 
BRANCH  74  76
ATOM     76  C   UNL     1      -7.435  10.470   9.939  1.00  0.00     0.128 C 
BRANCH  76  77
ATOM     77  O   UNL     1      -7.593  10.512  11.368  1.00  0.00    -0.381 OA
ATOM     78  C   UNL     1      -8.928  10.291  11.801  1.00  0.00     0.195 C 
ENDBRANCH  76  77
BRANCH  76  79
ATOM     79  C   UNL     1      -8.682  10.993   9.183  1.00  0.00     0.068 C 
BRANCH  79  80
ATOM     80  C   UNL     1      -8.606  11.095   7.679  1.00  0.00    -0.045 A 
ATOM     81  C   UNL     1      -8.308  12.312   7.051  1.00  0.00     0.004 A 
ATOM     82  C   UNL     1      -8.861   9.969   6.880  1.00  0.00     0.004 A 
ATOM     83  C   UNL     1      -8.254  12.400   5.659  1.00  0.00     0.000 A 
ATOM     84  C   UNL     1      -8.806  10.059   5.487  1.00  0.00     0.000 A 
ATOM     85  C   UNL     1      -8.501  11.274   4.877  1.00  0.00     0.000 A 
ENDBRANCH  79  80
ENDBRANCH  76  79
ENDBRANCH  74  76
ENDBRANCH  72  74
ENDBRANCH  70  71
ENDBRANCH   1  69
TORSDOF 17
ENDMDL
MODEL 11
REMARK VINA RESULT:    -6.423      5.106      8.989
REMARK INTER + INTRA:         -26.391
REMARK INTER:                 -18.944
REMARK INTRA:                  -7.446
REMARK UNBOUND:                -7.200
REMARK SMILES C=C1C(=O)N[C@H](C)C(=O)N[C@@H](CC(C)C)C(=O)N[C@@H](C(=O)O)[C@H](C)C(=O)N[C@@H](CCCN=C(N)N)C(=O)N[C@@H](/C=C/C(C)=C/[C@H](C)[C@H](Cc2ccccc2)OC)[C@H](C)C(=O)N[C@@H](C(=O)O)CCC(=O)N1C
REMARK SMILES IDX 39 1 38 2 37 3 36 4 28 6 27 7 25 8 26 9 23 11 24 12 19 13
REMARK SMILES IDX 18 14 16 15 17 16 11 18 10 19 8 20 9 21 12 24 13 25 14 26
REMARK SMILES IDX 15 27 20 28 21 29 22 30 29 32 30 33 31 34 32 35 33 36 34 37
REMARK SMILES IDX 35 38 57 43 58 44 59 45 60 46 61 47 62 49 66 50 67 51 68 52
REMARK SMILES IDX 69 53 70 54 71 55 2 56 1 57 3 58 4 59 5 60 6 62 7 63 63 65
REMARK SMILES IDX 64 66 65 67 40 69 41 70 42 71 44 72 43 73 45 74 46 75 47 76
REMARK SMILES IDX 55 77 56 78 48 79 49 80 50 81 54 82 51 83 53 84 52 85
REMARK H PARENT 38 5 27 10 18 17 10 22 22 31 34 39 34 40 35 41 35 42 61 48
REMARK H PARENT 5 61 65 68
REMARK Flexibility Score:  369.900
ROOT
ATOM      1  C   UNL     1       0.089  10.464   2.711  1.00  0.00     0.117 C 
ENDROOT
BRANCH   1   2
ATOM      2  N   UNL     1       1.073   9.550   3.291  1.00  0.00    -0.347 N 
ATOM      3  O   UNL     1       2.553  11.129   4.058  1.00  0.00    -0.273 OA
ATOM      4  C   UNL     1       2.185   9.960   4.002  1.00  0.00     0.243 C 
ATOM      5  H   UNL     1       0.924   8.554   3.223  1.00  0.00     0.164 HD
BRANCH   4   6
ATOM      6  C   UNL     1       3.019   8.791   4.584  1.00  0.00     0.171 C 
BRANCH   6   7
ATOM      7  N   UNL     1       3.111   7.690   3.611  1.00  0.00    -0.344 N 
ATOM      8  C   UNL     1       2.258   6.611   3.687  1.00  0.00     0.226 C 
ATOM      9  O   UNL     1       1.410   6.501   4.565  1.00  0.00    -0.275 OA
ATOM     10  H   UNL     1       3.843   7.713   2.912  1.00  0.00     0.164 HD
BRANCH   8  11
ATOM     11  C   UNL     1       2.443   5.588   2.581  1.00  0.00     0.109 C 
ATOM     12  C   UNL     1       2.728   6.293   1.255  1.00  0.00     0.021 C 
BRANCH  11  13
ATOM     13  C   UNL     1       3.501   4.549   3.003  1.00  0.00     0.204 C 
BRANCH  13  14
ATOM     14  N   UNL     1       3.815   4.630   4.433  1.00  0.00    -0.340 N 
ATOM     15  C   UNL     1       5.095   4.814   4.909  1.00  0.00     0.243 C 
ATOM     16  O   UNL     1       6.058   4.984   4.164  1.00  0.00    -0.273 OA
ATOM     17  H   UNL     1       3.092   4.347   5.100  1.00  0.00     0.164 HD
BRANCH  15  18
ATOM     18  C   UNL     1       5.212   4.659   6.445  1.00  0.00     0.171 C 
BRANCH  18  19
ATOM     19  N   UNL     1       5.840   3.362   6.688  1.00  0.00    -0.343 N 
ATOM     20  C   UNL     1       5.117   2.185   6.658  1.00  0.00     0.242 CG0
ATOM     21  O   UNL     1       3.893   2.184   6.558  1.00  0.00    -0.273 OA
ATOM     22  H   UNL     1       6.832   3.320   6.891  1.00  0.00     0.164 HD
ATOM     23  G   UNL     1       5.965   0.912   6.860  1.00  0.00     0.000 G0
ENDBRANCH  18  19
BRANCH  18  24
ATOM     24  C   UNL     1       6.037   5.804   7.044  1.00  0.00     0.038 C 
BRANCH  24  25
ATOM     25  C   UNL     1       5.274   6.690   8.051  1.00  0.00    -0.015 C 
ATOM     26  C   UNL     1       3.790   6.821   7.708  1.00  0.00     0.007 C 
ATOM     27  C   UNL     1       5.915   8.079   8.104  1.00  0.00     0.007 C 
ENDBRANCH  24  25
ENDBRANCH  18  24
ENDBRANCH  15  18
ENDBRANCH  13  14
BRANCH  13  28
ATOM     28  C   UNL     1       3.079   3.105   2.712  1.00  0.00     0.327 C 
ATOM     29  O   UNL     1       2.071   2.752   2.119  1.00  0.00    -0.250 OA
BRANCH  28  30
ATOM     30  O   UNL     1       3.888   2.192   3.286  1.00  0.00    -0.480 OA
ATOM     31  H   UNL     1       4.388   1.807   2.537  1.00  0.00     0.296 HD
ENDBRANCH  28  30
ENDBRANCH  13  28
ENDBRANCH  11  13
ENDBRANCH   8  11
ENDBRANCH   6   7
BRANCH   6  32
ATOM     32  C   UNL     1       4.412   9.305   4.961  1.00  0.00     0.037 C 
BRANCH  32  33
ATOM     33  C   UNL     1       5.452   9.019   3.868  1.00  0.00     0.026 C 
BRANCH  33  34
ATOM     34  C   UNL     1       6.707   8.340   4.418  1.00  0.00     0.146 C 
BRANCH  34  35
ATOM     35  N   UNL     1       7.701   8.262   3.356  1.00  0.00    -0.254 NA
ATOM     36  C   UNL     1       8.595   7.346   3.418  1.00  0.00     0.185 C 
ATOM     37  N   UNL     1       9.513   7.262   2.443  1.00  0.00    -0.370 N 
ATOM     38  N   UNL     1       8.771   6.399   4.357  1.00  0.00    -0.370 N 
ATOM     39  H   UNL     1       9.441   7.936   1.692  1.00  0.00     0.159 HD
ATOM     40  H   UNL     1      10.131   6.477   2.327  1.00  0.00     0.159 HD
ATOM     41  H   UNL     1       9.596   5.822   4.366  1.00  0.00     0.159 HD
ATOM     42  H   UNL     1       8.162   6.353   5.159  1.00  0.00     0.159 HD
ENDBRANCH  34  35
ENDBRANCH  33  34
ENDBRANCH  32  33
ENDBRANCH   6  32
ENDBRANCH   4   6
ENDBRANCH   1   2
BRANCH   1  43
ATOM     43  C   UNL     1      -1.328  10.037   3.192  1.00  0.00     0.102 C 
ATOM     44  C   UNL     1      -2.466  10.809   2.504  1.00  0.00     0.020 C 
BRANCH  43  45
ATOM     45  C   UNL     1      -1.412  10.038   4.722  1.00  0.00     0.225 C 
ATOM     46  O   UNL     1      -0.776   9.261   5.429  1.00  0.00    -0.275 OA
ATOM     47  N   UNL     1      -2.327  10.911   5.264  1.00  0.00    -0.342 N 
ATOM     48  H   UNL     1      -2.725  11.639   4.689  1.00  0.00     0.164 HD
BRANCH  47  49
ATOM     49  C   UNL     1      -2.491  11.045   6.715  1.00  0.00     0.192 C 
BRANCH  49  50
ATOM     50  C   UNL     1      -3.883  10.557   7.123  1.00  0.00     0.047 C 
BRANCH  50  51
ATOM     51  C   UNL     1      -4.700  10.059   5.922  1.00  0.00     0.103 C 
BRANCH  51  52
ATOM     52  C   UNL     1      -5.975  10.874   5.718  1.00  0.00     0.226 C 
ATOM     53  O   UNL     1      -6.314  11.701   6.568  1.00  0.00    -0.275 OA
BRANCH  52  54
ATOM     54  N   UNL     1      -6.658  10.676   4.504  1.00  0.00    -0.311 N 
ATOM     55  C   UNL     1      -5.925  10.433   3.255  1.00  0.00     0.153 C 
BRANCH  54  56
ATOM     56  C   UNL     1      -8.062  10.697   4.441  1.00  0.00     0.102 C 
ATOM     57  C   UNL     1      -8.863   9.688   4.822  1.00  0.00     0.043 C 
BRANCH  56  58
ATOM     58  C   UNL     1      -8.798  11.925   3.961  1.00  0.00     0.268 C 
ATOM     59  O   UNL     1      -8.521  13.059   4.331  1.00  0.00    -0.268 OA
ATOM     60  N   UNL     1      -9.762  11.646   3.022  1.00  0.00    -0.339 N 
ATOM     61  H   UNL     1      -9.937  10.678   2.778  1.00  0.00     0.164 HD
BRANCH  60  62
ATOM     62  C   UNL     1     -10.551  12.695   2.380  1.00  0.00     0.168 CG0
ATOM     63  C   UNL     1      -9.728  13.434   1.331  1.00  0.00     0.041 C 
ATOM     64  G   UNL     1     -11.078  13.674   3.449  1.00  0.00     0.000 G0
ENDBRANCH  60  62
ENDBRANCH  56  58
ENDBRANCH  54  56
ENDBRANCH  52  54
ENDBRANCH  51  52
ENDBRANCH  50  51
ENDBRANCH  49  50
BRANCH  49  65
ATOM     65  C   UNL     1      -2.306  12.500   7.174  1.00  0.00     0.326 C 
ATOM     66  O   UNL     1      -3.197  13.238   7.569  1.00  0.00    -0.250 OA
BRANCH  65  67
ATOM     67  O   UNL     1      -1.046  12.972   7.059  1.00  0.00    -0.480 OA
ATOM     68  H   UNL     1      -0.790  12.729   6.143  1.00  0.00     0.296 HD
ENDBRANCH  65  67
ENDBRANCH  49  65
ENDBRANCH  47  49
ENDBRANCH  43  45
ENDBRANCH   1  43
BRANCH   1  69
ATOM     69  C   UNL     1       0.376  10.505   1.221  1.00  0.00    -0.001 C 
ATOM     70  C   UNL     1       0.987   9.564   0.480  1.00  0.00     0.001 C 
BRANCH  70  71
ATOM     71  C   UNL     1       1.239   9.605  -0.962  1.00  0.00    -0.055 C 
ATOM     72  C   UNL     1       0.181   9.466  -1.788  1.00  0.00    -0.018 C 
ATOM     73  C   UNL     1       2.659   9.808  -1.421  1.00  0.00     0.044 C 
BRANCH  72  74
ATOM     74  C   UNL     1       0.140   9.471  -3.309  1.00  0.00     0.038 C 
ATOM     75  C   UNL     1       0.830   8.187  -3.785  1.00  0.00     0.015 C 
BRANCH  74  76
ATOM     76  C   UNL     1       0.788  10.791  -3.823  1.00  0.00     0.128 C 
BRANCH  76  77
ATOM     77  O   UNL     1       1.343  10.587  -5.134  1.00  0.00    -0.381 OA
ATOM     78  C   UNL     1       0.513  11.061  -6.186  1.00  0.00     0.195 C 
ENDBRANCH  76  77
BRANCH  76  79
ATOM     79  C   UNL     1      -0.150  12.022  -3.754  1.00  0.00     0.068 C 
BRANCH  79  80
ATOM     80  C   UNL     1      -0.438  12.616  -2.397  1.00  0.00    -0.045 A 
ATOM     81  C   UNL     1       0.582  13.194  -1.631  1.00  0.00     0.004 A 
ATOM     82  C   UNL     1      -1.737  12.571  -1.867  1.00  0.00     0.004 A 
ATOM     83  C   UNL     1       0.309  13.729  -0.370  1.00  0.00     0.000 A 
ATOM     84  C   UNL     1      -2.008  13.106  -0.606  1.00  0.00     0.000 A 
ATOM     85  C   UNL     1      -0.986  13.686   0.142  1.00  0.00     0.000 A 
ENDBRANCH  79  80
ENDBRANCH  76  79
ENDBRANCH  74  76
ENDBRANCH  72  74
ENDBRANCH  70  71
ENDBRANCH   1  69
TORSDOF 17
ENDMDL
MODEL 12
REMARK VINA RESULT:    -6.415      4.754     12.941
REMARK INTER + INTRA:         -26.364
REMARK INTER:                 -19.492
REMARK INTRA:                  -6.872
REMARK UNBOUND:                -7.200
REMARK SMILES C=C1C(=O)N[C@H](C)C(=O)N[C@@H](CC(C)C)C(=O)N[C@@H](C(=O)O)[C@H](C)C(=O)N[C@@H](CCCN=C(N)N)C(=O)N[C@@H](/C=C/C(C)=C/[C@H](C)[C@H](Cc2ccccc2)OC)[C@H](C)C(=O)N[C@@H](C(=O)O)CCC(=O)N1C
REMARK SMILES IDX 39 1 38 2 37 3 36 4 28 6 27 7 25 8 26 9 23 11 24 12 19 13
REMARK SMILES IDX 18 14 16 15 17 16 11 18 10 19 8 20 9 21 12 24 13 25 14 26
REMARK SMILES IDX 15 27 20 28 21 29 22 30 29 32 30 33 31 34 32 35 33 36 34 37
REMARK SMILES IDX 35 38 57 43 58 44 59 45 60 46 61 47 62 49 66 50 67 51 68 52
REMARK SMILES IDX 69 53 70 54 71 55 2 56 1 57 3 58 4 59 5 60 6 62 7 63 63 65
REMARK SMILES IDX 64 66 65 67 40 69 41 70 42 71 44 72 43 73 45 74 46 75 47 76
REMARK SMILES IDX 55 77 56 78 48 79 49 80 50 81 54 82 51 83 53 84 52 85
REMARK H PARENT 38 5 27 10 18 17 10 22 22 31 34 39 34 40 35 41 35 42 61 48
REMARK H PARENT 5 61 65 68
REMARK Flexibility Score:  369.900
ROOT
ATOM      1  C   UNL     1      -1.430   9.097   4.802  1.00  0.00     0.117 C 
ENDROOT
BRANCH   1   2
ATOM      2  N   UNL     1      -0.420   8.247   5.434  1.00  0.00    -0.347 N 
ATOM      3  O   UNL     1      -0.923   6.294   4.338  1.00  0.00    -0.273 OA
ATOM      4  C   UNL     1      -0.187   6.932   5.083  1.00  0.00     0.243 C 
ATOM      5  H   UNL     1       0.187   8.641   6.137  1.00  0.00     0.164 HD
BRANCH   4   6
ATOM      6  C   UNL     1       0.996   6.283   5.847  1.00  0.00     0.171 C 
BRANCH   6   7
ATOM      7  N   UNL     1       0.627   4.942   6.324  1.00  0.00    -0.344 N 
ATOM      8  C   UNL     1       0.165   4.756   7.610  1.00  0.00     0.226 C 
ATOM      9  O   UNL     1       0.061   5.675   8.413  1.00  0.00    -0.275 OA
ATOM     10  H   UNL     1       0.762   4.148   5.711  1.00  0.00     0.164 HD
BRANCH   8  11
ATOM     11  C   UNL     1      -0.226   3.324   7.933  1.00  0.00     0.109 C 
ATOM     12  C   UNL     1       0.594   2.810   9.116  1.00  0.00     0.021 C 
BRANCH  11  13
ATOM     13  C   UNL     1      -1.754   3.229   8.113  1.00  0.00     0.204 C 
BRANCH  13  14
ATOM     14  N   UNL     1      -2.180   3.655   9.449  1.00  0.00    -0.340 N 
ATOM     15  C   UNL     1      -2.927   2.856  10.287  1.00  0.00     0.243 C 
ATOM     16  O   UNL     1      -3.238   1.703   9.996  1.00  0.00    -0.273 OA
ATOM     17  H   UNL     1      -2.087   4.646   9.690  1.00  0.00     0.164 HD
BRANCH  15  18
ATOM     18  C   UNL     1      -3.433   3.590  11.553  1.00  0.00     0.171 C 
BRANCH  18  19
ATOM     19  N   UNL     1      -2.250   4.097  12.245  1.00  0.00    -0.343 N 
ATOM     20  C   UNL     1      -1.916   3.681  13.519  1.00  0.00     0.242 CG0
ATOM     21  O   UNL     1      -2.668   2.969  14.181  1.00  0.00    -0.273 OA
ATOM     22  H   UNL     1      -1.657   4.778  11.783  1.00  0.00     0.164 HD
ATOM     23  G   UNL     1      -0.592   4.265  14.053  1.00  0.00     0.000 G0
ENDBRANCH  18  19
BRANCH  18  24
ATOM     24  C   UNL     1      -4.392   4.725  11.174  1.00  0.00     0.038 C 
BRANCH  24  25
ATOM     25  C   UNL     1      -5.876   4.450  11.496  1.00  0.00    -0.015 C 
ATOM     26  C   UNL     1      -6.826   5.283  10.636  1.00  0.00     0.007 C 
ATOM     27  C   UNL     1      -6.142   4.730  12.977  1.00  0.00     0.007 C 
ENDBRANCH  24  25
ENDBRANCH  18  24
ENDBRANCH  15  18
ENDBRANCH  13  14
BRANCH  13  28
ATOM     28  C   UNL     1      -2.535   4.070   7.098  1.00  0.00     0.327 C 
ATOM     29  O   UNL     1      -3.405   4.888   7.354  1.00  0.00    -0.250 OA
BRANCH  28  30
ATOM     30  O   UNL     1      -2.259   3.745   5.818  1.00  0.00    -0.480 OA
ATOM     31  H   UNL     1      -1.796   4.532   5.464  1.00  0.00     0.296 HD
ENDBRANCH  28  30
ENDBRANCH  13  28
ENDBRANCH  11  13
ENDBRANCH   8  11
ENDBRANCH   6   7
BRANCH   6  32
ATOM     32  C   UNL     1       2.217   6.218   4.922  1.00  0.00     0.037 C 
BRANCH  32  33
ATOM     33  C   UNL     1       2.831   4.812   4.872  1.00  0.00     0.026 C 
BRANCH  33  34
ATOM     34  C   UNL     1       2.831   4.223   3.461  1.00  0.00     0.146 C 
BRANCH  34  35
ATOM     35  N   UNL     1       1.458   4.152   2.982  1.00  0.00    -0.254 NA
ATOM     36  C   UNL     1       1.187   3.366   2.007  1.00  0.00     0.185 C 
ATOM     37  N   UNL     1      -0.076   3.289   1.560  1.00  0.00    -0.370 N 
ATOM     38  N   UNL     1       2.013   2.559   1.318  1.00  0.00    -0.370 N 
ATOM     39  H   UNL     1      -0.762   3.862   2.036  1.00  0.00     0.159 HD
ATOM     40  H   UNL     1      -0.399   2.579   0.926  1.00  0.00     0.159 HD
ATOM     41  H   UNL     1       1.707   2.093   0.480  1.00  0.00     0.159 HD
ATOM     42  H   UNL     1       2.997   2.526   1.535  1.00  0.00     0.159 HD
ENDBRANCH  34  35
ENDBRANCH  33  34
ENDBRANCH  32  33
ENDBRANCH   6  32
ENDBRANCH   4   6
ENDBRANCH   1   2
BRANCH   1  43
ATOM     43  C   UNL     1      -0.704  10.224   4.011  1.00  0.00     0.102 C 
ATOM     44  C   UNL     1      -1.552  10.816   2.873  1.00  0.00     0.020 C 
BRANCH  43  45
ATOM     45  C   UNL     1       0.695   9.777   3.575  1.00  0.00     0.225 C 
ATOM     46  O   UNL     1       1.679   9.844   4.307  1.00  0.00    -0.275 OA
ATOM     47  N   UNL     1       0.807   9.374   2.264  1.00  0.00    -0.342 N 
ATOM     48  H   UNL     1      -0.027   9.181   1.727  1.00  0.00     0.164 HD
BRANCH  47  49
ATOM     49  C   UNL     1       2.077   8.886   1.718  1.00  0.00     0.192 C 
BRANCH  49  50
ATOM     50  C   UNL     1       2.383   9.609   0.404  1.00  0.00     0.047 C 
BRANCH  50  51
ATOM     51  C   UNL     1       1.177   9.626  -0.545  1.00  0.00     0.103 C 
BRANCH  51  52
ATOM     52  C   UNL     1       1.600   9.576  -2.012  1.00  0.00     0.226 C 
ATOM     53  O   UNL     1       2.798   9.595  -2.302  1.00  0.00    -0.275 OA
BRANCH  52  54
ATOM     54  N   UNL     1       0.568   9.431  -2.958  1.00  0.00    -0.311 N 
ATOM     55  C   UNL     1      -0.832   9.684  -2.594  1.00  0.00     0.153 C 
BRANCH  54  56
ATOM     56  C   UNL     1       0.837   9.046  -4.282  1.00  0.00     0.102 C 
ATOM     57  C   UNL     1       1.081   7.788  -4.682  1.00  0.00     0.043 C 
BRANCH  56  58
ATOM     58  C   UNL     1       0.826  10.061  -5.401  1.00  0.00     0.268 C 
ATOM     59  O   UNL     1       0.962   9.759  -6.579  1.00  0.00    -0.268 OA
ATOM     60  N   UNL     1       0.581  11.341  -4.967  1.00  0.00    -0.339 N 
ATOM     61  H   UNL     1       0.490  11.510  -3.972  1.00  0.00     0.164 HD
BRANCH  60  62
ATOM     62  C   UNL     1       0.466  12.469  -5.891  1.00  0.00     0.168 CG0
ATOM     63  C   UNL     1      -0.987  12.703  -6.289  1.00  0.00     0.041 C 
ATOM     64  G   UNL     1       1.337  12.207  -7.137  1.00  0.00     0.000 G0
ENDBRANCH  60  62
ENDBRANCH  56  58
ENDBRANCH  54  56
ENDBRANCH  52  54
ENDBRANCH  51  52
ENDBRANCH  50  51
ENDBRANCH  49  50
BRANCH  49  65
ATOM     65  C   UNL     1       2.042   7.370   1.470  1.00  0.00     0.326 C 
ATOM     66  O   UNL     1       2.930   6.716   0.943  1.00  0.00    -0.250 OA
BRANCH  65  67
ATOM     67  O   UNL     1       0.888   6.766   1.832  1.00  0.00    -0.480 OA
ATOM     68  H   UNL     1       0.195   7.393   1.532  1.00  0.00     0.296 HD
ENDBRANCH  65  67
ENDBRANCH  49  65
ENDBRANCH  47  49
ENDBRANCH  43  45
ENDBRANCH   1  43
BRANCH   1  69
ATOM     69  C   UNL     1      -2.406   9.483   5.898  1.00  0.00    -0.001 C 
ATOM     70  C   UNL     1      -2.337  10.547   6.716  1.00  0.00     0.001 C 
BRANCH  70  71
ATOM     71  C   UNL     1      -3.297  10.921   7.757  1.00  0.00    -0.055 C 
ATOM     72  C   UNL     1      -4.515  10.341   7.724  1.00  0.00    -0.018 C 
ATOM     73  C   UNL     1      -2.855  11.919   8.794  1.00  0.00     0.044 C 
BRANCH  72  74
ATOM     74  C   UNL     1      -5.698  10.530   8.663  1.00  0.00     0.038 C 
ATOM     75  C   UNL     1      -6.082   9.143   9.193  1.00  0.00     0.015 C 
BRANCH  74  76
ATOM     76  C   UNL     1      -6.832  11.273   7.897  1.00  0.00     0.128 C 
BRANCH  76  77
ATOM     77  O   UNL     1      -6.359  12.550   7.438  1.00  0.00    -0.381 OA
ATOM     78  C   UNL     1      -6.239  13.520   8.470  1.00  0.00     0.195 C 
ENDBRANCH  76  77
BRANCH  76  79
ATOM     79  C   UNL     1      -7.484  10.434   6.769  1.00  0.00     0.068 C 
BRANCH  79  80
ATOM     80  C   UNL     1      -7.180  10.814   5.340  1.00  0.00    -0.045 A 
ATOM     81  C   UNL     1      -6.022  10.352   4.700  1.00  0.00     0.004 A 
ATOM     82  C   UNL     1      -8.045  11.665   4.635  1.00  0.00     0.004 A 
ATOM     83  C   UNL     1      -5.741  10.720   3.383  1.00  0.00     0.000 A 
ATOM     84  C   UNL     1      -7.763  12.032   3.317  1.00  0.00     0.000 A 
ATOM     85  C   UNL     1      -6.613  11.559   2.691  1.00  0.00     0.000 A 
ENDBRANCH  79  80
ENDBRANCH  76  79
ENDBRANCH  74  76
ENDBRANCH  72  74
ENDBRANCH  70  71
ENDBRANCH   1  69
TORSDOF 17
ENDMDL
MODEL 13
REMARK VINA RESULT:    -6.362      4.615      7.438
REMARK INTER + INTRA:         -26.206
REMARK INTER:                 -18.843
REMARK INTRA:                  -7.363
REMARK UNBOUND:                -7.200
REMARK SMILES C=C1C(=O)N[C@H](C)C(=O)N[C@@H](CC(C)C)C(=O)N[C@@H](C(=O)O)[C@H](C)C(=O)N[C@@H](CCCN=C(N)N)C(=O)N[C@@H](/C=C/C(C)=C/[C@H](C)[C@H](Cc2ccccc2)OC)[C@H](C)C(=O)N[C@@H](C(=O)O)CCC(=O)N1C
REMARK SMILES IDX 39 1 38 2 37 3 36 4 28 6 27 7 25 8 26 9 23 11 24 12 19 13
REMARK SMILES IDX 18 14 16 15 17 16 11 18 10 19 8 20 9 21 12 24 13 25 14 26
REMARK SMILES IDX 15 27 20 28 21 29 22 30 29 32 30 33 31 34 32 35 33 36 34 37
REMARK SMILES IDX 35 38 57 43 58 44 59 45 60 46 61 47 62 49 66 50 67 51 68 52
REMARK SMILES IDX 69 53 70 54 71 55 2 56 1 57 3 58 4 59 5 60 6 62 7 63 63 65
REMARK SMILES IDX 64 66 65 67 40 69 41 70 42 71 44 72 43 73 45 74 46 75 47 76
REMARK SMILES IDX 55 77 56 78 48 79 49 80 50 81 54 82 51 83 53 84 52 85
REMARK H PARENT 38 5 27 10 18 17 10 22 22 31 34 39 34 40 35 41 35 42 61 48
REMARK H PARENT 5 61 65 68
REMARK Flexibility Score:  369.900
ROOT
ATOM      1  C   UNL     1      -2.505   9.008   9.209  1.00  0.00     0.117 C 
ENDROOT
BRANCH   1   2
ATOM      2  N   UNL     1      -1.808   8.577   7.996  1.00  0.00    -0.347 N 
ATOM      3  O   UNL     1      -0.327  10.325   7.848  1.00  0.00    -0.273 OA
ATOM      4  C   UNL     1      -0.711   9.225   7.463  1.00  0.00     0.243 C 
ATOM      5  H   UNL     1      -2.100   7.730   7.533  1.00  0.00     0.164 HD
BRANCH   4   6
ATOM      6  C   UNL     1      -0.107   8.514   6.225  1.00  0.00     0.171 C 
BRANCH   6   7
ATOM      7  N   UNL     1      -0.051   9.436   5.080  1.00  0.00    -0.344 N 
ATOM      8  C   UNL     1      -0.354   8.997   3.809  1.00  0.00     0.226 C 
ATOM      9  O   UNL     1      -0.659   7.836   3.567  1.00  0.00    -0.275 OA
ATOM     10  H   UNL     1       0.263  10.387   5.230  1.00  0.00     0.164 HD
BRANCH   8  11
ATOM     11  C   UNL     1      -0.302  10.079   2.745  1.00  0.00     0.109 C 
ATOM     12  C   UNL     1      -0.468  11.457   3.387  1.00  0.00     0.021 C 
BRANCH  11  13
ATOM     13  C   UNL     1       0.970   9.911   1.891  1.00  0.00     0.204 C 
BRANCH  13  14
ATOM     14  N   UNL     1       0.877  10.626   0.615  1.00  0.00    -0.340 N 
ATOM     15  C   UNL     1       0.885   9.985  -0.605  1.00  0.00     0.243 C 
ATOM     16  O   UNL     1       0.909   8.760  -0.707  1.00  0.00    -0.273 OA
ATOM     17  H   UNL     1       1.007  11.642   0.622  1.00  0.00     0.164 HD
BRANCH  15  18
ATOM     18  C   UNL     1       0.987  10.951  -1.811  1.00  0.00     0.171 C 
BRANCH  18  19
ATOM     19  N   UNL     1       1.785  12.092  -1.367  1.00  0.00    -0.343 N 
ATOM     20  C   UNL     1       1.436  13.391  -1.680  1.00  0.00     0.242 CG0
ATOM     21  O   UNL     1       0.516  13.641  -2.456  1.00  0.00    -0.273 OA
ATOM     22  H   UNL     1       2.622  11.930  -0.819  1.00  0.00     0.164 HD
ATOM     23  G   UNL     1       2.352  14.465  -1.058  1.00  0.00     0.000 G0
ENDBRANCH  18  19
BRANCH  18  24
ATOM     24  C   UNL     1       1.631  10.249  -3.013  1.00  0.00     0.038 C 
BRANCH  24  25
ATOM     25  C   UNL     1       0.629   9.663  -4.030  1.00  0.00    -0.015 C 
ATOM     26  C   UNL     1       0.889   8.185  -4.324  1.00  0.00     0.007 C 
ATOM     27  C   UNL     1       0.688  10.465  -5.333  1.00  0.00     0.007 C 
ENDBRANCH  24  25
ENDBRANCH  18  24
ENDBRANCH  15  18
ENDBRANCH  13  14
BRANCH  13  28
ATOM     28  C   UNL     1       2.239  10.402   2.595  1.00  0.00     0.327 C 
ATOM     29  O   UNL     1       2.723   9.941   3.617  1.00  0.00    -0.250 OA
BRANCH  28  30
ATOM     30  O   UNL     1       2.754  11.517   2.039  1.00  0.00    -0.480 OA
ATOM     31  H   UNL     1       3.579  11.679   2.543  1.00  0.00     0.296 HD
ENDBRANCH  28  30
ENDBRANCH  13  28
ENDBRANCH  11  13
ENDBRANCH   8  11
ENDBRANCH   6   7
BRANCH   6  32
ATOM     32  C   UNL     1       1.290   7.991   6.577  1.00  0.00     0.037 C 
BRANCH  32  33
ATOM     33  C   UNL     1       1.233   6.724   7.442  1.00  0.00     0.026 C 
BRANCH  33  34
ATOM     34  C   UNL     1       0.962   5.464   6.619  1.00  0.00     0.146 C 
BRANCH  34  35
ATOM     35  N   UNL     1      -0.397   5.012   6.886  1.00  0.00    -0.254 NA
ATOM     36  C   UNL     1      -1.215   4.912   5.906  1.00  0.00     0.185 C 
ATOM     37  N   UNL     1      -2.468   4.491   6.140  1.00  0.00    -0.370 N 
ATOM     38  N   UNL     1      -1.009   5.175   4.603  1.00  0.00    -0.370 N 
ATOM     39  H   UNL     1      -2.698   4.262   7.099  1.00  0.00     0.159 HD
ATOM     40  H   UNL     1      -3.109   4.221   5.414  1.00  0.00     0.159 HD
ATOM     41  H   UNL     1      -1.774   5.190   3.948  1.00  0.00     0.159 HD
ATOM     42  H   UNL     1      -0.116   5.515   4.284  1.00  0.00     0.159 HD
ENDBRANCH  34  35
ENDBRANCH  33  34
ENDBRANCH  32  33
ENDBRANCH   6  32
ENDBRANCH   4   6
ENDBRANCH   1   2
BRANCH   1  43
ATOM     43  C   UNL     1      -2.423   7.865  10.260  1.00  0.00     0.102 C 
ATOM     44  C   UNL     1      -1.184   7.954  11.167  1.00  0.00     0.020 C 
BRANCH  43  45
ATOM     45  C   UNL     1      -2.612   6.496   9.600  1.00  0.00     0.225 C 
ATOM     46  O   UNL     1      -3.239   6.335   8.556  1.00  0.00    -0.275 OA
ATOM     47  N   UNL     1      -2.111   5.424  10.303  1.00  0.00    -0.342 N 
ATOM     48  H   UNL     1      -1.474   5.584  11.071  1.00  0.00     0.164 HD
BRANCH  47  49
ATOM     49  C   UNL     1      -2.188   4.058   9.777  1.00  0.00     0.192 C 
BRANCH  49  50
ATOM     50  C   UNL     1      -3.314   3.298  10.481  1.00  0.00     0.047 C 
BRANCH  50  51
ATOM     51  C   UNL     1      -3.510   3.760  11.932  1.00  0.00     0.103 C 
BRANCH  51  52
ATOM     52  C   UNL     1      -4.883   4.392  12.152  1.00  0.00     0.226 C 
ATOM     53  O   UNL     1      -5.084   5.554  11.794  1.00  0.00    -0.275 OA
BRANCH  52  54
ATOM     54  N   UNL     1      -5.876   3.558  12.697  1.00  0.00    -0.311 N 
ATOM     55  C   UNL     1      -7.301   3.814  12.446  1.00  0.00     0.153 C 
BRANCH  54  56
ATOM     56  C   UNL     1      -5.546   2.449  13.494  1.00  0.00     0.102 C 
ATOM     57  C   UNL     1      -5.489   2.457  14.836  1.00  0.00     0.043 C 
BRANCH  56  58
ATOM     58  C   UNL     1      -5.263   1.103  12.870  1.00  0.00     0.268 C 
ATOM     59  O   UNL     1      -4.293   0.418  13.166  1.00  0.00    -0.268 OA
ATOM     60  N   UNL     1      -6.238   0.700  11.989  1.00  0.00    -0.339 N 
ATOM     61  H   UNL     1      -7.005   1.331  11.790  1.00  0.00     0.164 HD
BRANCH  60  62
ATOM     62  C   UNL     1      -6.195  -0.599  11.319  1.00  0.00     0.168 CG0
ATOM     63  C   UNL     1      -6.973  -1.646  12.106  1.00  0.00     0.041 C 
ATOM     64  G   UNL     1      -4.727  -1.035  11.132  1.00  0.00     0.000 G0
ENDBRANCH  60  62
ENDBRANCH  56  58
ENDBRANCH  54  56
ENDBRANCH  52  54
ENDBRANCH  51  52
ENDBRANCH  50  51
ENDBRANCH  49  50
BRANCH  49  65
ATOM     65  C   UNL     1      -0.865   3.301   9.969  1.00  0.00     0.326 C 
ATOM     66  O   UNL     1      -0.274   3.161  11.031  1.00  0.00    -0.250 OA
BRANCH  65  67
ATOM     67  O   UNL     1      -0.321   2.817   8.831  1.00  0.00    -0.480 OA
ATOM     68  H   UNL     1      -0.076   1.896   9.066  1.00  0.00     0.296 HD
ENDBRANCH  65  67
ENDBRANCH  49  65
ENDBRANCH  47  49
ENDBRANCH  43  45
ENDBRANCH   1  43
BRANCH   1  69
ATOM     69  C   UNL     1      -3.870   9.497   8.761  1.00  0.00    -0.001 C 
ATOM     70  C   UNL     1      -4.508  10.614   9.156  1.00  0.00     0.001 C 
BRANCH  70  71
ATOM     71  C   UNL     1      -5.817  11.086   8.701  1.00  0.00    -0.055 C 
ATOM     72  C   UNL     1      -6.709  10.162   8.286  1.00  0.00    -0.018 C 
ATOM     73  C   UNL     1      -6.079  12.569   8.736  1.00  0.00     0.044 C 
BRANCH  72  74
ATOM     74  C   UNL     1      -8.127  10.355   7.770  1.00  0.00     0.038 C 
ATOM     75  C   UNL     1      -9.032   9.404   8.562  1.00  0.00     0.015 C 
BRANCH  74  76
ATOM     76  C   UNL     1      -8.134  10.131   6.229  1.00  0.00     0.128 C 
BRANCH  76  77
ATOM     77  O   UNL     1      -9.482   9.934   5.768  1.00  0.00    -0.381 OA
ATOM     78  C   UNL     1      -9.726  10.468   4.474  1.00  0.00     0.195 C 
ENDBRANCH  76  77
BRANCH  76  79
ATOM     79  C   UNL     1      -7.382  11.225   5.430  1.00  0.00     0.068 C 
BRANCH  79  80
ATOM     80  C   UNL     1      -6.185  10.805   4.611  1.00  0.00    -0.045 A 
ATOM     81  C   UNL     1      -4.983  10.435   5.226  1.00  0.00     0.004 A 
ATOM     82  C   UNL     1      -6.253  10.807   3.209  1.00  0.00     0.004 A 
ATOM     83  C   UNL     1      -3.876  10.061   4.461  1.00  0.00     0.000 A 
ATOM     84  C   UNL     1      -5.145  10.434   2.444  1.00  0.00     0.000 A 
ATOM     85  C   UNL     1      -3.958  10.060   3.070  1.00  0.00     0.000 A 
ENDBRANCH  79  80
ENDBRANCH  76  79
ENDBRANCH  74  76
ENDBRANCH  72  74
ENDBRANCH  70  71
ENDBRANCH   1  69
TORSDOF 17
ENDMDL
MODEL 14
REMARK VINA RESULT:    -6.355      5.971      8.933
REMARK INTER + INTRA:         -26.186
REMARK INTER:                 -18.971
REMARK INTRA:                  -7.215
REMARK UNBOUND:                -7.200
REMARK SMILES C=C1C(=O)N[C@H](C)C(=O)N[C@@H](CC(C)C)C(=O)N[C@@H](C(=O)O)[C@H](C)C(=O)N[C@@H](CCCN=C(N)N)C(=O)N[C@@H](/C=C/C(C)=C/[C@H](C)[C@H](Cc2ccccc2)OC)[C@H](C)C(=O)N[C@@H](C(=O)O)CCC(=O)N1C
REMARK SMILES IDX 39 1 38 2 37 3 36 4 28 6 27 7 25 8 26 9 23 11 24 12 19 13
REMARK SMILES IDX 18 14 16 15 17 16 11 18 10 19 8 20 9 21 12 24 13 25 14 26
REMARK SMILES IDX 15 27 20 28 21 29 22 30 29 32 30 33 31 34 32 35 33 36 34 37
REMARK SMILES IDX 35 38 57 43 58 44 59 45 60 46 61 47 62 49 66 50 67 51 68 52
REMARK SMILES IDX 69 53 70 54 71 55 2 56 1 57 3 58 4 59 5 60 6 62 7 63 63 65
REMARK SMILES IDX 64 66 65 67 40 69 41 70 42 71 44 72 43 73 45 74 46 75 47 76
REMARK SMILES IDX 55 77 56 78 48 79 49 80 50 81 54 82 51 83 53 84 52 85
REMARK H PARENT 38 5 27 10 18 17 10 22 22 31 34 39 34 40 35 41 35 42 61 48
REMARK H PARENT 5 61 65 68
REMARK Flexibility Score:  369.900
ROOT
ATOM      1  C   UNL     1      -2.609   6.269   9.595  1.00  0.00     0.117 C 
ENDROOT
BRANCH   1   2
ATOM      2  N   UNL     1      -1.782   6.337   8.390  1.00  0.00    -0.347 N 
ATOM      3  O   UNL     1       0.060   5.243   9.214  1.00  0.00    -0.273 OA
ATOM      4  C   UNL     1      -0.544   5.736   8.267  1.00  0.00     0.243 C 
ATOM      5  H   UNL     1      -2.139   6.805   7.571  1.00  0.00     0.164 HD
BRANCH   4   6
ATOM      6  C   UNL     1       0.085   5.886   6.859  1.00  0.00     0.171 C 
BRANCH   6   7
ATOM      7  N   UNL     1      -0.162   7.236   6.327  1.00  0.00    -0.344 N 
ATOM      8  C   UNL     1      -0.703   7.408   5.071  1.00  0.00     0.226 C 
ATOM      9  O   UNL     1      -0.980   6.467   4.337  1.00  0.00    -0.275 OA
ATOM     10  H   UNL     1       0.116   8.039   6.877  1.00  0.00     0.164 HD
BRANCH   8  11
ATOM     11  C   UNL     1      -0.948   8.857   4.689  1.00  0.00     0.109 C 
ATOM     12  C   UNL     1      -1.240   9.689   5.938  1.00  0.00     0.021 C 
BRANCH  11  13
ATOM     13  C   UNL     1       0.220   9.373   3.825  1.00  0.00     0.204 C 
BRANCH  13  14
ATOM     14  N   UNL     1       0.737   8.340   2.922  1.00  0.00    -0.340 N 
ATOM     15  C   UNL     1       2.059   8.273   2.540  1.00  0.00     0.243 C 
ATOM     16  O   UNL     1       2.913   9.040   2.980  1.00  0.00    -0.273 OA
ATOM     17  H   UNL     1       0.060   7.771   2.406  1.00  0.00     0.164 HD
BRANCH  15  18
ATOM     18  C   UNL     1       2.329   7.233   1.425  1.00  0.00     0.171 C 
BRANCH  18  19
ATOM     19  N   UNL     1       2.861   7.973   0.283  1.00  0.00    -0.343 N 
ATOM     20  C   UNL     1       2.085   8.863  -0.435  1.00  0.00     0.242 CG0
ATOM     21  O   UNL     1       0.879   8.974  -0.231  1.00  0.00    -0.273 OA
ATOM     22  H   UNL     1       3.825   7.829   0.002  1.00  0.00     0.164 HD
ATOM     23  G   UNL     1       2.841   9.608  -1.555  1.00  0.00     0.000 G0
ENDBRANCH  18  19
BRANCH  18  24
ATOM     24  C   UNL     1       3.314   6.162   1.909  1.00  0.00     0.038 C 
BRANCH  24  25
ATOM     25  C   UNL     1       2.804   4.711   1.779  1.00  0.00    -0.015 C 
ATOM     26  C   UNL     1       1.285   4.610   1.922  1.00  0.00     0.007 C 
ATOM     27  C   UNL     1       3.481   3.832   2.834  1.00  0.00     0.007 C 
ENDBRANCH  24  25
ENDBRANCH  18  24
ENDBRANCH  15  18
ENDBRANCH  13  14
BRANCH  13  28
ATOM     28  C   UNL     1      -0.154  10.583   2.964  1.00  0.00     0.327 C 
ATOM     29  O   UNL     1       0.100  11.752   3.210  1.00  0.00    -0.250 OA
BRANCH  28  30
ATOM     30  O   UNL     1      -0.928  10.261   1.907  1.00  0.00    -0.480 OA
ATOM     31  H   UNL     1      -1.462  11.066   1.745  1.00  0.00     0.296 HD
ENDBRANCH  28  30
ENDBRANCH  13  28
ENDBRANCH  11  13
ENDBRANCH   8  11
ENDBRANCH   6   7
BRANCH   6  32
ATOM     32  C   UNL     1       1.588   5.599   6.945  1.00  0.00     0.037 C 
BRANCH  32  33
ATOM     33  C   UNL     1       2.349   6.118   5.717  1.00  0.00     0.026 C 
BRANCH  33  34
ATOM     34  C   UNL     1       3.843   6.297   5.987  1.00  0.00     0.146 C 
BRANCH  34  35
ATOM     35  N   UNL     1       4.184   7.704   5.825  1.00  0.00    -0.254 NA
ATOM     36  C   UNL     1       5.153   8.015   5.046  1.00  0.00     0.185 C 
ATOM     37  N   UNL     1       5.473   9.308   4.885  1.00  0.00    -0.370 N 
ATOM     38  N   UNL     1       5.947   7.207   4.321  1.00  0.00    -0.370 N 
ATOM     39  H   UNL     1       4.912   9.981   5.392  1.00  0.00     0.159 HD
ATOM     40  H   UNL     1       6.095   9.642   4.169  1.00  0.00     0.159 HD
ATOM     41  H   UNL     1       6.765   7.563   3.855  1.00  0.00     0.159 HD
ATOM     42  H   UNL     1       5.831   6.207   4.358  1.00  0.00     0.159 HD
ENDBRANCH  34  35
ENDBRANCH  33  34
ENDBRANCH  32  33
ENDBRANCH   6  32
ENDBRANCH   4   6
ENDBRANCH   1   2
BRANCH   1  43
ATOM     43  C   UNL     1      -3.215   4.840   9.700  1.00  0.00     0.102 C 
ATOM     44  C   UNL     1      -4.069   4.446   8.483  1.00  0.00     0.020 C 
BRANCH  43  45
ATOM     45  C   UNL     1      -3.919   4.638  11.045  1.00  0.00     0.225 C 
ATOM     46  O   UNL     1      -3.597   5.237  12.067  1.00  0.00    -0.275 OA
ATOM     47  N   UNL     1      -4.888   3.661  11.066  1.00  0.00    -0.342 N 
ATOM     48  H   UNL     1      -5.243   3.290  10.196  1.00  0.00     0.164 HD
BRANCH  47  49
ATOM     49  C   UNL     1      -5.670   3.383  12.274  1.00  0.00     0.192 C 
BRANCH  49  50
ATOM     50  C   UNL     1      -5.640   1.882  12.571  1.00  0.00     0.047 C 
BRANCH  50  51
ATOM     51  C   UNL     1      -4.213   1.319  12.585  1.00  0.00     0.103 C 
BRANCH  51  52
ATOM     52  C   UNL     1      -3.882   0.563  11.299  1.00  0.00     0.226 C 
ATOM     53  O   UNL     1      -3.467   1.182  10.318  1.00  0.00    -0.275 OA
BRANCH  52  54
ATOM     54  N   UNL     1      -4.004  -0.838  11.346  1.00  0.00    -0.311 N 
ATOM     55  C   UNL     1      -2.836  -1.691  11.601  1.00  0.00     0.153 C 
BRANCH  54  56
ATOM     56  C   UNL     1      -5.244  -1.471  11.158  1.00  0.00     0.102 C 
ATOM     57  C   UNL     1      -5.859  -1.619   9.974  1.00  0.00     0.043 C 
BRANCH  56  58
ATOM     58  C   UNL     1      -5.980  -2.095  12.321  1.00  0.00     0.268 C 
ATOM     59  O   UNL     1      -6.602  -1.442  13.147  1.00  0.00    -0.268 OA
ATOM     60  N   UNL     1      -5.933  -3.468  12.316  1.00  0.00    -0.339 N 
ATOM     61  H   UNL     1      -5.387  -3.934  11.601  1.00  0.00     0.164 HD
BRANCH  60  62
ATOM     62  C   UNL     1      -6.631  -4.276  13.315  1.00  0.00     0.168 CG0
ATOM     63  C   UNL     1      -5.706  -5.331  13.909  1.00  0.00     0.041 C 
ATOM     64  G   UNL     1      -7.870  -4.934  12.675  1.00  0.00     0.000 G0
ENDBRANCH  60  62
ENDBRANCH  56  58
ENDBRANCH  54  56
ENDBRANCH  52  54
ENDBRANCH  51  52
ENDBRANCH  50  51
ENDBRANCH  49  50
BRANCH  49  65
ATOM     65  C   UNL     1      -7.128   3.844  12.125  1.00  0.00     0.326 C 
ATOM     66  O   UNL     1      -7.720   4.589  12.893  1.00  0.00    -0.250 OA
BRANCH  65  67
ATOM     67  O   UNL     1      -7.783   3.310  11.071  1.00  0.00    -0.480 OA
ATOM     68  H   UNL     1      -7.145   2.658  10.708  1.00  0.00     0.296 HD
ENDBRANCH  65  67
ENDBRANCH  49  65
ENDBRANCH  47  49
ENDBRANCH  43  45
ENDBRANCH   1  43
BRANCH   1  69
ATOM     69  C   UNL     1      -3.548   7.460   9.532  1.00  0.00    -0.001 C 
ATOM     70  C   UNL     1      -3.364   8.611   8.861  1.00  0.00     0.001 C 
BRANCH  70  71
ATOM     71  C   UNL     1      -4.287   9.745   8.791  1.00  0.00    -0.055 C 
ATOM     72  C   UNL     1      -5.609   9.484   8.865  1.00  0.00    -0.018 C 
ATOM     73  C   UNL     1      -3.697  11.124   8.648  1.00  0.00     0.044 C 
BRANCH  72  74
ATOM     74  C   UNL     1      -6.786  10.449   8.823  1.00  0.00     0.038 C 
ATOM     75  C   UNL     1      -7.627  10.192  10.079  1.00  0.00     0.015 C 
BRANCH  74  76
ATOM     76  C   UNL     1      -7.545  10.255   7.477  1.00  0.00     0.128 C 
BRANCH  76  77
ATOM     77  O   UNL     1      -8.948  10.068   7.728  1.00  0.00    -0.381 OA
ATOM     78  C   UNL     1      -9.788  10.821   6.863  1.00  0.00     0.195 C 
ENDBRANCH  76  77
BRANCH  76  79
ATOM     79  C   UNL     1      -7.265  11.363   6.431  1.00  0.00     0.068 C 
BRANCH  79  80
ATOM     80  C   UNL     1      -6.464  10.993   5.207  1.00  0.00    -0.045 A 
ATOM     81  C   UNL     1      -6.989  11.169   3.920  1.00  0.00     0.004 A 
ATOM     82  C   UNL     1      -5.183  10.436   5.341  1.00  0.00     0.004 A 
ATOM     83  C   UNL     1      -6.246  10.811   2.792  1.00  0.00     0.000 A 
ATOM     84  C   UNL     1      -4.441  10.078   4.213  1.00  0.00     0.000 A 
ATOM     85  C   UNL     1      -4.972  10.267   2.940  1.00  0.00     0.000 A 
ENDBRANCH  79  80
ENDBRANCH  76  79
ENDBRANCH  74  76
ENDBRANCH  72  74
ENDBRANCH  70  71
ENDBRANCH   1  69
TORSDOF 17
ENDMDL
MODEL 15
REMARK VINA RESULT:    -6.349      3.908     12.813
REMARK INTER + INTRA:         -26.168
REMARK INTER:                 -20.081
REMARK INTRA:                  -6.087
REMARK UNBOUND:                -7.200
REMARK SMILES C=C1C(=O)N[C@H](C)C(=O)N[C@@H](CC(C)C)C(=O)N[C@@H](C(=O)O)[C@H](C)C(=O)N[C@@H](CCCN=C(N)N)C(=O)N[C@@H](/C=C/C(C)=C/[C@H](C)[C@H](Cc2ccccc2)OC)[C@H](C)C(=O)N[C@@H](C(=O)O)CCC(=O)N1C
REMARK SMILES IDX 39 1 38 2 37 3 36 4 28 6 27 7 25 8 26 9 23 11 24 12 19 13
REMARK SMILES IDX 18 14 16 15 17 16 11 18 10 19 8 20 9 21 12 24 13 25 14 26
REMARK SMILES IDX 15 27 20 28 21 29 22 30 29 32 30 33 31 34 32 35 33 36 34 37
REMARK SMILES IDX 35 38 57 43 58 44 59 45 60 46 61 47 62 49 66 50 67 51 68 52
REMARK SMILES IDX 69 53 70 54 71 55 2 56 1 57 3 58 4 59 5 60 6 62 7 63 63 65
REMARK SMILES IDX 64 66 65 67 40 69 41 70 42 71 44 72 43 73 45 74 46 75 47 76
REMARK SMILES IDX 55 77 56 78 48 79 49 80 50 81 54 82 51 83 53 84 52 85
REMARK H PARENT 38 5 27 10 18 17 10 22 22 31 34 39 34 40 35 41 35 42 61 48
REMARK H PARENT 5 61 65 68
REMARK Flexibility Score:  369.900
ROOT
ATOM      1  C   UNL     1      -1.762   9.941   3.187  1.00  0.00     0.117 C 
ENDROOT
BRANCH   1   2
ATOM      2  N   UNL     1      -1.339   9.621   4.551  1.00  0.00    -0.347 N 
ATOM      3  O   UNL     1      -0.823   7.411   4.209  1.00  0.00    -0.273 OA
ATOM      4  C   UNL     1      -0.815   8.401   4.932  1.00  0.00     0.243 C 
ATOM      5  H   UNL     1      -1.378  10.337   5.261  1.00  0.00     0.164 HD
BRANCH   4   6
ATOM      6  C   UNL     1      -0.366   8.352   6.415  1.00  0.00     0.171 C 
BRANCH   6   7
ATOM      7  N   UNL     1      -1.162   7.364   7.161  1.00  0.00    -0.344 N 
ATOM      8  C   UNL     1      -2.488   7.603   7.448  1.00  0.00     0.226 C 
ATOM      9  O   UNL     1      -3.058   8.638   7.124  1.00  0.00    -0.275 OA
ATOM     10  H   UNL     1      -0.708   6.527   7.504  1.00  0.00     0.164 HD
BRANCH   8  11
ATOM     11  C   UNL     1      -3.185   6.466   8.174  1.00  0.00     0.109 C 
ATOM     12  C   UNL     1      -2.326   5.202   8.121  1.00  0.00     0.021 C 
BRANCH  11  13
ATOM     13  C   UNL     1      -3.584   6.920   9.593  1.00  0.00     0.204 C 
BRANCH  13  14
ATOM     14  N   UNL     1      -3.968   5.791  10.446  1.00  0.00    -0.340 N 
ATOM     15  C   UNL     1      -5.278   5.513  10.773  1.00  0.00     0.243 C 
ATOM     16  O   UNL     1      -6.223   6.157  10.322  1.00  0.00    -0.273 OA
ATOM     17  H   UNL     1      -3.231   5.314  10.972  1.00  0.00     0.164 HD
BRANCH  15  18
ATOM     18  C   UNL     1      -5.425   4.408  11.848  1.00  0.00     0.171 C 
BRANCH  18  19
ATOM     19  N   UNL     1      -6.559   3.579  11.444  1.00  0.00    -0.343 N 
ATOM     20  C   UNL     1      -7.729   3.537  12.177  1.00  0.00     0.242 CG0
ATOM     21  O   UNL     1      -7.823   4.088  13.271  1.00  0.00    -0.273 OA
ATOM     22  H   UNL     1      -6.487   3.013  10.606  1.00  0.00     0.164 HD
ATOM     23  G   UNL     1      -8.841   2.669  11.553  1.00  0.00     0.000 G0
ENDBRANCH  18  19
BRANCH  18  24
ATOM     24  C   UNL     1      -4.136   3.583  11.957  1.00  0.00     0.038 C 
BRANCH  24  25
ATOM     25  C   UNL     1      -3.467   3.614  13.347  1.00  0.00    -0.015 C 
ATOM     26  C   UNL     1      -2.883   2.258  13.745  1.00  0.00     0.007 C 
ATOM     27  C   UNL     1      -4.484   4.066  14.398  1.00  0.00     0.007 C 
ENDBRANCH  24  25
ENDBRANCH  18  24
ENDBRANCH  15  18
ENDBRANCH  13  14
BRANCH  13  28
ATOM     28  C   UNL     1      -2.469   7.679  10.319  1.00  0.00     0.327 C 
ATOM     29  O   UNL     1      -1.809   7.266  11.261  1.00  0.00    -0.250 OA
BRANCH  28  30
ATOM     30  O   UNL     1      -2.332   8.952   9.895  1.00  0.00    -0.480 OA
ATOM     31  H   UNL     1      -1.743   8.884   9.116  1.00  0.00     0.296 HD
ENDBRANCH  28  30
ENDBRANCH  13  28
ENDBRANCH  11  13
ENDBRANCH   8  11
ENDBRANCH   6   7
BRANCH   6  32
ATOM     32  C   UNL     1       1.127   8.011   6.477  1.00  0.00     0.037 C 
BRANCH  32  33
ATOM     33  C   UNL     1       1.942   8.786   5.432  1.00  0.00     0.026 C 
BRANCH  33  34
ATOM     34  C   UNL     1       3.146   7.992   4.923  1.00  0.00     0.146 C 
BRANCH  34  35
ATOM     35  N   UNL     1       3.582   8.562   3.656  1.00  0.00    -0.254 NA
ATOM     36  C   UNL     1       4.726   9.136   3.601  1.00  0.00     0.185 C 
ATOM     37  N   UNL     1       5.141   9.660   2.437  1.00  0.00    -0.370 N 
ATOM     38  N   UNL     1       5.633   9.307   4.580  1.00  0.00    -0.370 N 
ATOM     39  H   UNL     1       4.516   9.561   1.647  1.00  0.00     0.159 HD
ATOM     40  H   UNL     1       6.083   9.966   2.270  1.00  0.00     0.159 HD
ATOM     41  H   UNL     1       6.437   9.898   4.448  1.00  0.00     0.159 HD
ATOM     42  H   UNL     1       5.447   8.976   5.514  1.00  0.00     0.159 HD
ENDBRANCH  34  35
ENDBRANCH  33  34
ENDBRANCH  32  33
ENDBRANCH   6  32
ENDBRANCH   4   6
ENDBRANCH   1   2
BRANCH   1  43
ATOM     43  C   UNL     1      -0.939  11.163   2.687  1.00  0.00     0.102 C 
ATOM     44  C   UNL     1      -1.651  11.973   1.591  1.00  0.00     0.020 C 
BRANCH  43  45
ATOM     45  C   UNL     1       0.492  10.751   2.325  1.00  0.00     0.225 C 
ATOM     46  O   UNL     1       1.476  11.121   2.958  1.00  0.00    -0.275 OA
ATOM     47  N   UNL     1       0.621  10.006   1.175  1.00  0.00    -0.342 N 
ATOM     48  H   UNL     1      -0.197   9.587   0.757  1.00  0.00     0.164 HD
BRANCH  47  49
ATOM     49  C   UNL     1       1.926   9.512   0.726  1.00  0.00     0.192 C 
BRANCH  49  50
ATOM     50  C   UNL     1       2.264  10.120  -0.638  1.00  0.00     0.047 C 
BRANCH  50  51
ATOM     51  C   UNL     1       2.257  11.654  -0.609  1.00  0.00     0.103 C 
BRANCH  51  52
ATOM     52  C   UNL     1       1.911  12.252  -1.971  1.00  0.00     0.226 C 
ATOM     53  O   UNL     1       2.768  12.291  -2.856  1.00  0.00    -0.275 OA
BRANCH  52  54
ATOM     54  N   UNL     1       0.578  12.662  -2.156  1.00  0.00    -0.311 N 
ATOM     55  C   UNL     1      -0.039  13.653  -1.263  1.00  0.00     0.153 C 
BRANCH  54  56
ATOM     56  C   UNL     1      -0.209  12.148  -3.199  1.00  0.00     0.102 C 
ATOM     57  C   UNL     1      -1.104  12.855  -3.909  1.00  0.00     0.043 C 
BRANCH  56  58
ATOM     58  C   UNL     1      -0.064  10.711  -3.643  1.00  0.00     0.268 C 
ATOM     59  O   UNL     1      -0.611   9.776  -3.075  1.00  0.00    -0.268 OA
ATOM     60  N   UNL     1       0.688  10.572  -4.786  1.00  0.00    -0.339 N 
ATOM     61  H   UNL     1       1.116  11.396  -5.190  1.00  0.00     0.164 HD
BRANCH  60  62
ATOM     62  C   UNL     1       0.903   9.274  -5.423  1.00  0.00     0.168 CG0
ATOM     63  C   UNL     1       2.138   8.584  -4.856  1.00  0.00     0.041 C 
ATOM     64  G   UNL     1       1.037   9.463  -6.948  1.00  0.00     0.000 G0
ENDBRANCH  60  62
ENDBRANCH  56  58
ENDBRANCH  54  56
ENDBRANCH  52  54
ENDBRANCH  51  52
ENDBRANCH  50  51
ENDBRANCH  49  50
BRANCH  49  65
ATOM     65  C   UNL     1       1.944   7.979   0.618  1.00  0.00     0.326 C 
ATOM     66  O   UNL     1       0.981   7.273   0.359  1.00  0.00    -0.250 OA
BRANCH  65  67
ATOM     67  O   UNL     1       3.137   7.409   0.896  1.00  0.00    -0.480 OA
ATOM     68  H   UNL     1       3.188   6.658   0.266  1.00  0.00     0.296 HD
ENDBRANCH  65  67
ENDBRANCH  49  65
ENDBRANCH  47  49
ENDBRANCH  43  45
ENDBRANCH   1  43
BRANCH   1  69
ATOM     69  C   UNL     1      -3.276  10.042   3.225  1.00  0.00    -0.001 C 
ATOM     70  C   UNL     1      -4.050  10.317   4.290  1.00  0.00     0.001 C 
BRANCH  70  71
ATOM     71  C   UNL     1      -5.509  10.434   4.311  1.00  0.00    -0.055 C 
ATOM     72  C   UNL     1      -6.101  10.706   5.493  1.00  0.00    -0.018 C 
ATOM     73  C   UNL     1      -6.246  10.250   3.010  1.00  0.00     0.044 C 
BRANCH  72  74
ATOM     74  C   UNL     1      -7.578  10.885   5.812  1.00  0.00     0.038 C 
ATOM     75  C   UNL     1      -7.979  12.284   5.331  1.00  0.00     0.015 C 
BRANCH  74  76
ATOM     76  C   UNL     1      -7.796  10.629   7.333  1.00  0.00     0.128 C 
BRANCH  76  77
ATOM     77  O   UNL     1      -8.701   9.527   7.520  1.00  0.00    -0.381 OA
ATOM     78  C   UNL     1      -9.110   9.348   8.870  1.00  0.00     0.195 C 
ENDBRANCH  76  77
BRANCH  76  79
ATOM     79  C   UNL     1      -6.483  10.471   8.139  1.00  0.00     0.068 C 
BRANCH  79  80
ATOM     80  C   UNL     1      -5.799  11.724   8.629  1.00  0.00    -0.045 A 
ATOM     81  C   UNL     1      -4.402  11.838   8.611  1.00  0.00     0.004 A 
ATOM     82  C   UNL     1      -6.556  12.789   9.140  1.00  0.00     0.004 A 
ATOM     83  C   UNL     1      -3.777  12.995   9.080  1.00  0.00     0.000 A 
ATOM     84  C   UNL     1      -5.929  13.945   9.609  1.00  0.00     0.000 A 
ATOM     85  C   UNL     1      -4.540  14.049   9.577  1.00  0.00     0.000 A 
ENDBRANCH  79  80
ENDBRANCH  76  79
ENDBRANCH  74  76
ENDBRANCH  72  74
ENDBRANCH  70  71
ENDBRANCH   1  69
TORSDOF 17
ENDMDL
MODEL 16
REMARK VINA RESULT:    -6.347      4.342      8.628
REMARK INTER + INTRA:         -26.162
REMARK INTER:                 -18.314
REMARK INTRA:                  -7.847
REMARK UNBOUND:                -7.200
REMARK SMILES C=C1C(=O)N[C@H](C)C(=O)N[C@@H](CC(C)C)C(=O)N[C@@H](C(=O)O)[C@H](C)C(=O)N[C@@H](CCCN=C(N)N)C(=O)N[C@@H](/C=C/C(C)=C/[C@H](C)[C@H](Cc2ccccc2)OC)[C@H](C)C(=O)N[C@@H](C(=O)O)CCC(=O)N1C
REMARK SMILES IDX 39 1 38 2 37 3 36 4 28 6 27 7 25 8 26 9 23 11 24 12 19 13
REMARK SMILES IDX 18 14 16 15 17 16 11 18 10 19 8 20 9 21 12 24 13 25 14 26
REMARK SMILES IDX 15 27 20 28 21 29 22 30 29 32 30 33 31 34 32 35 33 36 34 37
REMARK SMILES IDX 35 38 57 43 58 44 59 45 60 46 61 47 62 49 66 50 67 51 68 52
REMARK SMILES IDX 69 53 70 54 71 55 2 56 1 57 3 58 4 59 5 60 6 62 7 63 63 65
REMARK SMILES IDX 64 66 65 67 40 69 41 70 42 71 44 72 43 73 45 74 46 75 47 76
REMARK SMILES IDX 55 77 56 78 48 79 49 80 50 81 54 82 51 83 53 84 52 85
REMARK H PARENT 38 5 27 10 18 17 10 22 22 31 34 39 34 40 35 41 35 42 61 48
REMARK H PARENT 5 61 65 68
REMARK Flexibility Score:  369.900
ROOT
ATOM      1  C   UNL     1      -3.513  10.994   2.912  1.00  0.00     0.117 C 
ENDROOT
BRANCH   1   2
ATOM      2  N   UNL     1      -3.435  10.186   4.129  1.00  0.00    -0.347 N 
ATOM      3  O   UNL     1      -2.472  11.763   5.491  1.00  0.00    -0.273 OA
ATOM      4  C   UNL     1      -3.003  10.667   5.350  1.00  0.00     0.243 C 
ATOM      5  H   UNL     1      -3.757   9.230   4.110  1.00  0.00     0.164 HD
BRANCH   4   6
ATOM      6  C   UNL     1      -3.100   9.630   6.498  1.00  0.00     0.171 C 
BRANCH   6   7
ATOM      7  N   UNL     1      -2.067   9.889   7.514  1.00  0.00    -0.344 N 
ATOM      8  C   UNL     1      -1.067   8.970   7.749  1.00  0.00     0.226 C 
ATOM      9  O   UNL     1      -0.999   7.901   7.154  1.00  0.00    -0.275 OA
ATOM     10  H   UNL     1      -2.128  10.730   8.073  1.00  0.00     0.164 HD
BRANCH   8  11
ATOM     11  C   UNL     1      -0.047   9.407   8.786  1.00  0.00     0.109 C 
ATOM     12  C   UNL     1       0.527   8.186   9.506  1.00  0.00     0.021 C 
BRANCH  11  13
ATOM     13  C   UNL     1       1.002  10.327   8.131  1.00  0.00     0.204 C 
BRANCH  13  14
ATOM     14  N   UNL     1       1.815   9.617   7.138  1.00  0.00    -0.340 N 
ATOM     15  C   UNL     1       3.184   9.750   7.058  1.00  0.00     0.243 C 
ATOM     16  O   UNL     1       3.829  10.429   7.855  1.00  0.00    -0.273 OA
ATOM     17  H   UNL     1       1.332   9.162   6.359  1.00  0.00     0.164 HD
BRANCH  15  18
ATOM     18  C   UNL     1       3.800   9.074   5.809  1.00  0.00     0.171 C 
BRANCH  18  19
ATOM     19  N   UNL     1       4.924   8.268   6.280  1.00  0.00    -0.343 N 
ATOM     20  C   UNL     1       6.216   8.497   5.849  1.00  0.00     0.242 CG0
ATOM     21  O   UNL     1       6.463   9.300   4.952  1.00  0.00    -0.273 OA
ATOM     22  H   UNL     1       4.754   7.514   6.937  1.00  0.00     0.164 HD
ATOM     23  G   UNL     1       7.278   7.598   6.516  1.00  0.00     0.000 G0
ENDBRANCH  18  19
BRANCH  18  24
ATOM     24  C   UNL     1       2.754   8.214   5.088  1.00  0.00     0.038 C 
BRANCH  24  25
ATOM     25  C   UNL     1       2.491   8.615   3.621  1.00  0.00    -0.015 C 
ATOM     26  C   UNL     1       3.435   9.715   3.136  1.00  0.00     0.007 C 
ATOM     27  C   UNL     1       1.039   9.077   3.466  1.00  0.00     0.007 C 
ENDBRANCH  24  25
ENDBRANCH  18  24
ENDBRANCH  15  18
ENDBRANCH  13  14
BRANCH  13  28
ATOM     28  C   UNL     1       0.386  11.541   7.429  1.00  0.00     0.327 C 
ATOM     29  O   UNL     1      -0.189  12.473   7.970  1.00  0.00    -0.250 OA
BRANCH  28  30
ATOM     30  O   UNL     1       0.427  11.451   6.084  1.00  0.00    -0.480 OA
ATOM     31  H   UNL     1      -0.313  10.849   5.860  1.00  0.00     0.296 HD
ENDBRANCH  28  30
ENDBRANCH  13  28
ENDBRANCH  11  13
ENDBRANCH   8  11
ENDBRANCH   6   7
BRANCH   6  32
ATOM     32  C   UNL     1      -4.501   9.691   7.116  1.00  0.00     0.037 C 
BRANCH  32  33
ATOM     33  C   UNL     1      -4.457   9.936   8.630  1.00  0.00     0.026 C 
BRANCH  33  34
ATOM     34  C   UNL     1      -5.069  11.281   9.024  1.00  0.00     0.146 C 
BRANCH  34  35
ATOM     35  N   UNL     1      -4.549  12.312   8.136  1.00  0.00    -0.254 NA
ATOM     36  C   UNL     1      -3.522  12.982   8.507  1.00  0.00     0.185 C 
ATOM     37  N   UNL     1      -3.032  13.931   7.694  1.00  0.00    -0.370 N 
ATOM     38  N   UNL     1      -2.815  12.882   9.646  1.00  0.00    -0.370 N 
ATOM     39  H   UNL     1      -3.506  14.060   6.809  1.00  0.00     0.159 HD
ATOM     40  H   UNL     1      -2.140  14.373   7.831  1.00  0.00     0.159 HD
ATOM     41  H   UNL     1      -2.111  13.561   9.883  1.00  0.00     0.159 HD
ATOM     42  H   UNL     1      -3.080  12.219  10.358  1.00  0.00     0.159 HD
ENDBRANCH  34  35
ENDBRANCH  33  34
ENDBRANCH  32  33
ENDBRANCH   6  32
ENDBRANCH   4   6
ENDBRANCH   1   2
BRANCH   1  43
ATOM     43  C   UNL     1      -4.664  10.440   2.023  1.00  0.00     0.102 C 
ATOM     44  C   UNL     1      -4.706  11.064   0.618  1.00  0.00     0.020 C 
BRANCH  43  45
ATOM     45  C   UNL     1      -6.003  10.488   2.765  1.00  0.00     0.225 C 
ATOM     46  O   UNL     1      -6.561   9.488   3.207  1.00  0.00    -0.275 OA
ATOM     47  N   UNL     1      -6.601  11.726   2.828  1.00  0.00    -0.342 N 
ATOM     48  H   UNL     1      -6.067  12.552   2.599  1.00  0.00     0.164 HD
BRANCH  47  49
ATOM     49  C   UNL     1      -7.868  11.930   3.537  1.00  0.00     0.192 C 
BRANCH  49  50
ATOM     50  C   UNL     1      -8.638  13.085   2.893  1.00  0.00     0.047 C 
BRANCH  50  51
ATOM     51  C   UNL     1      -8.132  13.406   1.480  1.00  0.00     0.103 C 
BRANCH  51  52
ATOM     52  C   UNL     1      -7.656  14.852   1.356  1.00  0.00     0.226 C 
ATOM     53  O   UNL     1      -7.740  15.607   2.327  1.00  0.00    -0.275 OA
BRANCH  52  54
ATOM     54  N   UNL     1      -7.069  15.216   0.130  1.00  0.00    -0.311 N 
ATOM     55  C   UNL     1      -6.116  16.331   0.050  1.00  0.00     0.153 C 
BRANCH  54  56
ATOM     56  C   UNL     1      -7.365  14.526  -1.057  1.00  0.00     0.102 C 
ATOM     57  C   UNL     1      -6.527  13.688  -1.688  1.00  0.00     0.043 C 
BRANCH  56  58
ATOM     58  C   UNL     1      -8.722  14.652  -1.709  1.00  0.00     0.268 C 
ATOM     59  O   UNL     1      -9.380  15.684  -1.691  1.00  0.00    -0.268 OA
ATOM     60  N   UNL     1      -9.109  13.514  -2.375  1.00  0.00    -0.339 N 
ATOM     61  H   UNL     1      -8.511  12.697  -2.332  1.00  0.00     0.164 HD
BRANCH  60  62
ATOM     62  C   UNL     1     -10.360  13.440  -3.128  1.00  0.00     0.168 CG0
ATOM     63  C   UNL     1     -10.113  13.624  -4.620  1.00  0.00     0.041 C 
ATOM     64  G   UNL     1     -11.344  14.505  -2.602  1.00  0.00     0.000 G0
ENDBRANCH  60  62
ENDBRANCH  56  58
ENDBRANCH  54  56
ENDBRANCH  52  54
ENDBRANCH  51  52
ENDBRANCH  50  51
ENDBRANCH  49  50
BRANCH  49  65
ATOM     65  C   UNL     1      -7.641  12.237   5.026  1.00  0.00     0.326 C 
ATOM     66  O   UNL     1      -6.753  11.766   5.721  1.00  0.00    -0.250 OA
BRANCH  65  67
ATOM     67  O   UNL     1      -8.559  13.060   5.578  1.00  0.00    -0.480 OA
ATOM     68  H   UNL     1      -8.791  12.615   6.421  1.00  0.00     0.296 HD
ENDBRANCH  65  67
ENDBRANCH  49  65
ENDBRANCH  47  49
ENDBRANCH  43  45
ENDBRANCH   1  43
BRANCH   1  69
ATOM     69  C   UNL     1      -2.106  11.041   2.344  1.00  0.00    -0.001 C 
ATOM     70  C   UNL     1      -1.352  12.132   2.119  1.00  0.00     0.001 C 
BRANCH  70  71
ATOM     71  C   UNL     1       0.013  12.164   1.590  1.00  0.00    -0.055 C 
ATOM     72  C   UNL     1       0.187  11.873   0.284  1.00  0.00    -0.018 C 
ATOM     73  C   UNL     1       1.125  12.528   2.539  1.00  0.00     0.044 C 
BRANCH  72  74
ATOM     74  C   UNL     1       1.472  11.831  -0.531  1.00  0.00     0.038 C 
ATOM     75  C   UNL     1       1.371  12.932  -1.594  1.00  0.00     0.015 C 
BRANCH  74  76
ATOM     76  C   UNL     1       1.660  10.392  -1.097  1.00  0.00     0.128 C 
BRANCH  76  77
ATOM     77  O   UNL     1       1.933   9.475  -0.024  1.00  0.00    -0.381 OA
ATOM     78  C   UNL     1       1.262   8.229  -0.153  1.00  0.00     0.195 C 
ENDBRANCH  76  77
BRANCH  76  79
ATOM     79  C   UNL     1       0.501   9.919  -2.010  1.00  0.00     0.068 C 
BRANCH  79  80
ATOM     80  C   UNL     1       0.762   9.826  -3.494  1.00  0.00    -0.045 A 
ATOM     81  C   UNL     1       1.533   8.785  -4.027  1.00  0.00     0.004 A 
ATOM     82  C   UNL     1       0.257  10.804  -4.363  1.00  0.00     0.004 A 
ATOM     83  C   UNL     1       1.782   8.714  -5.399  1.00  0.00     0.000 A 
ATOM     84  C   UNL     1       0.507  10.733  -5.735  1.00  0.00     0.000 A 
ATOM     85  C   UNL     1       1.268   9.688  -6.253  1.00  0.00     0.000 A 
ENDBRANCH  79  80
ENDBRANCH  76  79
ENDBRANCH  74  76
ENDBRANCH  72  74
ENDBRANCH  70  71
ENDBRANCH   1  69
TORSDOF 17
ENDMDL
MODEL 17
REMARK VINA RESULT:    -6.337      3.746      8.710
REMARK INTER + INTRA:         -26.131
REMARK INTER:                 -18.746
REMARK INTRA:                  -7.385
REMARK UNBOUND:                -7.200
REMARK SMILES C=C1C(=O)N[C@H](C)C(=O)N[C@@H](CC(C)C)C(=O)N[C@@H](C(=O)O)[C@H](C)C(=O)N[C@@H](CCCN=C(N)N)C(=O)N[C@@H](/C=C/C(C)=C/[C@H](C)[C@H](Cc2ccccc2)OC)[C@H](C)C(=O)N[C@@H](C(=O)O)CCC(=O)N1C
REMARK SMILES IDX 39 1 38 2 37 3 36 4 28 6 27 7 25 8 26 9 23 11 24 12 19 13
REMARK SMILES IDX 18 14 16 15 17 16 11 18 10 19 8 20 9 21 12 24 13 25 14 26
REMARK SMILES IDX 15 27 20 28 21 29 22 30 29 32 30 33 31 34 32 35 33 36 34 37
REMARK SMILES IDX 35 38 57 43 58 44 59 45 60 46 61 47 62 49 66 50 67 51 68 52
REMARK SMILES IDX 69 53 70 54 71 55 2 56 1 57 3 58 4 59 5 60 6 62 7 63 63 65
REMARK SMILES IDX 64 66 65 67 40 69 41 70 42 71 44 72 43 73 45 74 46 75 47 76
REMARK SMILES IDX 55 77 56 78 48 79 49 80 50 81 54 82 51 83 53 84 52 85
REMARK H PARENT 38 5 27 10 18 17 10 22 22 31 34 39 34 40 35 41 35 42 61 48
REMARK H PARENT 5 61 65 68
REMARK Flexibility Score:  369.900
ROOT
ATOM      1  C   UNL     1      -3.845   9.489   7.676  1.00  0.00     0.117 C 
ENDROOT
BRANCH   1   2
ATOM      2  N   UNL     1      -2.534  10.104   7.470  1.00  0.00    -0.347 N 
ATOM      3  O   UNL     1      -2.918  10.966   5.377  1.00  0.00    -0.273 OA
ATOM      4  C   UNL     1      -2.205  10.874   6.371  1.00  0.00     0.243 C 
ATOM      5  H   UNL     1      -1.827  10.014   8.184  1.00  0.00     0.164 HD
BRANCH   4   6
ATOM      6  C   UNL     1      -0.780  11.480   6.438  1.00  0.00     0.171 C 
BRANCH   6   7
ATOM      7  N   UNL     1      -0.336  11.900   5.099  1.00  0.00    -0.344 N 
ATOM      8  C   UNL     1       0.854  11.440   4.577  1.00  0.00     0.226 C 
ATOM      9  O   UNL     1       1.601  10.691   5.196  1.00  0.00    -0.275 OA
ATOM     10  H   UNL     1      -0.893  12.571   4.586  1.00  0.00     0.164 HD
BRANCH   8  11
ATOM     11  C   UNL     1       1.145  11.920   3.166  1.00  0.00     0.109 C 
ATOM     12  C   UNL     1       2.617  12.309   3.036  1.00  0.00     0.021 C 
BRANCH  11  13
ATOM     13  C   UNL     1       0.659  10.870   2.148  1.00  0.00     0.204 C 
BRANCH  13  14
ATOM     14  N   UNL     1       0.799   9.502   2.656  1.00  0.00    -0.340 N 
ATOM     15  C   UNL     1       1.416   8.498   1.943  1.00  0.00     0.243 C 
ATOM     16  O   UNL     1       1.947   8.694   0.851  1.00  0.00    -0.273 OA
ATOM     17  H   UNL     1       0.251   9.238   3.480  1.00  0.00     0.164 HD
BRANCH  15  18
ATOM     18  C   UNL     1       1.260   7.097   2.585  1.00  0.00     0.171 C 
BRANCH  18  19
ATOM     19  N   UNL     1       2.350   6.274   2.063  1.00  0.00    -0.343 N 
ATOM     20  C   UNL     1       2.156   4.957   1.695  1.00  0.00     0.242 CG0
ATOM     21  O   UNL     1       1.095   4.378   1.912  1.00  0.00    -0.273 OA
ATOM     22  H   UNL     1       3.277   6.675   1.973  1.00  0.00     0.164 HD
ATOM     23  G   UNL     1       3.402   4.274   1.094  1.00  0.00     0.000 G0
ENDBRANCH  18  19
BRANCH  18  24
ATOM     24  C   UNL     1       1.312   7.194   4.115  1.00  0.00     0.038 C 
BRANCH  24  25
ATOM     25  C   UNL     1       0.047   6.684   4.836  1.00  0.00    -0.015 C 
ATOM     26  C   UNL     1      -0.985   7.790   5.061  1.00  0.00     0.007 C 
ATOM     27  C   UNL     1       0.436   6.061   6.179  1.00  0.00     0.007 C 
ENDBRANCH  24  25
ENDBRANCH  18  24
ENDBRANCH  15  18
ENDBRANCH  13  14
BRANCH  13  28
ATOM     28  C   UNL     1      -0.806  11.056   1.741  1.00  0.00     0.327 C 
ATOM     29  O   UNL     1      -1.223  11.775   0.846  1.00  0.00    -0.250 OA
BRANCH  28  30
ATOM     30  O   UNL     1      -1.667  10.419   2.561  1.00  0.00    -0.480 OA
ATOM     31  H   UNL     1      -2.505  10.918   2.466  1.00  0.00     0.296 HD
ENDBRANCH  28  30
ENDBRANCH  13  28
ENDBRANCH  11  13
ENDBRANCH   8  11
ENDBRANCH   6   7
BRANCH   6  32
ATOM     32  C   UNL     1      -0.782  12.664   7.411  1.00  0.00     0.037 C 
BRANCH  32  33
ATOM     33  C   UNL     1      -2.159  13.337   7.501  1.00  0.00     0.026 C 
BRANCH  33  34
ATOM     34  C   UNL     1      -2.636  13.502   8.945  1.00  0.00     0.146 C 
BRANCH  34  35
ATOM     35  N   UNL     1      -2.047  12.446   9.757  1.00  0.00    -0.254 NA
ATOM     36  C   UNL     1      -2.641  12.098  10.837  1.00  0.00     0.185 C 
ATOM     37  N   UNL     1      -2.110  11.123  11.591  1.00  0.00    -0.370 N 
ATOM     38  N   UNL     1      -3.779  12.580  11.368  1.00  0.00    -0.370 N 
ATOM     39  H   UNL     1      -1.255  10.701  11.252  1.00  0.00     0.159 HD
ATOM     40  H   UNL     1      -2.598  10.678  12.349  1.00  0.00     0.159 HD
ATOM     41  H   UNL     1      -4.072  12.320  12.296  1.00  0.00     0.159 HD
ATOM     42  H   UNL     1      -4.279  13.329  10.916  1.00  0.00     0.159 HD
ENDBRANCH  34  35
ENDBRANCH  33  34
ENDBRANCH  32  33
ENDBRANCH   6  32
ENDBRANCH   4   6
ENDBRANCH   1   2
BRANCH   1  43
ATOM     43  C   UNL     1      -4.752  10.500   8.435  1.00  0.00     0.102 C 
ATOM     44  C   UNL     1      -5.533   9.866   9.599  1.00  0.00     0.020 C 
BRANCH  43  45
ATOM     45  C   UNL     1      -5.626  11.295   7.461  1.00  0.00     0.225 C 
ATOM     46  O   UNL     1      -5.714  12.519   7.484  1.00  0.00    -0.275 OA
ATOM     47  N   UNL     1      -6.393  10.541   6.602  1.00  0.00    -0.342 N 
ATOM     48  H   UNL     1      -6.198   9.555   6.492  1.00  0.00     0.164 HD
BRANCH  47  49
ATOM     49  C   UNL     1      -7.250  11.166   5.590  1.00  0.00     0.192 C 
BRANCH  49  50
ATOM     50  C   UNL     1      -8.708  10.770   5.836  1.00  0.00     0.047 C 
BRANCH  50  51
ATOM     51  C   UNL     1      -8.848   9.726   6.952  1.00  0.00     0.103 C 
BRANCH  51  52
ATOM     52  C   UNL     1      -9.207  10.363   8.292  1.00  0.00     0.226 C 
ATOM     53  O   UNL     1      -9.511  11.557   8.338  1.00  0.00    -0.275 OA
BRANCH  52  54
ATOM     54  N   UNL     1      -9.241   9.504   9.406  1.00  0.00    -0.311 N 
ATOM     55  C   UNL     1      -8.901   8.081   9.274  1.00  0.00     0.153 C 
BRANCH  54  56
ATOM     56  C   UNL     1      -9.594   9.973  10.683  1.00  0.00     0.102 C 
ATOM     57  C   UNL     1      -8.725  10.415  11.606  1.00  0.00     0.043 C 
BRANCH  56  58
ATOM     58  C   UNL     1     -11.042  10.059  11.104  1.00  0.00     0.268 C 
ATOM     59  O   UNL     1     -11.958   9.572  10.455  1.00  0.00    -0.268 OA
ATOM     60  N   UNL     1     -11.215  10.678  12.319  1.00  0.00    -0.339 N 
ATOM     61  H   UNL     1     -10.405  11.064  12.789  1.00  0.00     0.164 HD
BRANCH  60  62
ATOM     62  C   UNL     1     -12.531  10.812  12.944  1.00  0.00     0.168 CG0
ATOM     63  C   UNL     1     -13.163  12.156  12.603  1.00  0.00     0.041 C 
ATOM     64  G   UNL     1     -12.397  10.643  14.471  1.00  0.00     0.000 G0
ENDBRANCH  60  62
ENDBRANCH  56  58
ENDBRANCH  54  56
ENDBRANCH  52  54
ENDBRANCH  51  52
ENDBRANCH  50  51
ENDBRANCH  49  50
BRANCH  49  65
ATOM     65  C   UNL     1      -6.843  10.752   4.168  1.00  0.00     0.326 C 
ATOM     66  O   UNL     1      -5.861  10.084   3.876  1.00  0.00    -0.250 OA
BRANCH  65  67
ATOM     67  O   UNL     1      -7.638  11.237   3.189  1.00  0.00    -0.480 OA
ATOM     68  H   UNL     1      -7.343  12.168   3.091  1.00  0.00     0.296 HD
ENDBRANCH  65  67
ENDBRANCH  49  65
ENDBRANCH  47  49
ENDBRANCH  43  45
ENDBRANCH   1  43
BRANCH   1  69
ATOM     69  C   UNL     1      -3.583   8.129   8.297  1.00  0.00    -0.001 C 
ATOM     70  C   UNL     1      -3.101   7.032   7.687  1.00  0.00     0.001 C 
BRANCH  70  71
ATOM     71  C   UNL     1      -2.832   5.730   8.301  1.00  0.00    -0.055 C 
ATOM     72  C   UNL     1      -1.966   5.692   9.336  1.00  0.00    -0.018 C 
ATOM     73  C   UNL     1      -3.546   4.528   7.742  1.00  0.00     0.044 C 
BRANCH  72  74
ATOM     74  C   UNL     1      -1.502   4.499  10.160  1.00  0.00     0.038 C 
ATOM     75  C   UNL     1      -1.342   3.317   9.196  1.00  0.00     0.015 C 
BRANCH  74  76
ATOM     76  C   UNL     1      -2.517   4.266  11.317  1.00  0.00     0.128 C 
BRANCH  76  77
ATOM     77  O   UNL     1      -1.820   4.179  12.572  1.00  0.00    -0.381 OA
ATOM     78  C   UNL     1      -0.421   4.400  12.464  1.00  0.00     0.195 C 
ENDBRANCH  76  77
BRANCH  76  79
ATOM     79  C   UNL     1      -3.683   5.286  11.348  1.00  0.00     0.068 C 
BRANCH  79  80
ATOM     80  C   UNL     1      -5.093   4.749  11.370  1.00  0.00    -0.045 A 
ATOM     81  C   UNL     1      -6.052   5.201  10.454  1.00  0.00     0.004 A 
ATOM     82  C   UNL     1      -5.475   3.803  12.333  1.00  0.00     0.004 A 
ATOM     83  C   UNL     1      -7.359   4.709  10.489  1.00  0.00     0.000 A 
ATOM     84  C   UNL     1      -6.782   3.312  12.368  1.00  0.00     0.000 A 
ATOM     85  C   UNL     1      -7.723   3.764  11.446  1.00  0.00     0.000 A 
ENDBRANCH  79  80
ENDBRANCH  76  79
ENDBRANCH  74  76
ENDBRANCH  72  74
ENDBRANCH  70  71
ENDBRANCH   1  69
TORSDOF 17
ENDMDL
MODEL 18
REMARK VINA RESULT:    -6.297      5.157      9.161
REMARK INTER + INTRA:         -26.014
REMARK INTER:                 -17.801
REMARK INTRA:                  -8.212
REMARK UNBOUND:                -7.200
REMARK SMILES C=C1C(=O)N[C@H](C)C(=O)N[C@@H](CC(C)C)C(=O)N[C@@H](C(=O)O)[C@H](C)C(=O)N[C@@H](CCCN=C(N)N)C(=O)N[C@@H](/C=C/C(C)=C/[C@H](C)[C@H](Cc2ccccc2)OC)[C@H](C)C(=O)N[C@@H](C(=O)O)CCC(=O)N1C
REMARK SMILES IDX 39 1 38 2 37 3 36 4 28 6 27 7 25 8 26 9 23 11 24 12 19 13
REMARK SMILES IDX 18 14 16 15 17 16 11 18 10 19 8 20 9 21 12 24 13 25 14 26
REMARK SMILES IDX 15 27 20 28 21 29 22 30 29 32 30 33 31 34 32 35 33 36 34 37
REMARK SMILES IDX 35 38 57 43 58 44 59 45 60 46 61 47 62 49 66 50 67 51 68 52
REMARK SMILES IDX 69 53 70 54 71 55 2 56 1 57 3 58 4 59 5 60 6 62 7 63 63 65
REMARK SMILES IDX 64 66 65 67 40 69 41 70 42 71 44 72 43 73 45 74 46 75 47 76
REMARK SMILES IDX 55 77 56 78 48 79 49 80 50 81 54 82 51 83 53 84 52 85
REMARK H PARENT 38 5 27 10 18 17 10 22 22 31 34 39 34 40 35 41 35 42 61 48
REMARK H PARENT 5 61 65 68
REMARK Flexibility Score:  369.900
ROOT
ATOM      1  C   UNL     1      -1.272   5.396   6.546  1.00  0.00     0.117 C 
ENDROOT
BRANCH   1   2
ATOM      2  N   UNL     1      -0.671   5.951   5.333  1.00  0.00    -0.347 N 
ATOM      3  O   UNL     1       1.468   5.188   5.667  1.00  0.00    -0.273 OA
ATOM      4  C   UNL     1       0.635   5.724   4.944  1.00  0.00     0.243 C 
ATOM      5  H   UNL     1      -1.241   6.495   4.703  1.00  0.00     0.164 HD
BRANCH   4   6
ATOM      6  C   UNL     1       0.997   6.356   3.575  1.00  0.00     0.171 C 
BRANCH   6   7
ATOM      7  N   UNL     1       1.226   7.802   3.721  1.00  0.00    -0.344 N 
ATOM      8  C   UNL     1       0.168   8.685   3.715  1.00  0.00     0.226 C 
ATOM      9  O   UNL     1      -0.994   8.323   3.568  1.00  0.00    -0.275 OA
ATOM     10  H   UNL     1       2.176   8.145   3.777  1.00  0.00     0.164 HD
BRANCH   8  11
ATOM     11  C   UNL     1       0.562  10.136   3.930  1.00  0.00     0.109 C 
ATOM     12  C   UNL     1       0.890  10.379   5.403  1.00  0.00     0.021 C 
BRANCH  11  13
ATOM     13  C   UNL     1       1.683  10.523   2.944  1.00  0.00     0.204 C 
BRANCH  13  14
ATOM     14  N   UNL     1       1.263  10.375   1.546  1.00  0.00    -0.340 N 
ATOM     15  C   UNL     1       2.157  10.318   0.499  1.00  0.00     0.243 C 
ATOM     16  O   UNL     1       3.375  10.327   0.669  1.00  0.00    -0.273 OA
ATOM     17  H   UNL     1       0.274  10.513   1.324  1.00  0.00     0.164 HD
BRANCH  15  18
ATOM     18  C   UNL     1       1.482  10.371  -0.894  1.00  0.00     0.171 C 
BRANCH  18  19
ATOM     19  N   UNL     1       1.311  11.784  -1.223  1.00  0.00    -0.343 N 
ATOM     20  C   UNL     1       0.154  12.471  -0.910  1.00  0.00     0.242 CG0
ATOM     21  O   UNL     1      -0.835  11.894  -0.463  1.00  0.00    -0.273 OA
ATOM     22  H   UNL     1       2.058  12.278  -1.699  1.00  0.00     0.164 HD
ATOM     23  G   UNL     1       0.188  13.972  -1.264  1.00  0.00     0.000 G0
ENDBRANCH  18  19
BRANCH  18  24
ATOM     24  C   UNL     1       2.342   9.650  -1.940  1.00  0.00     0.038 C 
BRANCH  24  25
ATOM     25  C   UNL     1       1.543   8.966  -3.069  1.00  0.00    -0.015 C 
ATOM     26  C   UNL     1       1.443   9.834  -4.324  1.00  0.00     0.007 C 
ATOM     27  C   UNL     1       0.139   8.619  -2.570  1.00  0.00     0.007 C 
ENDBRANCH  24  25
ENDBRANCH  18  24
ENDBRANCH  15  18
ENDBRANCH  13  14
BRANCH  13  28
ATOM     28  C   UNL     1       2.171  11.964   3.120  1.00  0.00     0.327 C 
ATOM     29  O   UNL     1       1.480  12.971   3.087  1.00  0.00    -0.250 OA
BRANCH  28  30
ATOM     30  O   UNL     1       3.513  12.061   3.209  1.00  0.00    -0.480 OA
ATOM     31  H   UNL     1       3.843  11.250   2.770  1.00  0.00     0.296 HD
ENDBRANCH  28  30
ENDBRANCH  13  28
ENDBRANCH  11  13
ENDBRANCH   8  11
ENDBRANCH   6   7
BRANCH   6  32
ATOM     32  C   UNL     1       2.240   5.659   3.012  1.00  0.00     0.037 C 
BRANCH  32  33
ATOM     33  C   UNL     1       3.169   6.636   2.278  1.00  0.00     0.026 C 
BRANCH  33  34
ATOM     34  C   UNL     1       4.533   6.769   2.958  1.00  0.00     0.146 C 
BRANCH  34  35
ATOM     35  N   UNL     1       4.409   7.685   4.083  1.00  0.00    -0.254 NA
ATOM     36  C   UNL     1       4.757   8.907   3.921  1.00  0.00     0.185 C 
ATOM     37  N   UNL     1       4.643   9.761   4.950  1.00  0.00    -0.370 N 
ATOM     38  N   UNL     1       5.246   9.508   2.822  1.00  0.00    -0.370 N 
ATOM     39  H   UNL     1       4.270   9.386   5.813  1.00  0.00     0.159 HD
ATOM     40  H   UNL     1       4.727  10.759   4.857  1.00  0.00     0.159 HD
ATOM     41  H   UNL     1       5.614  10.445   2.860  1.00  0.00     0.159 HD
ATOM     42  H   UNL     1       5.400   8.982   1.976  1.00  0.00     0.159 HD
ENDBRANCH  34  35
ENDBRANCH  33  34
ENDBRANCH  32  33
ENDBRANCH   6  32
ENDBRANCH   4   6
ENDBRANCH   1   2
BRANCH   1  43
ATOM     43  C   UNL     1      -1.726   3.937   6.250  1.00  0.00     0.102 C 
ATOM     44  C   UNL     1      -3.228   3.703   6.485  1.00  0.00     0.020 C 
BRANCH  43  45
ATOM     45  C   UNL     1      -0.821   2.925   6.960  1.00  0.00     0.225 C 
ATOM     46  O   UNL     1      -0.883   1.715   6.762  1.00  0.00    -0.275 OA
ATOM     47  N   UNL     1       0.016   3.449   7.919  1.00  0.00    -0.342 N 
ATOM     48  H   UNL     1       0.163   4.448   7.962  1.00  0.00     0.164 HD
BRANCH  47  49
ATOM     49  C   UNL     1       0.962   2.605   8.654  1.00  0.00     0.192 C 
BRANCH  49  50
ATOM     50  C   UNL     1       1.017   3.048  10.118  1.00  0.00     0.047 C 
BRANCH  50  51
ATOM     51  C   UNL     1      -0.207   3.883  10.519  1.00  0.00     0.103 C 
BRANCH  51  52
ATOM     52  C   UNL     1      -1.192   3.084  11.370  1.00  0.00     0.226 C 
ATOM     53  O   UNL     1      -0.948   2.884  12.561  1.00  0.00    -0.275 OA
BRANCH  52  54
ATOM     54  N   UNL     1      -2.383   2.681  10.737  1.00  0.00    -0.311 N 
ATOM     55  C   UNL     1      -2.437   1.447   9.943  1.00  0.00     0.153 C 
BRANCH  54  56
ATOM     56  C   UNL     1      -3.562   3.437  10.846  1.00  0.00     0.102 C 
ATOM     57  C   UNL     1      -3.864   4.502  10.085  1.00  0.00     0.043 C 
BRANCH  56  58
ATOM     58  C   UNL     1      -4.636   3.060  11.839  1.00  0.00     0.268 C 
ATOM     59  O   UNL     1      -5.829   3.237  11.633  1.00  0.00    -0.268 OA
ATOM     60  N   UNL     1      -4.141   2.440  12.961  1.00  0.00    -0.339 N 
ATOM     61  H   UNL     1      -3.138   2.341  13.060  1.00  0.00     0.164 HD
BRANCH  60  62
ATOM     62  C   UNL     1      -5.013   1.937  14.021  1.00  0.00     0.168 CG0
ATOM     63  C   UNL     1      -5.110   2.934  15.169  1.00  0.00     0.041 C 
ATOM     64  G   UNL     1      -4.484   0.577  14.523  1.00  0.00     0.000 G0
ENDBRANCH  60  62
ENDBRANCH  56  58
ENDBRANCH  54  56
ENDBRANCH  52  54
ENDBRANCH  51  52
ENDBRANCH  50  51
ENDBRANCH  49  50
BRANCH  49  65
ATOM     65  C   UNL     1       2.373   2.675   8.048  1.00  0.00     0.326 C 
ATOM     66  O   UNL     1       3.043   1.716   7.693  1.00  0.00    -0.250 OA
BRANCH  65  67
ATOM     67  O   UNL     1       2.893   3.920   7.973  1.00  0.00    -0.480 OA
ATOM     68  H   UNL     1       3.635   3.900   8.615  1.00  0.00     0.296 HD
ENDBRANCH  65  67
ENDBRANCH  49  65
ENDBRANCH  47  49
ENDBRANCH  43  45
ENDBRANCH   1  43
BRANCH   1  69
ATOM     69  C   UNL     1      -2.307   6.406   7.007  1.00  0.00    -0.001 C 
ATOM     70  C   UNL     1      -2.170   7.333   7.971  1.00  0.00     0.001 C 
BRANCH  70  71
ATOM     71  C   UNL     1      -3.168   8.318   8.393  1.00  0.00    -0.055 C 
ATOM     72  C   UNL     1      -3.647   9.166   7.458  1.00  0.00    -0.018 C 
ATOM     73  C   UNL     1      -3.597   8.309   9.837  1.00  0.00     0.044 C 
BRANCH  72  74
ATOM     74  C   UNL     1      -4.679  10.275   7.603  1.00  0.00     0.038 C 
ATOM     75  C   UNL     1      -5.232  10.565   6.202  1.00  0.00     0.015 C 
BRANCH  74  76
ATOM     76  C   UNL     1      -4.011  11.493   8.306  1.00  0.00     0.128 C 
BRANCH  76  77
ATOM     77  O   UNL     1      -3.623  12.473   7.327  1.00  0.00    -0.381 OA
ATOM     78  C   UNL     1      -2.469  13.218   7.692  1.00  0.00     0.195 C 
ENDBRANCH  76  77
BRANCH  76  79
ATOM     79  C   UNL     1      -4.854  12.097   9.457  1.00  0.00     0.068 C 
BRANCH  79  80
ATOM     80  C   UNL     1      -6.335  11.805   9.476  1.00  0.00    -0.045 A 
ATOM     81  C   UNL     1      -7.226  12.538   8.681  1.00  0.00     0.004 A 
ATOM     82  C   UNL     1      -6.848  10.807  10.318  1.00  0.00     0.004 A 
ATOM     83  C   UNL     1      -8.596  12.272   8.715  1.00  0.00     0.000 A 
ATOM     84  C   UNL     1      -8.219  10.542  10.352  1.00  0.00     0.000 A 
ATOM     85  C   UNL     1      -9.092  11.273   9.550  1.00  0.00     0.000 A 
ENDBRANCH  79  80
ENDBRANCH  76  79
ENDBRANCH  74  76
ENDBRANCH  72  74
ENDBRANCH  70  71
ENDBRANCH   1  69
TORSDOF 17
ENDMDL
MODEL 19
REMARK VINA RESULT:    -6.289      3.296      8.569
REMARK INTER + INTRA:         -25.990
REMARK INTER:                 -19.386
REMARK INTRA:                  -6.604
REMARK UNBOUND:                -7.200
REMARK SMILES C=C1C(=O)N[C@H](C)C(=O)N[C@@H](CC(C)C)C(=O)N[C@@H](C(=O)O)[C@H](C)C(=O)N[C@@H](CCCN=C(N)N)C(=O)N[C@@H](/C=C/C(C)=C/[C@H](C)[C@H](Cc2ccccc2)OC)[C@H](C)C(=O)N[C@@H](C(=O)O)CCC(=O)N1C
REMARK SMILES IDX 39 1 38 2 37 3 36 4 28 6 27 7 25 8 26 9 23 11 24 12 19 13
REMARK SMILES IDX 18 14 16 15 17 16 11 18 10 19 8 20 9 21 12 24 13 25 14 26
REMARK SMILES IDX 15 27 20 28 21 29 22 30 29 32 30 33 31 34 32 35 33 36 34 37
REMARK SMILES IDX 35 38 57 43 58 44 59 45 60 46 61 47 62 49 66 50 67 51 68 52
REMARK SMILES IDX 69 53 70 54 71 55 2 56 1 57 3 58 4 59 5 60 6 62 7 63 63 65
REMARK SMILES IDX 64 66 65 67 40 69 41 70 42 71 44 72 43 73 45 74 46 75 47 76
REMARK SMILES IDX 55 77 56 78 48 79 49 80 50 81 54 82 51 83 53 84 52 85
REMARK H PARENT 38 5 27 10 18 17 10 22 22 31 34 39 34 40 35 41 35 42 61 48
REMARK H PARENT 5 61 65 68
REMARK Flexibility Score:  369.900
ROOT
ATOM      1  C   UNL     1      -3.354   9.680   6.728  1.00  0.00     0.117 C 
ENDROOT
BRANCH   1   2
ATOM      2  N   UNL     1      -2.395   9.900   5.644  1.00  0.00    -0.347 N 
ATOM      3  O   UNL     1      -3.846  10.830   4.127  1.00  0.00    -0.273 OA
ATOM      4  C   UNL     1      -2.700  10.544   4.461  1.00  0.00     0.243 C 
ATOM      5  H   UNL     1      -1.435   9.617   5.769  1.00  0.00     0.164 HD
BRANCH   4   6
ATOM      6  C   UNL     1      -1.484  10.724   3.518  1.00  0.00     0.171 C 
BRANCH   6   7
ATOM      7  N   UNL     1      -0.620   9.534   3.559  1.00  0.00    -0.344 N 
ATOM      8  C   UNL     1       0.733   9.655   3.791  1.00  0.00     0.226 C 
ATOM      9  O   UNL     1       1.281  10.739   3.949  1.00  0.00    -0.275 OA
ATOM     10  H   UNL     1      -1.025   8.626   3.366  1.00  0.00     0.164 HD
BRANCH   8  11
ATOM     11  C   UNL     1       1.477   8.332   3.858  1.00  0.00     0.109 C 
ATOM     12  C   UNL     1       0.485   7.177   3.994  1.00  0.00     0.021 C 
BRANCH  11  13
ATOM     13  C   UNL     1       2.446   8.218   2.664  1.00  0.00     0.204 C 
BRANCH  13  14
ATOM     14  N   UNL     1       2.061   9.097   1.556  1.00  0.00    -0.340 N 
ATOM     15  C   UNL     1       1.523   8.625   0.378  1.00  0.00     0.243 C 
ATOM     16  O   UNL     1       1.269   7.435   0.198  1.00  0.00    -0.273 OA
ATOM     17  H   UNL     1       2.383  10.069   1.579  1.00  0.00     0.164 HD
BRANCH  15  18
ATOM     18  C   UNL     1       1.391   9.708  -0.720  1.00  0.00     0.171 C 
BRANCH  18  19
ATOM     19  N   UNL     1       2.386  10.735  -0.416  1.00  0.00    -0.343 N 
ATOM     20  C   UNL     1       2.390  11.958  -1.059  1.00  0.00     0.242 CG0
ATOM     21  O   UNL     1       1.644  12.189  -2.008  1.00  0.00    -0.273 OA
ATOM     22  H   UNL     1       3.097  10.548   0.281  1.00  0.00     0.164 HD
ATOM     23  G   UNL     1       3.464  12.941  -0.550  1.00  0.00     0.000 G0
ENDBRANCH  18  19
BRANCH  18  24
ATOM     24  C   UNL     1       1.618   9.100  -2.110  1.00  0.00     0.038 C 
BRANCH  24  25
ATOM     25  C   UNL     1       0.328   8.812  -2.906  1.00  0.00    -0.015 C 
ATOM     26  C   UNL     1       0.524   8.964  -4.414  1.00  0.00     0.007 C 
ATOM     27  C   UNL     1      -0.788   9.748  -2.434  1.00  0.00     0.007 C 
ENDBRANCH  24  25
ENDBRANCH  18  24
ENDBRANCH  15  18
ENDBRANCH  13  14
BRANCH  13  28
ATOM     28  C   UNL     1       3.895   8.555   3.029  1.00  0.00     0.327 C 
ATOM     29  O   UNL     1       4.318   9.646   3.377  1.00  0.00    -0.250 OA
BRANCH  28  30
ATOM     30  O   UNL     1       4.745   7.529   2.819  1.00  0.00    -0.480 OA
ATOM     31  H   UNL     1       4.732   7.400   1.848  1.00  0.00     0.296 HD
ENDBRANCH  28  30
ENDBRANCH  13  28
ENDBRANCH  11  13
ENDBRANCH   8  11
ENDBRANCH   6   7
BRANCH   6  32
ATOM     32  C   UNL     1      -1.986  10.987   2.093  1.00  0.00     0.037 C 
BRANCH  32  33
ATOM     33  C   UNL     1      -0.922  11.669   1.221  1.00  0.00     0.026 C 
BRANCH  33  34
ATOM     34  C   UNL     1      -1.347  13.064   0.763  1.00  0.00     0.146 C 
BRANCH  34  35
ATOM     35  N   UNL     1      -1.268  13.126  -0.690  1.00  0.00    -0.254 NA
ATOM     36  C   UNL     1      -2.349  13.020  -1.369  1.00  0.00     0.185 C 
ATOM     37  N   UNL     1      -2.288  13.081  -2.708  1.00  0.00    -0.370 N 
ATOM     38  N   UNL     1      -3.609  12.849  -0.931  1.00  0.00    -0.370 N 
ATOM     39  H   UNL     1      -1.372  13.220  -3.116  1.00  0.00     0.159 HD
ATOM     40  H   UNL     1      -3.097  13.181  -3.298  1.00  0.00     0.159 HD
ATOM     41  H   UNL     1      -4.358  12.640  -1.569  1.00  0.00     0.159 HD
ATOM     42  H   UNL     1      -3.802  12.770   0.055  1.00  0.00     0.159 HD
ENDBRANCH  34  35
ENDBRANCH  33  34
ENDBRANCH  32  33
ENDBRANCH   6  32
ENDBRANCH   4   6
ENDBRANCH   1   2
BRANCH   1  43
ATOM     43  C   UNL     1      -3.550  11.019   7.495  1.00  0.00     0.102 C 
ATOM     44  C   UNL     1      -2.994  10.990   8.929  1.00  0.00     0.020 C 
BRANCH  43  45
ATOM     45  C   UNL     1      -5.002  11.499   7.402  1.00  0.00     0.225 C 
ATOM     46  O   UNL     1      -5.440  12.442   8.054  1.00  0.00    -0.275 OA
ATOM     47  N   UNL     1      -5.826  10.741   6.601  1.00  0.00    -0.342 N 
ATOM     48  H   UNL     1      -5.423  10.071   5.961  1.00  0.00     0.164 HD
BRANCH  47  49
ATOM     49  C   UNL     1      -7.231  11.102   6.389  1.00  0.00     0.192 C 
BRANCH  49  50
ATOM     50  C   UNL     1      -8.135  10.037   7.015  1.00  0.00     0.047 C 
BRANCH  50  51
ATOM     51  C   UNL     1      -8.656  10.454   8.397  1.00  0.00     0.103 C 
BRANCH  51  52
ATOM     52  C   UNL     1      -7.956   9.699   9.525  1.00  0.00     0.226 C 
ATOM     53  O   UNL     1      -6.728   9.597   9.522  1.00  0.00    -0.275 OA
BRANCH  52  54
ATOM     54  N   UNL     1      -8.778   9.220  10.563  1.00  0.00    -0.311 N 
ATOM     55  C   UNL     1      -8.855   7.785  10.865  1.00  0.00     0.153 C 
BRANCH  54  56
ATOM     56  C   UNL     1      -9.548  10.093  11.349  1.00  0.00     0.102 C 
ATOM     57  C   UNL     1      -9.049  11.034  12.167  1.00  0.00     0.043 C 
BRANCH  56  58
ATOM     58  C   UNL     1     -11.057  10.061  11.290  1.00  0.00     0.268 C 
ATOM     59  O   UNL     1     -11.681   9.658  10.318  1.00  0.00    -0.268 OA
ATOM     60  N   UNL     1     -11.652  10.467  12.461  1.00  0.00    -0.339 N 
ATOM     61  H   UNL     1     -11.065  10.797  13.217  1.00  0.00     0.164 HD
BRANCH  60  62
ATOM     62  C   UNL     1     -13.103  10.455  12.642  1.00  0.00     0.168 CG0
ATOM     63  C   UNL     1     -13.762  11.583  11.859  1.00  0.00     0.041 C 
ATOM     64  G   UNL     1     -13.437  10.565  14.144  1.00  0.00     0.000 G0
ENDBRANCH  60  62
ENDBRANCH  56  58
ENDBRANCH  54  56
ENDBRANCH  52  54
ENDBRANCH  51  52
ENDBRANCH  50  51
ENDBRANCH  49  50
BRANCH  49  65
ATOM     65  C   UNL     1      -7.562  11.236   4.895  1.00  0.00     0.326 C 
ATOM     66  O   UNL     1      -8.658  11.044   4.390  1.00  0.00    -0.250 OA
BRANCH  65  67
ATOM     67  O   UNL     1      -6.506  11.540   4.108  1.00  0.00    -0.480 OA
ATOM     68  H   UNL     1      -5.738  11.179   4.602  1.00  0.00     0.296 HD
ENDBRANCH  65  67
ENDBRANCH  49  65
ENDBRANCH  47  49
ENDBRANCH  43  45
ENDBRANCH   1  43
BRANCH   1  69
ATOM     69  C   UNL     1      -2.860   8.463   7.489  1.00  0.00    -0.001 C 
ATOM     70  C   UNL     1      -1.960   7.552   7.079  1.00  0.00     0.001 C 
BRANCH  70  71
ATOM     71  C   UNL     1      -1.476   6.394   7.832  1.00  0.00    -0.055 C 
ATOM     72  C   UNL     1      -2.332   5.799   8.689  1.00  0.00    -0.018 C 
ATOM     73  C   UNL     1      -0.059   5.942   7.591  1.00  0.00     0.044 C 
BRANCH  72  74
ATOM     74  C   UNL     1      -2.111   4.592   9.590  1.00  0.00     0.038 C 
ATOM     75  C   UNL     1      -2.478   3.346   8.776  1.00  0.00     0.015 C 
BRANCH  74  76
ATOM     76  C   UNL     1      -2.936   4.785  10.897  1.00  0.00     0.128 C 
BRANCH  76  77
ATOM     77  O   UNL     1      -2.269   5.716  11.765  1.00  0.00    -0.381 OA
ATOM     78  C   UNL     1      -0.935   5.345  12.085  1.00  0.00     0.195 C 
ENDBRANCH  76  77
BRANCH  76  79
ATOM     79  C   UNL     1      -4.422   5.149  10.655  1.00  0.00     0.068 C 
BRANCH  79  80
ATOM     80  C   UNL     1      -5.444   4.646  11.646  1.00  0.00    -0.045 A 
ATOM     81  C   UNL     1      -5.061   3.859  12.740  1.00  0.00     0.004 A 
ATOM     82  C   UNL     1      -6.805   4.937  11.468  1.00  0.00     0.004 A 
ATOM     83  C   UNL     1      -6.014   3.385  13.644  1.00  0.00     0.000 A 
ATOM     84  C   UNL     1      -7.757   4.462  12.372  1.00  0.00     0.000 A 
ATOM     85  C   UNL     1      -7.362   3.688  13.461  1.00  0.00     0.000 A 
ENDBRANCH  79  80
ENDBRANCH  76  79
ENDBRANCH  74  76
ENDBRANCH  72  74
ENDBRANCH  70  71
ENDBRANCH   1  69
TORSDOF 17
ENDMDL
MODEL 20
REMARK VINA RESULT:    -6.284      4.236      7.674
REMARK INTER + INTRA:         -25.973
REMARK INTER:                 -18.998
REMARK INTRA:                  -6.975
REMARK UNBOUND:                -7.200
REMARK SMILES C=C1C(=O)N[C@H](C)C(=O)N[C@@H](CC(C)C)C(=O)N[C@@H](C(=O)O)[C@H](C)C(=O)N[C@@H](CCCN=C(N)N)C(=O)N[C@@H](/C=C/C(C)=C/[C@H](C)[C@H](Cc2ccccc2)OC)[C@H](C)C(=O)N[C@@H](C(=O)O)CCC(=O)N1C
REMARK SMILES IDX 39 1 38 2 37 3 36 4 28 6 27 7 25 8 26 9 23 11 24 12 19 13
REMARK SMILES IDX 18 14 16 15 17 16 11 18 10 19 8 20 9 21 12 24 13 25 14 26
REMARK SMILES IDX 15 27 20 28 21 29 22 30 29 32 30 33 31 34 32 35 33 36 34 37
REMARK SMILES IDX 35 38 57 43 58 44 59 45 60 46 61 47 62 49 66 50 67 51 68 52
REMARK SMILES IDX 69 53 70 54 71 55 2 56 1 57 3 58 4 59 5 60 6 62 7 63 63 65
REMARK SMILES IDX 64 66 65 67 40 69 41 70 42 71 44 72 43 73 45 74 46 75 47 76
REMARK SMILES IDX 55 77 56 78 48 79 49 80 50 81 54 82 51 83 53 84 52 85
REMARK H PARENT 38 5 27 10 18 17 10 22 22 31 34 39 34 40 35 41 35 42 61 48
REMARK H PARENT 5 61 65 68
REMARK Flexibility Score:  369.900
ROOT
ATOM      1  C   UNL     1      -0.564  11.860   2.795  1.00  0.00     0.117 C 
ENDROOT
BRANCH   1   2
ATOM      2  N   UNL     1       0.708  11.260   2.388  1.00  0.00    -0.347 N 
ATOM      3  O   UNL     1       2.102  12.655   3.563  1.00  0.00    -0.273 OA
ATOM      4  C   UNL     1       1.939  11.650   2.879  1.00  0.00     0.243 C 
ATOM      5  H   UNL     1       0.704  10.480   1.749  1.00  0.00     0.164 HD
BRANCH   4   6
ATOM      6  C   UNL     1       3.119  10.796   2.351  1.00  0.00     0.171 C 
BRANCH   6   7
ATOM      7  N   UNL     1       2.634   9.495   1.863  1.00  0.00    -0.344 N 
ATOM      8  C   UNL     1       2.337   8.479   2.746  1.00  0.00     0.226 C 
ATOM      9  O   UNL     1       2.479   8.595   3.957  1.00  0.00    -0.275 OA
ATOM     10  H   UNL     1       2.569   9.339   0.865  1.00  0.00     0.164 HD
BRANCH   8  11
ATOM     11  C   UNL     1       1.797   7.220   2.091  1.00  0.00     0.109 C 
ATOM     12  C   UNL     1       1.831   7.362   0.570  1.00  0.00     0.021 C 
BRANCH  11  13
ATOM     13  C   UNL     1       2.538   5.986   2.645  1.00  0.00     0.204 C 
BRANCH  13  14
ATOM     14  N   UNL     1       3.841   6.336   3.218  1.00  0.00    -0.340 N 
ATOM     15  C   UNL     1       4.940   5.509   3.139  1.00  0.00     0.243 C 
ATOM     16  O   UNL     1       4.922   4.443   2.526  1.00  0.00    -0.273 OA
ATOM     17  H   UNL     1       3.884   7.129   3.865  1.00  0.00     0.164 HD
BRANCH  15  18
ATOM     18  C   UNL     1       6.140   5.991   3.992  1.00  0.00     0.171 C 
BRANCH  18  19
ATOM     19  N   UNL     1       7.339   5.782   3.183  1.00  0.00    -0.343 N 
ATOM     20  C   UNL     1       8.275   4.817   3.503  1.00  0.00     0.242 CG0
ATOM     21  O   UNL     1       8.211   4.182   4.553  1.00  0.00    -0.273 OA
ATOM     22  H   UNL     1       7.496   6.362   2.367  1.00  0.00     0.164 HD
ATOM     23  G   UNL     1       9.432   4.692   2.490  1.00  0.00     0.000 G0
ENDBRANCH  18  19
BRANCH  18  24
ATOM     24  C   UNL     1       5.972   7.466   4.378  1.00  0.00     0.038 C 
BRANCH  24  25
ATOM     25  C   UNL     1       7.144   8.378   3.960  1.00  0.00    -0.015 C 
ATOM     26  C   UNL     1       7.667   9.227   5.119  1.00  0.00     0.007 C 
ATOM     27  C   UNL     1       6.703   9.290   2.812  1.00  0.00     0.007 C 
ENDBRANCH  24  25
ENDBRANCH  18  24
ENDBRANCH  15  18
ENDBRANCH  13  14
BRANCH  13  28
ATOM     28  C   UNL     1       1.749   5.244   3.728  1.00  0.00     0.327 C 
ATOM     29  O   UNL     1       1.845   4.059   4.008  1.00  0.00    -0.250 OA
BRANCH  28  30
ATOM     30  O   UNL     1       0.805   6.010   4.312  1.00  0.00    -0.480 OA
ATOM     31  H   UNL     1       1.191   6.248   5.181  1.00  0.00     0.296 HD
ENDBRANCH  28  30
ENDBRANCH  13  28
ENDBRANCH  11  13
ENDBRANCH   8  11
ENDBRANCH   6   7
BRANCH   6  32
ATOM     32  C   UNL     1       3.839  11.565   1.238  1.00  0.00     0.037 C 
BRANCH  32  33
ATOM     33  C   UNL     1       3.786  10.824  -0.106  1.00  0.00     0.026 C 
BRANCH  33  34
ATOM     34  C   UNL     1       2.706  11.377  -1.037  1.00  0.00     0.146 C 
BRANCH  34  35
ATOM     35  N   UNL     1       1.493  10.587  -0.870  1.00  0.00    -0.254 NA
ATOM     36  C   UNL     1       0.878  10.178  -1.917  1.00  0.00     0.185 C 
ATOM     37  N   UNL     1      -0.237   9.445  -1.775  1.00  0.00    -0.370 N 
ATOM     38  N   UNL     1       1.189  10.374  -3.210  1.00  0.00    -0.370 N 
ATOM     39  H   UNL     1      -0.532   9.245  -0.828  1.00  0.00     0.159 HD
ATOM     40  H   UNL     1      -0.674   8.946  -2.530  1.00  0.00     0.159 HD
ATOM     41  H   UNL     1       0.549  10.119  -3.944  1.00  0.00     0.159 HD
ATOM     42  H   UNL     1       1.995  10.922  -3.466  1.00  0.00     0.159 HD
ENDBRANCH  34  35
ENDBRANCH  33  34
ENDBRANCH  32  33
ENDBRANCH   6  32
ENDBRANCH   4   6
ENDBRANCH   1   2
BRANCH   1  43
ATOM     43  C   UNL     1      -1.502  10.731   3.309  1.00  0.00     0.102 C 
ATOM     44  C   UNL     1      -2.925  10.806   2.730  1.00  0.00     0.020 C 
BRANCH  43  45
ATOM     45  C   UNL     1      -1.457  10.631   4.837  1.00  0.00     0.225 C 
ATOM     46  O   UNL     1      -0.506  10.156   5.451  1.00  0.00    -0.275 OA
ATOM     47  N   UNL     1      -2.603  11.026   5.490  1.00  0.00    -0.342 N 
ATOM     48  H   UNL     1      -3.308  11.550   4.991  1.00  0.00     0.164 HD
BRANCH  47  49
ATOM     49  C   UNL     1      -2.691  11.019   6.954  1.00  0.00     0.192 C 
BRANCH  49  50
ATOM     50  C   UNL     1      -4.114  10.651   7.381  1.00  0.00     0.047 C 
BRANCH  50  51
ATOM     51  C   UNL     1      -4.969  10.167   6.202  1.00  0.00     0.103 C 
BRANCH  51  52
ATOM     52  C   UNL     1      -6.170  11.077   5.952  1.00  0.00     0.226 C 
ATOM     53  O   UNL     1      -6.361  12.049   6.685  1.00  0.00    -0.275 OA
BRANCH  52  54
ATOM     54  N   UNL     1      -6.958  10.781   4.825  1.00  0.00    -0.311 N 
ATOM     55  C   UNL     1      -6.355  10.222   3.607  1.00  0.00     0.153 C 
BRANCH  54  56
ATOM     56  C   UNL     1      -8.345  11.001   4.822  1.00  0.00     0.102 C 
ATOM     57  C   UNL     1      -9.221  10.394   5.639  1.00  0.00     0.043 C 
BRANCH  56  58
ATOM     58  C   UNL     1      -8.967  12.014   3.889  1.00  0.00     0.268 C 
ATOM     59  O   UNL     1      -8.533  13.149   3.747  1.00  0.00    -0.268 OA
ATOM     60  N   UNL     1     -10.026  11.509   3.172  1.00  0.00    -0.339 N 
ATOM     61  H   UNL     1     -10.331  10.561   3.357  1.00  0.00     0.164 HD
BRANCH  60  62
ATOM     62  C   UNL     1     -10.733  12.300   2.167  1.00  0.00     0.168 CG0
ATOM     63  C   UNL     1     -12.242  12.148   2.314  1.00  0.00     0.041 C 
ATOM     64  G   UNL     1     -10.276  11.872   0.757  1.00  0.00     0.000 G0
ENDBRANCH  60  62
ENDBRANCH  56  58
ENDBRANCH  54  56
ENDBRANCH  52  54
ENDBRANCH  51  52
ENDBRANCH  50  51
ENDBRANCH  49  50
BRANCH  49  65
ATOM     65  C   UNL     1      -2.318  12.385   7.550  1.00  0.00     0.326 C 
ATOM     66  O   UNL     1      -1.946  12.581   8.698  1.00  0.00    -0.250 OA
BRANCH  65  67
ATOM     67  O   UNL     1      -2.486  13.431   6.712  1.00  0.00    -0.480 OA
ATOM     68  H   UNL     1      -2.732  13.009   5.861  1.00  0.00     0.296 HD
ENDBRANCH  65  67
ENDBRANCH  49  65
ENDBRANCH  47  49
ENDBRANCH  43  45
ENDBRANCH   1  43
BRANCH   1  69
ATOM     69  C   UNL     1      -1.019  12.719   1.630  1.00  0.00    -0.001 C 
ATOM     70  C   UNL     1      -0.312  13.054   0.536  1.00  0.00     0.001 C 
BRANCH  70  71
ATOM     71  C   UNL     1      -0.770  13.866  -0.593  1.00  0.00    -0.055 C 
ATOM     72  C   UNL     1      -1.868  14.630  -0.412  1.00  0.00    -0.018 C 
ATOM     73  C   UNL     1       0.020  13.797  -1.874  1.00  0.00     0.044 C 
BRANCH  72  74
ATOM     74  C   UNL     1      -2.563  15.565  -1.391  1.00  0.00     0.038 C 
ATOM     75  C   UNL     1      -3.079  16.763  -0.585  1.00  0.00     0.015 C 
BRANCH  74  76
ATOM     76  C   UNL     1      -3.662  14.767  -2.152  1.00  0.00     0.128 C 
BRANCH  76  77
ATOM     77  O   UNL     1      -3.100  14.152  -3.324  1.00  0.00    -0.381 OA
ATOM     78  C   UNL     1      -3.723  14.558  -4.536  1.00  0.00     0.195 C 
ENDBRANCH  76  77
BRANCH  76  79
ATOM     79  C   UNL     1      -4.440  13.765  -1.263  1.00  0.00     0.068 C 
BRANCH  79  80
ATOM     80  C   UNL     1      -5.915  14.008  -1.047  1.00  0.00    -0.045 A 
ATOM     81  C   UNL     1      -6.471  13.972   0.238  1.00  0.00     0.004 A 
ATOM     82  C   UNL     1      -6.760  14.248  -2.141  1.00  0.00     0.004 A 
ATOM     83  C   UNL     1      -7.838  14.184   0.429  1.00  0.00     0.000 A 
ATOM     84  C   UNL     1      -8.127  14.459  -1.950  1.00  0.00     0.000 A 
ATOM     85  C   UNL     1      -8.665  14.429  -0.665  1.00  0.00     0.000 A 
ENDBRANCH  79  80
ENDBRANCH  76  79
ENDBRANCH  74  76
ENDBRANCH  72  74
ENDBRANCH  70  71
ENDBRANCH   1  69
TORSDOF 17
ENDMDL
MODEL 21
REMARK VINA RESULT:    -6.274      1.973      3.184
REMARK INTER + INTRA:         -25.944
REMARK INTER:                 -19.600
REMARK INTRA:                  -6.345
REMARK UNBOUND:                -7.200
REMARK SMILES C=C1C(=O)N[C@H](C)C(=O)N[C@@H](CC(C)C)C(=O)N[C@@H](C(=O)O)[C@H](C)C(=O)N[C@@H](CCCN=C(N)N)C(=O)N[C@@H](/C=C/C(C)=C/[C@H](C)[C@H](Cc2ccccc2)OC)[C@H](C)C(=O)N[C@@H](C(=O)O)CCC(=O)N1C
REMARK SMILES IDX 39 1 38 2 37 3 36 4 28 6 27 7 25 8 26 9 23 11 24 12 19 13
REMARK SMILES IDX 18 14 16 15 17 16 11 18 10 19 8 20 9 21 12 24 13 25 14 26
REMARK SMILES IDX 15 27 20 28 21 29 22 30 29 32 30 33 31 34 32 35 33 36 34 37
REMARK SMILES IDX 35 38 57 43 58 44 59 45 60 46 61 47 62 49 66 50 67 51 68 52
REMARK SMILES IDX 69 53 70 54 71 55 2 56 1 57 3 58 4 59 5 60 6 62 7 63 63 65
REMARK SMILES IDX 64 66 65 67 40 69 41 70 42 71 44 72 43 73 45 74 46 75 47 76
REMARK SMILES IDX 55 77 56 78 48 79 49 80 50 81 54 82 51 83 53 84 52 85
REMARK H PARENT 38 5 27 10 18 17 10 22 22 31 34 39 34 40 35 41 35 42 61 48
REMARK H PARENT 5 61 65 68
REMARK Flexibility Score:  369.900
ROOT
ATOM      1  C   UNL     1      -7.242  11.197   4.727  1.00  0.00     0.117 C 
ENDROOT
BRANCH   1   2
ATOM      2  N   UNL     1      -5.866  10.698   4.724  1.00  0.00    -0.347 N 
ATOM      3  O   UNL     1      -5.277  11.391   6.832  1.00  0.00    -0.273 OA
ATOM      4  C   UNL     1      -5.020  10.755   5.815  1.00  0.00     0.243 C 
ATOM      5  H   UNL     1      -5.509  10.237   3.901  1.00  0.00     0.164 HD
BRANCH   4   6
ATOM      6  C   UNL     1      -3.646  10.080   5.574  1.00  0.00     0.171 C 
BRANCH   6   7
ATOM      7  N   UNL     1      -2.808  10.916   4.700  1.00  0.00    -0.344 N 
ATOM      8  C   UNL     1      -2.697  10.636   3.355  1.00  0.00     0.226 C 
ATOM      9  O   UNL     1      -3.260   9.683   2.831  1.00  0.00    -0.275 OA
ATOM     10  H   UNL     1      -2.273  11.672   5.110  1.00  0.00     0.164 HD
BRANCH   8  11
ATOM     11  C   UNL     1      -1.840  11.622   2.580  1.00  0.00     0.109 C 
ATOM     12  C   UNL     1      -0.935  12.398   3.536  1.00  0.00     0.021 C 
BRANCH  11  13
ATOM     13  C   UNL     1      -1.104  10.889   1.441  1.00  0.00     0.204 C 
BRANCH  13  14
ATOM     14  N   UNL     1      -0.621  11.814   0.411  1.00  0.00    -0.340 N 
ATOM     15  C   UNL     1      -0.878  11.640  -0.931  1.00  0.00     0.243 C 
ATOM     16  O   UNL     1      -1.583  10.726  -1.356  1.00  0.00    -0.273 OA
ATOM     17  H   UNL     1       0.090  12.501   0.677  1.00  0.00     0.164 HD
BRANCH  15  18
ATOM     18  C   UNL     1      -0.096  12.618  -1.843  1.00  0.00     0.171 C 
BRANCH  18  19
ATOM     19  N   UNL     1      -0.225  12.111  -3.208  1.00  0.00    -0.343 N 
ATOM     20  C   UNL     1       0.866  11.653  -3.921  1.00  0.00     0.242 CG0
ATOM     21  O   UNL     1       2.012  11.774  -3.493  1.00  0.00    -0.273 OA
ATOM     22  H   UNL     1      -1.137  12.099  -3.650  1.00  0.00     0.164 HD
ATOM     23  G   UNL     1       0.524  11.085  -5.314  1.00  0.00     0.000 G0
ENDBRANCH  18  19
BRANCH  18  24
ATOM     24  C   UNL     1      -0.656  14.040  -1.716  1.00  0.00     0.038 C 
BRANCH  24  25
ATOM     25  C   UNL     1      -2.096  14.215  -2.241  1.00  0.00    -0.015 C 
ATOM     26  C   UNL     1      -2.175  15.182  -3.423  1.00  0.00     0.007 C 
ATOM     27  C   UNL     1      -3.000  14.710  -1.109  1.00  0.00     0.007 C 
ENDBRANCH  24  25
ENDBRANCH  18  24
ENDBRANCH  15  18
ENDBRANCH  13  14
BRANCH  13  28
ATOM     28  C   UNL     1       0.103  10.079   1.925  1.00  0.00     0.327 C 
ATOM     29  O   UNL     1       1.279  10.382   1.788  1.00  0.00    -0.250 OA
BRANCH  28  30
ATOM     30  O   UNL     1      -0.238   8.883   2.447  1.00  0.00    -0.480 OA
ATOM     31  H   UNL     1      -0.973   8.573   1.878  1.00  0.00     0.296 HD
ENDBRANCH  28  30
ENDBRANCH  13  28
ENDBRANCH  11  13
ENDBRANCH   8  11
ENDBRANCH   6   7
BRANCH   6  32
ATOM     32  C   UNL     1      -2.960   9.839   6.923  1.00  0.00     0.037 C 
BRANCH  32  33
ATOM     33  C   UNL     1      -1.562  10.469   6.983  1.00  0.00     0.026 C 
BRANCH  33  34
ATOM     34  C   UNL     1      -1.586  11.897   7.531  1.00  0.00     0.146 C 
BRANCH  34  35
ATOM     35  N   UNL     1      -2.372  11.916   8.757  1.00  0.00    -0.254 NA
ATOM     36  C   UNL     1      -3.265  12.823   8.900  1.00  0.00     0.185 C 
ATOM     37  N   UNL     1      -3.999  12.847  10.024  1.00  0.00    -0.370 N 
ATOM     38  N   UNL     1      -3.607  13.813   8.056  1.00  0.00    -0.370 N 
ATOM     39  H   UNL     1      -3.807  12.125  10.707  1.00  0.00     0.159 HD
ATOM     40  H   UNL     1      -4.825  13.409  10.137  1.00  0.00     0.159 HD
ATOM     41  H   UNL     1      -4.231  14.550   8.343  1.00  0.00     0.159 HD
ATOM     42  H   UNL     1      -3.126  13.926   7.178  1.00  0.00     0.159 HD
ENDBRANCH  34  35
ENDBRANCH  33  34
ENDBRANCH  32  33
ENDBRANCH   6  32
ENDBRANCH   4   6
ENDBRANCH   1   2
BRANCH   1  43
ATOM     43  C   UNL     1      -8.179  10.058   5.222  1.00  0.00     0.102 C 
ATOM     44  C   UNL     1      -9.307   9.720   4.232  1.00  0.00     0.020 C 
BRANCH  43  45
ATOM     45  C   UNL     1      -8.665  10.327   6.649  1.00  0.00     0.225 C 
ATOM     46  O   UNL     1      -9.626  11.047   6.906  1.00  0.00    -0.275 OA
ATOM     47  N   UNL     1      -7.895   9.781   7.650  1.00  0.00    -0.342 N 
ATOM     48  H   UNL     1      -7.208   9.075   7.425  1.00  0.00     0.164 HD
BRANCH  47  49
ATOM     49  C   UNL     1      -8.259   9.926   9.063  1.00  0.00     0.192 C 
BRANCH  49  50
ATOM     50  C   UNL     1      -7.071  10.494   9.845  1.00  0.00     0.047 C 
BRANCH  50  51
ATOM     51  C   UNL     1      -7.438  11.770  10.615  1.00  0.00     0.103 C 
BRANCH  51  52
ATOM     52  C   UNL     1      -8.347  11.478  11.807  1.00  0.00     0.226 C 
ATOM     53  O   UNL     1      -8.068  10.556  12.576  1.00  0.00    -0.275 OA
BRANCH  52  54
ATOM     54  N   UNL     1      -9.432  12.354  11.997  1.00  0.00    -0.311 N 
ATOM     55  C   UNL     1      -9.343  13.474  12.944  1.00  0.00     0.153 C 
BRANCH  54  56
ATOM     56  C   UNL     1     -10.634  12.196  11.288  1.00  0.00     0.102 C 
ATOM     57  C   UNL     1     -10.849  12.627  10.034  1.00  0.00     0.043 C 
BRANCH  56  58
ATOM     58  C   UNL     1     -11.802  11.458  11.898  1.00  0.00     0.268 C 
ATOM     59  O   UNL     1     -11.718  10.809  12.932  1.00  0.00    -0.268 OA
ATOM     60  N   UNL     1     -12.978  11.646  11.211  1.00  0.00    -0.339 N 
ATOM     61  H   UNL     1     -12.962  12.190  10.357  1.00  0.00     0.164 HD
BRANCH  60  62
ATOM     62  C   UNL     1     -14.245  11.073  11.664  1.00  0.00     0.168 CG0
ATOM     63  C   UNL     1     -14.463   9.688  11.068  1.00  0.00     0.041 C 
ATOM     64  G   UNL     1     -15.404  12.018  11.287  1.00  0.00     0.000 G0
ENDBRANCH  60  62
ENDBRANCH  56  58
ENDBRANCH  54  56
ENDBRANCH  52  54
ENDBRANCH  51  52
ENDBRANCH  50  51
ENDBRANCH  49  50
BRANCH  49  65
ATOM     65  C   UNL     1      -8.679   8.583   9.681  1.00  0.00     0.326 C 
ATOM     66  O   UNL     1      -7.932   7.793  10.238  1.00  0.00    -0.250 OA
BRANCH  65  67
ATOM     67  O   UNL     1      -9.984   8.272   9.519  1.00  0.00    -0.480 OA
ATOM     68  H   UNL     1     -10.327   8.999   8.955  1.00  0.00     0.296 HD
ENDBRANCH  65  67
ENDBRANCH  49  65
ENDBRANCH  47  49
ENDBRANCH  43  45
ENDBRANCH   1  43
BRANCH   1  69
ATOM     69  C   UNL     1      -7.479  11.797   3.353  1.00  0.00    -0.001 C 
ATOM     70  C   UNL     1      -8.259  12.848   3.044  1.00  0.00     0.001 C 
BRANCH  70  71
ATOM     71  C   UNL     1      -8.463  13.431   1.717  1.00  0.00    -0.055 C 
ATOM     72  C   UNL     1      -7.378  13.600   0.932  1.00  0.00    -0.018 C 
ATOM     73  C   UNL     1      -9.869  13.795   1.318  1.00  0.00     0.044 C 
BRANCH  72  74
ATOM     74  C   UNL     1      -7.287  14.172  -0.476  1.00  0.00     0.038 C 
ATOM     75  C   UNL     1      -6.302  13.294  -1.257  1.00  0.00     0.015 C 
BRANCH  74  76
ATOM     76  C   UNL     1      -6.891  15.675  -0.382  1.00  0.00     0.128 C 
BRANCH  76  77
ATOM     77  O   UNL     1      -7.733  16.459  -1.243  1.00  0.00    -0.381 OA
ATOM     78  C   UNL     1      -7.109  16.837  -2.463  1.00  0.00     0.195 C 
ENDBRANCH  76  77
BRANCH  76  79
ATOM     79  C   UNL     1      -6.839  16.223   1.066  1.00  0.00     0.068 C 
BRANCH  79  80
ATOM     80  C   UNL     1      -5.847  17.319   1.372  1.00  0.00    -0.045 A 
ATOM     81  C   UNL     1      -6.236  18.472   2.066  1.00  0.00     0.004 A 
ATOM     82  C   UNL     1      -4.517  17.210   0.939  1.00  0.00     0.004 A 
ATOM     83  C   UNL     1      -5.316  19.488   2.332  1.00  0.00     0.000 A 
ATOM     84  C   UNL     1      -3.597  18.226   1.206  1.00  0.00     0.000 A 
ATOM     85  C   UNL     1      -3.996  19.364   1.903  1.00  0.00     0.000 A 
ENDBRANCH  79  80
ENDBRANCH  76  79
ENDBRANCH  74  76
ENDBRANCH  72  74
ENDBRANCH  70  71
ENDBRANCH   1  69
TORSDOF 17
ENDMDL
MODEL 22
REMARK VINA RESULT:    -6.202      2.062      3.002
REMARK INTER + INTRA:         -25.728
REMARK INTER:                 -20.095
REMARK INTRA:                  -5.633
REMARK UNBOUND:                -7.200
REMARK SMILES C=C1C(=O)N[C@H](C)C(=O)N[C@@H](CC(C)C)C(=O)N[C@@H](C(=O)O)[C@H](C)C(=O)N[C@@H](CCCN=C(N)N)C(=O)N[C@@H](/C=C/C(C)=C/[C@H](C)[C@H](Cc2ccccc2)OC)[C@H](C)C(=O)N[C@@H](C(=O)O)CCC(=O)N1C
REMARK SMILES IDX 39 1 38 2 37 3 36 4 28 6 27 7 25 8 26 9 23 11 24 12 19 13
REMARK SMILES IDX 18 14 16 15 17 16 11 18 10 19 8 20 9 21 12 24 13 25 14 26
REMARK SMILES IDX 15 27 20 28 21 29 22 30 29 32 30 33 31 34 32 35 33 36 34 37
REMARK SMILES IDX 35 38 57 43 58 44 59 45 60 46 61 47 62 49 66 50 67 51 68 52
REMARK SMILES IDX 69 53 70 54 71 55 2 56 1 57 3 58 4 59 5 60 6 62 7 63 63 65
REMARK SMILES IDX 64 66 65 67 40 69 41 70 42 71 44 72 43 73 45 74 46 75 47 76
REMARK SMILES IDX 55 77 56 78 48 79 49 80 50 81 54 82 51 83 53 84 52 85
REMARK H PARENT 38 5 27 10 18 17 10 22 22 31 34 39 34 40 35 41 35 42 61 48
REMARK H PARENT 5 61 65 68
REMARK Flexibility Score:  369.900
ROOT
ATOM      1  C   UNL     1      -7.177  11.302   4.775  1.00  0.00     0.117 C 
ENDROOT
BRANCH   1   2
ATOM      2  N   UNL     1      -5.803  10.803   4.703  1.00  0.00    -0.347 N 
ATOM      3  O   UNL     1      -5.216  11.184   6.889  1.00  0.00    -0.273 OA
ATOM      4  C   UNL     1      -4.960  10.699   5.792  1.00  0.00     0.243 C 
ATOM      5  H   UNL     1      -5.447  10.462   3.823  1.00  0.00     0.164 HD
BRANCH   4   6
ATOM      6  C   UNL     1      -3.589  10.058   5.460  1.00  0.00     0.171 C 
BRANCH   6   7
ATOM      7  N   UNL     1      -2.924  10.799   4.376  1.00  0.00    -0.344 N 
ATOM      8  C   UNL     1      -2.086  10.152   3.494  1.00  0.00     0.226 C 
ATOM      9  O   UNL     1      -1.837   8.955   3.576  1.00  0.00    -0.275 OA
ATOM     10  H   UNL     1      -3.051  11.802   4.317  1.00  0.00     0.164 HD
BRANCH   8  11
ATOM     11  C   UNL     1      -1.520  11.043   2.401  1.00  0.00     0.109 C 
ATOM     12  C   UNL     1      -1.286  12.454   2.941  1.00  0.00     0.021 C 
BRANCH  11  13
ATOM     13  C   UNL     1      -0.281  10.375   1.773  1.00  0.00     0.204 C 
BRANCH  13  14
ATOM     14  N   UNL     1      -0.076  10.790   0.382  1.00  0.00    -0.340 N 
ATOM     15  C   UNL     1       0.530   9.984  -0.558  1.00  0.00     0.243 C 
ATOM     16  O   UNL     1       0.888   8.834  -0.310  1.00  0.00    -0.273 OA
ATOM     17  H   UNL     1      -0.210  11.778   0.150  1.00  0.00     0.164 HD
BRANCH  15  18
ATOM     18  C   UNL     1       0.825  10.707  -1.895  1.00  0.00     0.171 C 
BRANCH  18  19
ATOM     19  N   UNL     1       0.223   9.895  -2.951  1.00  0.00    -0.343 N 
ATOM     20  C   UNL     1       0.913   9.571  -4.103  1.00  0.00     0.242 CG0
ATOM     21  O   UNL     1       2.013  10.059  -4.354  1.00  0.00    -0.273 OA
ATOM     22  H   UNL     1      -0.728   9.563  -2.843  1.00  0.00     0.164 HD
ATOM     23  G   UNL     1       0.145   8.642  -5.066  1.00  0.00     0.000 G0
ENDBRANCH  18  19
BRANCH  18  24
ATOM     24  C   UNL     1       0.248  12.128  -1.881  1.00  0.00     0.038 C 
BRANCH  24  25
ATOM     25  C   UNL     1      -1.127  12.272  -2.569  1.00  0.00    -0.015 C 
ATOM     26  C   UNL     1      -1.047  13.065  -3.874  1.00  0.00     0.007 C 
ATOM     27  C   UNL     1      -2.112  12.950  -1.613  1.00  0.00     0.007 C 
ENDBRANCH  24  25
ENDBRANCH  18  24
ENDBRANCH  15  18
ENDBRANCH  13  14
BRANCH  13  28
ATOM     28  C   UNL     1       1.016  10.674   2.532  1.00  0.00     0.327 C 
ATOM     29  O   UNL     1       1.855  11.508   2.227  1.00  0.00    -0.250 OA
BRANCH  28  30
ATOM     30  O   UNL     1       1.235   9.828   3.558  1.00  0.00    -0.480 OA
ATOM     31  H   UNL     1       0.929   8.959   3.224  1.00  0.00     0.296 HD
ENDBRANCH  28  30
ENDBRANCH  13  28
ENDBRANCH  11  13
ENDBRANCH   8  11
ENDBRANCH   6   7
BRANCH   6  32
ATOM     32  C   UNL     1      -2.721  10.041   6.723  1.00  0.00     0.037 C 
BRANCH  32  33
ATOM     33  C   UNL     1      -1.835  11.289   6.835  1.00  0.00     0.026 C 
BRANCH  33  34
ATOM     34  C   UNL     1      -0.718  11.124   7.866  1.00  0.00     0.146 C 
BRANCH  34  35
ATOM     35  N   UNL     1       0.565  11.149   7.177  1.00  0.00    -0.254 NA
ATOM     36  C   UNL     1       1.201  10.048   7.020  1.00  0.00     0.185 C 
ATOM     37  N   UNL     1       2.381  10.059   6.382  1.00  0.00    -0.370 N 
ATOM     38  N   UNL     1       0.854   8.809   7.414  1.00  0.00    -0.370 N 
ATOM     39  H   UNL     1       2.706  10.956   6.045  1.00  0.00     0.159 HD
ATOM     40  H   UNL     1       2.852   9.228   6.069  1.00  0.00     0.159 HD
ATOM     41  H   UNL     1       1.505   8.043   7.356  1.00  0.00     0.159 HD
ATOM     42  H   UNL     1      -0.003   8.654   7.921  1.00  0.00     0.159 HD
ENDBRANCH  34  35
ENDBRANCH  33  34
ENDBRANCH  32  33
ENDBRANCH   6  32
ENDBRANCH   4   6
ENDBRANCH   1   2
BRANCH   1  43
ATOM     43  C   UNL     1      -8.076  10.192   5.392  1.00  0.00     0.102 C 
ATOM     44  C   UNL     1      -9.194   9.715   4.449  1.00  0.00     0.020 C 
BRANCH  43  45
ATOM     45  C   UNL     1      -8.567  10.594   6.786  1.00  0.00     0.225 C 
ATOM     46  O   UNL     1      -9.283  11.570   6.989  1.00  0.00    -0.275 OA
ATOM     47  N   UNL     1      -8.078   9.839   7.827  1.00  0.00    -0.342 N 
ATOM     48  H   UNL     1      -7.621   8.958   7.635  1.00  0.00     0.164 HD
BRANCH  47  49
ATOM     49  C   UNL     1      -8.490  10.085   9.212  1.00  0.00     0.192 C 
BRANCH  49  50
ATOM     50  C   UNL     1      -7.265  10.444  10.057  1.00  0.00     0.047 C 
BRANCH  50  51
ATOM     51  C   UNL     1      -7.528  11.638  10.985  1.00  0.00     0.103 C 
BRANCH  51  52
ATOM     52  C   UNL     1      -7.999  11.195  12.369  1.00  0.00     0.226 C 
ATOM     53  O   UNL     1      -7.737  10.059  12.768  1.00  0.00    -0.275 OA
BRANCH  52  54
ATOM     54  N   UNL     1      -8.654  12.167  13.149  1.00  0.00    -0.311 N 
ATOM     55  C   UNL     1      -8.082  12.626  14.422  1.00  0.00     0.153 C 
BRANCH  54  56
ATOM     56  C   UNL     1      -9.870  12.736  12.739  1.00  0.00     0.102 C 
ATOM     57  C   UNL     1     -10.226  14.016  12.940  1.00  0.00     0.043 C 
BRANCH  56  58
ATOM     58  C   UNL     1     -10.887  11.924  11.971  1.00  0.00     0.268 C 
ATOM     59  O   UNL     1     -11.070  12.046  10.767  1.00  0.00    -0.268 OA
ATOM     60  N   UNL     1     -11.533  10.993  12.748  1.00  0.00    -0.339 N 
ATOM     61  H   UNL     1     -11.332  10.962  13.740  1.00  0.00     0.164 HD
BRANCH  60  62
ATOM     62  C   UNL     1     -12.511  10.059  12.193  1.00  0.00     0.168 CG0
ATOM     63  C   UNL     1     -13.907  10.344  12.733  1.00  0.00     0.041 C 
ATOM     64  G   UNL     1     -12.086   8.612  12.516  1.00  0.00     0.000 G0
ENDBRANCH  60  62
ENDBRANCH  56  58
ENDBRANCH  54  56
ENDBRANCH  52  54
ENDBRANCH  51  52
ENDBRANCH  50  51
ENDBRANCH  49  50
BRANCH  49  65
ATOM     65  C   UNL     1      -9.188   8.860   9.822  1.00  0.00     0.326 C 
ATOM     66  O   UNL     1     -10.362   8.558   9.664  1.00  0.00    -0.250 OA
BRANCH  65  67
ATOM     67  O   UNL     1      -8.409   8.116  10.638  1.00  0.00    -0.480 OA
ATOM     68  H   UNL     1      -7.570   8.623  10.683  1.00  0.00     0.296 HD
ENDBRANCH  65  67
ENDBRANCH  49  65
ENDBRANCH  47  49
ENDBRANCH  43  45
ENDBRANCH   1  43
BRANCH   1  69
ATOM     69  C   UNL     1      -7.509  11.830   3.391  1.00  0.00    -0.001 C 
ATOM     70  C   UNL     1      -8.233  12.922   3.086  1.00  0.00     0.001 C 
BRANCH  70  71
ATOM     71  C   UNL     1      -8.529  13.434   1.746  1.00  0.00    -0.055 C 
ATOM     72  C   UNL     1      -7.488  13.814   0.975  1.00  0.00    -0.018 C 
ATOM     73  C   UNL     1      -9.973  13.493   1.320  1.00  0.00     0.044 C 
BRANCH  72  74
ATOM     74  C   UNL     1      -7.492  14.373  -0.440  1.00  0.00     0.038 C 
ATOM     75  C   UNL     1      -6.637  13.435  -1.300  1.00  0.00     0.015 C 
BRANCH  74  76
ATOM     76  C   UNL     1      -6.998  15.850  -0.397  1.00  0.00     0.128 C 
BRANCH  76  77
ATOM     77  O   UNL     1      -7.737  16.642  -1.342  1.00  0.00    -0.381 OA
ATOM     78  C   UNL     1      -6.935  17.178  -2.387  1.00  0.00     0.195 C 
ENDBRANCH  76  77
BRANCH  76  79
ATOM     79  C   UNL     1      -6.987  16.468   1.024  1.00  0.00     0.068 C 
BRANCH  79  80
ATOM     80  C   UNL     1      -5.889  17.448   1.360  1.00  0.00    -0.045 A 
ATOM     81  C   UNL     1      -6.165  18.627   2.065  1.00  0.00     0.004 A 
ATOM     82  C   UNL     1      -4.572  17.205   0.943  1.00  0.00     0.004 A 
ATOM     83  C   UNL     1      -5.147  19.536   2.359  1.00  0.00     0.000 A 
ATOM     84  C   UNL     1      -3.554  18.115   1.237  1.00  0.00     0.000 A 
ATOM     85  C   UNL     1      -3.841  19.279   1.946  1.00  0.00     0.000 A 
ENDBRANCH  79  80
ENDBRANCH  76  79
ENDBRANCH  74  76
ENDBRANCH  72  74
ENDBRANCH  70  71
ENDBRANCH   1  69
TORSDOF 17
ENDMDL
MODEL 23
REMARK VINA RESULT:    -6.195      5.192      8.628
REMARK INTER + INTRA:         -25.707
REMARK INTER:                 -19.217
REMARK INTRA:                  -6.490
REMARK UNBOUND:                -7.200
REMARK SMILES C=C1C(=O)N[C@H](C)C(=O)N[C@@H](CC(C)C)C(=O)N[C@@H](C(=O)O)[C@H](C)C(=O)N[C@@H](CCCN=C(N)N)C(=O)N[C@@H](/C=C/C(C)=C/[C@H](C)[C@H](Cc2ccccc2)OC)[C@H](C)C(=O)N[C@@H](C(=O)O)CCC(=O)N1C
REMARK SMILES IDX 39 1 38 2 37 3 36 4 28 6 27 7 25 8 26 9 23 11 24 12 19 13
REMARK SMILES IDX 18 14 16 15 17 16 11 18 10 19 8 20 9 21 12 24 13 25 14 26
REMARK SMILES IDX 15 27 20 28 21 29 22 30 29 32 30 33 31 34 32 35 33 36 34 37
REMARK SMILES IDX 35 38 57 43 58 44 59 45 60 46 61 47 62 49 66 50 67 51 68 52
REMARK SMILES IDX 69 53 70 54 71 55 2 56 1 57 3 58 4 59 5 60 6 62 7 63 63 65
REMARK SMILES IDX 64 66 65 67 40 69 41 70 42 71 44 72 43 73 45 74 46 75 47 76
REMARK SMILES IDX 55 77 56 78 48 79 49 80 50 81 54 82 51 83 53 84 52 85
REMARK H PARENT 38 5 27 10 18 17 10 22 22 31 34 39 34 40 35 41 35 42 61 48
REMARK H PARENT 5 61 65 68
REMARK Flexibility Score:  369.900
ROOT
ATOM      1  C   UNL     1       0.592  10.169   3.950  1.00  0.00     0.117 C 
ENDROOT
BRANCH   1   2
ATOM      2  N   UNL     1       1.512   9.148   4.451  1.00  0.00    -0.347 N 
ATOM      3  O   UNL     1       3.102  10.558   5.319  1.00  0.00    -0.273 OA
ATOM      4  C   UNL     1       2.653   9.425   5.179  1.00  0.00     0.243 C 
ATOM      5  H   UNL     1       1.294   8.173   4.309  1.00  0.00     0.164 HD
BRANCH   4   6
ATOM      6  C   UNL     1       3.406   8.160   5.663  1.00  0.00     0.171 C 
BRANCH   6   7
ATOM      7  N   UNL     1       3.097   7.013   4.794  1.00  0.00    -0.344 N 
ATOM      8  C   UNL     1       3.611   6.941   3.518  1.00  0.00     0.226 C 
ATOM      9  O   UNL     1       4.319   7.819   3.040  1.00  0.00    -0.275 OA
ATOM     10  H   UNL     1       2.461   6.301   5.130  1.00  0.00     0.164 HD
BRANCH   8  11
ATOM     11  C   UNL     1       3.246   5.671   2.768  1.00  0.00     0.109 C 
ATOM     12  C   UNL     1       2.894   6.001   1.317  1.00  0.00     0.021 C 
BRANCH  11  13
ATOM     13  C   UNL     1       4.364   4.623   2.942  1.00  0.00     0.204 C 
BRANCH  13  14
ATOM     14  N   UNL     1       5.614   5.224   3.418  1.00  0.00    -0.340 N 
ATOM     15  C   UNL     1       6.853   4.681   3.154  1.00  0.00     0.243 C 
ATOM     16  O   UNL     1       7.001   3.685   2.448  1.00  0.00    -0.273 OA
ATOM     17  H   UNL     1       5.554   5.957   4.130  1.00  0.00     0.164 HD
BRANCH  15  18
ATOM     18  C   UNL     1       8.005   5.364   3.930  1.00  0.00     0.171 C 
BRANCH  18  19
ATOM     19  N   UNL     1       9.134   5.459   3.005  1.00  0.00    -0.343 N 
ATOM     20  C   UNL     1      10.167   4.541   3.020  1.00  0.00     0.242 CG0
ATOM     21  O   UNL     1      10.253   3.683   3.896  1.00  0.00    -0.273 OA
ATOM     22  H   UNL     1       9.166   6.220   2.337  1.00  0.00     0.164 HD
ATOM     23  G   UNL     1      11.226   4.758   1.920  1.00  0.00     0.000 G0
ENDBRANCH  18  19
BRANCH  18  24
ATOM     24  C   UNL     1       7.574   6.747   4.433  1.00  0.00     0.038 C 
BRANCH  24  25
ATOM     25  C   UNL     1       8.500   7.906   4.006  1.00  0.00    -0.015 C 
ATOM     26  C   UNL     1       9.161   8.597   5.199  1.00  0.00     0.007 C 
ATOM     27  C   UNL     1       7.703   8.930   3.194  1.00  0.00     0.007 C 
ENDBRANCH  24  25
ENDBRANCH  18  24
ENDBRANCH  15  18
ENDBRANCH  13  14
BRANCH  13  28
ATOM     28  C   UNL     1       3.995   3.505   3.922  1.00  0.00     0.327 C 
ATOM     29  O   UNL     1       4.263   2.319   3.799  1.00  0.00    -0.250 OA
BRANCH  28  30
ATOM     30  O   UNL     1       3.211   3.927   4.934  1.00  0.00    -0.480 OA
ATOM     31  H   UNL     1       2.784   4.737   4.587  1.00  0.00     0.296 HD
ENDBRANCH  28  30
ENDBRANCH  13  28
ENDBRANCH  11  13
ENDBRANCH   8  11
ENDBRANCH   6   7
BRANCH   6  32
ATOM     32  C   UNL     1       4.912   8.445   5.679  1.00  0.00     0.037 C 
BRANCH  32  33
ATOM     33  C   UNL     1       5.465   8.559   7.106  1.00  0.00     0.026 C 
BRANCH  33  34
ATOM     34  C   UNL     1       5.182   7.312   7.945  1.00  0.00     0.146 C 
BRANCH  34  35
ATOM     35  N   UNL     1       5.906   6.186   7.372  1.00  0.00    -0.254 NA
ATOM     36  C   UNL     1       5.314   5.053   7.288  1.00  0.00     0.185 C 
ATOM     37  N   UNL     1       5.971   4.010   6.757  1.00  0.00    -0.370 N 
ATOM     38  N   UNL     1       4.067   4.722   7.667  1.00  0.00    -0.370 N 
ATOM     39  H   UNL     1       6.915   4.183   6.437  1.00  0.00     0.159 HD
ATOM     40  H   UNL     1       5.526   3.146   6.499  1.00  0.00     0.159 HD
ATOM     41  H   UNL     1       3.764   3.762   7.677  1.00  0.00     0.159 HD
ATOM     42  H   UNL     1       3.464   5.405   8.098  1.00  0.00     0.159 HD
ENDBRANCH  34  35
ENDBRANCH  33  34
ENDBRANCH  32  33
ENDBRANCH   6  32
ENDBRANCH   4   6
ENDBRANCH   1   2
BRANCH   1  43
ATOM     43  C   UNL     1      -0.835   9.854   4.484  1.00  0.00     0.102 C 
ATOM     44  C   UNL     1      -1.183   8.356   4.455  1.00  0.00     0.020 C 
BRANCH  43  45
ATOM     45  C   UNL     1      -1.883  10.748   3.814  1.00  0.00     0.225 C 
ATOM     46  O   UNL     1      -2.109  11.901   4.171  1.00  0.00    -0.275 OA
ATOM     47  N   UNL     1      -2.635  10.145   2.831  1.00  0.00    -0.342 N 
ATOM     48  H   UNL     1      -2.339   9.259   2.448  1.00  0.00     0.164 HD
BRANCH  47  49
ATOM     49  C   UNL     1      -3.650  10.889   2.079  1.00  0.00     0.192 C 
BRANCH  49  50
ATOM     50  C   UNL     1      -4.951  10.083   2.036  1.00  0.00     0.047 C 
BRANCH  50  51
ATOM     51  C   UNL     1      -6.166  10.917   2.464  1.00  0.00     0.103 C 
BRANCH  51  52
ATOM     52  C   UNL     1      -6.313  10.980   3.983  1.00  0.00     0.226 C 
ATOM     53  O   UNL     1      -5.337  10.748   4.700  1.00  0.00    -0.275 OA
BRANCH  52  54
ATOM     54  N   UNL     1      -7.568  11.382   4.476  1.00  0.00    -0.311 N 
ATOM     55  C   UNL     1      -8.109  12.713   4.170  1.00  0.00     0.153 C 
BRANCH  54  56
ATOM     56  C   UNL     1      -8.351  10.528   5.270  1.00  0.00     0.102 C 
ATOM     57  C   UNL     1      -9.283   9.682   4.801  1.00  0.00     0.043 C 
BRANCH  56  58
ATOM     58  C   UNL     1      -8.157  10.468   6.767  1.00  0.00     0.268 C 
ATOM     59  O   UNL     1      -7.491  11.284   7.389  1.00  0.00    -0.268 OA
ATOM     60  N   UNL     1      -8.858   9.446   7.362  1.00  0.00    -0.339 N 
ATOM     61  H   UNL     1      -9.379   8.805   6.774  1.00  0.00     0.164 HD
BRANCH  60  62
ATOM     62  C   UNL     1      -8.862   9.243   8.810  1.00  0.00     0.168 CG0
ATOM     63  C   UNL     1      -9.229   7.807   9.161  1.00  0.00     0.041 C 
ATOM     64  G   UNL     1      -9.845  10.234   9.468  1.00  0.00     0.000 G0
ENDBRANCH  60  62
ENDBRANCH  56  58
ENDBRANCH  54  56
ENDBRANCH  52  54
ENDBRANCH  51  52
ENDBRANCH  50  51
ENDBRANCH  49  50
BRANCH  49  65
ATOM     65  C   UNL     1      -3.188  11.185   0.643  1.00  0.00     0.326 C 
ATOM     66  O   UNL     1      -2.222  11.868   0.334  1.00  0.00    -0.250 OA
BRANCH  65  67
ATOM     67  O   UNL     1      -3.980  10.669  -0.322  1.00  0.00    -0.480 OA
ATOM     68  H   UNL     1      -4.347  11.463  -0.769  1.00  0.00     0.296 HD
ENDBRANCH  65  67
ENDBRANCH  49  65
ENDBRANCH  47  49
ENDBRANCH  43  45
ENDBRANCH   1  43
BRANCH   1  69
ATOM     69  C   UNL     1       0.815  10.242   2.450  1.00  0.00    -0.001 C 
ATOM     70  C   UNL     1       1.498  11.179   1.770  1.00  0.00     0.001 C 
BRANCH  70  71
ATOM     71  C   UNL     1       1.725  11.228   0.325  1.00  0.00    -0.055 C 
ATOM     72  C   UNL     1       1.230  12.284  -0.353  1.00  0.00    -0.018 C 
ATOM     73  C   UNL     1       2.501  10.099  -0.303  1.00  0.00     0.044 C 
BRANCH  72  74
ATOM     74  C   UNL     1       1.312  12.599  -1.840  1.00  0.00     0.038 C 
ATOM     75  C   UNL     1       2.434  13.628  -2.024  1.00  0.00     0.015 C 
BRANCH  74  76
ATOM     76  C   UNL     1      -0.090  13.068  -2.331  1.00  0.00     0.128 C 
BRANCH  76  77
ATOM     77  O   UNL     1       0.051  14.186  -3.223  1.00  0.00    -0.381 OA
ATOM     78  C   UNL     1      -1.009  14.304  -4.163  1.00  0.00     0.195 C 
ENDBRANCH  76  77
BRANCH  76  79
ATOM     79  C   UNL     1      -0.960  11.932  -2.926  1.00  0.00     0.068 C 
BRANCH  79  80
ATOM     80  C   UNL     1      -0.254  10.743  -3.530  1.00  0.00    -0.045 A 
ATOM     81  C   UNL     1       0.258  10.792  -4.834  1.00  0.00     0.004 A 
ATOM     82  C   UNL     1      -0.124   9.551  -2.800  1.00  0.00     0.004 A 
ATOM     83  C   UNL     1       0.898   9.683  -5.390  1.00  0.00     0.000 A 
ATOM     84  C   UNL     1       0.515   8.442  -3.359  1.00  0.00     0.000 A 
ATOM     85  C   UNL     1       1.027   8.509  -4.652  1.00  0.00     0.000 A 
ENDBRANCH  79  80
ENDBRANCH  76  79
ENDBRANCH  74  76
ENDBRANCH  72  74
ENDBRANCH  70  71
ENDBRANCH   1  69
TORSDOF 17
ENDMDL
MODEL 24
REMARK VINA RESULT:    -6.190      4.396      9.321
REMARK INTER + INTRA:         -25.693
REMARK INTER:                 -19.490
REMARK INTRA:                  -6.203
REMARK UNBOUND:                -7.200
REMARK SMILES C=C1C(=O)N[C@H](C)C(=O)N[C@@H](CC(C)C)C(=O)N[C@@H](C(=O)O)[C@H](C)C(=O)N[C@@H](CCCN=C(N)N)C(=O)N[C@@H](/C=C/C(C)=C/[C@H](C)[C@H](Cc2ccccc2)OC)[C@H](C)C(=O)N[C@@H](C(=O)O)CCC(=O)N1C
REMARK SMILES IDX 39 1 38 2 37 3 36 4 28 6 27 7 25 8 26 9 23 11 24 12 19 13
REMARK SMILES IDX 18 14 16 15 17 16 11 18 10 19 8 20 9 21 12 24 13 25 14 26
REMARK SMILES IDX 15 27 20 28 21 29 22 30 29 32 30 33 31 34 32 35 33 36 34 37
REMARK SMILES IDX 35 38 57 43 58 44 59 45 60 46 61 47 62 49 66 50 67 51 68 52
REMARK SMILES IDX 69 53 70 54 71 55 2 56 1 57 3 58 4 59 5 60 6 62 7 63 63 65
REMARK SMILES IDX 64 66 65 67 40 69 41 70 42 71 44 72 43 73 45 74 46 75 47 76
REMARK SMILES IDX 55 77 56 78 48 79 49 80 50 81 54 82 51 83 53 84 52 85
REMARK H PARENT 38 5 27 10 18 17 10 22 22 31 34 39 34 40 35 41 35 42 61 48
REMARK H PARENT 5 61 65 68
REMARK Flexibility Score:  369.900
ROOT
ATOM      1  C   UNL     1      -3.411   9.726   6.885  1.00  0.00     0.117 C 
ENDROOT
BRANCH   1   2
ATOM      2  N   UNL     1      -2.312   9.840   5.926  1.00  0.00    -0.347 N 
ATOM      3  O   UNL     1      -3.512  10.719   4.177  1.00  0.00    -0.273 OA
ATOM      4  C   UNL     1      -2.433  10.415   4.675  1.00  0.00     0.243 C 
ATOM      5  H   UNL     1      -1.389   9.532   6.192  1.00  0.00     0.164 HD
BRANCH   4   6
ATOM      6  C   UNL     1      -1.099  10.488   3.891  1.00  0.00     0.171 C 
BRANCH   6   7
ATOM      7  N   UNL     1      -0.457   9.165   3.843  1.00  0.00    -0.344 N 
ATOM      8  C   UNL     1       0.851   9.003   4.248  1.00  0.00     0.226 C 
ATOM      9  O   UNL     1       1.541   9.937   4.640  1.00  0.00    -0.275 OA
ATOM     10  H   UNL     1      -0.973   8.382   3.461  1.00  0.00     0.164 HD
BRANCH   8  11
ATOM     11  C   UNL     1       1.351   7.570   4.190  1.00  0.00     0.109 C 
ATOM     12  C   UNL     1       0.178   6.599   4.319  1.00  0.00     0.021 C 
BRANCH  11  13
ATOM     13  C   UNL     1       2.222   7.372   2.934  1.00  0.00     0.204 C 
BRANCH  13  14
ATOM     14  N   UNL     1       3.133   6.231   3.068  1.00  0.00    -0.340 N 
ATOM     15  C   UNL     1       4.496   6.375   3.206  1.00  0.00     0.243 C 
ATOM     16  O   UNL     1       5.040   7.475   3.288  1.00  0.00    -0.273 OA
ATOM     17  H   UNL     1       2.768   5.298   2.857  1.00  0.00     0.164 HD
BRANCH  15  18
ATOM     18  C   UNL     1       5.271   5.037   3.121  1.00  0.00     0.171 C 
BRANCH  18  19
ATOM     19  N   UNL     1       6.593   5.281   3.693  1.00  0.00    -0.343 N 
ATOM     20  C   UNL     1       7.716   4.610   3.247  1.00  0.00     0.242 CG0
ATOM     21  O   UNL     1       7.635   3.684   2.443  1.00  0.00    -0.273 OA
ATOM     22  H   UNL     1       6.694   5.956   4.443  1.00  0.00     0.164 HD
ATOM     23  G   UNL     1       9.032   5.058   3.915  1.00  0.00     0.000 G0
ENDBRANCH  18  19
BRANCH  18  24
ATOM     24  C   UNL     1       4.526   3.931   3.879  1.00  0.00     0.038 C 
BRANCH  24  25
ATOM     25  C   UNL     1       4.736   3.943   5.408  1.00  0.00    -0.015 C 
ATOM     26  C   UNL     1       5.235   2.600   5.941  1.00  0.00     0.007 C 
ATOM     27  C   UNL     1       3.427   4.320   6.104  1.00  0.00     0.007 C 
ENDBRANCH  24  25
ENDBRANCH  18  24
ENDBRANCH  15  18
ENDBRANCH  13  14
BRANCH  13  28
ATOM     28  C   UNL     1       1.401   7.150   1.659  1.00  0.00     0.327 C 
ATOM     29  O   UNL     1       1.263   6.093   1.064  1.00  0.00    -0.250 OA
BRANCH  28  30
ATOM     30  O   UNL     1       0.904   8.293   1.145  1.00  0.00    -0.480 OA
ATOM     31  H   UNL     1       0.869   8.906   1.909  1.00  0.00     0.296 HD
ENDBRANCH  28  30
ENDBRANCH  13  28
ENDBRANCH  11  13
ENDBRANCH   8  11
ENDBRANCH   6   7
BRANCH   6  32
ATOM     32  C   UNL     1      -1.374  11.015   2.478  1.00  0.00     0.037 C 
BRANCH  32  33
ATOM     33  C   UNL     1      -0.135  11.672   1.853  1.00  0.00     0.026 C 
BRANCH  33  34
ATOM     34  C   UNL     1      -0.165  11.642   0.325  1.00  0.00     0.146 C 
BRANCH  34  35
ATOM     35  N   UNL     1      -1.179  12.576  -0.143  1.00  0.00    -0.254 NA
ATOM     36  C   UNL     1      -2.131  12.133  -0.877  1.00  0.00     0.185 C 
ATOM     37  N   UNL     1      -3.074  12.984  -1.310  1.00  0.00    -0.370 N 
ATOM     38  N   UNL     1      -2.351  10.878  -1.307  1.00  0.00    -0.370 N 
ATOM     39  H   UNL     1      -2.983  13.949  -1.018  1.00  0.00     0.159 HD
ATOM     40  H   UNL     1      -3.936  12.690  -1.736  1.00  0.00     0.159 HD
ATOM     41  H   UNL     1      -3.059  10.680  -1.996  1.00  0.00     0.159 HD
ATOM     42  H   UNL     1      -1.712  10.135  -1.071  1.00  0.00     0.159 HD
ENDBRANCH  34  35
ENDBRANCH  33  34
ENDBRANCH  32  33
ENDBRANCH   6  32
ENDBRANCH   4   6
ENDBRANCH   1   2
BRANCH   1  43
ATOM     43  C   UNL     1      -3.726  11.142   7.447  1.00  0.00     0.102 C 
ATOM     44  C   UNL     1      -3.456  11.276   8.956  1.00  0.00     0.020 C 
BRANCH  43  45
ATOM     45  C   UNL     1      -5.124  11.604   7.023  1.00  0.00     0.225 C 
ATOM     46  O   UNL     1      -5.694  12.567   7.528  1.00  0.00    -0.275 OA
ATOM     47  N   UNL     1      -5.753  10.810   6.092  1.00  0.00    -0.342 N 
ATOM     48  H   UNL     1      -5.220  10.120   5.581  1.00  0.00     0.164 HD
BRANCH  47  49
ATOM     49  C   UNL     1      -7.079  11.149   5.567  1.00  0.00     0.192 C 
BRANCH  49  50
ATOM     50  C   UNL     1      -8.107  10.133   6.071  1.00  0.00     0.047 C 
BRANCH  50  51
ATOM     51  C   UNL     1      -9.228  10.794   6.886  1.00  0.00     0.103 C 
BRANCH  51  52
ATOM     52  C   UNL     1      -8.777  11.146   8.302  1.00  0.00     0.226 C 
ATOM     53  O   UNL     1      -8.859  12.310   8.697  1.00  0.00    -0.275 OA
BRANCH  52  54
ATOM     54  N   UNL     1      -8.355  10.073   9.110  1.00  0.00    -0.311 N 
ATOM     55  C   UNL     1      -6.950   9.941   9.518  1.00  0.00     0.153 C 
BRANCH  54  56
ATOM     56  C   UNL     1      -9.258   9.096   9.559  1.00  0.00     0.102 C 
ATOM     57  C   UNL     1      -9.237   7.804   9.193  1.00  0.00     0.043 C 
BRANCH  56  58
ATOM     58  C   UNL     1     -10.333   9.437  10.563  1.00  0.00     0.268 C 
ATOM     59  O   UNL     1     -10.349   8.994  11.704  1.00  0.00    -0.268 OA
ATOM     60  N   UNL     1     -11.250  10.343  10.086  1.00  0.00    -0.339 N 
ATOM     61  H   UNL     1     -11.173  10.654   9.125  1.00  0.00     0.164 HD
BRANCH  60  62
ATOM     62  C   UNL     1     -12.339  10.859  10.915  1.00  0.00     0.168 CG0
ATOM     63  C   UNL     1     -13.696  10.501  10.319  1.00  0.00     0.041 C 
ATOM     64  G   UNL     1     -12.195  12.387  11.066  1.00  0.00     0.000 G0
ENDBRANCH  60  62
ENDBRANCH  56  58
ENDBRANCH  54  56
ENDBRANCH  52  54
ENDBRANCH  51  52
ENDBRANCH  50  51
ENDBRANCH  49  50
BRANCH  49  65
ATOM     65  C   UNL     1      -7.092  11.166   4.030  1.00  0.00     0.326 C 
ATOM     66  O   UNL     1      -7.745  11.929   3.334  1.00  0.00    -0.250 OA
BRANCH  65  67
ATOM     67  O   UNL     1      -6.345  10.201   3.449  1.00  0.00    -0.480 OA
ATOM     68  H   UNL     1      -6.874   9.940   2.665  1.00  0.00     0.296 HD
ENDBRANCH  65  67
ENDBRANCH  49  65
ENDBRANCH  47  49
ENDBRANCH  43  45
ENDBRANCH   1  43
BRANCH   1  69
ATOM     69  C   UNL     1      -3.018   8.624   7.851  1.00  0.00    -0.001 C 
ATOM     70  C   UNL     1      -2.444   7.444   7.556  1.00  0.00     0.001 C 
BRANCH  70  71
ATOM     71  C   UNL     1      -2.049   6.397   8.500  1.00  0.00    -0.055 C 
ATOM     72  C   UNL     1      -2.300   5.116   8.157  1.00  0.00    -0.018 C 
ATOM     73  C   UNL     1      -1.384   6.822   9.783  1.00  0.00     0.044 C 
BRANCH  72  74
ATOM     74  C   UNL     1      -2.002   3.837   8.926  1.00  0.00     0.038 C 
ATOM     75  C   UNL     1      -1.455   2.819   7.918  1.00  0.00     0.015 C 
BRANCH  74  76
ATOM     76  C   UNL     1      -3.294   3.389   9.671  1.00  0.00     0.128 C 
BRANCH  76  77
ATOM     77  O   UNL     1      -3.239   1.978   9.944  1.00  0.00    -0.381 OA
ATOM     78  C   UNL     1      -2.618   1.659  11.181  1.00  0.00     0.195 C 
ENDBRANCH  76  77
BRANCH  76  79
ATOM     79  C   UNL     1      -3.618   4.230  10.931  1.00  0.00     0.068 C 
BRANCH  79  80
ATOM     80  C   UNL     1      -5.062   4.329  11.363  1.00  0.00    -0.045 A 
ATOM     81  C   UNL     1      -5.990   5.067  10.616  1.00  0.00     0.004 A 
ATOM     82  C   UNL     1      -5.491   3.702  12.542  1.00  0.00     0.004 A 
ATOM     83  C   UNL     1      -7.320   5.165  11.031  1.00  0.00     0.000 A 
ATOM     84  C   UNL     1      -6.822   3.802  12.956  1.00  0.00     0.000 A 
ATOM     85  C   UNL     1      -7.735   4.531  12.199  1.00  0.00     0.000 A 
ENDBRANCH  79  80
ENDBRANCH  76  79
ENDBRANCH  74  76
ENDBRANCH  72  74
ENDBRANCH  70  71
ENDBRANCH   1  69
TORSDOF 17
ENDMDL
MODEL 25
REMARK VINA RESULT:    -6.182      4.560      8.175
REMARK INTER + INTRA:         -25.670
REMARK INTER:                 -19.133
REMARK INTRA:                  -6.537
REMARK UNBOUND:                -7.200
REMARK SMILES C=C1C(=O)N[C@H](C)C(=O)N[C@@H](CC(C)C)C(=O)N[C@@H](C(=O)O)[C@H](C)C(=O)N[C@@H](CCCN=C(N)N)C(=O)N[C@@H](/C=C/C(C)=C/[C@H](C)[C@H](Cc2ccccc2)OC)[C@H](C)C(=O)N[C@@H](C(=O)O)CCC(=O)N1C
REMARK SMILES IDX 39 1 38 2 37 3 36 4 28 6 27 7 25 8 26 9 23 11 24 12 19 13
REMARK SMILES IDX 18 14 16 15 17 16 11 18 10 19 8 20 9 21 12 24 13 25 14 26
REMARK SMILES IDX 15 27 20 28 21 29 22 30 29 32 30 33 31 34 32 35 33 36 34 37
REMARK SMILES IDX 35 38 57 43 58 44 59 45 60 46 61 47 62 49 66 50 67 51 68 52
REMARK SMILES IDX 69 53 70 54 71 55 2 56 1 57 3 58 4 59 5 60 6 62 7 63 63 65
REMARK SMILES IDX 64 66 65 67 40 69 41 70 42 71 44 72 43 73 45 74 46 75 47 76
REMARK SMILES IDX 55 77 56 78 48 79 49 80 50 81 54 82 51 83 53 84 52 85
REMARK H PARENT 38 5 27 10 18 17 10 22 22 31 34 39 34 40 35 41 35 42 61 48
REMARK H PARENT 5 61 65 68
REMARK Flexibility Score:  369.900
ROOT
ATOM      1  C   UNL     1      -0.193  11.269   3.511  1.00  0.00     0.117 C 
ENDROOT
BRANCH   1   2
ATOM      2  N   UNL     1       1.035  10.684   2.971  1.00  0.00    -0.347 N 
ATOM      3  O   UNL     1       2.474  12.369   3.572  1.00  0.00    -0.273 OA
ATOM      4  C   UNL     1       2.290  11.241   3.127  1.00  0.00     0.243 C 
ATOM      5  H   UNL     1       0.993   9.795   2.496  1.00  0.00     0.164 HD
BRANCH   4   6
ATOM      6  C   UNL     1       3.433  10.378   2.535  1.00  0.00     0.171 C 
BRANCH   6   7
ATOM      7  N   UNL     1       2.904   9.099   2.032  1.00  0.00    -0.344 N 
ATOM      8  C   UNL     1       2.585   8.080   2.903  1.00  0.00     0.226 C 
ATOM      9  O   UNL     1       2.741   8.174   4.115  1.00  0.00    -0.275 OA
ATOM     10  H   UNL     1       2.825   8.960   1.033  1.00  0.00     0.164 HD
BRANCH   8  11
ATOM     11  C   UNL     1       2.001   6.847   2.236  1.00  0.00     0.109 C 
ATOM     12  C   UNL     1       1.801   7.103   0.742  1.00  0.00     0.021 C 
BRANCH  11  13
ATOM     13  C   UNL     1       2.862   5.614   2.573  1.00  0.00     0.204 C 
BRANCH  13  14
ATOM     14  N   UNL     1       4.173   5.988   3.114  1.00  0.00    -0.340 N 
ATOM     15  C   UNL     1       5.278   5.169   3.032  1.00  0.00     0.243 C 
ATOM     16  O   UNL     1       5.257   4.090   2.443  1.00  0.00    -0.273 OA
ATOM     17  H   UNL     1       4.220   6.795   3.742  1.00  0.00     0.164 HD
BRANCH  15  18
ATOM     18  C   UNL     1       6.488   5.679   3.851  1.00  0.00     0.171 C 
BRANCH  18  19
ATOM     19  N   UNL     1       7.597   5.829   2.911  1.00  0.00    -0.343 N 
ATOM     20  C   UNL     1       8.653   4.938   2.881  1.00  0.00     0.242 CG0
ATOM     21  O   UNL     1       8.775   4.057   3.730  1.00  0.00    -0.273 OA
ATOM     22  H   UNL     1       7.600   6.610   2.265  1.00  0.00     0.164 HD
ATOM     23  G   UNL     1       9.687   5.213   1.770  1.00  0.00     0.000 G0
ENDBRANCH  18  19
BRANCH  18  24
ATOM     24  C   UNL     1       6.154   7.008   4.541  1.00  0.00     0.038 C 
BRANCH  24  25
ATOM     25  C   UNL     1       7.294   7.592   5.402  1.00  0.00    -0.015 C 
ATOM     26  C   UNL     1       6.938   7.647   6.887  1.00  0.00     0.007 C 
ATOM     27  C   UNL     1       7.647   8.996   4.904  1.00  0.00     0.007 C 
ENDBRANCH  24  25
ENDBRANCH  18  24
ENDBRANCH  15  18
ENDBRANCH  13  14
BRANCH  13  28
ATOM     28  C   UNL     1       2.203   4.676   3.588  1.00  0.00     0.327 C 
ATOM     29  O   UNL     1       2.363   4.694   4.799  1.00  0.00    -0.250 OA
BRANCH  28  30
ATOM     30  O   UNL     1       1.476   3.698   3.010  1.00  0.00    -0.480 OA
ATOM     31  H   UNL     1       1.338   4.011   2.092  1.00  0.00     0.296 HD
ENDBRANCH  28  30
ENDBRANCH  13  28
ENDBRANCH  11  13
ENDBRANCH   8  11
ENDBRANCH   6   7
BRANCH   6  32
ATOM     32  C   UNL     1       4.127  11.161   1.415  1.00  0.00     0.037 C 
BRANCH  32  33
ATOM     33  C   UNL     1       3.446  10.954   0.055  1.00  0.00     0.026 C 
BRANCH  33  34
ATOM     34  C   UNL     1       3.011  12.272  -0.588  1.00  0.00     0.146 C 
BRANCH  34  35
ATOM     35  N   UNL     1       3.656  13.372   0.115  1.00  0.00    -0.254 NA
ATOM     36  C   UNL     1       3.665  14.530  -0.433  1.00  0.00     0.185 C 
ATOM     37  N   UNL     1       4.251  15.553   0.208  1.00  0.00    -0.370 N 
ATOM     38  N   UNL     1       3.151  14.908  -1.617  1.00  0.00    -0.370 N 
ATOM     39  H   UNL     1       4.654  15.350   1.114  1.00  0.00     0.159 HD
ATOM     40  H   UNL     1       4.150  16.514  -0.068  1.00  0.00     0.159 HD
ATOM     41  H   UNL     1       3.344  15.818  -2.002  1.00  0.00     0.159 HD
ATOM     42  H   UNL     1       2.694  14.238  -2.215  1.00  0.00     0.159 HD
ENDBRANCH  34  35
ENDBRANCH  33  34
ENDBRANCH  32  33
ENDBRANCH   6  32
ENDBRANCH   4   6
ENDBRANCH   1   2
BRANCH   1  43
ATOM     43  C   UNL     1      -0.957  10.170   4.304  1.00  0.00     0.102 C 
ATOM     44  C   UNL     1      -2.256   9.712   3.618  1.00  0.00     0.020 C 
BRANCH  43  45
ATOM     45  C   UNL     1      -1.138  10.576   5.770  1.00  0.00     0.225 C 
ATOM     46  O   UNL     1      -0.242  10.491   6.605  1.00  0.00    -0.275 OA
ATOM     47  N   UNL     1      -2.411  10.959   6.125  1.00  0.00    -0.342 N 
ATOM     48  H   UNL     1      -3.090  11.168   5.407  1.00  0.00     0.164 HD
BRANCH  47  49
ATOM     49  C   UNL     1      -2.725  11.408   7.486  1.00  0.00     0.192 C 
BRANCH  49  50
ATOM     50  C   UNL     1      -4.153  10.994   7.847  1.00  0.00     0.047 C 
BRANCH  50  51
ATOM     51  C   UNL     1      -4.901  10.381   6.656  1.00  0.00     0.103 C 
BRANCH  51  52
ATOM     52  C   UNL     1      -6.104  11.224   6.238  1.00  0.00     0.226 C 
ATOM     53  O   UNL     1      -6.428  12.202   6.914  1.00  0.00    -0.275 OA
BRANCH  52  54
ATOM     54  N   UNL     1      -6.734  10.863   5.033  1.00  0.00    -0.311 N 
ATOM     55  C   UNL     1      -5.949  10.437   3.866  1.00  0.00     0.153 C 
BRANCH  54  56
ATOM     56  C   UNL     1      -8.133  10.889   4.901  1.00  0.00     0.102 C 
ATOM     57  C   UNL     1      -8.980  10.061   5.533  1.00  0.00     0.043 C 
BRANCH  56  58
ATOM     58  C   UNL     1      -8.810  11.927   4.036  1.00  0.00     0.268 C 
ATOM     59  O   UNL     1      -8.425  13.085   3.954  1.00  0.00    -0.268 OA
ATOM     60  N   UNL     1      -9.858  11.420   3.305  1.00  0.00    -0.339 N 
ATOM     61  H   UNL     1     -10.121  10.451   3.439  1.00  0.00     0.164 HD
BRANCH  60  62
ATOM     62  C   UNL     1     -10.613  12.237   2.357  1.00  0.00     0.168 CG0
ATOM     63  C   UNL     1     -12.104  11.936   2.441  1.00  0.00     0.041 C 
ATOM     64  G   UNL     1     -10.087  11.989   0.928  1.00  0.00     0.000 G0
ENDBRANCH  60  62
ENDBRANCH  56  58
ENDBRANCH  54  56
ENDBRANCH  52  54
ENDBRANCH  51  52
ENDBRANCH  50  51
ENDBRANCH  49  50
BRANCH  49  65
ATOM     65  C   UNL     1      -2.585  12.932   7.626  1.00  0.00     0.326 C 
ATOM     66  O   UNL     1      -3.484  13.703   7.930  1.00  0.00    -0.250 OA
BRANCH  65  67
ATOM     67  O   UNL     1      -1.360  13.416   7.324  1.00  0.00    -0.480 OA
ATOM     68  H   UNL     1      -0.910  12.656   6.897  1.00  0.00     0.296 HD
ENDBRANCH  65  67
ENDBRANCH  49  65
ENDBRANCH  47  49
ENDBRANCH  43  45
ENDBRANCH   1  43
BRANCH   1  69
ATOM     69  C   UNL     1      -0.887  11.948   2.344  1.00  0.00    -0.001 C 
ATOM     70  C   UNL     1      -0.611  11.808   1.036  1.00  0.00     0.001 C 
BRANCH  70  71
ATOM     71  C   UNL     1      -1.302  12.453  -0.083  1.00  0.00    -0.055 C 
ATOM     72  C   UNL     1      -0.590  13.298  -0.857  1.00  0.00    -0.018 C 
ATOM     73  C   UNL     1      -2.756  12.121  -0.295  1.00  0.00     0.044 C 
BRANCH  72  74
ATOM     74  C   UNL     1      -1.035  14.097  -2.073  1.00  0.00     0.038 C 
ATOM     75  C   UNL     1      -1.915  15.245  -1.563  1.00  0.00     0.015 C 
BRANCH  74  76
ATOM     76  C   UNL     1      -1.736  13.134  -3.077  1.00  0.00     0.128 C 
BRANCH  76  77
ATOM     77  O   UNL     1      -2.795  13.824  -3.762  1.00  0.00    -0.381 OA
ATOM     78  C   UNL     1      -2.467  14.191  -5.096  1.00  0.00     0.195 C 
ENDBRANCH  76  77
BRANCH  76  79
ATOM     79  C   UNL     1      -0.762  12.417  -4.045  1.00  0.00     0.068 C 
BRANCH  79  80
ATOM     80  C   UNL     1      -0.082  11.159  -3.562  1.00  0.00    -0.045 A 
ATOM     81  C   UNL     1      -0.797  10.173  -2.870  1.00  0.00     0.004 A 
ATOM     82  C   UNL     1       1.292  10.971  -3.775  1.00  0.00     0.004 A 
ATOM     83  C   UNL     1      -0.157   9.018  -2.413  1.00  0.00     0.000 A 
ATOM     84  C   UNL     1       1.931   9.816  -3.317  1.00  0.00     0.000 A 
ATOM     85  C   UNL     1       1.206   8.840  -2.638  1.00  0.00     0.000 A 
ENDBRANCH  79  80
ENDBRANCH  76  79
ENDBRANCH  74  76
ENDBRANCH  72  74
ENDBRANCH  70  71
ENDBRANCH   1  69
TORSDOF 17
ENDMDL
MODEL 26
REMARK VINA RESULT:    -6.181      4.418      7.796
REMARK INTER + INTRA:         -25.665
REMARK INTER:                 -18.652
REMARK INTRA:                  -7.013
REMARK UNBOUND:                -7.200
REMARK SMILES C=C1C(=O)N[C@H](C)C(=O)N[C@@H](CC(C)C)C(=O)N[C@@H](C(=O)O)[C@H](C)C(=O)N[C@@H](CCCN=C(N)N)C(=O)N[C@@H](/C=C/C(C)=C/[C@H](C)[C@H](Cc2ccccc2)OC)[C@H](C)C(=O)N[C@@H](C(=O)O)CCC(=O)N1C
REMARK SMILES IDX 39 1 38 2 37 3 36 4 28 6 27 7 25 8 26 9 23 11 24 12 19 13
REMARK SMILES IDX 18 14 16 15 17 16 11 18 10 19 8 20 9 21 12 24 13 25 14 26
REMARK SMILES IDX 15 27 20 28 21 29 22 30 29 32 30 33 31 34 32 35 33 36 34 37
REMARK SMILES IDX 35 38 57 43 58 44 59 45 60 46 61 47 62 49 66 50 67 51 68 52
REMARK SMILES IDX 69 53 70 54 71 55 2 56 1 57 3 58 4 59 5 60 6 62 7 63 63 65
REMARK SMILES IDX 64 66 65 67 40 69 41 70 42 71 44 72 43 73 45 74 46 75 47 76
REMARK SMILES IDX 55 77 56 78 48 79 49 80 50 81 54 82 51 83 53 84 52 85
REMARK H PARENT 38 5 27 10 18 17 10 22 22 31 34 39 34 40 35 41 35 42 61 48
REMARK H PARENT 5 61 65 68
REMARK Flexibility Score:  369.900
ROOT
ATOM      1  C   UNL     1      -0.460  11.765   2.937  1.00  0.00     0.117 C 
ENDROOT
BRANCH   1   2
ATOM      2  N   UNL     1       0.816  11.193   2.506  1.00  0.00    -0.347 N 
ATOM      3  O   UNL     1       2.202  12.684   3.568  1.00  0.00    -0.273 OA
ATOM      4  C   UNL     1       2.050  11.646   2.932  1.00  0.00     0.243 C 
ATOM      5  H   UNL     1       0.817  10.387   1.899  1.00  0.00     0.164 HD
BRANCH   4   6
ATOM      6  C   UNL     1       3.240  10.812   2.395  1.00  0.00     0.171 C 
BRANCH   6   7
ATOM      7  N   UNL     1       2.774   9.500   1.917  1.00  0.00    -0.344 N 
ATOM      8  C   UNL     1       2.671   8.433   2.784  1.00  0.00     0.226 C 
ATOM      9  O   UNL     1       2.975   8.512   3.968  1.00  0.00    -0.275 OA
ATOM     10  H   UNL     1       2.578   9.378   0.932  1.00  0.00     0.164 HD
BRANCH   8  11
ATOM     11  C   UNL     1       2.124   7.165   2.152  1.00  0.00     0.109 C 
ATOM     12  C   UNL     1       2.133   7.291   0.628  1.00  0.00     0.021 C 
BRANCH  11  13
ATOM     13  C   UNL     1       2.878   5.940   2.705  1.00  0.00     0.204 C 
BRANCH  13  14
ATOM     14  N   UNL     1       4.187   6.301   3.258  1.00  0.00    -0.340 N 
ATOM     15  C   UNL     1       5.281   5.464   3.201  1.00  0.00     0.243 C 
ATOM     16  O   UNL     1       5.251   4.378   2.626  1.00  0.00    -0.273 OA
ATOM     17  H   UNL     1       4.239   7.115   3.876  1.00  0.00     0.164 HD
BRANCH  15  18
ATOM     18  C   UNL     1       6.489   5.967   4.029  1.00  0.00     0.171 C 
BRANCH  18  19
ATOM     19  N   UNL     1       7.671   5.804   3.186  1.00  0.00    -0.343 N 
ATOM     20  C   UNL     1       8.635   4.852   3.459  1.00  0.00     0.242 CG0
ATOM     21  O   UNL     1       8.611   4.190   4.494  1.00  0.00    -0.273 OA
ATOM     22  H   UNL     1       7.796   6.407   2.381  1.00  0.00     0.164 HD
ATOM     23  G   UNL     1       9.768   4.775   2.415  1.00  0.00     0.000 G0
ENDBRANCH  18  19
BRANCH  18  24
ATOM     24  C   UNL     1       6.291   7.431   4.441  1.00  0.00     0.038 C 
BRANCH  24  25
ATOM     25  C   UNL     1       7.339   8.409   3.869  1.00  0.00    -0.015 C 
ATOM     26  C   UNL     1       7.987   9.271   4.953  1.00  0.00     0.007 C 
ATOM     27  C   UNL     1       6.683   9.309   2.819  1.00  0.00     0.007 C 
ENDBRANCH  24  25
ENDBRANCH  18  24
ENDBRANCH  15  18
ENDBRANCH  13  14
BRANCH  13  28
ATOM     28  C   UNL     1       2.108   5.204   3.806  1.00  0.00     0.327 C 
ATOM     29  O   UNL     1       1.686   4.059   3.751  1.00  0.00    -0.250 OA
BRANCH  28  30
ATOM     30  O   UNL     1       1.812   5.990   4.861  1.00  0.00    -0.480 OA
ATOM     31  H   UNL     1       2.455   5.723   5.549  1.00  0.00     0.296 HD
ENDBRANCH  28  30
ENDBRANCH  13  28
ENDBRANCH  11  13
ENDBRANCH   8  11
ENDBRANCH   6   7
BRANCH   6  32
ATOM     32  C   UNL     1       3.932  11.589   1.270  1.00  0.00     0.037 C 
BRANCH  32  33
ATOM     33  C   UNL     1       3.822  10.872  -0.083  1.00  0.00     0.026 C 
BRANCH  33  34
ATOM     34  C   UNL     1       2.682  11.419  -0.944  1.00  0.00     0.146 C 
BRANCH  34  35
ATOM     35  N   UNL     1       1.516  10.561  -0.780  1.00  0.00    -0.254 NA
ATOM     36  C   UNL     1       0.864  10.205  -1.823  1.00  0.00     0.185 C 
ATOM     37  N   UNL     1      -0.208   9.410  -1.685  1.00  0.00    -0.370 N 
ATOM     38  N   UNL     1       1.095  10.517  -3.111  1.00  0.00    -0.370 N 
ATOM     39  H   UNL     1      -0.441   9.122  -0.743  1.00  0.00     0.159 HD
ATOM     40  H   UNL     1      -0.663   8.951  -2.455  1.00  0.00     0.159 HD
ATOM     41  H   UNL     1       0.427  10.289  -3.830  1.00  0.00     0.159 HD
ATOM     42  H   UNL     1       1.861  11.122  -3.363  1.00  0.00     0.159 HD
ENDBRANCH  34  35
ENDBRANCH  33  34
ENDBRANCH  32  33
ENDBRANCH   6  32
ENDBRANCH   4   6
ENDBRANCH   1   2
BRANCH   1  43
ATOM     43  C   UNL     1      -1.353  10.619   3.495  1.00  0.00     0.102 C 
ATOM     44  C   UNL     1      -2.761  10.584   2.877  1.00  0.00     0.020 C 
BRANCH  43  45
ATOM     45  C   UNL     1      -1.346  10.614   5.027  1.00  0.00     0.225 C 
ATOM     46  O   UNL     1      -0.370  10.280   5.692  1.00  0.00    -0.275 OA
ATOM     47  N   UNL     1      -2.547  10.921   5.625  1.00  0.00    -0.342 N 
ATOM     48  H   UNL     1      -3.287  11.336   5.077  1.00  0.00     0.164 HD
BRANCH  47  49
ATOM     49  C   UNL     1      -2.681  10.989   7.083  1.00  0.00     0.192 C 
BRANCH  49  50
ATOM     50  C   UNL     1      -4.084  10.535   7.493  1.00  0.00     0.047 C 
BRANCH  50  51
ATOM     51  C   UNL     1      -4.920  10.073   6.292  1.00  0.00     0.103 C 
BRANCH  51  52
ATOM     52  C   UNL     1      -6.107  10.997   6.028  1.00  0.00     0.226 C 
ATOM     53  O   UNL     1      -6.306  11.961   6.770  1.00  0.00    -0.275 OA
BRANCH  52  54
ATOM     54  N   UNL     1      -6.872  10.724   4.879  1.00  0.00    -0.311 N 
ATOM     55  C   UNL     1      -6.239  10.223   3.651  1.00  0.00     0.153 C 
BRANCH  54  56
ATOM     56  C   UNL     1      -8.264  10.912   4.864  1.00  0.00     0.102 C 
ATOM     57  C   UNL     1      -9.137  10.253   5.642  1.00  0.00     0.043 C 
BRANCH  56  58
ATOM     58  C   UNL     1      -8.896  11.947   3.963  1.00  0.00     0.268 C 
ATOM     59  O   UNL     1      -8.412  13.055   3.774  1.00  0.00    -0.268 OA
ATOM     60  N   UNL     1     -10.028  11.493   3.330  1.00  0.00    -0.339 N 
ATOM     61  H   UNL     1     -10.370  10.565   3.549  1.00  0.00     0.164 HD
BRANCH  60  62
ATOM     62  C   UNL     1     -10.763  12.311   2.366  1.00  0.00     0.168 CG0
ATOM     63  C   UNL     1     -12.205  11.838   2.234  1.00  0.00     0.041 C 
ATOM     64  G   UNL     1     -10.047  12.267   1.000  1.00  0.00     0.000 G0
ENDBRANCH  60  62
ENDBRANCH  56  58
ENDBRANCH  54  56
ENDBRANCH  52  54
ENDBRANCH  51  52
ENDBRANCH  50  51
ENDBRANCH  49  50
BRANCH  49  65
ATOM     65  C   UNL     1      -2.432  12.411   7.609  1.00  0.00     0.326 C 
ATOM     66  O   UNL     1      -2.488  13.435   6.944  1.00  0.00    -0.250 OA
BRANCH  65  67
ATOM     67  O   UNL     1      -2.071  12.476   8.910  1.00  0.00    -0.480 OA
ATOM     68  H   UNL     1      -2.154  11.549   9.220  1.00  0.00     0.296 HD
ENDBRANCH  65  67
ENDBRANCH  49  65
ENDBRANCH  47  49
ENDBRANCH  43  45
ENDBRANCH   1  43
BRANCH   1  69
ATOM     69  C   UNL     1      -0.970  12.590   1.770  1.00  0.00    -0.001 C 
ATOM     70  C   UNL     1      -0.267  13.032   0.712  1.00  0.00     0.001 C 
BRANCH  70  71
ATOM     71  C   UNL     1      -0.776  13.810  -0.420  1.00  0.00    -0.055 C 
ATOM     72  C   UNL     1      -1.933  14.483  -0.249  1.00  0.00    -0.018 C 
ATOM     73  C   UNL     1       0.032  13.810  -1.691  1.00  0.00     0.044 C 
BRANCH  72  74
ATOM     74  C   UNL     1      -2.689  15.364  -1.233  1.00  0.00     0.038 C 
ATOM     75  C   UNL     1      -3.139  16.614  -0.468  1.00  0.00     0.015 C 
BRANCH  74  76
ATOM     76  C   UNL     1      -3.845  14.533  -1.864  1.00  0.00     0.128 C 
BRANCH  76  77
ATOM     77  O   UNL     1      -5.074  14.792  -1.165  1.00  0.00    -0.381 OA
ATOM     78  C   UNL     1      -5.776  13.616  -0.787  1.00  0.00     0.195 C 
ENDBRANCH  76  77
BRANCH  76  79
ATOM     79  C   UNL     1      -3.980  14.704  -3.398  1.00  0.00     0.068 C 
BRANCH  79  80
ATOM     80  C   UNL     1      -2.719  14.662  -4.227  1.00  0.00    -0.045 A 
ATOM     81  C   UNL     1      -2.151  15.837  -4.737  1.00  0.00     0.004 A 
ATOM     82  C   UNL     1      -2.110  13.434  -4.526  1.00  0.00     0.004 A 
ATOM     83  C   UNL     1      -0.992  15.789  -5.515  1.00  0.00     0.000 A 
ATOM     84  C   UNL     1      -0.951  13.387  -5.305  1.00  0.00     0.000 A 
ATOM     85  C   UNL     1      -0.392  14.564  -5.798  1.00  0.00     0.000 A 
ENDBRANCH  79  80
ENDBRANCH  76  79
ENDBRANCH  74  76
ENDBRANCH  72  74
ENDBRANCH  70  71
ENDBRANCH   1  69
TORSDOF 17
ENDMDL
MODEL 27
REMARK VINA RESULT:    -6.179      4.744      7.444
REMARK INTER + INTRA:         -25.661
REMARK INTER:                 -19.082
REMARK INTRA:                  -6.579
REMARK UNBOUND:                -7.200
REMARK SMILES C=C1C(=O)N[C@H](C)C(=O)N[C@@H](CC(C)C)C(=O)N[C@@H](C(=O)O)[C@H](C)C(=O)N[C@@H](CCCN=C(N)N)C(=O)N[C@@H](/C=C/C(C)=C/[C@H](C)[C@H](Cc2ccccc2)OC)[C@H](C)C(=O)N[C@@H](C(=O)O)CCC(=O)N1C
REMARK SMILES IDX 39 1 38 2 37 3 36 4 28 6 27 7 25 8 26 9 23 11 24 12 19 13
REMARK SMILES IDX 18 14 16 15 17 16 11 18 10 19 8 20 9 21 12 24 13 25 14 26
REMARK SMILES IDX 15 27 20 28 21 29 22 30 29 32 30 33 31 34 32 35 33 36 34 37
REMARK SMILES IDX 35 38 57 43 58 44 59 45 60 46 61 47 62 49 66 50 67 51 68 52
REMARK SMILES IDX 69 53 70 54 71 55 2 56 1 57 3 58 4 59 5 60 6 62 7 63 63 65
REMARK SMILES IDX 64 66 65 67 40 69 41 70 42 71 44 72 43 73 45 74 46 75 47 76
REMARK SMILES IDX 55 77 56 78 48 79 49 80 50 81 54 82 51 83 53 84 52 85
REMARK H PARENT 38 5 27 10 18 17 10 22 22 31 34 39 34 40 35 41 35 42 61 48
REMARK H PARENT 5 61 65 68
REMARK Flexibility Score:  369.900
ROOT
ATOM      1  C   UNL     1      -0.580   8.991   9.621  1.00  0.00     0.117 C 
ENDROOT
BRANCH   1   2
ATOM      2  N   UNL     1       0.129   8.353   8.511  1.00  0.00    -0.347 N 
ATOM      3  O   UNL     1      -1.638   8.204   7.054  1.00  0.00    -0.273 OA
ATOM      4  C   UNL     1      -0.437   8.093   7.279  1.00  0.00     0.243 C 
ATOM      5  H   UNL     1       1.107   8.126   8.615  1.00  0.00     0.164 HD
BRANCH   4   6
ATOM      6  C   UNL     1       0.554   7.492   6.251  1.00  0.00     0.171 C 
BRANCH   6   7
ATOM      7  N   UNL     1       0.816   8.451   5.166  1.00  0.00    -0.344 N 
ATOM      8  C   UNL     1       0.057   8.435   4.016  1.00  0.00     0.226 C 
ATOM      9  O   UNL     1      -0.842   7.624   3.830  1.00  0.00    -0.275 OA
ATOM     10  H   UNL     1       1.594   9.092   5.255  1.00  0.00     0.164 HD
BRANCH   8  11
ATOM     11  C   UNL     1       0.414   9.520   3.016  1.00  0.00     0.109 C 
ATOM     12  C   UNL     1       1.401  10.506   3.640  1.00  0.00     0.021 C 
BRANCH  11  13
ATOM     13  C   UNL     1       0.886   8.878   1.696  1.00  0.00     0.204 C 
BRANCH  13  14
ATOM     14  N   UNL     1       1.568   9.842   0.826  1.00  0.00    -0.340 N 
ATOM     15  C   UNL     1       1.302   9.953  -0.521  1.00  0.00     0.243 C 
ATOM     16  O   UNL     1       0.428   9.291  -1.079  1.00  0.00    -0.273 OA
ATOM     17  H   UNL     1       2.402  10.311   1.190  1.00  0.00     0.164 HD
BRANCH  15  18
ATOM     18  C   UNL     1       2.285  10.886  -1.271  1.00  0.00     0.171 C 
BRANCH  18  19
ATOM     19  N   UNL     1       1.470  11.785  -2.085  1.00  0.00    -0.343 N 
ATOM     20  C   UNL     1       1.343  11.618  -3.451  1.00  0.00     0.242 CG0
ATOM     21  O   UNL     1       2.012  10.789  -4.062  1.00  0.00    -0.273 OA
ATOM     22  H   UNL     1       0.987  12.558  -1.641  1.00  0.00     0.164 HD
ATOM     23  G   UNL     1       0.380  12.615  -4.128  1.00  0.00     0.000 G0
ENDBRANCH  18  19
BRANCH  18  24
ATOM     24  C   UNL     1       3.158  11.663  -0.278  1.00  0.00     0.038 C 
BRANCH  24  25
ATOM     25  C   UNL     1       3.099  13.197  -0.432  1.00  0.00    -0.015 C 
ATOM     26  C   UNL     1       4.229  13.741  -1.306  1.00  0.00     0.007 C 
ATOM     27  C   UNL     1       3.154  13.856   0.949  1.00  0.00     0.007 C 
ENDBRANCH  24  25
ENDBRANCH  18  24
ENDBRANCH  15  18
ENDBRANCH  13  14
BRANCH  13  28
ATOM     28  C   UNL     1       1.842   7.700   1.905  1.00  0.00     0.327 C 
ATOM     29  O   UNL     1       2.961   7.756   2.392  1.00  0.00    -0.250 OA
BRANCH  28  30
ATOM     30  O   UNL     1       1.382   6.546   1.382  1.00  0.00    -0.480 OA
ATOM     31  H   UNL     1       0.819   6.829   0.632  1.00  0.00     0.296 HD
ENDBRANCH  28  30
ENDBRANCH  13  28
ENDBRANCH  11  13
ENDBRANCH   8  11
ENDBRANCH   6   7
BRANCH   6  32
ATOM     32  C   UNL     1       1.854   7.110   6.969  1.00  0.00     0.037 C 
BRANCH  32  33
ATOM     33  C   UNL     1       2.878   6.477   6.017  1.00  0.00     0.026 C 
BRANCH  33  34
ATOM     34  C   UNL     1       2.534   5.028   5.668  1.00  0.00     0.146 C 
BRANCH  34  35
ATOM     35  N   UNL     1       1.905   4.998   4.355  1.00  0.00    -0.254 NA
ATOM     36  C   UNL     1       0.711   4.542   4.256  1.00  0.00     0.185 C 
ATOM     37  N   UNL     1       0.120   4.515   3.052  1.00  0.00    -0.370 N 
ATOM     38  N   UNL     1      -0.091   4.060   5.221  1.00  0.00    -0.370 N 
ATOM     39  H   UNL     1       0.658   4.872   2.273  1.00  0.00     0.159 HD
ATOM     40  H   UNL     1      -0.861   4.339   2.918  1.00  0.00     0.159 HD
ATOM     41  H   UNL     1      -0.959   3.601   4.996  1.00  0.00     0.159 HD
ATOM     42  H   UNL     1       0.229   4.006   6.175  1.00  0.00     0.159 HD
ENDBRANCH  34  35
ENDBRANCH  33  34
ENDBRANCH  32  33
ENDBRANCH   6  32
ENDBRANCH   4   6
ENDBRANCH   1   2
BRANCH   1  43
ATOM     43  C   UNL     1      -1.083   7.882  10.590  1.00  0.00     0.102 C 
ATOM     44  C   UNL     1      -0.016   6.823  10.915  1.00  0.00     0.020 C 
BRANCH  43  45
ATOM     45  C   UNL     1      -2.414   7.295  10.110  1.00  0.00     0.225 C 
ATOM     46  O   UNL     1      -3.506   7.744  10.447  1.00  0.00    -0.275 OA
ATOM     47  N   UNL     1      -2.317   6.157   9.341  1.00  0.00    -0.342 N 
ATOM     48  H   UNL     1      -1.424   5.892   8.951  1.00  0.00     0.164 HD
BRANCH  47  49
ATOM     49  C   UNL     1      -3.506   5.507   8.783  1.00  0.00     0.192 C 
BRANCH  49  50
ATOM     50  C   UNL     1      -3.964   4.383   9.716  1.00  0.00     0.047 C 
BRANCH  50  51
ATOM     51  C   UNL     1      -5.320   4.684  10.369  1.00  0.00     0.103 C 
BRANCH  51  52
ATOM     52  C   UNL     1      -5.277   4.510  11.886  1.00  0.00     0.226 C 
ATOM     53  O   UNL     1      -4.492   5.184  12.555  1.00  0.00    -0.275 OA
BRANCH  52  54
ATOM     54  N   UNL     1      -6.215   3.620  12.441  1.00  0.00    -0.311 N 
ATOM     55  C   UNL     1      -7.639   3.704  12.087  1.00  0.00     0.153 C 
BRANCH  54  56
ATOM     56  C   UNL     1      -5.828   2.619  13.347  1.00  0.00     0.102 C 
ATOM     57  C   UNL     1      -5.849   2.741  14.684  1.00  0.00     0.043 C 
BRANCH  56  58
ATOM     58  C   UNL     1      -5.384   1.260  12.857  1.00  0.00     0.268 C 
ATOM     59  O   UNL     1      -4.404   0.676  13.299  1.00  0.00    -0.268 OA
ATOM     60  N   UNL     1      -6.229   0.723  11.915  1.00  0.00    -0.339 N 
ATOM     61  H   UNL     1      -7.014   1.276  11.593  1.00  0.00     0.164 HD
BRANCH  60  62
ATOM     62  C   UNL     1      -6.021  -0.610  11.352  1.00  0.00     0.168 CG0
ATOM     63  C   UNL     1      -6.785  -1.664  12.144  1.00  0.00     0.041 C 
ATOM     64  G   UNL     1      -4.512  -0.932  11.330  1.00  0.00     0.000 G0
ENDBRANCH  60  62
ENDBRANCH  56  58
ENDBRANCH  54  56
ENDBRANCH  52  54
ENDBRANCH  51  52
ENDBRANCH  50  51
ENDBRANCH  49  50
BRANCH  49  65
ATOM     65  C   UNL     1      -3.232   4.928   7.386  1.00  0.00     0.326 C 
ATOM     66  O   UNL     1      -3.990   4.206   6.754  1.00  0.00    -0.250 OA
BRANCH  65  67
ATOM     67  O   UNL     1      -2.015   5.228   6.880  1.00  0.00    -0.480 OA
ATOM     68  H   UNL     1      -1.885   4.557   6.176  1.00  0.00     0.296 HD
ENDBRANCH  65  67
ENDBRANCH  49  65
ENDBRANCH  47  49
ENDBRANCH  43  45
ENDBRANCH   1  43
BRANCH   1  69
ATOM     69  C   UNL     1      -1.593   9.930   8.993  1.00  0.00    -0.001 C 
ATOM     70  C   UNL     1      -1.812  11.221   9.301  1.00  0.00     0.001 C 
BRANCH  70  71
ATOM     71  C   UNL     1      -2.778  12.124   8.673  1.00  0.00    -0.055 C 
ATOM     72  C   UNL     1      -4.089  11.904   8.910  1.00  0.00    -0.018 C 
ATOM     73  C   UNL     1      -2.241  13.239   7.814  1.00  0.00     0.044 C 
BRANCH  72  74
ATOM     74  C   UNL     1      -5.301  12.671   8.401  1.00  0.00     0.038 C 
ATOM     75  C   UNL     1      -5.954  13.343   9.615  1.00  0.00     0.015 C 
BRANCH  74  76
ATOM     76  C   UNL     1      -6.225  11.688   7.624  1.00  0.00     0.128 C 
BRANCH  76  77
ATOM     77  O   UNL     1      -6.926  12.392   6.584  1.00  0.00    -0.381 OA
ATOM     78  C   UNL     1      -8.341  12.319   6.699  1.00  0.00     0.195 C 
ENDBRANCH  76  77
BRANCH  76  79
ATOM     79  C   UNL     1      -5.501  10.420   7.106  1.00  0.00     0.068 C 
BRANCH  79  80
ATOM     80  C   UNL     1      -4.969  10.436   5.693  1.00  0.00    -0.045 A 
ATOM     81  C   UNL     1      -5.838  10.430   4.594  1.00  0.00     0.004 A 
ATOM     82  C   UNL     1      -3.586  10.429   5.459  1.00  0.00     0.004 A 
ATOM     83  C   UNL     1      -5.338  10.431   3.291  1.00  0.00     0.000 A 
ATOM     84  C   UNL     1      -3.086  10.429   4.155  1.00  0.00     0.000 A 
ATOM     85  C   UNL     1      -3.962  10.432   3.071  1.00  0.00     0.000 A 
ENDBRANCH  79  80
ENDBRANCH  76  79
ENDBRANCH  74  76
ENDBRANCH  72  74
ENDBRANCH  70  71
ENDBRANCH   1  69
TORSDOF 17
ENDMDL
MODEL 28
REMARK VINA RESULT:    -6.154      2.913      5.709
REMARK INTER + INTRA:         -25.584
REMARK INTER:                 -20.232
REMARK INTRA:                  -5.352
REMARK UNBOUND:                -7.200
REMARK SMILES C=C1C(=O)N[C@H](C)C(=O)N[C@@H](CC(C)C)C(=O)N[C@@H](C(=O)O)[C@H](C)C(=O)N[C@@H](CCCN=C(N)N)C(=O)N[C@@H](/C=C/C(C)=C/[C@H](C)[C@H](Cc2ccccc2)OC)[C@H](C)C(=O)N[C@@H](C(=O)O)CCC(=O)N1C
REMARK SMILES IDX 39 1 38 2 37 3 36 4 28 6 27 7 25 8 26 9 23 11 24 12 19 13
REMARK SMILES IDX 18 14 16 15 17 16 11 18 10 19 8 20 9 21 12 24 13 25 14 26
REMARK SMILES IDX 15 27 20 28 21 29 22 30 29 32 30 33 31 34 32 35 33 36 34 37
REMARK SMILES IDX 35 38 57 43 58 44 59 45 60 46 61 47 62 49 66 50 67 51 68 52
REMARK SMILES IDX 69 53 70 54 71 55 2 56 1 57 3 58 4 59 5 60 6 62 7 63 63 65
REMARK SMILES IDX 64 66 65 67 40 69 41 70 42 71 44 72 43 73 45 74 46 75 47 76
REMARK SMILES IDX 55 77 56 78 48 79 49 80 50 81 54 82 51 83 53 84 52 85
REMARK H PARENT 38 5 27 10 18 17 10 22 22 31 34 39 34 40 35 41 35 42 61 48
REMARK H PARENT 5 61 65 68
REMARK Flexibility Score:  369.900
ROOT
ATOM      1  C   UNL     1      -3.503  10.781   3.222  1.00  0.00     0.117 C 
ENDROOT
BRANCH   1   2
ATOM      2  N   UNL     1      -2.547  10.058   4.061  1.00  0.00    -0.347 N 
ATOM      3  O   UNL     1      -1.964  11.797   5.441  1.00  0.00    -0.273 OA
ATOM      4  C   UNL     1      -1.920  10.603   5.165  1.00  0.00     0.243 C 
ATOM      5  H   UNL     1      -2.357   9.086   3.869  1.00  0.00     0.164 HD
BRANCH   4   6
ATOM      6  C   UNL     1      -1.021   9.599   5.930  1.00  0.00     0.171 C 
BRANCH   6   7
ATOM      7  N   UNL     1       0.401   9.900   5.698  1.00  0.00    -0.344 N 
ATOM      8  C   UNL     1       1.211   9.002   5.039  1.00  0.00     0.226 C 
ATOM      9  O   UNL     1       0.806   7.916   4.640  1.00  0.00    -0.275 OA
ATOM     10  H   UNL     1       0.788  10.758   6.072  1.00  0.00     0.164 HD
BRANCH   8  11
ATOM     11  C   UNL     1       2.636   9.481   4.829  1.00  0.00     0.109 C 
ATOM     12  C   UNL     1       3.516   9.045   6.001  1.00  0.00     0.021 C 
BRANCH  11  13
ATOM     13  C   UNL     1       3.138   9.036   3.441  1.00  0.00     0.204 C 
BRANCH  13  14
ATOM     14  N   UNL     1       3.882  10.098   2.756  1.00  0.00    -0.340 N 
ATOM     15  C   UNL     1       3.271  11.055   1.974  1.00  0.00     0.243 C 
ATOM     16  O   UNL     1       2.050  11.121   1.845  1.00  0.00    -0.273 OA
ATOM     17  H   UNL     1       4.900  10.010   2.698  1.00  0.00     0.164 HD
BRANCH  15  18
ATOM     18  C   UNL     1       4.269  11.940   1.188  1.00  0.00     0.171 C 
BRANCH  18  19
ATOM     19  N   UNL     1       5.296  11.045   0.658  1.00  0.00    -0.343 N 
ATOM     20  C   UNL     1       5.912  11.280  -0.556  1.00  0.00     0.242 CG0
ATOM     21  O   UNL     1       5.534  12.177  -1.306  1.00  0.00    -0.273 OA
ATOM     22  H   UNL     1       5.562  10.223   1.189  1.00  0.00     0.164 HD
ATOM     23  G   UNL     1       7.024  10.272  -0.912  1.00  0.00     0.000 G0
ENDBRANCH  18  19
BRANCH  18  24
ATOM     24  C   UNL     1       3.552  12.699   0.066  1.00  0.00     0.038 C 
BRANCH  24  25
ATOM     25  C   UNL     1       3.256  14.182   0.377  1.00  0.00    -0.015 C 
ATOM     26  C   UNL     1       3.765  15.122  -0.715  1.00  0.00     0.007 C 
ATOM     27  C   UNL     1       3.888  14.562   1.719  1.00  0.00     0.007 C 
ENDBRANCH  24  25
ENDBRANCH  18  24
ENDBRANCH  15  18
ENDBRANCH  13  14
BRANCH  13  28
ATOM     28  C   UNL     1       4.049   7.805   3.494  1.00  0.00     0.327 C 
ATOM     29  O   UNL     1       3.727   6.684   3.856  1.00  0.00    -0.250 OA
BRANCH  28  30
ATOM     30  O   UNL     1       5.335   8.087   3.204  1.00  0.00    -0.480 OA
ATOM     31  H   UNL     1       5.736   8.302   4.072  1.00  0.00     0.296 HD
ENDBRANCH  28  30
ENDBRANCH  13  28
ENDBRANCH  11  13
ENDBRANCH   8  11
ENDBRANCH   6   7
BRANCH   6  32
ATOM     32  C   UNL     1      -1.356   9.661   7.424  1.00  0.00     0.037 C 
BRANCH  32  33
ATOM     33  C   UNL     1      -0.798  10.926   8.092  1.00  0.00     0.026 C 
BRANCH  33  34
ATOM     34  C   UNL     1      -1.664  11.404   9.257  1.00  0.00     0.146 C 
BRANCH  34  35
ATOM     35  N   UNL     1      -2.109  12.764   8.985  1.00  0.00    -0.254 NA
ATOM     36  C   UNL     1      -3.190  12.935   8.320  1.00  0.00     0.185 C 
ATOM     37  N   UNL     1      -3.612  14.184   8.068  1.00  0.00    -0.370 N 
ATOM     38  N   UNL     1      -4.020  12.011   7.804  1.00  0.00    -0.370 N 
ATOM     39  H   UNL     1      -3.044  14.938   8.434  1.00  0.00     0.159 HD
ATOM     40  H   UNL     1      -4.526  14.401   7.710  1.00  0.00     0.159 HD
ATOM     41  H   UNL     1      -4.766  12.272   7.179  1.00  0.00     0.159 HD
ATOM     42  H   UNL     1      -3.818  11.029   7.903  1.00  0.00     0.159 HD
ENDBRANCH  34  35
ENDBRANCH  33  34
ENDBRANCH  32  33
ENDBRANCH   6  32
ENDBRANCH   4   6
ENDBRANCH   1   2
BRANCH   1  43
ATOM     43  C   UNL     1      -4.852  10.005   3.228  1.00  0.00     0.102 C 
ATOM     44  C   UNL     1      -5.399   9.718   1.819  1.00  0.00     0.020 C 
BRANCH  43  45
ATOM     45  C   UNL     1      -5.866  10.670   4.164  1.00  0.00     0.225 C 
ATOM     46  O   UNL     1      -5.609  10.971   5.326  1.00  0.00    -0.275 OA
ATOM     47  N   UNL     1      -7.132  10.830   3.648  1.00  0.00    -0.342 N 
ATOM     48  H   UNL     1      -7.285  10.720   2.656  1.00  0.00     0.164 HD
BRANCH  47  49
ATOM     49  C   UNL     1      -8.195  11.483   4.418  1.00  0.00     0.192 C 
BRANCH  49  50
ATOM     50  C   UNL     1      -9.250  10.449   4.818  1.00  0.00     0.047 C 
BRANCH  50  51
ATOM     51  C   UNL     1      -8.859   9.680   6.088  1.00  0.00     0.103 C 
BRANCH  51  52
ATOM     52  C   UNL     1      -9.301  10.406   7.357  1.00  0.00     0.226 C 
ATOM     53  O   UNL     1     -10.257  11.183   7.314  1.00  0.00    -0.275 OA
BRANCH  52  54
ATOM     54  N   UNL     1      -8.615  10.074   8.540  1.00  0.00    -0.311 N 
ATOM     55  C   UNL     1      -7.260  10.579   8.796  1.00  0.00     0.153 C 
BRANCH  54  56
ATOM     56  C   UNL     1      -9.200   9.255   9.520  1.00  0.00     0.102 C 
ATOM     57  C   UNL     1      -9.088   7.918   9.571  1.00  0.00     0.043 C 
BRANCH  56  58
ATOM     58  C   UNL     1      -9.992   9.854  10.658  1.00  0.00     0.268 C 
ATOM     59  O   UNL     1      -9.563   9.939  11.801  1.00  0.00    -0.268 OA
ATOM     60  N   UNL     1     -11.212  10.350  10.265  1.00  0.00    -0.339 N 
ATOM     61  H   UNL     1     -11.499  10.230   9.301  1.00  0.00     0.164 HD
BRANCH  60  62
ATOM     62  C   UNL     1     -12.114  11.028  11.195  1.00  0.00     0.168 CG0
ATOM     63  C   UNL     1     -13.138  10.058  11.770  1.00  0.00     0.041 C 
ATOM     64  G   UNL     1     -12.815  12.198  10.475  1.00  0.00     0.000 G0
ENDBRANCH  60  62
ENDBRANCH  56  58
ENDBRANCH  54  56
ENDBRANCH  52  54
ENDBRANCH  51  52
ENDBRANCH  50  51
ENDBRANCH  49  50
BRANCH  49  65
ATOM     65  C   UNL     1      -8.865  12.609   3.615  1.00  0.00     0.326 C 
ATOM     66  O   UNL     1      -9.666  12.453   2.705  1.00  0.00    -0.250 OA
BRANCH  65  67
ATOM     67  O   UNL     1      -8.459  13.855   3.944  1.00  0.00    -0.480 OA
ATOM     68  H   UNL     1      -8.052  14.192   3.117  1.00  0.00     0.296 HD
ENDBRANCH  65  67
ENDBRANCH  49  65
ENDBRANCH  47  49
ENDBRANCH  43  45
ENDBRANCH   1  43
BRANCH   1  69
ATOM     69  C   UNL     1      -2.804  11.027   1.898  1.00  0.00    -0.001 C 
ATOM     70  C   UNL     1      -1.818  11.906   1.645  1.00  0.00     0.001 C 
BRANCH  70  71
ATOM     71  C   UNL     1      -1.136  12.119   0.367  1.00  0.00    -0.055 C 
ATOM     72  C   UNL     1      -1.195  11.130  -0.549  1.00  0.00    -0.018 C 
ATOM     73  C   UNL     1      -0.425  13.431   0.162  1.00  0.00     0.044 C 
BRANCH  72  74
ATOM     74  C   UNL     1      -0.592  11.073  -1.945  1.00  0.00     0.038 C 
ATOM     75  C   UNL     1      -1.060   9.760  -2.587  1.00  0.00     0.015 C 
BRANCH  74  76
ATOM     76  C   UNL     1       0.953  11.230  -1.831  1.00  0.00     0.128 C 
BRANCH  76  77
ATOM     77  O   UNL     1       1.509  10.108  -1.124  1.00  0.00    -0.381 OA
ATOM     78  C   UNL     1       2.637   9.531  -1.768  1.00  0.00     0.195 C 
ENDBRANCH  76  77
BRANCH  76  79
ATOM     79  C   UNL     1       1.660  11.498  -3.183  1.00  0.00     0.068 C 
BRANCH  79  80
ATOM     80  C   UNL     1       0.896  12.255  -4.243  1.00  0.00    -0.045 A 
ATOM     81  C   UNL     1       0.426  11.609  -5.394  1.00  0.00     0.004 A 
ATOM     82  C   UNL     1       0.669  13.632  -4.102  1.00  0.00     0.004 A 
ATOM     83  C   UNL     1      -0.268  12.319  -6.376  1.00  0.00     0.000 A 
ATOM     84  C   UNL     1      -0.024  14.342  -5.086  1.00  0.00     0.000 A 
ATOM     85  C   UNL     1      -0.493  13.685  -6.221  1.00  0.00     0.000 A 
ENDBRANCH  79  80
ENDBRANCH  76  79
ENDBRANCH  74  76
ENDBRANCH  72  74
ENDBRANCH  70  71
ENDBRANCH   1  69
TORSDOF 17
ENDMDL
MODEL 29
REMARK VINA RESULT:    -6.152      4.799     12.798
REMARK INTER + INTRA:         -25.580
REMARK INTER:                 -20.350
REMARK INTRA:                  -5.230
REMARK UNBOUND:                -7.200
REMARK SMILES C=C1C(=O)N[C@H](C)C(=O)N[C@@H](CC(C)C)C(=O)N[C@@H](C(=O)O)[C@H](C)C(=O)N[C@@H](CCCN=C(N)N)C(=O)N[C@@H](/C=C/C(C)=C/[C@H](C)[C@H](Cc2ccccc2)OC)[C@H](C)C(=O)N[C@@H](C(=O)O)CCC(=O)N1C
REMARK SMILES IDX 39 1 38 2 37 3 36 4 28 6 27 7 25 8 26 9 23 11 24 12 19 13
REMARK SMILES IDX 18 14 16 15 17 16 11 18 10 19 8 20 9 21 12 24 13 25 14 26
REMARK SMILES IDX 15 27 20 28 21 29 22 30 29 32 30 33 31 34 32 35 33 36 34 37
REMARK SMILES IDX 35 38 57 43 58 44 59 45 60 46 61 47 62 49 66 50 67 51 68 52
REMARK SMILES IDX 69 53 70 54 71 55 2 56 1 57 3 58 4 59 5 60 6 62 7 63 63 65
REMARK SMILES IDX 64 66 65 67 40 69 41 70 42 71 44 72 43 73 45 74 46 75 47 76
REMARK SMILES IDX 55 77 56 78 48 79 49 80 50 81 54 82 51 83 53 84 52 85
REMARK H PARENT 38 5 27 10 18 17 10 22 22 31 34 39 34 40 35 41 35 42 61 48
REMARK H PARENT 5 61 65 68
REMARK Flexibility Score:  369.900
ROOT
ATOM      1  C   UNL     1      -1.527   8.795   6.398  1.00  0.00     0.117 C 
ENDROOT
BRANCH   1   2
ATOM      2  N   UNL     1      -1.000   8.546   7.741  1.00  0.00    -0.347 N 
ATOM      3  O   UNL     1      -2.536   6.968   8.391  1.00  0.00    -0.273 OA
ATOM      4  C   UNL     1      -1.494   7.582   8.598  1.00  0.00     0.243 C 
ATOM      5  H   UNL     1      -0.196   9.064   8.060  1.00  0.00     0.164 HD
BRANCH   4   6
ATOM      6  C   UNL     1      -0.702   7.463   9.925  1.00  0.00     0.171 C 
BRANCH   6   7
ATOM      7  N   UNL     1      -0.606   6.056  10.343  1.00  0.00    -0.344 N 
ATOM      8  C   UNL     1      -1.489   5.533  11.263  1.00  0.00     0.226 C 
ATOM      9  O   UNL     1      -2.369   6.205  11.788  1.00  0.00    -0.275 OA
ATOM     10  H   UNL     1       0.150   5.487   9.981  1.00  0.00     0.164 HD
BRANCH   8  11
ATOM     11  C   UNL     1      -1.293   4.055  11.548  1.00  0.00     0.109 C 
ATOM     12  C   UNL     1      -0.976   3.842  13.028  1.00  0.00     0.021 C 
BRANCH  11  13
ATOM     13  C   UNL     1      -2.505   3.258  11.024  1.00  0.00     0.204 C 
BRANCH  13  14
ATOM     14  N   UNL     1      -3.699   3.462  11.850  1.00  0.00    -0.340 N 
ATOM     15  C   UNL     1      -4.488   2.424  12.294  1.00  0.00     0.243 C 
ATOM     16  O   UNL     1      -4.212   1.245  12.079  1.00  0.00    -0.273 OA
ATOM     17  H   UNL     1      -4.066   4.414  11.935  1.00  0.00     0.164 HD
BRANCH  15  18
ATOM     18  C   UNL     1      -5.802   2.891  12.968  1.00  0.00     0.171 C 
BRANCH  18  19
ATOM     19  N   UNL     1      -5.760   2.406  14.346  1.00  0.00    -0.343 N 
ATOM     20  C   UNL     1      -4.838   2.882  15.258  1.00  0.00     0.242 CG0
ATOM     21  O   UNL     1      -3.927   3.634  14.919  1.00  0.00    -0.273 OA
ATOM     22  H   UNL     1      -6.421   1.697  14.645  1.00  0.00     0.164 HD
ATOM     23  G   UNL     1      -4.998   2.312  16.683  1.00  0.00     0.000 G0
ENDBRANCH  18  19
BRANCH  18  24
ATOM     24  C   UNL     1      -5.926   4.418  12.912  1.00  0.00     0.038 C 
BRANCH  24  25
ATOM     25  C   UNL     1      -7.068   4.939  12.014  1.00  0.00    -0.015 C 
ATOM     26  C   UNL     1      -8.026   5.866  12.763  1.00  0.00     0.007 C 
ATOM     27  C   UNL     1      -7.846   3.756  11.432  1.00  0.00     0.007 C 
ENDBRANCH  24  25
ENDBRANCH  18  24
ENDBRANCH  15  18
ENDBRANCH  13  14
BRANCH  13  28
ATOM     28  C   UNL     1      -2.883   3.613   9.583  1.00  0.00     0.327 C 
ATOM     29  O   UNL     1      -4.005   3.865   9.171  1.00  0.00    -0.250 OA
BRANCH  28  30
ATOM     30  O   UNL     1      -1.848   3.514   8.724  1.00  0.00    -0.480 OA
ATOM     31  H   UNL     1      -1.311   2.775   9.079  1.00  0.00     0.296 HD
ENDBRANCH  28  30
ENDBRANCH  13  28
ENDBRANCH  11  13
ENDBRANCH   8  11
ENDBRANCH   6   7
BRANCH   6  32
ATOM     32  C   UNL     1       0.690   8.075   9.736  1.00  0.00     0.037 C 
BRANCH  32  33
ATOM     33  C   UNL     1       1.804   7.024   9.845  1.00  0.00     0.026 C 
BRANCH  33  34
ATOM     34  C   UNL     1       2.788   7.329  10.975  1.00  0.00     0.146 C 
BRANCH  34  35
ATOM     35  N   UNL     1       2.605   6.347  12.035  1.00  0.00    -0.254 NA
ATOM     36  C   UNL     1       1.967   6.695  13.091  1.00  0.00     0.185 C 
ATOM     37  N   UNL     1       1.788   5.796  14.072  1.00  0.00    -0.370 N 
ATOM     38  N   UNL     1       1.415   7.884  13.391  1.00  0.00    -0.370 N 
ATOM     39  H   UNL     1       2.167   4.871  13.915  1.00  0.00     0.159 HD
ATOM     40  H   UNL     1       1.158   5.934  14.843  1.00  0.00     0.159 HD
ATOM     41  H   UNL     1       1.061   8.075  14.314  1.00  0.00     0.159 HD
ATOM     42  H   UNL     1       1.487   8.659  12.751  1.00  0.00     0.159 HD
ENDBRANCH  34  35
ENDBRANCH  33  34
ENDBRANCH  32  33
ENDBRANCH   6  32
ENDBRANCH   4   6
ENDBRANCH   1   2
BRANCH   1  43
ATOM     43  C   UNL     1      -0.339   9.145   5.457  1.00  0.00     0.102 C 
ATOM     44  C   UNL     1      -0.777   9.790   4.131  1.00  0.00     0.020 C 
BRANCH  43  45
ATOM     45  C   UNL     1       0.598   7.946   5.285  1.00  0.00     0.225 C 
ATOM     46  O   UNL     1       1.406   7.597   6.140  1.00  0.00    -0.275 OA
ATOM     47  N   UNL     1       0.547   7.325   4.057  1.00  0.00    -0.342 N 
ATOM     48  H   UNL     1      -0.219   7.523   3.429  1.00  0.00     0.164 HD
BRANCH  47  49
ATOM     49  C   UNL     1       1.361   6.143   3.762  1.00  0.00     0.192 C 
BRANCH  49  50
ATOM     50  C   UNL     1       2.002   6.291   2.380  1.00  0.00     0.047 C 
BRANCH  50  51
ATOM     51  C   UNL     1       2.450   7.732   2.098  1.00  0.00     0.103 C 
BRANCH  51  52
ATOM     52  C   UNL     1       1.900   8.255   0.773  1.00  0.00     0.226 C 
ATOM     53  O   UNL     1       1.145   7.547   0.103  1.00  0.00    -0.275 OA
BRANCH  52  54
ATOM     54  N   UNL     1       2.241   9.577   0.431  1.00  0.00    -0.311 N 
ATOM     55  C   UNL     1       3.417  10.231   1.019  1.00  0.00     0.153 C 
BRANCH  54  56
ATOM     56  C   UNL     1       1.476  10.316  -0.487  1.00  0.00     0.102 C 
ATOM     57  C   UNL     1       0.431  11.096  -0.164  1.00  0.00     0.043 C 
BRANCH  56  58
ATOM     58  C   UNL     1       1.821  10.320  -1.958  1.00  0.00     0.268 C 
ATOM     59  O   UNL     1       2.419  11.237  -2.503  1.00  0.00    -0.268 OA
ATOM     60  N   UNL     1       1.452   9.162  -2.601  1.00  0.00    -0.339 N 
ATOM     61  H   UNL     1       0.950   8.453  -2.080  1.00  0.00     0.164 HD
BRANCH  60  62
ATOM     62  C   UNL     1       1.747   8.929  -4.015  1.00  0.00     0.168 CG0
ATOM     63  C   UNL     1       0.555   9.298  -4.890  1.00  0.00     0.041 C 
ATOM     64  G   UNL     1       2.142   7.453  -4.224  1.00  0.00     0.000 G0
ENDBRANCH  60  62
ENDBRANCH  56  58
ENDBRANCH  54  56
ENDBRANCH  52  54
ENDBRANCH  51  52
ENDBRANCH  50  51
ENDBRANCH  49  50
BRANCH  49  65
ATOM     65  C   UNL     1       0.523   4.855   3.798  1.00  0.00     0.326 C 
ATOM     66  O   UNL     1       0.397   4.116   4.764  1.00  0.00    -0.250 OA
BRANCH  65  67
ATOM     67  O   UNL     1      -0.059   4.527   2.623  1.00  0.00    -0.480 OA
ATOM     68  H   UNL     1       0.150   5.289   2.041  1.00  0.00     0.296 HD
ENDBRANCH  65  67
ENDBRANCH  49  65
ENDBRANCH  47  49
ENDBRANCH  43  45
ENDBRANCH   1  43
BRANCH   1  69
ATOM     69  C   UNL     1      -2.652   9.801   6.565  1.00  0.00    -0.001 C 
ATOM     70  C   UNL     1      -3.972   9.576   6.451  1.00  0.00     0.001 C 
BRANCH  70  71
ATOM     71  C   UNL     1      -5.050  10.550   6.635  1.00  0.00    -0.055 C 
ATOM     72  C   UNL     1      -6.098  10.495   5.787  1.00  0.00    -0.018 C 
ATOM     73  C   UNL     1      -4.916  11.540   7.763  1.00  0.00     0.044 C 
BRANCH  72  74
ATOM     74  C   UNL     1      -7.346  11.365   5.740  1.00  0.00     0.038 C 
ATOM     75  C   UNL     1      -8.353  10.766   6.730  1.00  0.00     0.015 C 
BRANCH  74  76
ATOM     76  C   UNL     1      -7.847  11.443   4.267  1.00  0.00     0.128 C 
BRANCH  76  77
ATOM     77  O   UNL     1      -6.962  10.705   3.408  1.00  0.00    -0.381 OA
ATOM     78  C   UNL     1      -6.296  11.511   2.445  1.00  0.00     0.195 C 
ENDBRANCH  76  77
BRANCH  76  79
ATOM     79  C   UNL     1      -9.332  11.043   4.085  1.00  0.00     0.068 C 
BRANCH  79  80
ATOM     80  C   UNL     1     -10.153  11.811   3.078  1.00  0.00    -0.045 A 
ATOM     81  C   UNL     1     -11.492  11.477   2.833  1.00  0.00     0.004 A 
ATOM     82  C   UNL     1      -9.575  12.859   2.346  1.00  0.00     0.004 A 
ATOM     83  C   UNL     1     -12.241  12.184   1.889  1.00  0.00     0.000 A 
ATOM     84  C   UNL     1     -10.324  13.564   1.402  1.00  0.00     0.000 A 
ATOM     85  C   UNL     1     -11.657  13.228   1.175  1.00  0.00     0.000 A 
ENDBRANCH  79  80
ENDBRANCH  76  79
ENDBRANCH  74  76
ENDBRANCH  72  74
ENDBRANCH  70  71
ENDBRANCH   1  69
TORSDOF 17
ENDMDL
MODEL 30
REMARK VINA RESULT:    -6.135      4.018     12.547
REMARK INTER + INTRA:         -25.529
REMARK INTER:                 -17.579
REMARK INTRA:                  -7.950
REMARK UNBOUND:                -7.200
REMARK SMILES C=C1C(=O)N[C@H](C)C(=O)N[C@@H](CC(C)C)C(=O)N[C@@H](C(=O)O)[C@H](C)C(=O)N[C@@H](CCCN=C(N)N)C(=O)N[C@@H](/C=C/C(C)=C/[C@H](C)[C@H](Cc2ccccc2)OC)[C@H](C)C(=O)N[C@@H](C(=O)O)CCC(=O)N1C
REMARK SMILES IDX 39 1 38 2 37 3 36 4 28 6 27 7 25 8 26 9 23 11 24 12 19 13
REMARK SMILES IDX 18 14 16 15 17 16 11 18 10 19 8 20 9 21 12 24 13 25 14 26
REMARK SMILES IDX 15 27 20 28 21 29 22 30 29 32 30 33 31 34 32 35 33 36 34 37
REMARK SMILES IDX 35 38 57 43 58 44 59 45 60 46 61 47 62 49 66 50 67 51 68 52
REMARK SMILES IDX 69 53 70 54 71 55 2 56 1 57 3 58 4 59 5 60 6 62 7 63 63 65
REMARK SMILES IDX 64 66 65 67 40 69 41 70 42 71 44 72 43 73 45 74 46 75 47 76
REMARK SMILES IDX 55 77 56 78 48 79 49 80 50 81 54 82 51 83 53 84 52 85
REMARK H PARENT 38 5 27 10 18 17 10 22 22 31 34 39 34 40 35 41 35 42 61 48
REMARK H PARENT 5 61 65 68
REMARK Flexibility Score:  369.900
ROOT
ATOM      1  C   UNL     1      -3.611   9.916   6.026  1.00  0.00     0.117 C 
ENDROOT
BRANCH   1   2
ATOM      2  N   UNL     1      -2.546   9.579   6.971  1.00  0.00    -0.347 N 
ATOM      3  O   UNL     1      -2.780   7.296   6.906  1.00  0.00    -0.273 OA
ATOM      4  C   UNL     1      -2.155   8.287   7.267  1.00  0.00     0.243 C 
ATOM      5  H   UNL     1      -2.020  10.320   7.409  1.00  0.00     0.164 HD
BRANCH   4   6
ATOM      6  C   UNL     1      -0.946   8.208   8.234  1.00  0.00     0.171 C 
BRANCH   6   7
ATOM      7  N   UNL     1      -0.640   6.807   8.562  1.00  0.00    -0.344 N 
ATOM      8  C   UNL     1      -1.187   6.210   9.677  1.00  0.00     0.226 C 
ATOM      9  O   UNL     1      -1.922   6.809  10.453  1.00  0.00    -0.275 OA
ATOM     10  H   UNL     1       0.017   6.300   7.982  1.00  0.00     0.164 HD
BRANCH   8  11
ATOM     11  C   UNL     1      -0.819   4.746   9.847  1.00  0.00     0.109 C 
ATOM     12  C   UNL     1      -0.027   4.550  11.140  1.00  0.00     0.021 C 
BRANCH  11  13
ATOM     13  C   UNL     1      -2.083   3.873   9.723  1.00  0.00     0.204 C 
BRANCH  13  14
ATOM     14  N   UNL     1      -3.017   4.094  10.831  1.00  0.00    -0.340 N 
ATOM     15  C   UNL     1      -3.754   3.079  11.402  1.00  0.00     0.243 C 
ATOM     16  O   UNL     1      -3.634   1.903  11.062  1.00  0.00    -0.273 OA
ATOM     17  H   UNL     1      -3.275   5.058  11.057  1.00  0.00     0.164 HD
BRANCH  15  18
ATOM     18  C   UNL     1      -4.820   3.579  12.408  1.00  0.00     0.171 C 
BRANCH  18  19
ATOM     19  N   UNL     1      -4.111   3.895  13.647  1.00  0.00    -0.343 N 
ATOM     20  C   UNL     1      -4.455   3.312  14.852  1.00  0.00     0.242 CG0
ATOM     21  O   UNL     1      -5.453   2.605  14.963  1.00  0.00    -0.273 OA
ATOM     22  H   UNL     1      -3.350   4.564  13.627  1.00  0.00     0.164 HD
ATOM     23  G   UNL     1      -3.544   3.709  16.032  1.00  0.00     0.000 G0
ENDBRANCH  18  19
BRANCH  18  24
ATOM     24  C   UNL     1      -5.556   4.804  11.853  1.00  0.00     0.038 C 
BRANCH  24  25
ATOM     25  C   UNL     1      -7.047   4.570  11.531  1.00  0.00    -0.015 C 
ATOM     26  C   UNL     1      -7.738   5.830  11.010  1.00  0.00     0.007 C 
ATOM     27  C   UNL     1      -7.770   4.065  12.783  1.00  0.00     0.007 C 
ENDBRANCH  24  25
ENDBRANCH  18  24
ENDBRANCH  15  18
ENDBRANCH  13  14
BRANCH  13  28
ATOM     28  C   UNL     1      -2.857   4.113   8.423  1.00  0.00     0.327 C 
ATOM     29  O   UNL     1      -2.562   3.686   7.317  1.00  0.00    -0.250 OA
BRANCH  28  30
ATOM     30  O   UNL     1      -3.886   4.972   8.571  1.00  0.00    -0.480 OA
ATOM     31  H   UNL     1      -4.609   4.576   8.041  1.00  0.00     0.296 HD
ENDBRANCH  28  30
ENDBRANCH  13  28
ENDBRANCH  11  13
ENDBRANCH   8  11
ENDBRANCH   6   7
BRANCH   6  32
ATOM     32  C   UNL     1       0.262   8.896   7.588  1.00  0.00     0.037 C 
BRANCH  32  33
ATOM     33  C   UNL     1       1.020   9.788   8.581  1.00  0.00     0.026 C 
BRANCH  33  34
ATOM     34  C   UNL     1       0.820  11.278   8.298  1.00  0.00     0.146 C 
BRANCH  34  35
ATOM     35  N   UNL     1      -0.317  11.755   9.073  1.00  0.00    -0.254 NA
ATOM     36  C   UNL     1      -1.167  12.527   8.504  1.00  0.00     0.185 C 
ATOM     37  N   UNL     1      -2.222  12.968   9.207  1.00  0.00    -0.370 N 
ATOM     38  N   UNL     1      -1.173  12.993   7.243  1.00  0.00    -0.370 N 
ATOM     39  H   UNL     1      -2.294  12.651  10.165  1.00  0.00     0.159 HD
ATOM     40  H   UNL     1      -3.014  13.427   8.791  1.00  0.00     0.159 HD
ATOM     41  H   UNL     1      -1.822  13.707   6.954  1.00  0.00     0.159 HD
ATOM     42  H   UNL     1      -0.430  12.755   6.605  1.00  0.00     0.159 HD
ENDBRANCH  34  35
ENDBRANCH  33  34
ENDBRANCH  32  33
ENDBRANCH   6  32
ENDBRANCH   4   6
ENDBRANCH   1   2
BRANCH   1  43
ATOM     43  C   UNL     1      -2.973  10.620   4.793  1.00  0.00     0.102 C 
ATOM     44  C   UNL     1      -3.771  10.421   3.494  1.00  0.00     0.020 C 
BRANCH  43  45
ATOM     45  C   UNL     1      -1.487  10.273   4.669  1.00  0.00     0.225 C 
ATOM     46  O   UNL     1      -0.591  10.990   5.107  1.00  0.00    -0.275 OA
ATOM     47  N   UNL     1      -1.202   9.138   3.944  1.00  0.00    -0.342 N 
ATOM     48  H   UNL     1      -1.942   8.486   3.725  1.00  0.00     0.164 HD
BRANCH  47  49
ATOM     49  C   UNL     1       0.174   8.664   3.773  1.00  0.00     0.192 C 
BRANCH  49  50
ATOM     50  C   UNL     1       0.626   8.906   2.330  1.00  0.00     0.047 C 
BRANCH  50  51
ATOM     51  C   UNL     1       1.624  10.066   2.219  1.00  0.00     0.103 C 
BRANCH  51  52
ATOM     52  C   UNL     1       1.262  11.029   1.091  1.00  0.00     0.226 C 
ATOM     53  O   UNL     1       0.166  11.594   1.099  1.00  0.00    -0.275 OA
BRANCH  52  54
ATOM     54  N   UNL     1       2.260  11.272   0.129  1.00  0.00    -0.311 N 
ATOM     55  C   UNL     1       3.311  12.270   0.365  1.00  0.00     0.153 C 
BRANCH  54  56
ATOM     56  C   UNL     1       2.293  10.567  -1.086  1.00  0.00     0.102 C 
ATOM     57  C   UNL     1       2.765   9.320  -1.239  1.00  0.00     0.043 C 
BRANCH  56  58
ATOM     58  C   UNL     1       1.733  11.176  -2.350  1.00  0.00     0.268 C 
ATOM     59  O   UNL     1       2.388  11.893  -3.095  1.00  0.00    -0.268 OA
ATOM     60  N   UNL     1       0.440  10.790  -2.610  1.00  0.00    -0.339 N 
ATOM     61  H   UNL     1      -0.037  10.202  -1.937  1.00  0.00     0.164 HD
BRANCH  60  62
ATOM     62  C   UNL     1      -0.273  11.213  -3.814  1.00  0.00     0.168 CG0
ATOM     63  C   UNL     1       0.168  10.399  -5.025  1.00  0.00     0.041 C 
ATOM     64  G   UNL     1      -0.036  12.719  -4.053  1.00  0.00     0.000 G0
ENDBRANCH  60  62
ENDBRANCH  56  58
ENDBRANCH  54  56
ENDBRANCH  52  54
ENDBRANCH  51  52
ENDBRANCH  50  51
ENDBRANCH  49  50
BRANCH  49  65
ATOM     65  C   UNL     1       0.304   7.169   4.103  1.00  0.00     0.326 C 
ATOM     66  O   UNL     1       1.321   6.501   3.988  1.00  0.00    -0.250 OA
BRANCH  65  67
ATOM     67  O   UNL     1      -0.846   6.577   4.496  1.00  0.00    -0.480 OA
ATOM     68  H   UNL     1      -0.542   5.839   5.067  1.00  0.00     0.296 HD
ENDBRANCH  65  67
ENDBRANCH  49  65
ENDBRANCH  47  49
ENDBRANCH  43  45
ENDBRANCH   1  43
BRANCH   1  69
ATOM     69  C   UNL     1      -4.670  10.652   6.825  1.00  0.00    -0.001 C 
ATOM     70  C   UNL     1      -4.821  10.670   8.161  1.00  0.00     0.001 C 
BRANCH  70  71
ATOM     71  C   UNL     1      -5.835  11.402   8.922  1.00  0.00    -0.055 C 
ATOM     72  C   UNL     1      -6.838  10.690   9.478  1.00  0.00    -0.018 C 
ATOM     73  C   UNL     1      -5.683  12.896   9.038  1.00  0.00     0.044 C 
BRANCH  72  74
ATOM     74  C   UNL     1      -8.014  11.173  10.315  1.00  0.00     0.038 C 
ATOM     75  C   UNL     1      -7.753  10.732  11.760  1.00  0.00     0.015 C 
BRANCH  74  76
ATOM     76  C   UNL     1      -9.331  10.625   9.691  1.00  0.00     0.128 C 
BRANCH  76  77
ATOM     77  O   UNL     1     -10.322  10.446  10.717  1.00  0.00    -0.381 OA
ATOM     78  C   UNL     1     -11.608  10.936  10.361  1.00  0.00     0.195 C 
ENDBRANCH  76  77
BRANCH  76  79
ATOM     79  C   UNL     1      -9.853  11.455   8.492  1.00  0.00     0.068 C 
BRANCH  79  80
ATOM     80  C   UNL     1      -9.104  11.357   7.185  1.00  0.00    -0.045 A 
ATOM     81  C   UNL     1      -9.027  10.145   6.486  1.00  0.00     0.004 A 
ATOM     82  C   UNL     1      -8.446  12.480   6.661  1.00  0.00     0.004 A 
ATOM     83  C   UNL     1      -8.320  10.059   5.285  1.00  0.00     0.000 A 
ATOM     84  C   UNL     1      -7.739  12.393   5.460  1.00  0.00     0.000 A 
ATOM     85  C   UNL     1      -7.677  11.183   4.771  1.00  0.00     0.000 A 
ENDBRANCH  79  80
ENDBRANCH  76  79
ENDBRANCH  74  76
ENDBRANCH  72  74
ENDBRANCH  70  71
ENDBRANCH   1  69
TORSDOF 17
ENDMDL
MODEL 31
REMARK VINA RESULT:    -6.133      5.757     12.075
REMARK INTER + INTRA:         -25.524
REMARK INTER:                 -18.898
REMARK INTRA:                  -6.626
REMARK UNBOUND:                -7.200
REMARK SMILES C=C1C(=O)N[C@H](C)C(=O)N[C@@H](CC(C)C)C(=O)N[C@@H](C(=O)O)[C@H](C)C(=O)N[C@@H](CCCN=C(N)N)C(=O)N[C@@H](/C=C/C(C)=C/[C@H](C)[C@H](Cc2ccccc2)OC)[C@H](C)C(=O)N[C@@H](C(=O)O)CCC(=O)N1C
REMARK SMILES IDX 39 1 38 2 37 3 36 4 28 6 27 7 25 8 26 9 23 11 24 12 19 13
REMARK SMILES IDX 18 14 16 15 17 16 11 18 10 19 8 20 9 21 12 24 13 25 14 26
REMARK SMILES IDX 15 27 20 28 21 29 22 30 29 32 30 33 31 34 32 35 33 36 34 37
REMARK SMILES IDX 35 38 57 43 58 44 59 45 60 46 61 47 62 49 66 50 67 51 68 52
REMARK SMILES IDX 69 53 70 54 71 55 2 56 1 57 3 58 4 59 5 60 6 62 7 63 63 65
REMARK SMILES IDX 64 66 65 67 40 69 41 70 42 71 44 72 43 73 45 74 46 75 47 76
REMARK SMILES IDX 55 77 56 78 48 79 49 80 50 81 54 82 51 83 53 84 52 85
REMARK H PARENT 38 5 27 10 18 17 10 22 22 31 34 39 34 40 35 41 35 42 61 48
REMARK H PARENT 5 61 65 68
REMARK Flexibility Score:  369.900
ROOT
ATOM      1  C   UNL     1      -2.312   9.945   7.922  1.00  0.00     0.117 C 
ENDROOT
BRANCH   1   2
ATOM      2  N   UNL     1      -2.531   8.516   8.149  1.00  0.00    -0.347 N 
ATOM      3  O   UNL     1      -4.011   8.699   9.895  1.00  0.00    -0.273 OA
ATOM      4  C   UNL     1      -3.436   8.007   9.061  1.00  0.00     0.243 C 
ATOM      5  H   UNL     1      -2.037   7.844   7.582  1.00  0.00     0.164 HD
BRANCH   4   6
ATOM      6  C   UNL     1      -3.536   6.461   9.044  1.00  0.00     0.171 C 
BRANCH   6   7
ATOM      7  N   UNL     1      -2.198   5.860   8.931  1.00  0.00    -0.344 N 
ATOM      8  C   UNL     1      -1.989   4.754   8.135  1.00  0.00     0.226 C 
ATOM      9  O   UNL     1      -2.892   4.210   7.511  1.00  0.00    -0.275 OA
ATOM     10  H   UNL     1      -1.441   6.241   9.484  1.00  0.00     0.164 HD
BRANCH   8  11
ATOM     11  C   UNL     1      -0.545   4.287   8.080  1.00  0.00     0.109 C 
ATOM     12  C   UNL     1       0.381   5.374   8.627  1.00  0.00     0.021 C 
BRANCH  11  13
ATOM     13  C   UNL     1      -0.414   2.915   8.773  1.00  0.00     0.204 C 
BRANCH  13  14
ATOM     14  N   UNL     1      -1.587   2.598   9.594  1.00  0.00    -0.340 N 
ATOM     15  C   UNL     1      -1.597   2.727  10.966  1.00  0.00     0.243 C 
ATOM     16  O   UNL     1      -0.641   3.176  11.594  1.00  0.00    -0.273 OA
ATOM     17  H   UNL     1      -2.354   2.081   9.156  1.00  0.00     0.164 HD
BRANCH  15  18
ATOM     18  C   UNL     1      -2.865   2.139  11.633  1.00  0.00     0.171 C 
BRANCH  18  19
ATOM     19  N   UNL     1      -2.634   0.702  11.776  1.00  0.00    -0.343 N 
ATOM     20  C   UNL     1      -2.135   0.157  12.943  1.00  0.00     0.242 CG0
ATOM     21  O   UNL     1      -1.737   0.865  13.865  1.00  0.00    -0.273 OA
ATOM     22  H   UNL     1      -2.839   0.086  10.998  1.00  0.00     0.164 HD
ATOM     23  G   UNL     1      -2.034  -1.382  12.935  1.00  0.00     0.000 G0
ENDBRANCH  18  19
BRANCH  18  24
ATOM     24  C   UNL     1      -3.121   2.805  12.990  1.00  0.00     0.038 C 
BRANCH  24  25
ATOM     25  C   UNL     1      -4.595   3.175  13.258  1.00  0.00    -0.015 C 
ATOM     26  C   UNL     1      -4.736   4.434  14.115  1.00  0.00     0.007 C 
ATOM     27  C   UNL     1      -5.304   2.004  13.944  1.00  0.00     0.007 C 
ENDBRANCH  24  25
ENDBRANCH  18  24
ENDBRANCH  15  18
ENDBRANCH  13  14
BRANCH  13  28
ATOM     28  C   UNL     1      -0.223   1.758   7.788  1.00  0.00     0.327 C 
ATOM     29  O   UNL     1      -0.986   1.440   6.889  1.00  0.00    -0.250 OA
BRANCH  28  30
ATOM     30  O   UNL     1       0.856   0.999   8.068  1.00  0.00    -0.480 OA
ATOM     31  H   UNL     1       1.612   1.618   7.998  1.00  0.00     0.296 HD
ENDBRANCH  28  30
ENDBRANCH  13  28
ENDBRANCH  11  13
ENDBRANCH   8  11
ENDBRANCH   6   7
BRANCH   6  32
ATOM     32  C   UNL     1      -4.243   5.988  10.319  1.00  0.00     0.037 C 
BRANCH  32  33
ATOM     33  C   UNL     1      -5.331   4.946  10.026  1.00  0.00     0.026 C 
BRANCH  33  34
ATOM     34  C   UNL     1      -6.738   5.543  10.063  1.00  0.00     0.146 C 
BRANCH  34  35
ATOM     35  N   UNL     1      -7.206   5.557  11.442  1.00  0.00    -0.254 NA
ATOM     36  C   UNL     1      -7.737   4.495  11.923  1.00  0.00     0.185 C 
ATOM     37  N   UNL     1      -8.167   4.496  13.194  1.00  0.00    -0.370 N 
ATOM     38  N   UNL     1      -7.944   3.309  11.323  1.00  0.00    -0.370 N 
ATOM     39  H   UNL     1      -8.036   5.353  13.717  1.00  0.00     0.159 HD
ATOM     40  H   UNL     1      -8.430   3.664  13.692  1.00  0.00     0.159 HD
ATOM     41  H   UNL     1      -8.498   2.593  11.763  1.00  0.00     0.159 HD
ATOM     42  H   UNL     1      -7.684   3.169  10.359  1.00  0.00     0.159 HD
ENDBRANCH  34  35
ENDBRANCH  33  34
ENDBRANCH  32  33
ENDBRANCH   6  32
ENDBRANCH   4   6
ENDBRANCH   1   2
BRANCH   1  43
ATOM     43  C   UNL     1      -2.731  10.284   6.462  1.00  0.00     0.102 C 
ATOM     44  C   UNL     1      -2.024  11.526   5.896  1.00  0.00     0.020 C 
BRANCH  43  45
ATOM     45  C   UNL     1      -4.256  10.318   6.321  1.00  0.00     0.225 C 
ATOM     46  O   UNL     1      -4.838  10.059   5.272  1.00  0.00    -0.275 OA
ATOM     47  N   UNL     1      -4.943  10.753   7.431  1.00  0.00    -0.342 N 
ATOM     48  H   UNL     1      -4.469  10.815   8.321  1.00  0.00     0.164 HD
BRANCH  47  49
ATOM     49  C   UNL     1      -6.408  10.804   7.453  1.00  0.00     0.192 C 
BRANCH  49  50
ATOM     50  C   UNL     1      -6.881  12.202   7.044  1.00  0.00     0.047 C 
BRANCH  50  51
ATOM     51  C   UNL     1      -8.397  12.258   6.811  1.00  0.00     0.103 C 
BRANCH  51  52
ATOM     52  C   UNL     1      -8.880  11.128   5.905  1.00  0.00     0.226 C 
ATOM     53  O   UNL     1      -9.606  10.245   6.366  1.00  0.00    -0.275 OA
BRANCH  52  54
ATOM     54  N   UNL     1      -8.516  11.212   4.548  1.00  0.00    -0.311 N 
ATOM     55  C   UNL     1      -7.607  10.228   3.946  1.00  0.00     0.153 C 
BRANCH  54  56
ATOM     56  C   UNL     1      -9.011  12.234   3.720  1.00  0.00     0.102 C 
ATOM     57  C   UNL     1      -8.432  13.434   3.552  1.00  0.00     0.043 C 
BRANCH  56  58
ATOM     58  C   UNL     1     -10.256  12.025   2.891  1.00  0.00     0.268 C 
ATOM     59  O   UNL     1     -11.132  11.223   3.189  1.00  0.00    -0.268 OA
ATOM     60  N   UNL     1     -10.335  12.871   1.811  1.00  0.00    -0.339 N 
ATOM     61  H   UNL     1      -9.562  13.499   1.627  1.00  0.00     0.164 HD
BRANCH  60  62
ATOM     62  C   UNL     1     -11.487  12.881   0.911  1.00  0.00     0.168 CG0
ATOM     63  C   UNL     1     -11.321  13.932  -0.179  1.00  0.00     0.041 C 
ATOM     64  G   UNL     1     -12.774  13.134   1.723  1.00  0.00     0.000 G0
ENDBRANCH  60  62
ENDBRANCH  56  58
ENDBRANCH  54  56
ENDBRANCH  52  54
ENDBRANCH  51  52
ENDBRANCH  50  51
ENDBRANCH  49  50
BRANCH  49  65
ATOM     65  C   UNL     1      -6.966  10.465   8.844  1.00  0.00     0.326 C 
ATOM     66  O   UNL     1      -6.602  10.967   9.898  1.00  0.00    -0.250 OA
BRANCH  65  67
ATOM     67  O   UNL     1      -7.896   9.484   8.855  1.00  0.00    -0.480 OA
ATOM     68  H   UNL     1      -7.801   9.066   7.972  1.00  0.00     0.296 HD
ENDBRANCH  65  67
ENDBRANCH  49  65
ENDBRANCH  47  49
ENDBRANCH  43  45
ENDBRANCH   1  43
BRANCH   1  69
ATOM     69  C   UNL     1      -0.888  10.231   8.362  1.00  0.00    -0.001 C 
ATOM     70  C   UNL     1      -0.219   9.667   9.384  1.00  0.00     0.001 C 
BRANCH  70  71
ATOM     71  C   UNL     1       1.163   9.936   9.785  1.00  0.00    -0.055 C 
ATOM     72  C   UNL     1       2.149   9.448   9.004  1.00  0.00    -0.018 C 
ATOM     73  C   UNL     1       1.386  10.744  11.037  1.00  0.00     0.044 C 
BRANCH  72  74
ATOM     74  C   UNL     1       3.658   9.570   9.169  1.00  0.00     0.038 C 
ATOM     75  C   UNL     1       4.262   9.646   7.761  1.00  0.00     0.015 C 
BRANCH  74  76
ATOM     76  C   UNL     1       4.165   8.379  10.034  1.00  0.00     0.128 C 
BRANCH  76  77
ATOM     77  O   UNL     1       4.427   8.824  11.376  1.00  0.00    -0.381 OA
ATOM     78  C   UNL     1       5.751   8.559  11.818  1.00  0.00     0.195 C 
ENDBRANCH  76  77
BRANCH  76  79
ATOM     79  C   UNL     1       3.251   7.130   9.984  1.00  0.00     0.068 C 
BRANCH  79  80
ATOM     80  C   UNL     1       2.697   6.606  11.287  1.00  0.00    -0.045 A 
ATOM     81  C   UNL     1       3.404   5.663  12.045  1.00  0.00     0.004 A 
ATOM     82  C   UNL     1       1.444   7.038  11.748  1.00  0.00     0.004 A 
ATOM     83  C   UNL     1       2.879   5.173  13.242  1.00  0.00     0.000 A 
ATOM     84  C   UNL     1       0.920   6.547  12.946  1.00  0.00     0.000 A 
ATOM     85  C   UNL     1       1.638   5.616  13.693  1.00  0.00     0.000 A 
ENDBRANCH  79  80
ENDBRANCH  76  79
ENDBRANCH  74  76
ENDBRANCH  72  74
ENDBRANCH  70  71
ENDBRANCH   1  69
TORSDOF 17
ENDMDL
MODEL 32
REMARK VINA RESULT:    -6.132      4.372      9.934
REMARK INTER + INTRA:         -25.521
REMARK INTER:                 -20.112
REMARK INTRA:                  -5.409
REMARK UNBOUND:                -7.200
REMARK SMILES C=C1C(=O)N[C@H](C)C(=O)N[C@@H](CC(C)C)C(=O)N[C@@H](C(=O)O)[C@H](C)C(=O)N[C@@H](CCCN=C(N)N)C(=O)N[C@@H](/C=C/C(C)=C/[C@H](C)[C@H](Cc2ccccc2)OC)[C@H](C)C(=O)N[C@@H](C(=O)O)CCC(=O)N1C
REMARK SMILES IDX 39 1 38 2 37 3 36 4 28 6 27 7 25 8 26 9 23 11 24 12 19 13
REMARK SMILES IDX 18 14 16 15 17 16 11 18 10 19 8 20 9 21 12 24 13 25 14 26
REMARK SMILES IDX 15 27 20 28 21 29 22 30 29 32 30 33 31 34 32 35 33 36 34 37
REMARK SMILES IDX 35 38 57 43 58 44 59 45 60 46 61 47 62 49 66 50 67 51 68 52
REMARK SMILES IDX 69 53 70 54 71 55 2 56 1 57 3 58 4 59 5 60 6 62 7 63 63 65
REMARK SMILES IDX 64 66 65 67 40 69 41 70 42 71 44 72 43 73 45 74 46 75 47 76
REMARK SMILES IDX 55 77 56 78 48 79 49 80 50 81 54 82 51 83 53 84 52 85
REMARK H PARENT 38 5 27 10 18 17 10 22 22 31 34 39 34 40 35 41 35 42 61 48
REMARK H PARENT 5 61 65 68
REMARK Flexibility Score:  369.900
ROOT
ATOM      1  C   UNL     1      -6.419  10.625   3.173  1.00  0.00     0.117 C 
ENDROOT
BRANCH   1   2
ATOM      2  N   UNL     1      -6.980  11.929   2.817  1.00  0.00    -0.347 N 
ATOM      3  O   UNL     1      -6.150  12.055   0.680  1.00  0.00    -0.273 OA
ATOM      4  C   UNL     1      -6.876  12.499   1.563  1.00  0.00     0.243 C 
ATOM      5  H   UNL     1      -7.521  12.437   3.500  1.00  0.00     0.164 HD
BRANCH   4   6
ATOM      6  C   UNL     1      -7.633  13.845   1.426  1.00  0.00     0.171 C 
BRANCH   6   7
ATOM      7  N   UNL     1      -8.120  14.023   0.049  1.00  0.00    -0.344 N 
ATOM      8  C   UNL     1      -8.118  15.268  -0.542  1.00  0.00     0.226 C 
ATOM      9  O   UNL     1      -7.738  16.276   0.043  1.00  0.00    -0.275 OA
ATOM     10  H   UNL     1      -8.504  13.226  -0.443  1.00  0.00     0.164 HD
BRANCH   8  11
ATOM     11  C   UNL     1      -8.599  15.278  -1.983  1.00  0.00     0.109 C 
ATOM     12  C   UNL     1      -7.586  16.001  -2.871  1.00  0.00     0.021 C 
BRANCH  11  13
ATOM     13  C   UNL     1      -8.943  13.842  -2.427  1.00  0.00     0.204 C 
BRANCH  13  14
ATOM     14  N   UNL     1     -10.115  13.803  -3.307  1.00  0.00    -0.340 N 
ATOM     15  C   UNL     1     -11.254  13.089  -3.005  1.00  0.00     0.243 C 
ATOM     16  O   UNL     1     -11.391  12.482  -1.944  1.00  0.00    -0.273 OA
ATOM     17  H   UNL     1     -10.011  14.156  -4.262  1.00  0.00     0.164 HD
BRANCH  15  18
ATOM     18  C   UNL     1     -12.272  13.025  -4.170  1.00  0.00     0.171 C 
BRANCH  18  19
ATOM     19  N   UNL     1     -12.502  14.403  -4.601  1.00  0.00    -0.343 N 
ATOM     20  C   UNL     1     -13.771  14.944  -4.663  1.00  0.00     0.242 CG0
ATOM     21  O   UNL     1     -14.774  14.256  -4.488  1.00  0.00    -0.273 OA
ATOM     22  H   UNL     1     -11.712  14.979  -4.868  1.00  0.00     0.164 HD
ATOM     23  G   UNL     1     -13.809  16.434  -5.063  1.00  0.00     0.000 G0
ENDBRANCH  18  19
BRANCH  18  24
ATOM     24  C   UNL     1     -11.730  12.161  -5.315  1.00  0.00     0.038 C 
BRANCH  24  25
ATOM     25  C   UNL     1     -12.442  10.803  -5.491  1.00  0.00    -0.015 C 
ATOM     26  C   UNL     1     -13.739  10.714  -4.686  1.00  0.00     0.007 C 
ATOM     27  C   UNL     1     -11.500   9.670  -5.077  1.00  0.00     0.007 C 
ENDBRANCH  24  25
ENDBRANCH  18  24
ENDBRANCH  15  18
ENDBRANCH  13  14
BRANCH  13  28
ATOM     28  C   UNL     1      -7.795  13.149  -3.169  1.00  0.00     0.327 C 
ATOM     29  O   UNL     1      -7.636  13.109  -4.379  1.00  0.00    -0.250 OA
BRANCH  28  30
ATOM     30  O   UNL     1      -6.984  12.449  -2.350  1.00  0.00    -0.480 OA
ATOM     31  H   UNL     1      -7.362  11.544  -2.353  1.00  0.00     0.296 HD
ENDBRANCH  28  30
ENDBRANCH  13  28
ENDBRANCH  11  13
ENDBRANCH   8  11
ENDBRANCH   6   7
BRANCH   6  32
ATOM     32  C   UNL     1      -8.794  13.874   2.425  1.00  0.00     0.037 C 
BRANCH  32  33
ATOM     33  C   UNL     1     -10.062  13.218   1.859  1.00  0.00     0.026 C 
BRANCH  33  34
ATOM     34  C   UNL     1     -10.670  12.195   2.819  1.00  0.00     0.146 C 
BRANCH  34  35
ATOM     35  N   UNL     1     -11.669  11.414   2.102  1.00  0.00    -0.254 NA
ATOM     36  C   UNL     1     -12.851  11.891   1.981  1.00  0.00     0.185 C 
ATOM     37  N   UNL     1     -13.778  11.182   1.318  1.00  0.00    -0.370 N 
ATOM     38  N   UNL     1     -13.343  13.056   2.438  1.00  0.00    -0.370 N 
ATOM     39  H   UNL     1     -13.481  10.294   0.933  1.00  0.00     0.159 HD
ATOM     40  H   UNL     1     -14.666  11.557   1.032  1.00  0.00     0.159 HD
ATOM     41  H   UNL     1     -14.329  13.256   2.400  1.00  0.00     0.159 HD
ATOM     42  H   UNL     1     -12.761  13.685   2.970  1.00  0.00     0.159 HD
ENDBRANCH  34  35
ENDBRANCH  33  34
ENDBRANCH  32  33
ENDBRANCH   6  32
ENDBRANCH   4   6
ENDBRANCH   1   2
BRANCH   1  43
ATOM     43  C   UNL     1      -7.149  10.102   4.443  1.00  0.00     0.102 C 
ATOM     44  C   UNL     1      -8.630   9.766   4.202  1.00  0.00     0.020 C 
BRANCH  43  45
ATOM     45  C   UNL     1      -6.909  11.030   5.637  1.00  0.00     0.225 C 
ATOM     46  O   UNL     1      -7.113  12.240   5.598  1.00  0.00    -0.275 OA
ATOM     47  N   UNL     1      -6.353  10.436   6.747  1.00  0.00    -0.342 N 
ATOM     48  H   UNL     1      -6.334   9.428   6.818  1.00  0.00     0.164 HD
BRANCH  47  49
ATOM     49  C   UNL     1      -6.101  11.193   7.977  1.00  0.00     0.192 C 
BRANCH  49  50
ATOM     50  C   UNL     1      -4.647  10.996   8.413  1.00  0.00     0.047 C 
BRANCH  50  51
ATOM     51  C   UNL     1      -3.992   9.788   7.728  1.00  0.00     0.103 C 
BRANCH  51  52
ATOM     52  C   UNL     1      -3.625   8.692   8.727  1.00  0.00     0.226 C 
ATOM     53  O   UNL     1      -4.445   8.341   9.577  1.00  0.00    -0.275 OA
BRANCH  52  54
ATOM     54  N   UNL     1      -2.365   8.088   8.558  1.00  0.00    -0.311 N 
ATOM     55  C   UNL     1      -1.210   8.509   9.362  1.00  0.00     0.153 C 
BRANCH  54  56
ATOM     56  C   UNL     1      -2.166   7.059   7.623  1.00  0.00     0.102 C 
ATOM     57  C   UNL     1      -1.405   7.159   6.521  1.00  0.00     0.043 C 
BRANCH  56  58
ATOM     58  C   UNL     1      -2.786   5.696   7.826  1.00  0.00     0.268 C 
ATOM     59  O   UNL     1      -3.200   5.004   6.906  1.00  0.00    -0.268 OA
ATOM     60  N   UNL     1      -2.775   5.288   9.139  1.00  0.00    -0.339 N 
ATOM     61  H   UNL     1      -2.423   5.925   9.844  1.00  0.00     0.164 HD
BRANCH  60  62
ATOM     62  C   UNL     1      -3.269   3.975   9.551  1.00  0.00     0.168 CG0
ATOM     63  C   UNL     1      -3.984   4.056  10.894  1.00  0.00     0.041 C 
ATOM     64  G   UNL     1      -2.094   2.978   9.617  1.00  0.00     0.000 G0
ENDBRANCH  60  62
ENDBRANCH  56  58
ENDBRANCH  54  56
ENDBRANCH  52  54
ENDBRANCH  51  52
ENDBRANCH  50  51
ENDBRANCH  49  50
BRANCH  49  65
ATOM     65  C   UNL     1      -7.037  10.757   9.114  1.00  0.00     0.326 C 
ATOM     66  O   UNL     1      -8.259  10.768   9.072  1.00  0.00    -0.250 OA
BRANCH  65  67
ATOM     67  O   UNL     1      -6.409  10.391  10.253  1.00  0.00    -0.480 OA
ATOM     68  H   UNL     1      -6.934   9.625  10.571  1.00  0.00     0.296 HD
ENDBRANCH  65  67
ENDBRANCH  49  65
ENDBRANCH  47  49
ENDBRANCH  43  45
ENDBRANCH   1  43
BRANCH   1  69
ATOM     69  C   UNL     1      -4.913  10.810   3.216  1.00  0.00    -0.001 C 
ATOM     70  C   UNL     1      -4.056  10.323   4.131  1.00  0.00     0.001 C 
BRANCH  70  71
ATOM     71  C   UNL     1      -2.601  10.489   4.150  1.00  0.00    -0.055 C 
ATOM     72  C   UNL     1      -1.869   9.709   3.328  1.00  0.00    -0.018 C 
ATOM     73  C   UNL     1      -2.025  11.525   5.080  1.00  0.00     0.044 C 
BRANCH  72  74
ATOM     74  C   UNL     1      -0.360   9.664   3.134  1.00  0.00     0.038 C 
ATOM     75  C   UNL     1       0.279   9.821   4.518  1.00  0.00     0.015 C 
BRANCH  74  76
ATOM     76  C   UNL     1       0.045  10.755   2.100  1.00  0.00     0.128 C 
BRANCH  76  77
ATOM     77  O   UNL     1       0.472  11.945   2.784  1.00  0.00    -0.381 OA
ATOM     78  C   UNL     1       1.697  12.476   2.296  1.00  0.00     0.195 C 
ENDBRANCH  76  77
BRANCH  76  79
ATOM     79  C   UNL     1       1.068  10.271   1.042  1.00  0.00     0.068 C 
BRANCH  79  80
ATOM     80  C   UNL     1       0.561   9.971  -0.348  1.00  0.00    -0.045 A 
ATOM     81  C   UNL     1       0.967   8.818  -1.031  1.00  0.00     0.004 A 
ATOM     82  C   UNL     1      -0.309  10.865  -0.991  1.00  0.00     0.004 A 
ATOM     83  C   UNL     1       0.504   8.555  -2.322  1.00  0.00     0.000 A 
ATOM     84  C   UNL     1      -0.771  10.601  -2.282  1.00  0.00     0.000 A 
ATOM     85  C   UNL     1      -0.366   9.446  -2.947  1.00  0.00     0.000 A 
ENDBRANCH  79  80
ENDBRANCH  76  79
ENDBRANCH  74  76
ENDBRANCH  72  74
ENDBRANCH  70  71
ENDBRANCH   1  69
TORSDOF 17
ENDMDL
MODEL 33
REMARK VINA RESULT:    -6.128      4.615      8.117
REMARK INTER + INTRA:         -25.508
REMARK INTER:                 -18.102
REMARK INTRA:                  -7.407
REMARK UNBOUND:                -7.200
REMARK SMILES C=C1C(=O)N[C@H](C)C(=O)N[C@@H](CC(C)C)C(=O)N[C@@H](C(=O)O)[C@H](C)C(=O)N[C@@H](CCCN=C(N)N)C(=O)N[C@@H](/C=C/C(C)=C/[C@H](C)[C@H](Cc2ccccc2)OC)[C@H](C)C(=O)N[C@@H](C(=O)O)CCC(=O)N1C
REMARK SMILES IDX 39 1 38 2 37 3 36 4 28 6 27 7 25 8 26 9 23 11 24 12 19 13
REMARK SMILES IDX 18 14 16 15 17 16 11 18 10 19 8 20 9 21 12 24 13 25 14 26
REMARK SMILES IDX 15 27 20 28 21 29 22 30 29 32 30 33 31 34 32 35 33 36 34 37
REMARK SMILES IDX 35 38 57 43 58 44 59 45 60 46 61 47 62 49 66 50 67 51 68 52
REMARK SMILES IDX 69 53 70 54 71 55 2 56 1 57 3 58 4 59 5 60 6 62 7 63 63 65
REMARK SMILES IDX 64 66 65 67 40 69 41 70 42 71 44 72 43 73 45 74 46 75 47 76
REMARK SMILES IDX 55 77 56 78 48 79 49 80 50 81 54 82 51 83 53 84 52 85
REMARK H PARENT 38 5 27 10 18 17 10 22 22 31 34 39 34 40 35 41 35 42 61 48
REMARK H PARENT 5 61 65 68
REMARK Flexibility Score:  369.900
ROOT
ATOM      1  C   UNL     1      -0.933  10.537   3.646  1.00  0.00     0.117 C 
ENDROOT
BRANCH   1   2
ATOM      2  N   UNL     1       0.170   9.686   4.093  1.00  0.00    -0.347 N 
ATOM      3  O   UNL     1       1.543  11.344   4.890  1.00  0.00    -0.273 OA
ATOM      4  C   UNL     1       1.283  10.151   4.764  1.00  0.00     0.243 C 
ATOM      5  H   UNL     1       0.111   8.688   3.955  1.00  0.00     0.164 HD
BRANCH   4   6
ATOM      6  C   UNL     1       2.261   9.031   5.202  1.00  0.00     0.171 C 
BRANCH   6   7
ATOM      7  N   UNL     1       1.820   7.729   4.676  1.00  0.00    -0.344 N 
ATOM      8  C   UNL     1       1.420   6.725   5.531  1.00  0.00     0.226 C 
ATOM      9  O   UNL     1       1.432   6.852   6.750  1.00  0.00    -0.275 OA
ATOM     10  H   UNL     1       1.861   7.564   3.678  1.00  0.00     0.164 HD
BRANCH   8  11
ATOM     11  C   UNL     1       0.942   5.464   4.834  1.00  0.00     0.109 C 
ATOM     12  C   UNL     1      -0.579   5.491   4.681  1.00  0.00     0.021 C 
BRANCH  11  13
ATOM     13  C   UNL     1       1.723   5.266   3.520  1.00  0.00     0.204 C 
BRANCH  13  14
ATOM     14  N   UNL     1       3.029   4.639   3.743  1.00  0.00    -0.340 N 
ATOM     15  C   UNL     1       4.220   5.260   3.437  1.00  0.00     0.243 C 
ATOM     16  O   UNL     1       4.273   6.412   3.010  1.00  0.00    -0.273 OA
ATOM     17  H   UNL     1       3.051   3.636   3.950  1.00  0.00     0.164 HD
BRANCH  15  18
ATOM     18  C   UNL     1       5.453   4.331   3.561  1.00  0.00     0.171 C 
BRANCH  18  19
ATOM     19  N   UNL     1       6.632   5.195   3.541  1.00  0.00    -0.343 N 
ATOM     20  C   UNL     1       7.801   4.818   2.909  1.00  0.00     0.242 CG0
ATOM     21  O   UNL     1       7.949   3.687   2.451  1.00  0.00    -0.273 OA
ATOM     22  H   UNL     1       6.597   6.095   4.007  1.00  0.00     0.164 HD
ATOM     23  G   UNL     1       8.909   5.891   2.925  1.00  0.00     0.000 G0
ENDBRANCH  18  19
BRANCH  18  24
ATOM     24  C   UNL     1       5.382   3.508   4.853  1.00  0.00     0.038 C 
BRANCH  24  25
ATOM     25  C   UNL     1       5.733   4.290   6.136  1.00  0.00    -0.015 C 
ATOM     26  C   UNL     1       6.938   3.701   6.870  1.00  0.00     0.007 C 
ATOM     27  C   UNL     1       4.522   4.315   7.072  1.00  0.00     0.007 C 
ENDBRANCH  24  25
ENDBRANCH  18  24
ENDBRANCH  15  18
ENDBRANCH  13  14
BRANCH  13  28
ATOM     28  C   UNL     1       0.975   4.406   2.497  1.00  0.00     0.327 C 
ATOM     29  O   UNL     1       0.521   4.785   1.428  1.00  0.00    -0.250 OA
BRANCH  28  30
ATOM     30  O   UNL     1       0.739   3.152   2.932  1.00  0.00    -0.480 OA
ATOM     31  H   UNL     1       1.032   3.162   3.867  1.00  0.00     0.296 HD
ENDBRANCH  28  30
ENDBRANCH  13  28
ENDBRANCH  11  13
ENDBRANCH   8  11
ENDBRANCH   6   7
BRANCH   6  32
ATOM     32  C   UNL     1       3.671   9.372   4.706  1.00  0.00     0.037 C 
BRANCH  32  33
ATOM     33  C   UNL     1       4.705   9.350   5.841  1.00  0.00     0.026 C 
BRANCH  33  34
ATOM     34  C   UNL     1       4.976   7.937   6.358  1.00  0.00     0.146 C 
BRANCH  34  35
ATOM     35  N   UNL     1       4.994   7.965   7.814  1.00  0.00    -0.254 NA
ATOM     36  C   UNL     1       6.096   7.723   8.420  1.00  0.00     0.185 C 
ATOM     37  N   UNL     1       6.125   7.751   9.761  1.00  0.00    -0.370 N 
ATOM     38  N   UNL     1       7.300   7.429   7.898  1.00  0.00    -0.370 N 
ATOM     39  H   UNL     1       5.257   7.977  10.230  1.00  0.00     0.159 HD
ATOM     40  H   UNL     1       6.975   7.746  10.299  1.00  0.00     0.159 HD
ATOM     41  H   UNL     1       8.061   7.122   8.482  1.00  0.00     0.159 HD
ATOM     42  H   UNL     1       7.423   7.358   6.900  1.00  0.00     0.159 HD
ENDBRANCH  34  35
ENDBRANCH  33  34
ENDBRANCH  32  33
ENDBRANCH   6  32
ENDBRANCH   4   6
ENDBRANCH   1   2
BRANCH   1  43
ATOM     43  C   UNL     1      -2.275   9.871   4.066  1.00  0.00     0.102 C 
ATOM     44  C   UNL     1      -3.498  10.438   3.325  1.00  0.00     0.020 C 
BRANCH  43  45
ATOM     45  C   UNL     1      -2.426   9.850   5.590  1.00  0.00     0.225 C 
ATOM     46  O   UNL     1      -1.817   9.067   6.313  1.00  0.00    -0.275 OA
ATOM     47  N   UNL     1      -3.368  10.711   6.104  1.00  0.00    -0.342 N 
ATOM     48  H   UNL     1      -3.745  11.445   5.521  1.00  0.00     0.164 HD
BRANCH  47  49
ATOM     49  C   UNL     1      -3.596  10.824   7.547  1.00  0.00     0.192 C 
BRANCH  49  50
ATOM     50  C   UNL     1      -5.064  10.524   7.862  1.00  0.00     0.047 C 
BRANCH  50  51
ATOM     51  C   UNL     1      -6.012  11.581   7.278  1.00  0.00     0.103 C 
BRANCH  51  52
ATOM     52  C   UNL     1      -6.783  11.054   6.070  1.00  0.00     0.226 C 
ATOM     53  O   UNL     1      -6.263  10.214   5.333  1.00  0.00    -0.275 OA
BRANCH  52  54
ATOM     54  N   UNL     1      -8.101  11.521   5.915  1.00  0.00    -0.311 N 
ATOM     55  C   UNL     1      -9.029  11.556   7.054  1.00  0.00     0.153 C 
BRANCH  54  56
ATOM     56  C   UNL     1      -8.577  11.975   4.674  1.00  0.00     0.102 C 
ATOM     57  C   UNL     1      -8.105  13.046   4.015  1.00  0.00     0.043 C 
BRANCH  56  58
ATOM     58  C   UNL     1      -9.669  11.231   3.943  1.00  0.00     0.268 C 
ATOM     59  O   UNL     1      -9.807  10.016   4.002  1.00  0.00    -0.268 OA
ATOM     60  N   UNL     1     -10.527  12.061   3.262  1.00  0.00    -0.339 N 
ATOM     61  H   UNL     1     -10.337  13.056   3.254  1.00  0.00     0.164 HD
BRANCH  60  62
ATOM     62  C   UNL     1     -11.691  11.554   2.538  1.00  0.00     0.168 CG0
ATOM     63  C   UNL     1     -12.446  12.687   1.853  1.00  0.00     0.041 C 
ATOM     64  G   UNL     1     -12.615  10.793   3.511  1.00  0.00     0.000 G0
ENDBRANCH  60  62
ENDBRANCH  56  58
ENDBRANCH  54  56
ENDBRANCH  52  54
ENDBRANCH  51  52
ENDBRANCH  50  51
ENDBRANCH  49  50
BRANCH  49  65
ATOM     65  C   UNL     1      -3.240  12.225   8.069  1.00  0.00     0.326 C 
ATOM     66  O   UNL     1      -3.059  13.216   7.376  1.00  0.00    -0.250 OA
BRANCH  65  67
ATOM     67  O   UNL     1      -3.069  12.302   9.407  1.00  0.00    -0.480 OA
ATOM     68  H   UNL     1      -3.835  12.838   9.707  1.00  0.00     0.296 HD
ENDBRANCH  65  67
ENDBRANCH  49  65
ENDBRANCH  47  49
ENDBRANCH  43  45
ENDBRANCH   1  43
BRANCH   1  69
ATOM     69  C   UNL     1      -0.683  10.819   2.176  1.00  0.00    -0.001 C 
ATOM     70  C   UNL     1      -0.748  12.007   1.549  1.00  0.00     0.001 C 
BRANCH  70  71
ATOM     71  C   UNL     1      -0.483  12.270   0.133  1.00  0.00    -0.055 C 
ATOM     72  C   UNL     1       0.560  13.071  -0.172  1.00  0.00    -0.018 C 
ATOM     73  C   UNL     1      -1.388  11.623  -0.883  1.00  0.00     0.044 C 
BRANCH  72  74
ATOM     74  C   UNL     1       1.068  13.512  -1.537  1.00  0.00     0.038 C 
ATOM     75  C   UNL     1      -0.161  13.813  -2.403  1.00  0.00     0.015 C 
BRANCH  74  76
ATOM     76  C   UNL     1       2.010  12.408  -2.101  1.00  0.00     0.128 C 
BRANCH  76  77
ATOM     77  O   UNL     1       2.767  12.927  -3.208  1.00  0.00    -0.381 OA
ATOM     78  C   UNL     1       3.572  14.049  -2.873  1.00  0.00     0.195 C 
ENDBRANCH  76  77
BRANCH  76  79
ATOM     79  C   UNL     1       2.902  11.733  -1.029  1.00  0.00     0.068 C 
BRANCH  79  80
ATOM     80  C   UNL     1       2.464  10.395  -0.484  1.00  0.00    -0.045 A 
ATOM     81  C   UNL     1       1.660   9.535  -1.244  1.00  0.00     0.004 A 
ATOM     82  C   UNL     1       2.835  10.003   0.810  1.00  0.00     0.004 A 
ATOM     83  C   UNL     1       1.247   8.305  -0.727  1.00  0.00     0.000 A 
ATOM     84  C   UNL     1       2.421   8.773   1.326  1.00  0.00     0.000 A 
ATOM     85  C   UNL     1       1.629   7.924   0.557  1.00  0.00     0.000 A 
ENDBRANCH  79  80
ENDBRANCH  76  79
ENDBRANCH  74  76
ENDBRANCH  72  74
ENDBRANCH  70  71
ENDBRANCH   1  69
TORSDOF 17
ENDMDL
MODEL 34
REMARK VINA RESULT:    -6.123      2.512      3.988
REMARK INTER + INTRA:         -25.493
REMARK INTER:                 -19.954
REMARK INTRA:                  -5.539
REMARK UNBOUND:                -7.200
REMARK SMILES C=C1C(=O)N[C@H](C)C(=O)N[C@@H](CC(C)C)C(=O)N[C@@H](C(=O)O)[C@H](C)C(=O)N[C@@H](CCCN=C(N)N)C(=O)N[C@@H](/C=C/C(C)=C/[C@H](C)[C@H](Cc2ccccc2)OC)[C@H](C)C(=O)N[C@@H](C(=O)O)CCC(=O)N1C
REMARK SMILES IDX 39 1 38 2 37 3 36 4 28 6 27 7 25 8 26 9 23 11 24 12 19 13
REMARK SMILES IDX 18 14 16 15 17 16 11 18 10 19 8 20 9 21 12 24 13 25 14 26
REMARK SMILES IDX 15 27 20 28 21 29 22 30 29 32 30 33 31 34 32 35 33 36 34 37
REMARK SMILES IDX 35 38 57 43 58 44 59 45 60 46 61 47 62 49 66 50 67 51 68 52
REMARK SMILES IDX 69 53 70 54 71 55 2 56 1 57 3 58 4 59 5 60 6 62 7 63 63 65
REMARK SMILES IDX 64 66 65 67 40 69 41 70 42 71 44 72 43 73 45 74 46 75 47 76
REMARK SMILES IDX 55 77 56 78 48 79 49 80 50 81 54 82 51 83 53 84 52 85
REMARK H PARENT 38 5 27 10 18 17 10 22 22 31 34 39 34 40 35 41 35 42 61 48
REMARK H PARENT 5 61 65 68
REMARK Flexibility Score:  369.900
ROOT
ATOM      1  C   UNL     1      -7.763  11.756   4.288  1.00  0.00     0.117 C 
ENDROOT
BRANCH   1   2
ATOM      2  N   UNL     1      -6.427  11.271   4.635  1.00  0.00    -0.347 N 
ATOM      3  O   UNL     1      -6.233   9.684   2.988  1.00  0.00    -0.273 OA
ATOM      4  C   UNL     1      -5.729  10.334   3.898  1.00  0.00     0.243 C 
ATOM      5  H   UNL     1      -5.947  11.668   5.428  1.00  0.00     0.164 HD
BRANCH   4   6
ATOM      6  C   UNL     1      -4.300  10.059   4.431  1.00  0.00     0.171 C 
BRANCH   6   7
ATOM      7  N   UNL     1      -3.306  10.809   3.648  1.00  0.00    -0.344 N 
ATOM      8  C   UNL     1      -2.159  10.193   3.194  1.00  0.00     0.226 C 
ATOM      9  O   UNL     1      -1.901   9.020   3.433  1.00  0.00    -0.275 OA
ATOM     10  H   UNL     1      -3.451  11.798   3.487  1.00  0.00     0.164 HD
BRANCH   8  11
ATOM     11  C   UNL     1      -1.260  11.085   2.355  1.00  0.00     0.109 C 
ATOM     12  C   UNL     1      -1.527  12.555   2.680  1.00  0.00     0.021 C 
BRANCH  11  13
ATOM     13  C   UNL     1       0.208  10.642   2.513  1.00  0.00     0.204 C 
BRANCH  13  14
ATOM     14  N   UNL     1       0.513   9.449   1.718  1.00  0.00    -0.340 N 
ATOM     15  C   UNL     1       1.515   8.563   2.051  1.00  0.00     0.243 C 
ATOM     16  O   UNL     1       2.185   8.679   3.075  1.00  0.00    -0.273 OA
ATOM     17  H   UNL     1       0.101   9.376   0.784  1.00  0.00     0.164 HD
BRANCH  15  18
ATOM     18  C   UNL     1       1.789   7.501   0.959  1.00  0.00     0.171 C 
BRANCH  18  19
ATOM     19  N   UNL     1       2.762   8.087   0.039  1.00  0.00    -0.343 N 
ATOM     20  C   UNL     1       2.391   8.998  -0.931  1.00  0.00     0.242 CG0
ATOM     21  O   UNL     1       1.211   9.256  -1.153  1.00  0.00    -0.273 OA
ATOM     22  H   UNL     1       3.737   7.817   0.108  1.00  0.00     0.164 HD
ATOM     23  G   UNL     1       3.566   9.566  -1.753  1.00  0.00     0.000 G0
ENDBRANCH  18  19
BRANCH  18  24
ATOM     24  C   UNL     1       2.318   6.204   1.585  1.00  0.00     0.038 C 
BRANCH  24  25
ATOM     25  C   UNL     1       1.263   5.385   2.359  1.00  0.00    -0.015 C 
ATOM     26  C   UNL     1       1.635   5.192   3.829  1.00  0.00     0.007 C 
ATOM     27  C   UNL     1       1.080   4.020   1.690  1.00  0.00     0.007 C 
ENDBRANCH  24  25
ENDBRANCH  18  24
ENDBRANCH  15  18
ENDBRANCH  13  14
BRANCH  13  28
ATOM     28  C   UNL     1       1.212  11.726   2.110  1.00  0.00     0.327 C 
ATOM     29  O   UNL     1       1.787  12.496   2.864  1.00  0.00    -0.250 OA
BRANCH  28  30
ATOM     30  O   UNL     1       1.342  11.855   0.774  1.00  0.00    -0.480 OA
ATOM     31  H   UNL     1       0.464  12.171   0.475  1.00  0.00     0.296 HD
ENDBRANCH  28  30
ENDBRANCH  13  28
ENDBRANCH  11  13
ENDBRANCH   8  11
ENDBRANCH   6   7
BRANCH   6  32
ATOM     32  C   UNL     1      -4.234  10.445   5.913  1.00  0.00     0.037 C 
BRANCH  32  33
ATOM     33  C   UNL     1      -3.022   9.821   6.620  1.00  0.00     0.026 C 
BRANCH  33  34
ATOM     34  C   UNL     1      -2.372  10.778   7.620  1.00  0.00     0.146 C 
BRANCH  34  35
ATOM     35  N   UNL     1      -3.272  11.899   7.851  1.00  0.00    -0.254 NA
ATOM     36  C   UNL     1      -2.787  13.084   7.861  1.00  0.00     0.185 C 
ATOM     37  N   UNL     1      -3.609  14.125   8.068  1.00  0.00    -0.370 N 
ATOM     38  N   UNL     1      -1.513  13.478   7.685  1.00  0.00    -0.370 N 
ATOM     39  H   UNL     1      -4.589  13.911   8.199  1.00  0.00     0.159 HD
ATOM     40  H   UNL     1      -3.342  15.083   7.918  1.00  0.00     0.159 HD
ATOM     41  H   UNL     1      -1.234  14.430   7.854  1.00  0.00     0.159 HD
ATOM     42  H   UNL     1      -0.783  12.799   7.535  1.00  0.00     0.159 HD
ENDBRANCH  34  35
ENDBRANCH  33  34
ENDBRANCH  32  33
ENDBRANCH   6  32
ENDBRANCH   4   6
ENDBRANCH   1   2
BRANCH   1  43
ATOM     43  C   UNL     1      -8.799  10.651   4.644  1.00  0.00     0.102 C 
ATOM     44  C   UNL     1     -10.155  10.834   3.943  1.00  0.00     0.020 C 
BRANCH  43  45
ATOM     45  C   UNL     1      -8.903  10.463   6.161  1.00  0.00     0.225 C 
ATOM     46  O   UNL     1      -9.015   9.363   6.695  1.00  0.00    -0.275 OA
ATOM     47  N   UNL     1      -8.960  11.623   6.899  1.00  0.00    -0.342 N 
ATOM     48  H   UNL     1      -8.716  12.503   6.467  1.00  0.00     0.164 HD
BRANCH  47  49
ATOM     49  C   UNL     1      -9.025  11.597   8.363  1.00  0.00     0.192 C 
BRANCH  49  50
ATOM     50  C   UNL     1     -10.284  12.329   8.835  1.00  0.00     0.047 C 
BRANCH  50  51
ATOM     51  C   UNL     1     -11.321  11.373   9.440  1.00  0.00     0.103 C 
BRANCH  51  52
ATOM     52  C   UNL     1     -11.282  11.376  10.967  1.00  0.00     0.226 C 
ATOM     53  O   UNL     1     -10.272  10.980  11.552  1.00  0.00    -0.275 OA
BRANCH  52  54
ATOM     54  N   UNL     1     -12.405  11.915  11.621  1.00  0.00    -0.311 N 
ATOM     55  C   UNL     1     -12.904  13.256  11.287  1.00  0.00     0.153 C 
BRANCH  54  56
ATOM     56  C   UNL     1     -13.093  11.193  12.611  1.00  0.00     0.102 C 
ATOM     57  C   UNL     1     -12.984  11.406  13.932  1.00  0.00     0.043 C 
BRANCH  56  58
ATOM     58  C   UNL     1     -14.078  10.111  12.237  1.00  0.00     0.268 C 
ATOM     59  O   UNL     1     -13.766   8.934  12.114  1.00  0.00    -0.268 OA
ATOM     60  N   UNL     1     -15.367  10.573  12.114  1.00  0.00    -0.339 N 
ATOM     61  H   UNL     1     -15.541  11.565  12.221  1.00  0.00     0.164 HD
BRANCH  60  62
ATOM     62  C   UNL     1     -16.489   9.683  11.819  1.00  0.00     0.168 CG0
ATOM     63  C   UNL     1     -17.520   9.712  12.940  1.00  0.00     0.041 C 
ATOM     64  G   UNL     1     -15.966   8.249  11.595  1.00  0.00     0.000 G0
ENDBRANCH  60  62
ENDBRANCH  56  58
ENDBRANCH  54  56
ENDBRANCH  52  54
ENDBRANCH  51  52
ENDBRANCH  50  51
ENDBRANCH  49  50
BRANCH  49  65
ATOM     65  C   UNL     1      -7.788  12.252   8.997  1.00  0.00     0.326 C 
ATOM     66  O   UNL     1      -7.548  12.306  10.195  1.00  0.00    -0.250 OA
BRANCH  65  67
ATOM     67  O   UNL     1      -6.954  12.850   8.119  1.00  0.00    -0.480 OA
ATOM     68  H   UNL     1      -6.260  12.174   7.961  1.00  0.00     0.296 HD
ENDBRANCH  65  67
ENDBRANCH  49  65
ENDBRANCH  47  49
ENDBRANCH  43  45
ENDBRANCH   1  43
BRANCH   1  69
ATOM     69  C   UNL     1      -7.678  12.247   2.855  1.00  0.00    -0.001 C 
ATOM     70  C   UNL     1      -8.219  13.365   2.341  1.00  0.00     0.001 C 
BRANCH  70  71
ATOM     71  C   UNL     1      -8.112  13.840   0.959  1.00  0.00    -0.055 C 
ATOM     72  C   UNL     1      -6.887  13.854   0.394  1.00  0.00    -0.018 C 
ATOM     73  C   UNL     1      -9.377  14.271   0.265  1.00  0.00     0.044 C 
BRANCH  72  74
ATOM     74  C   UNL     1      -6.477  14.286  -1.007  1.00  0.00     0.038 C 
ATOM     75  C   UNL     1      -6.613  13.059  -1.917  1.00  0.00     0.015 C 
BRANCH  74  76
ATOM     76  C   UNL     1      -5.046  14.897  -0.944  1.00  0.00     0.128 C 
BRANCH  76  77
ATOM     77  O   UNL     1      -5.077  16.147  -0.234  1.00  0.00    -0.381 OA
ATOM     78  C   UNL     1      -3.789  16.693   0.016  1.00  0.00     0.195 C 
ENDBRANCH  76  77
BRANCH  76  79
ATOM     79  C   UNL     1      -3.969  13.925  -0.401  1.00  0.00     0.068 C 
BRANCH  79  80
ATOM     80  C   UNL     1      -2.914  13.431  -1.360  1.00  0.00    -0.045 A 
ATOM     81  C   UNL     1      -2.736  14.036  -2.612  1.00  0.00     0.004 A 
ATOM     82  C   UNL     1      -2.110  12.332  -1.022  1.00  0.00     0.004 A 
ATOM     83  C   UNL     1      -1.767  13.564  -3.499  1.00  0.00     0.000 A 
ATOM     84  C   UNL     1      -1.141  11.860  -1.911  1.00  0.00     0.000 A 
ATOM     85  C   UNL     1      -0.969  12.477  -3.148  1.00  0.00     0.000 A 
ENDBRANCH  79  80
ENDBRANCH  76  79
ENDBRANCH  74  76
ENDBRANCH  72  74
ENDBRANCH  70  71
ENDBRANCH   1  69
TORSDOF 17
ENDMDL
MODEL 35
REMARK VINA RESULT:    -6.120      3.922      7.507
REMARK INTER + INTRA:         -25.484
REMARK INTER:                 -19.394
REMARK INTRA:                  -6.091
REMARK UNBOUND:                -7.200
REMARK SMILES C=C1C(=O)N[C@H](C)C(=O)N[C@@H](CC(C)C)C(=O)N[C@@H](C(=O)O)[C@H](C)C(=O)N[C@@H](CCCN=C(N)N)C(=O)N[C@@H](/C=C/C(C)=C/[C@H](C)[C@H](Cc2ccccc2)OC)[C@H](C)C(=O)N[C@@H](C(=O)O)CCC(=O)N1C
REMARK SMILES IDX 39 1 38 2 37 3 36 4 28 6 27 7 25 8 26 9 23 11 24 12 19 13
REMARK SMILES IDX 18 14 16 15 17 16 11 18 10 19 8 20 9 21 12 24 13 25 14 26
REMARK SMILES IDX 15 27 20 28 21 29 22 30 29 32 30 33 31 34 32 35 33 36 34 37
REMARK SMILES IDX 35 38 57 43 58 44 59 45 60 46 61 47 62 49 66 50 67 51 68 52
REMARK SMILES IDX 69 53 70 54 71 55 2 56 1 57 3 58 4 59 5 60 6 62 7 63 63 65
REMARK SMILES IDX 64 66 65 67 40 69 41 70 42 71 44 72 43 73 45 74 46 75 47 76
REMARK SMILES IDX 55 77 56 78 48 79 49 80 50 81 54 82 51 83 53 84 52 85
REMARK H PARENT 38 5 27 10 18 17 10 22 22 31 34 39 34 40 35 41 35 42 61 48
REMARK H PARENT 5 61 65 68
REMARK Flexibility Score:  369.900
ROOT
ATOM      1  C   UNL     1      -1.256  10.394   4.878  1.00  0.00     0.117 C 
ENDROOT
BRANCH   1   2
ATOM      2  N   UNL     1      -0.512  10.277   3.624  1.00  0.00    -0.347 N 
ATOM      3  O   UNL     1       1.357  11.450   4.257  1.00  0.00    -0.273 OA
ATOM      4  C   UNL     1       0.778  10.738   3.444  1.00  0.00     0.243 C 
ATOM      5  H   UNL     1      -0.929   9.789   2.845  1.00  0.00     0.164 HD
BRANCH   4   6
ATOM      6  C   UNL     1       1.367  10.411   2.048  1.00  0.00     0.171 C 
BRANCH   6   7
ATOM      7  N   UNL     1       2.206  11.522   1.571  1.00  0.00    -0.344 N 
ATOM      8  C   UNL     1       1.641  12.606   0.934  1.00  0.00     0.226 C 
ATOM      9  O   UNL     1       0.438  12.690   0.716  1.00  0.00    -0.275 OA
ATOM     10  H   UNL     1       3.211  11.457   1.672  1.00  0.00     0.164 HD
BRANCH   8  11
ATOM     11  C   UNL     1       2.630  13.692   0.551  1.00  0.00     0.109 C 
ATOM     12  C   UNL     1       3.691  13.845   1.641  1.00  0.00     0.021 C 
BRANCH  11  13
ATOM     13  C   UNL     1       3.185  13.418  -0.861  1.00  0.00     0.204 C 
BRANCH  13  14
ATOM     14  N   UNL     1       2.126  13.061  -1.810  1.00  0.00    -0.340 N 
ATOM     15  C   UNL     1       2.012  11.805  -2.366  1.00  0.00     0.243 C 
ATOM     16  O   UNL     1       2.756  10.876  -2.057  1.00  0.00    -0.273 OA
ATOM     17  H   UNL     1       1.573  13.819  -2.220  1.00  0.00     0.164 HD
BRANCH  15  18
ATOM     18  C   UNL     1       0.952  11.721  -3.492  1.00  0.00     0.171 C 
BRANCH  18  19
ATOM     19  N   UNL     1       1.173  10.452  -4.181  1.00  0.00    -0.343 N 
ATOM     20  C   UNL     1       0.892  10.293  -5.525  1.00  0.00     0.242 CG0
ATOM     21  O   UNL     1       0.320  11.169  -6.170  1.00  0.00    -0.273 OA
ATOM     22  H   UNL     1       1.537   9.661  -3.662  1.00  0.00     0.164 HD
ATOM     23  G   UNL     1       1.265   8.909  -6.094  1.00  0.00     0.000 G0
ENDBRANCH  18  19
BRANCH  18  24
ATOM     24  C   UNL     1      -0.465  11.805  -2.909  1.00  0.00     0.038 C 
BRANCH  24  25
ATOM     25  C   UNL     1      -1.101  13.210  -2.962  1.00  0.00    -0.015 C 
ATOM     26  C   UNL     1      -2.150  13.419  -1.869  1.00  0.00     0.007 C 
ATOM     27  C   UNL     1      -1.736  13.437  -4.336  1.00  0.00     0.007 C 
ENDBRANCH  24  25
ENDBRANCH  18  24
ENDBRANCH  15  18
ENDBRANCH  13  14
BRANCH  13  28
ATOM     28  C   UNL     1       3.942  14.610  -1.453  1.00  0.00     0.327 C 
ATOM     29  O   UNL     1       3.606  15.783  -1.392  1.00  0.00    -0.250 OA
BRANCH  28  30
ATOM     30  O   UNL     1       5.012  14.245  -2.189  1.00  0.00    -0.480 OA
ATOM     31  H   UNL     1       4.650  14.104  -3.088  1.00  0.00     0.296 HD
ENDBRANCH  28  30
ENDBRANCH  13  28
ENDBRANCH  11  13
ENDBRANCH   8  11
ENDBRANCH   6   7
BRANCH   6  32
ATOM     32  C   UNL     1       2.177   9.112   2.136  1.00  0.00     0.037 C 
BRANCH  32  33
ATOM     33  C   UNL     1       1.387   7.901   1.622  1.00  0.00     0.026 C 
BRANCH  33  34
ATOM     34  C   UNL     1       1.978   6.573   2.097  1.00  0.00     0.146 C 
BRANCH  34  35
ATOM     35  N   UNL     1       0.888   5.674   2.453  1.00  0.00    -0.254 NA
ATOM     36  C   UNL     1       0.806   5.258   3.662  1.00  0.00     0.185 C 
ATOM     37  N   UNL     1      -0.197   4.434   4.003  1.00  0.00    -0.370 N 
ATOM     38  N   UNL     1       1.609   5.530   4.706  1.00  0.00    -0.370 N 
ATOM     39  H   UNL     1      -0.853   4.190   3.271  1.00  0.00     0.159 HD
ATOM     40  H   UNL     1      -0.430   4.205   4.954  1.00  0.00     0.159 HD
ATOM     41  H   UNL     1       1.521   5.030   5.575  1.00  0.00     0.159 HD
ATOM     42  H   UNL     1       2.415   6.125   4.591  1.00  0.00     0.159 HD
ENDBRANCH  34  35
ENDBRANCH  33  34
ENDBRANCH  32  33
ENDBRANCH   6  32
ENDBRANCH   4   6
ENDBRANCH   1   2
BRANCH   1  43
ATOM     43  C   UNL     1      -0.703   9.341   5.882  1.00  0.00     0.102 C 
ATOM     44  C   UNL     1      -1.307   7.939   5.693  1.00  0.00     0.020 C 
BRANCH  43  45
ATOM     45  C   UNL     1      -0.777   9.861   7.321  1.00  0.00     0.225 C 
ATOM     46  O   UNL     1      -0.144  10.836   7.715  1.00  0.00    -0.275 OA
ATOM     47  N   UNL     1      -1.535   9.105   8.186  1.00  0.00    -0.342 N 
ATOM     48  H   UNL     1      -2.164   8.404   7.818  1.00  0.00     0.164 HD
BRANCH  47  49
ATOM     49  C   UNL     1      -1.725   9.501   9.584  1.00  0.00     0.192 C 
BRANCH  49  50
ATOM     50  C   UNL     1      -2.112   8.276  10.417  1.00  0.00     0.047 C 
BRANCH  50  51
ATOM     51  C   UNL     1      -2.512   7.080   9.543  1.00  0.00     0.103 C 
BRANCH  51  52
ATOM     52  C   UNL     1      -4.009   6.786   9.624  1.00  0.00     0.226 C 
ATOM     53  O   UNL     1      -4.817   7.715   9.567  1.00  0.00    -0.275 OA
BRANCH  52  54
ATOM     54  N   UNL     1      -4.379   5.430   9.685  1.00  0.00    -0.311 N 
ATOM     55  C   UNL     1      -3.989   4.491   8.624  1.00  0.00     0.153 C 
BRANCH  54  56
ATOM     56  C   UNL     1      -5.127   4.923  10.760  1.00  0.00     0.102 C 
ATOM     57  C   UNL     1      -6.466   4.818  10.783  1.00  0.00     0.043 C 
BRANCH  56  58
ATOM     58  C   UNL     1      -4.443   4.396  12.000  1.00  0.00     0.268 C 
ATOM     59  O   UNL     1      -3.567   5.010  12.593  1.00  0.00    -0.268 OA
ATOM     60  N   UNL     1      -4.952   3.193  12.428  1.00  0.00    -0.339 N 
ATOM     61  H   UNL     1      -5.671   2.744  11.874  1.00  0.00     0.164 HD
BRANCH  60  62
ATOM     62  C   UNL     1      -4.477   2.535  13.644  1.00  0.00     0.168 CG0
ATOM     63  C   UNL     1      -5.486   2.684  14.776  1.00  0.00     0.041 C 
ATOM     64  G   UNL     1      -3.110   3.123  14.050  1.00  0.00     0.000 G0
ENDBRANCH  60  62
ENDBRANCH  56  58
ENDBRANCH  54  56
ENDBRANCH  52  54
ENDBRANCH  51  52
ENDBRANCH  50  51
ENDBRANCH  49  50
BRANCH  49  65
ATOM     65  C   UNL     1      -2.814  10.576   9.726  1.00  0.00     0.326 C 
ATOM     66  O   UNL     1      -2.792  11.510  10.515  1.00  0.00    -0.250 OA
BRANCH  65  67
ATOM     67  O   UNL     1      -3.889  10.399   8.927  1.00  0.00    -0.480 OA
ATOM     68  H   UNL     1      -4.457   9.782   9.437  1.00  0.00     0.296 HD
ENDBRANCH  65  67
ENDBRANCH  49  65
ENDBRANCH  47  49
ENDBRANCH  43  45
ENDBRANCH   1  43
BRANCH   1  69
ATOM     69  C   UNL     1      -2.726  10.350   4.505  1.00  0.00    -0.001 C 
ATOM     70  C   UNL     1      -3.253  10.230   3.274  1.00  0.00     0.001 C 
BRANCH  70  71
ATOM     71  C   UNL     1      -4.675  10.167   2.927  1.00  0.00    -0.055 C 
ATOM     72  C   UNL     1      -5.546  10.813   3.732  1.00  0.00    -0.018 C 
ATOM     73  C   UNL     1      -5.064   9.394   1.695  1.00  0.00     0.044 C 
BRANCH  72  74
ATOM     74  C   UNL     1      -7.060  10.922   3.620  1.00  0.00     0.038 C 
ATOM     75  C   UNL     1      -7.364  12.192   2.816  1.00  0.00     0.015 C 
BRANCH  74  76
ATOM     76  C   UNL     1      -7.671  10.895   5.052  1.00  0.00     0.128 C 
BRANCH  76  77
ATOM     77  O   UNL     1      -8.747   9.943   5.108  1.00  0.00    -0.381 OA
ATOM     78  C   UNL     1      -9.970  10.433   4.576  1.00  0.00     0.195 C 
ENDBRANCH  76  77
BRANCH  76  79
ATOM     79  C   UNL     1      -6.626  10.686   6.178  1.00  0.00     0.068 C 
BRANCH  79  80
ATOM     80  C   UNL     1      -6.936  11.251   7.543  1.00  0.00    -0.045 A 
ATOM     81  C   UNL     1      -6.546  12.552   7.891  1.00  0.00     0.004 A 
ATOM     82  C   UNL     1      -7.598  10.467   8.500  1.00  0.00     0.004 A 
ATOM     83  C   UNL     1      -6.824  13.062   9.161  1.00  0.00     0.000 A 
ATOM     84  C   UNL     1      -7.874  10.979   9.770  1.00  0.00     0.000 A 
ATOM     85  C   UNL     1      -7.489  12.276  10.099  1.00  0.00     0.000 A 
ENDBRANCH  79  80
ENDBRANCH  76  79
ENDBRANCH  74  76
ENDBRANCH  72  74
ENDBRANCH  70  71
ENDBRANCH   1  69
TORSDOF 17
ENDMDL
MODEL 36
REMARK VINA RESULT:    -6.109      4.673     12.844
REMARK INTER + INTRA:         -25.452
REMARK INTER:                 -18.754
REMARK INTRA:                  -6.698
REMARK UNBOUND:                -7.200
REMARK SMILES C=C1C(=O)N[C@H](C)C(=O)N[C@@H](CC(C)C)C(=O)N[C@@H](C(=O)O)[C@H](C)C(=O)N[C@@H](CCCN=C(N)N)C(=O)N[C@@H](/C=C/C(C)=C/[C@H](C)[C@H](Cc2ccccc2)OC)[C@H](C)C(=O)N[C@@H](C(=O)O)CCC(=O)N1C
REMARK SMILES IDX 39 1 38 2 37 3 36 4 28 6 27 7 25 8 26 9 23 11 24 12 19 13
REMARK SMILES IDX 18 14 16 15 17 16 11 18 10 19 8 20 9 21 12 24 13 25 14 26
REMARK SMILES IDX 15 27 20 28 21 29 22 30 29 32 30 33 31 34 32 35 33 36 34 37
REMARK SMILES IDX 35 38 57 43 58 44 59 45 60 46 61 47 62 49 66 50 67 51 68 52
REMARK SMILES IDX 69 53 70 54 71 55 2 56 1 57 3 58 4 59 5 60 6 62 7 63 63 65
REMARK SMILES IDX 64 66 65 67 40 69 41 70 42 71 44 72 43 73 45 74 46 75 47 76
REMARK SMILES IDX 55 77 56 78 48 79 49 80 50 81 54 82 51 83 53 84 52 85
REMARK H PARENT 38 5 27 10 18 17 10 22 22 31 34 39 34 40 35 41 35 42 61 48
REMARK H PARENT 5 61 65 68
REMARK Flexibility Score:  369.900
ROOT
ATOM      1  C   UNL     1      -1.501   8.732   6.033  1.00  0.00     0.117 C 
ENDROOT
BRANCH   1   2
ATOM      2  N   UNL     1      -1.895   7.659   6.947  1.00  0.00    -0.347 N 
ATOM      3  O   UNL     1      -1.285   5.883   5.626  1.00  0.00    -0.273 OA
ATOM      4  C   UNL     1      -1.670   6.317   6.707  1.00  0.00     0.243 C 
ATOM      5  H   UNL     1      -2.313   7.894   7.834  1.00  0.00     0.164 HD
BRANCH   4   6
ATOM      6  C   UNL     1      -2.106   5.394   7.873  1.00  0.00     0.171 C 
BRANCH   6   7
ATOM      7  N   UNL     1      -1.753   5.999   9.167  1.00  0.00    -0.344 N 
ATOM      8  C   UNL     1      -0.741   5.470   9.938  1.00  0.00     0.226 C 
ATOM      9  O   UNL     1      -0.108   4.475   9.604  1.00  0.00    -0.275 OA
ATOM     10  H   UNL     1      -2.298   6.781   9.508  1.00  0.00     0.164 HD
BRANCH   8  11
ATOM     11  C   UNL     1      -0.462   6.238  11.217  1.00  0.00     0.109 C 
ATOM     12  C   UNL     1      -1.362   7.471  11.297  1.00  0.00     0.021 C 
BRANCH  11  13
ATOM     13  C   UNL     1      -0.555   5.288  12.428  1.00  0.00     0.204 C 
BRANCH  13  14
ATOM     14  N   UNL     1      -1.293   4.061  12.110  1.00  0.00    -0.340 N 
ATOM     15  C   UNL     1      -2.636   3.906  12.377  1.00  0.00     0.243 C 
ATOM     16  O   UNL     1      -3.325   4.809  12.847  1.00  0.00    -0.273 OA
ATOM     17  H   UNL     1      -0.755   3.227  11.862  1.00  0.00     0.164 HD
BRANCH  15  18
ATOM     18  C   UNL     1      -3.149   2.462  12.150  1.00  0.00     0.171 C 
BRANCH  18  19
ATOM     19  N   UNL     1      -4.607   2.541  12.087  1.00  0.00    -0.343 N 
ATOM     20  C   UNL     1      -5.413   1.817  12.944  1.00  0.00     0.242 CG0
ATOM     21  O   UNL     1      -4.948   0.975  13.708  1.00  0.00    -0.273 OA
ATOM     22  H   UNL     1      -5.043   3.137  11.393  1.00  0.00     0.164 HD
ATOM     23  G   UNL     1      -6.923   2.090  12.780  1.00  0.00     0.000 G0
ENDBRANCH  18  19
BRANCH  18  24
ATOM     24  C   UNL     1      -2.562   1.876  10.860  1.00  0.00     0.038 C 
BRANCH  24  25
ATOM     25  C   UNL     1      -1.699   0.612  11.061  1.00  0.00    -0.015 C 
ATOM     26  C   UNL     1      -1.739   0.099  12.501  1.00  0.00     0.007 C 
ATOM     27  C   UNL     1      -0.252   0.908  10.659  1.00  0.00     0.007 C 
ENDBRANCH  24  25
ENDBRANCH  18  24
ENDBRANCH  15  18
ENDBRANCH  13  14
BRANCH  13  28
ATOM     28  C   UNL     1       0.813   4.866  12.971  1.00  0.00     0.327 C 
ATOM     29  O   UNL     1       1.541   5.531  13.693  1.00  0.00    -0.250 OA
BRANCH  28  30
ATOM     30  O   UNL     1       1.236   3.684  12.479  1.00  0.00    -0.480 OA
ATOM     31  H   UNL     1       1.830   3.332  13.174  1.00  0.00     0.296 HD
ENDBRANCH  28  30
ENDBRANCH  13  28
ENDBRANCH  11  13
ENDBRANCH   8  11
ENDBRANCH   6   7
BRANCH   6  32
ATOM     32  C   UNL     1      -3.615   5.142   7.779  1.00  0.00     0.037 C 
BRANCH  32  33
ATOM     33  C   UNL     1      -4.163   4.434   9.026  1.00  0.00     0.026 C 
BRANCH  33  34
ATOM     34  C   UNL     1      -5.304   5.209   9.685  1.00  0.00     0.146 C 
BRANCH  34  35
ATOM     35  N   UNL     1      -6.180   4.266  10.367  1.00  0.00    -0.254 NA
ATOM     36  C   UNL     1      -7.295   4.690  10.834  1.00  0.00     0.185 C 
ATOM     37  N   UNL     1      -8.112   3.829  11.460  1.00  0.00    -0.370 N 
ATOM     38  N   UNL     1      -7.809   5.933  10.797  1.00  0.00    -0.370 N 
ATOM     39  H   UNL     1      -7.799   2.868  11.520  1.00  0.00     0.159 HD
ATOM     40  H   UNL     1      -9.066   4.040  11.697  1.00  0.00     0.159 HD
ATOM     41  H   UNL     1      -8.633   6.172  11.323  1.00  0.00     0.159 HD
ATOM     42  H   UNL     1      -7.294   6.687  10.370  1.00  0.00     0.159 HD
ENDBRANCH  34  35
ENDBRANCH  33  34
ENDBRANCH  32  33
ENDBRANCH   6  32
ENDBRANCH   4   6
ENDBRANCH   1   2
BRANCH   1  43
ATOM     43  C   UNL     1      -0.399   9.588   6.721  1.00  0.00     0.102 C 
ATOM     44  C   UNL     1      -0.747   9.989   8.164  1.00  0.00     0.020 C 
BRANCH  43  45
ATOM     45  C   UNL     1       0.018  10.765   5.833  1.00  0.00     0.225 C 
ATOM     46  O   UNL     1      -0.183  11.937   6.135  1.00  0.00    -0.275 OA
ATOM     47  N   UNL     1       0.557  10.424   4.613  1.00  0.00    -0.342 N 
ATOM     48  H   UNL     1       0.853   9.473   4.445  1.00  0.00     0.164 HD
BRANCH  47  49
ATOM     49  C   UNL     1       1.033  11.445   3.674  1.00  0.00     0.192 C 
BRANCH  49  50
ATOM     50  C   UNL     1       0.284  11.311   2.346  1.00  0.00     0.047 C 
BRANCH  50  51
ATOM     51  C   UNL     1      -0.232  12.661   1.830  1.00  0.00     0.103 C 
BRANCH  51  52
ATOM     52  C   UNL     1      -0.061  12.802   0.319  1.00  0.00     0.226 C 
ATOM     53  O   UNL     1       1.068  12.938  -0.157  1.00  0.00    -0.275 OA
BRANCH  52  54
ATOM     54  N   UNL     1      -1.229  12.688  -0.457  1.00  0.00    -0.311 N 
ATOM     55  C   UNL     1      -2.392  11.935   0.032  1.00  0.00     0.153 C 
BRANCH  54  56
ATOM     56  C   UNL     1      -1.331  13.293  -1.721  1.00  0.00     0.102 C 
ATOM     57  C   UNL     1      -1.671  14.574  -1.935  1.00  0.00     0.043 C 
BRANCH  56  58
ATOM     58  C   UNL     1      -1.006  12.520  -2.978  1.00  0.00     0.268 C 
ATOM     59  O   UNL     1      -0.676  11.342  -2.973  1.00  0.00    -0.268 OA
ATOM     60  N   UNL     1      -1.183  13.256  -4.125  1.00  0.00    -0.339 N 
ATOM     61  H   UNL     1      -1.449  14.230  -4.043  1.00  0.00     0.164 HD
BRANCH  60  62
ATOM     62  C   UNL     1      -0.986  12.684  -5.456  1.00  0.00     0.168 CG0
ATOM     63  C   UNL     1       0.406  13.003  -5.988  1.00  0.00     0.041 C 
ATOM     64  G   UNL     1      -2.071  13.215  -6.414  1.00  0.00     0.000 G0
ENDBRANCH  60  62
ENDBRANCH  56  58
ENDBRANCH  54  56
ENDBRANCH  52  54
ENDBRANCH  51  52
ENDBRANCH  50  51
ENDBRANCH  49  50
BRANCH  49  65
ATOM     65  C   UNL     1       2.544  11.321   3.422  1.00  0.00     0.326 C 
ATOM     66  O   UNL     1       3.081  11.289   2.324  1.00  0.00    -0.250 OA
BRANCH  65  67
ATOM     67  O   UNL     1       3.293  11.183   4.538  1.00  0.00    -0.480 OA
ATOM     68  H   UNL     1       2.962  10.350   4.938  1.00  0.00     0.296 HD
ENDBRANCH  65  67
ENDBRANCH  49  65
ENDBRANCH  47  49
ENDBRANCH  43  45
ENDBRANCH   1  43
BRANCH   1  69
ATOM     69  C   UNL     1      -2.787   9.407   5.593  1.00  0.00    -0.001 C 
ATOM     70  C   UNL     1      -3.894   9.615   6.327  1.00  0.00     0.001 C 
BRANCH  70  71
ATOM     71  C   UNL     1      -5.121  10.287   5.898  1.00  0.00    -0.055 C 
ATOM     72  C   UNL     1      -5.957  10.739   6.856  1.00  0.00    -0.018 C 
ATOM     73  C   UNL     1      -5.360  10.434   4.418  1.00  0.00     0.044 C 
BRANCH  72  74
ATOM     74  C   UNL     1      -7.285  11.469   6.709  1.00  0.00     0.038 C 
ATOM     75  C   UNL     1      -7.172  12.779   7.499  1.00  0.00     0.015 C 
BRANCH  74  76
ATOM     76  C   UNL     1      -8.431  10.523   7.176  1.00  0.00     0.128 C 
BRANCH  76  77
ATOM     77  O   UNL     1      -8.880   9.716   6.075  1.00  0.00    -0.381 OA
ATOM     78  C   UNL     1      -9.206  10.466   4.912  1.00  0.00     0.195 C 
ENDBRANCH  76  77
BRANCH  76  79
ATOM     79  C   UNL     1      -8.082   9.683   8.431  1.00  0.00     0.068 C 
BRANCH  79  80
ATOM     80  C   UNL     1      -8.428  10.256   9.784  1.00  0.00    -0.045 A 
ATOM     81  C   UNL     1      -9.756  10.304  10.229  1.00  0.00     0.004 A 
ATOM     82  C   UNL     1      -7.421  10.780  10.609  1.00  0.00     0.004 A 
ATOM     83  C   UNL     1     -10.070  10.849  11.476  1.00  0.00     0.000 A 
ATOM     84  C   UNL     1      -7.737  11.325  11.856  1.00  0.00     0.000 A 
ATOM     85  C   UNL     1      -9.060  11.358  12.290  1.00  0.00     0.000 A 
ENDBRANCH  79  80
ENDBRANCH  76  79
ENDBRANCH  74  76
ENDBRANCH  72  74
ENDBRANCH  70  71
ENDBRANCH   1  69
TORSDOF 17
ENDMDL
MODEL 37
REMARK VINA RESULT:    -6.099      4.752      8.487
REMARK INTER + INTRA:         -25.423
REMARK INTER:                 -18.370
REMARK INTRA:                  -7.053
REMARK UNBOUND:                -7.200
REMARK SMILES C=C1C(=O)N[C@H](C)C(=O)N[C@@H](CC(C)C)C(=O)N[C@@H](C(=O)O)[C@H](C)C(=O)N[C@@H](CCCN=C(N)N)C(=O)N[C@@H](/C=C/C(C)=C/[C@H](C)[C@H](Cc2ccccc2)OC)[C@H](C)C(=O)N[C@@H](C(=O)O)CCC(=O)N1C
REMARK SMILES IDX 39 1 38 2 37 3 36 4 28 6 27 7 25 8 26 9 23 11 24 12 19 13
REMARK SMILES IDX 18 14 16 15 17 16 11 18 10 19 8 20 9 21 12 24 13 25 14 26
REMARK SMILES IDX 15 27 20 28 21 29 22 30 29 32 30 33 31 34 32 35 33 36 34 37
REMARK SMILES IDX 35 38 57 43 58 44 59 45 60 46 61 47 62 49 66 50 67 51 68 52
REMARK SMILES IDX 69 53 70 54 71 55 2 56 1 57 3 58 4 59 5 60 6 62 7 63 63 65
REMARK SMILES IDX 64 66 65 67 40 69 41 70 42 71 44 72 43 73 45 74 46 75 47 76
REMARK SMILES IDX 55 77 56 78 48 79 49 80 50 81 54 82 51 83 53 84 52 85
REMARK H PARENT 38 5 27 10 18 17 10 22 22 31 34 39 34 40 35 41 35 42 61 48
REMARK H PARENT 5 61 65 68
REMARK Flexibility Score:  369.900
ROOT
ATOM      1  C   UNL     1      -1.177   5.868   6.640  1.00  0.00     0.117 C 
ENDROOT
BRANCH   1   2
ATOM      2  N   UNL     1      -0.629   6.382   5.384  1.00  0.00    -0.347 N 
ATOM      3  O   UNL     1       1.462   5.450   5.549  1.00  0.00    -0.273 OA
ATOM      4  C   UNL     1       0.620   6.055   4.894  1.00  0.00     0.243 C 
ATOM      5  H   UNL     1      -1.202   6.974   4.801  1.00  0.00     0.164 HD
BRANCH   4   6
ATOM      6  C   UNL     1       0.922   6.665   3.502  1.00  0.00     0.171 C 
BRANCH   6   7
ATOM      7  N   UNL     1       1.497   8.013   3.644  1.00  0.00    -0.344 N 
ATOM      8  C   UNL     1       1.016   9.065   2.895  1.00  0.00     0.226 C 
ATOM      9  O   UNL     1       0.119   8.933   2.072  1.00  0.00    -0.275 OA
ATOM     10  H   UNL     1       2.285   8.147   4.266  1.00  0.00     0.164 HD
BRANCH   8  11
ATOM     11  C   UNL     1       1.674  10.400   3.196  1.00  0.00     0.109 C 
ATOM     12  C   UNL     1       2.448  10.319   4.512  1.00  0.00     0.021 C 
BRANCH  11  13
ATOM     13  C   UNL     1       2.507  10.856   1.982  1.00  0.00     0.204 C 
BRANCH  13  14
ATOM     14  N   UNL     1       1.690  10.988   0.771  1.00  0.00    -0.340 N 
ATOM     15  C   UNL     1       2.189  10.776  -0.495  1.00  0.00     0.243 C 
ATOM     16  O   UNL     1       3.342  10.401  -0.696  1.00  0.00    -0.273 OA
ATOM     17  H   UNL     1       0.775  11.441   0.856  1.00  0.00     0.164 HD
BRANCH  15  18
ATOM     18  C   UNL     1       1.205  11.175  -1.623  1.00  0.00     0.171 C 
BRANCH  18  19
ATOM     19  N   UNL     1       1.179  12.636  -1.658  1.00  0.00    -0.343 N 
ATOM     20  C   UNL     1       2.142  13.367  -2.325  1.00  0.00     0.242 CG0
ATOM     21  O   UNL     1       3.137  12.831  -2.807  1.00  0.00    -0.273 OA
ATOM     22  H   UNL     1       0.438  13.132  -1.175  1.00  0.00     0.164 HD
ATOM     23  G   UNL     1       1.904  14.891  -2.318  1.00  0.00     0.000 G0
ENDBRANCH  18  19
BRANCH  18  24
ATOM     24  C   UNL     1       1.655  10.589  -2.967  1.00  0.00     0.038 C 
BRANCH  24  25
ATOM     25  C   UNL     1       0.642   9.626  -3.621  1.00  0.00    -0.015 C 
ATOM     26  C   UNL     1       0.138   8.559  -2.650  1.00  0.00     0.007 C 
ATOM     27  C   UNL     1       1.284   8.954  -4.838  1.00  0.00     0.007 C 
ENDBRANCH  24  25
ENDBRANCH  18  24
ENDBRANCH  15  18
ENDBRANCH  13  14
BRANCH  13  28
ATOM     28  C   UNL     1       3.211  12.199   2.203  1.00  0.00     0.327 C 
ATOM     29  O   UNL     1       2.715  13.203   2.691  1.00  0.00    -0.250 OA
BRANCH  28  30
ATOM     30  O   UNL     1       4.457  12.233   1.688  1.00  0.00    -0.480 OA
ATOM     31  H   UNL     1       4.995  11.720   2.326  1.00  0.00     0.296 HD
ENDBRANCH  28  30
ENDBRANCH  13  28
ENDBRANCH  11  13
ENDBRANCH   8  11
ENDBRANCH   6   7
BRANCH   6  32
ATOM     32  C   UNL     1       1.880   5.739   2.743  1.00  0.00     0.037 C 
BRANCH  32  33
ATOM     33  C   UNL     1       3.284   6.345   2.606  1.00  0.00     0.026 C 
BRANCH  33  34
ATOM     34  C   UNL     1       4.390   5.326   2.880  1.00  0.00     0.146 C 
BRANCH  34  35
ATOM     35  N   UNL     1       4.965   5.597   4.190  1.00  0.00    -0.254 NA
ATOM     36  C   UNL     1       4.706   4.792   5.153  1.00  0.00     0.185 C 
ATOM     37  N   UNL     1       5.234   5.030   6.364  1.00  0.00    -0.370 N 
ATOM     38  N   UNL     1       3.947   3.682   5.145  1.00  0.00    -0.370 N 
ATOM     39  H   UNL     1       5.829   5.844   6.448  1.00  0.00     0.159 HD
ATOM     40  H   UNL     1       5.223   4.362   7.116  1.00  0.00     0.159 HD
ATOM     41  H   UNL     1       3.706   3.210   6.001  1.00  0.00     0.159 HD
ATOM     42  H   UNL     1       3.474   3.391   4.304  1.00  0.00     0.159 HD
ENDBRANCH  34  35
ENDBRANCH  33  34
ENDBRANCH  32  33
ENDBRANCH   6  32
ENDBRANCH   4   6
ENDBRANCH   1   2
BRANCH   1  43
ATOM     43  C   UNL     1      -1.819   4.477   6.368  1.00  0.00     0.102 C 
ATOM     44  C   UNL     1      -3.329   4.433   6.656  1.00  0.00     0.020 C 
BRANCH  43  45
ATOM     45  C   UNL     1      -1.023   3.361   7.052  1.00  0.00     0.225 C 
ATOM     46  O   UNL     1      -1.265   2.168   6.889  1.00  0.00    -0.275 OA
ATOM     47  N   UNL     1      -0.066   3.779   7.948  1.00  0.00    -0.342 N 
ATOM     48  H   UNL     1       0.221   4.748   7.957  1.00  0.00     0.164 HD
BRANCH  47  49
ATOM     49  C   UNL     1       0.796   2.823   8.650  1.00  0.00     0.192 C 
BRANCH  49  50
ATOM     50  C   UNL     1       0.863   3.187  10.136  1.00  0.00     0.047 C 
BRANCH  50  51
ATOM     51  C   UNL     1      -0.301   4.089  10.568  1.00  0.00     0.103 C 
BRANCH  51  52
ATOM     52  C   UNL     1      -1.299   3.350  11.458  1.00  0.00     0.226 C 
ATOM     53  O   UNL     1      -0.988   3.065  12.617  1.00  0.00    -0.275 OA
BRANCH  52  54
ATOM     54  N   UNL     1      -2.569   3.103  10.906  1.00  0.00    -0.311 N 
ATOM     55  C   UNL     1      -2.862   1.839  10.217  1.00  0.00     0.153 C 
BRANCH  54  56
ATOM     56  C   UNL     1      -3.603   4.050  10.995  1.00  0.00     0.102 C 
ATOM     57  C   UNL     1      -3.976   4.877  10.005  1.00  0.00     0.043 C 
BRANCH  56  58
ATOM     58  C   UNL     1      -4.432   4.176  12.252  1.00  0.00     0.268 C 
ATOM     59  O   UNL     1      -4.445   5.183  12.947  1.00  0.00    -0.268 OA
ATOM     60  N   UNL     1      -5.214   3.073  12.496  1.00  0.00    -0.339 N 
ATOM     61  H   UNL     1      -5.137   2.274  11.878  1.00  0.00     0.164 HD
BRANCH  60  62
ATOM     62  C   UNL     1      -6.140   3.009  13.626  1.00  0.00     0.168 CG0
ATOM     63  C   UNL     1      -5.487   2.345  14.832  1.00  0.00     0.041 C 
ATOM     64  G   UNL     1      -7.415   2.248  13.208  1.00  0.00     0.000 G0
ENDBRANCH  60  62
ENDBRANCH  56  58
ENDBRANCH  54  56
ENDBRANCH  52  54
ENDBRANCH  51  52
ENDBRANCH  50  51
ENDBRANCH  49  50
BRANCH  49  65
ATOM     65  C   UNL     1       2.217   2.806   8.066  1.00  0.00     0.326 C 
ATOM     66  O   UNL     1       2.820   1.810   7.694  1.00  0.00    -0.250 OA
BRANCH  65  67
ATOM     67  O   UNL     1       2.828   4.011   8.033  1.00  0.00    -0.480 OA
ATOM     68  H   UNL     1       3.284   4.063   8.900  1.00  0.00     0.296 HD
ENDBRANCH  65  67
ENDBRANCH  49  65
ENDBRANCH  47  49
ENDBRANCH  43  45
ENDBRANCH   1  43
BRANCH   1  69
ATOM     69  C   UNL     1      -2.042   6.977   7.211  1.00  0.00    -0.001 C 
ATOM     70  C   UNL     1      -2.004   7.485   8.455  1.00  0.00     0.001 C 
BRANCH  70  71
ATOM     71  C   UNL     1      -2.830   8.570   8.988  1.00  0.00    -0.055 C 
ATOM     72  C   UNL     1      -3.908   8.949   8.269  1.00  0.00    -0.018 C 
ATOM     73  C   UNL     1      -2.424   9.181  10.304  1.00  0.00     0.044 C 
BRANCH  72  74
ATOM     74  C   UNL     1      -4.936  10.030   8.572  1.00  0.00     0.038 C 
ATOM     75  C   UNL     1      -6.154   9.335   9.193  1.00  0.00     0.015 C 
BRANCH  74  76
ATOM     76  C   UNL     1      -5.232  10.820   7.263  1.00  0.00     0.128 C 
BRANCH  76  77
ATOM     77  O   UNL     1      -5.580  12.179   7.578  1.00  0.00    -0.381 OA
ATOM     78  C   UNL     1      -6.945  12.490   7.334  1.00  0.00     0.195 C 
ENDBRANCH  76  77
BRANCH  76  79
ATOM     79  C   UNL     1      -4.110  10.719   6.199  1.00  0.00     0.068 C 
BRANCH  79  80
ATOM     80  C   UNL     1      -4.516  10.494   4.763  1.00  0.00    -0.045 A 
ATOM     81  C   UNL     1      -5.866  10.433   4.395  1.00  0.00     0.004 A 
ATOM     82  C   UNL     1      -3.539  10.314   3.772  1.00  0.00     0.004 A 
ATOM     83  C   UNL     1      -6.233  10.210   3.066  1.00  0.00     0.000 A 
ATOM     84  C   UNL     1      -3.907  10.091   2.443  1.00  0.00     0.000 A 
ATOM     85  C   UNL     1      -5.254  10.041   2.091  1.00  0.00     0.000 A 
ENDBRANCH  79  80
ENDBRANCH  76  79
ENDBRANCH  74  76
ENDBRANCH  72  74
ENDBRANCH  70  71
ENDBRANCH   1  69
TORSDOF 17
ENDMDL
MODEL 38
REMARK VINA RESULT:    -6.099      4.982      8.167
REMARK INTER + INTRA:         -25.421
REMARK INTER:                 -19.212
REMARK INTRA:                  -6.209
REMARK UNBOUND:                -7.200
REMARK SMILES C=C1C(=O)N[C@H](C)C(=O)N[C@@H](CC(C)C)C(=O)N[C@@H](C(=O)O)[C@H](C)C(=O)N[C@@H](CCCN=C(N)N)C(=O)N[C@@H](/C=C/C(C)=C/[C@H](C)[C@H](Cc2ccccc2)OC)[C@H](C)C(=O)N[C@@H](C(=O)O)CCC(=O)N1C
REMARK SMILES IDX 39 1 38 2 37 3 36 4 28 6 27 7 25 8 26 9 23 11 24 12 19 13
REMARK SMILES IDX 18 14 16 15 17 16 11 18 10 19 8 20 9 21 12 24 13 25 14 26
REMARK SMILES IDX 15 27 20 28 21 29 22 30 29 32 30 33 31 34 32 35 33 36 34 37
REMARK SMILES IDX 35 38 57 43 58 44 59 45 60 46 61 47 62 49 66 50 67 51 68 52
REMARK SMILES IDX 69 53 70 54 71 55 2 56 1 57 3 58 4 59 5 60 6 62 7 63 63 65
REMARK SMILES IDX 64 66 65 67 40 69 41 70 42 71 44 72 43 73 45 74 46 75 47 76
REMARK SMILES IDX 55 77 56 78 48 79 49 80 50 81 54 82 51 83 53 84 52 85
REMARK H PARENT 38 5 27 10 18 17 10 22 22 31 34 39 34 40 35 41 35 42 61 48
REMARK H PARENT 5 61 65 68
REMARK Flexibility Score:  369.900
ROOT
ATOM      1  C   UNL     1      -0.361  10.453   4.058  1.00  0.00     0.117 C 
ENDROOT
BRANCH   1   2
ATOM      2  N   UNL     1       0.649   9.565   4.636  1.00  0.00    -0.347 N 
ATOM      3  O   UNL     1       2.230  11.159   5.114  1.00  0.00    -0.273 OA
ATOM      4  C   UNL     1       1.830  10.003   5.203  1.00  0.00     0.243 C 
ATOM      5  H   UNL     1       0.469   8.573   4.678  1.00  0.00     0.164 HD
BRANCH   4   6
ATOM      6  C   UNL     1       2.684   8.866   5.820  1.00  0.00     0.171 C 
BRANCH   6   7
ATOM      7  N   UNL     1       2.806   7.744   4.876  1.00  0.00    -0.344 N 
ATOM      8  C   UNL     1       2.787   6.441   5.326  1.00  0.00     0.226 C 
ATOM      9  O   UNL     1       2.693   6.155   6.514  1.00  0.00    -0.275 OA
ATOM     10  H   UNL     1       2.953   7.942   3.894  1.00  0.00     0.164 HD
BRANCH   8  11
ATOM     11  C   UNL     1       2.868   5.398   4.226  1.00  0.00     0.109 C 
ATOM     12  C   UNL     1       2.491   6.021   2.882  1.00  0.00     0.021 C 
BRANCH  11  13
ATOM     13  C   UNL     1       4.248   4.711   4.259  1.00  0.00     0.204 C 
BRANCH  13  14
ATOM     14  N   UNL     1       5.233   5.489   5.016  1.00  0.00    -0.340 N 
ATOM     15  C   UNL     1       6.216   6.243   4.412  1.00  0.00     0.243 C 
ATOM     16  O   UNL     1       6.297   6.366   3.191  1.00  0.00    -0.273 OA
ATOM     17  H   UNL     1       5.316   5.312   6.021  1.00  0.00     0.164 HD
BRANCH  15  18
ATOM     18  C   UNL     1       7.263   6.805   5.404  1.00  0.00     0.171 C 
BRANCH  18  19
ATOM     19  N   UNL     1       8.543   6.195   5.052  1.00  0.00    -0.343 N 
ATOM     20  C   UNL     1       8.779   4.845   5.224  1.00  0.00     0.242 CG0
ATOM     21  O   UNL     1       7.974   4.120   5.803  1.00  0.00    -0.273 OA
ATOM     22  H   UNL     1       9.284   6.776   4.676  1.00  0.00     0.164 HD
ATOM     23  G   UNL     1      10.159   4.371   4.723  1.00  0.00     0.000 G0
ENDBRANCH  18  19
BRANCH  18  24
ATOM     24  C   UNL     1       7.326   8.335   5.317  1.00  0.00     0.038 C 
BRANCH  24  25
ATOM     25  C   UNL     1       8.519   8.886   4.507  1.00  0.00    -0.015 C 
ATOM     26  C   UNL     1       9.210  10.057   5.205  1.00  0.00     0.007 C 
ATOM     27  C   UNL     1       8.041   9.323   3.119  1.00  0.00     0.007 C 
ENDBRANCH  24  25
ENDBRANCH  18  24
ENDBRANCH  15  18
ENDBRANCH  13  14
BRANCH  13  28
ATOM     28  C   UNL     1       4.210   3.308   4.871  1.00  0.00     0.327 C 
ATOM     29  O   UNL     1       4.348   2.253   4.271  1.00  0.00    -0.250 OA
BRANCH  28  30
ATOM     30  O   UNL     1       3.882   3.311   6.179  1.00  0.00    -0.480 OA
ATOM     31  H   UNL     1       3.981   2.376   6.455  1.00  0.00     0.296 HD
ENDBRANCH  28  30
ENDBRANCH  13  28
ENDBRANCH  11  13
ENDBRANCH   8  11
ENDBRANCH   6   7
BRANCH   6  32
ATOM     32  C   UNL     1       4.064   9.419   6.194  1.00  0.00     0.037 C 
BRANCH  32  33
ATOM     33  C   UNL     1       4.366   9.260   7.690  1.00  0.00     0.026 C 
BRANCH  33  34
ATOM     34  C   UNL     1       3.541  10.211   8.558  1.00  0.00     0.146 C 
BRANCH  34  35
ATOM     35  N   UNL     1       2.969   9.459   9.667  1.00  0.00    -0.254 NA
ATOM     36  C   UNL     1       3.538   9.524  10.812  1.00  0.00     0.185 C 
ATOM     37  N   UNL     1       3.017   8.839  11.842  1.00  0.00    -0.370 N 
ATOM     38  N   UNL     1       4.638  10.210  11.171  1.00  0.00    -0.370 N 
ATOM     39  H   UNL     1       2.179   8.304  11.654  1.00  0.00     0.159 HD
ATOM     40  H   UNL     1       3.297   8.974  12.798  1.00  0.00     0.159 HD
ATOM     41  H   UNL     1       5.069  10.070  12.070  1.00  0.00     0.159 HD
ATOM     42  H   UNL     1       5.144  10.758  10.493  1.00  0.00     0.159 HD
ENDBRANCH  34  35
ENDBRANCH  33  34
ENDBRANCH  32  33
ENDBRANCH   6  32
ENDBRANCH   4   6
ENDBRANCH   1   2
BRANCH   1  43
ATOM     43  C   UNL     1      -1.766   9.975   4.526  1.00  0.00     0.102 C 
ATOM     44  C   UNL     1      -2.917  10.527   3.667  1.00  0.00     0.020 C 
BRANCH  43  45
ATOM     45  C   UNL     1      -1.951  10.198   6.030  1.00  0.00     0.225 C 
ATOM     46  O   UNL     1      -1.362   9.541   6.883  1.00  0.00    -0.275 OA
ATOM     47  N   UNL     1      -2.901  11.131   6.378  1.00  0.00    -0.342 N 
ATOM     48  H   UNL     1      -3.261  11.763   5.677  1.00  0.00     0.164 HD
BRANCH  47  49
ATOM     49  C   UNL     1      -3.160  11.475   7.779  1.00  0.00     0.192 C 
BRANCH  49  50
ATOM     50  C   UNL     1      -4.660  11.375   8.065  1.00  0.00     0.047 C 
BRANCH  50  51
ATOM     51  C   UNL     1      -5.417  10.639   6.951  1.00  0.00     0.103 C 
BRANCH  51  52
ATOM     52  C   UNL     1      -6.568  11.472   6.392  1.00  0.00     0.226 C 
ATOM     53  O   UNL     1      -6.711  12.640   6.759  1.00  0.00    -0.275 OA
BRANCH  52  54
ATOM     54  N   UNL     1      -7.368  10.857   5.410  1.00  0.00    -0.311 N 
ATOM     55  C   UNL     1      -6.836  10.571   4.071  1.00  0.00     0.153 C 
BRANCH  54  56
ATOM     56  C   UNL     1      -8.698  10.490   5.674  1.00  0.00     0.102 C 
ATOM     57  C   UNL     1      -9.612  10.186   4.737  1.00  0.00     0.043 C 
BRANCH  56  58
ATOM     58  C   UNL     1      -9.200  10.362   7.093  1.00  0.00     0.268 C 
ATOM     59  O   UNL     1      -9.897  11.209   7.635  1.00  0.00    -0.268 OA
ATOM     60  N   UNL     1      -8.849   9.172   7.685  1.00  0.00    -0.339 N 
ATOM     61  H   UNL     1      -8.260   8.528   7.172  1.00  0.00     0.164 HD
BRANCH  60  62
ATOM     62  C   UNL     1      -9.284   8.816   9.035  1.00  0.00     0.168 CG0
ATOM     63  C   UNL     1      -8.487   7.634   9.572  1.00  0.00     0.041 C 
ATOM     64  G   UNL     1     -10.793   8.497   9.025  1.00  0.00     0.000 G0
ENDBRANCH  60  62
ENDBRANCH  56  58
ENDBRANCH  54  56
ENDBRANCH  52  54
ENDBRANCH  51  52
ENDBRANCH  50  51
ENDBRANCH  49  50
BRANCH  49  65
ATOM     65  C   UNL     1      -2.671  12.892   8.115  1.00  0.00     0.326 C 
ATOM     66  O   UNL     1      -2.159  13.236   9.171  1.00  0.00    -0.250 OA
BRANCH  65  67
ATOM     67  O   UNL     1      -2.898  13.810   7.150  1.00  0.00    -0.480 OA
ATOM     68  H   UNL     1      -2.968  13.273   6.332  1.00  0.00     0.296 HD
ENDBRANCH  65  67
ENDBRANCH  49  65
ENDBRANCH  47  49
ENDBRANCH  43  45
ENDBRANCH   1  43
BRANCH   1  69
ATOM     69  C   UNL     1      -0.066  10.519   2.571  1.00  0.00    -0.001 C 
ATOM     70  C   UNL     1       0.630   9.634   1.836  1.00  0.00     0.001 C 
BRANCH  70  71
ATOM     71  C   UNL     1       0.890   9.698   0.396  1.00  0.00    -0.055 C 
ATOM     72  C   UNL     1       0.786  10.900  -0.208  1.00  0.00    -0.018 C 
ATOM     73  C   UNL     1       1.263   8.419  -0.307  1.00  0.00     0.044 C 
BRANCH  72  74
ATOM     74  C   UNL     1       0.999  11.265  -1.670  1.00  0.00     0.038 C 
ATOM     75  C   UNL     1       1.900  12.505  -1.701  1.00  0.00     0.015 C 
BRANCH  74  76
ATOM     76  C   UNL     1      -0.391  11.452  -2.347  1.00  0.00     0.128 C 
BRANCH  76  77
ATOM     77  O   UNL     1      -0.440  12.717  -3.027  1.00  0.00    -0.381 OA
ATOM     78  C   UNL     1      -1.735  13.061  -3.502  1.00  0.00     0.195 C 
ENDBRANCH  76  77
BRANCH  76  79
ATOM     79  C   UNL     1      -0.815  10.268  -3.252  1.00  0.00     0.068 C 
BRANCH  79  80
ATOM     80  C   UNL     1       0.166   9.790  -4.296  1.00  0.00    -0.045 A 
ATOM     81  C   UNL     1       0.929   8.632  -4.093  1.00  0.00     0.004 A 
ATOM     82  C   UNL     1       0.349  10.519  -5.481  1.00  0.00     0.004 A 
ATOM     83  C   UNL     1       1.845   8.205  -5.057  1.00  0.00     0.000 A 
ATOM     84  C   UNL     1       1.266  10.091  -6.444  1.00  0.00     0.000 A 
ATOM     85  C   UNL     1       2.012   8.934  -6.233  1.00  0.00     0.000 A 
ENDBRANCH  79  80
ENDBRANCH  76  79
ENDBRANCH  74  76
ENDBRANCH  72  74
ENDBRANCH  70  71
ENDBRANCH   1  69
TORSDOF 17
ENDMDL
MODEL 39
REMARK VINA RESULT:    -6.062      5.763     13.834
REMARK INTER + INTRA:         -25.310
REMARK INTER:                 -19.784
REMARK INTRA:                  -5.526
REMARK UNBOUND:                -7.200
REMARK SMILES C=C1C(=O)N[C@H](C)C(=O)N[C@@H](CC(C)C)C(=O)N[C@@H](C(=O)O)[C@H](C)C(=O)N[C@@H](CCCN=C(N)N)C(=O)N[C@@H](/C=C/C(C)=C/[C@H](C)[C@H](Cc2ccccc2)OC)[C@H](C)C(=O)N[C@@H](C(=O)O)CCC(=O)N1C
REMARK SMILES IDX 39 1 38 2 37 3 36 4 28 6 27 7 25 8 26 9 23 11 24 12 19 13
REMARK SMILES IDX 18 14 16 15 17 16 11 18 10 19 8 20 9 21 12 24 13 25 14 26
REMARK SMILES IDX 15 27 20 28 21 29 22 30 29 32 30 33 31 34 32 35 33 36 34 37
REMARK SMILES IDX 35 38 57 43 58 44 59 45 60 46 61 47 62 49 66 50 67 51 68 52
REMARK SMILES IDX 69 53 70 54 71 55 2 56 1 57 3 58 4 59 5 60 6 62 7 63 63 65
REMARK SMILES IDX 64 66 65 67 40 69 41 70 42 71 44 72 43 73 45 74 46 75 47 76
REMARK SMILES IDX 55 77 56 78 48 79 49 80 50 81 54 82 51 83 53 84 52 85
REMARK H PARENT 38 5 27 10 18 17 10 22 22 31 34 39 34 40 35 41 35 42 61 48
REMARK H PARENT 5 61 65 68
REMARK Flexibility Score:  369.900
ROOT
ATOM      1  C   UNL     1      -1.956   8.061   6.748  1.00  0.00     0.117 C 
ENDROOT
BRANCH   1   2
ATOM      2  N   UNL     1      -2.650   7.272   7.766  1.00  0.00    -0.347 N 
ATOM      3  O   UNL     1      -2.414   5.212   6.781  1.00  0.00    -0.273 OA
ATOM      4  C   UNL     1      -2.744   5.894   7.745  1.00  0.00     0.243 C 
ATOM      5  H   UNL     1      -3.049   7.739   8.566  1.00  0.00     0.164 HD
BRANCH   4   6
ATOM      6  C   UNL     1      -3.457   5.300   8.987  1.00  0.00     0.171 C 
BRANCH   6   7
ATOM      7  N   UNL     1      -2.608   4.284   9.629  1.00  0.00    -0.344 N 
ATOM      8  C   UNL     1      -3.170   3.259  10.359  1.00  0.00     0.226 C 
ATOM      9  O   UNL     1      -4.379   3.154  10.528  1.00  0.00    -0.275 OA
ATOM     10  H   UNL     1      -1.602   4.375   9.569  1.00  0.00     0.164 HD
BRANCH   8  11
ATOM     11  C   UNL     1      -2.167   2.262  10.913  1.00  0.00     0.109 C 
ATOM     12  C   UNL     1      -0.862   2.973  11.272  1.00  0.00     0.021 C 
BRANCH  11  13
ATOM     13  C   UNL     1      -2.807   1.462  12.065  1.00  0.00     0.204 C 
BRANCH  13  14
ATOM     14  N   UNL     1      -3.614   0.340  11.576  1.00  0.00    -0.340 N 
ATOM     15  C   UNL     1      -4.781  -0.065  12.186  1.00  0.00     0.243 C 
ATOM     16  O   UNL     1      -5.262   0.527  13.151  1.00  0.00    -0.273 OA
ATOM     17  H   UNL     1      -3.197  -0.283  10.879  1.00  0.00     0.164 HD
BRANCH  15  18
ATOM     18  C   UNL     1      -5.345  -1.393  11.623  1.00  0.00     0.171 C 
BRANCH  18  19
ATOM     19  N   UNL     1      -6.775  -1.403  11.928  1.00  0.00    -0.343 N 
ATOM     20  C   UNL     1      -7.302  -2.205  12.922  1.00  0.00     0.242 CG0
ATOM     21  O   UNL     1      -6.617  -3.042  13.504  1.00  0.00    -0.273 OA
ATOM     22  H   UNL     1      -7.401  -0.811  11.394  1.00  0.00     0.164 HD
ATOM     23  G   UNL     1      -8.817  -2.021  13.151  1.00  0.00     0.000 G0
ENDBRANCH  18  19
BRANCH  18  24
ATOM     24  C   UNL     1      -5.092  -1.492  10.114  1.00  0.00     0.038 C 
BRANCH  24  25
ATOM     25  C   UNL     1      -5.854  -2.632   9.406  1.00  0.00    -0.015 C 
ATOM     26  C   UNL     1      -5.177  -3.990   9.588  1.00  0.00     0.007 C 
ATOM     27  C   UNL     1      -5.982  -2.316   7.913  1.00  0.00     0.007 C 
ENDBRANCH  24  25
ENDBRANCH  18  24
ENDBRANCH  15  18
ENDBRANCH  13  14
BRANCH  13  28
ATOM     28  C   UNL     1      -1.780   0.890  13.047  1.00  0.00     0.327 C 
ATOM     29  O   UNL     1      -1.041  -0.061  12.846  1.00  0.00    -0.250 OA
BRANCH  28  30
ATOM     30  O   UNL     1      -1.829   1.473  14.262  1.00  0.00    -0.480 OA
ATOM     31  H   UNL     1      -2.769   1.400  14.527  1.00  0.00     0.296 HD
ENDBRANCH  28  30
ENDBRANCH  13  28
ENDBRANCH  11  13
ENDBRANCH   8  11
ENDBRANCH   6   7
BRANCH   6  32
ATOM     32  C   UNL     1      -3.792   6.431   9.965  1.00  0.00     0.037 C 
BRANCH  32  33
ATOM     33  C   UNL     1      -5.283   6.796   9.939  1.00  0.00     0.026 C 
BRANCH  33  34
ATOM     34  C   UNL     1      -6.188   5.567  10.029  1.00  0.00     0.146 C 
BRANCH  34  35
ATOM     35  N   UNL     1      -6.824   5.546  11.338  1.00  0.00    -0.254 NA
ATOM     36  C   UNL     1      -7.414   4.474  11.718  1.00  0.00     0.185 C 
ATOM     37  N   UNL     1      -7.999   4.443  12.925  1.00  0.00    -0.370 N 
ATOM     38  N   UNL     1      -7.548   3.307  11.064  1.00  0.00    -0.370 N 
ATOM     39  H   UNL     1      -7.932   5.283  13.485  1.00  0.00     0.159 HD
ATOM     40  H   UNL     1      -8.326   3.598  13.363  1.00  0.00     0.159 HD
ATOM     41  H   UNL     1      -8.156   2.583  11.411  1.00  0.00     0.159 HD
ATOM     42  H   UNL     1      -7.171   3.193  10.137  1.00  0.00     0.159 HD
ENDBRANCH  34  35
ENDBRANCH  33  34
ENDBRANCH  32  33
ENDBRANCH   6  32
ENDBRANCH   4   6
ENDBRANCH   1   2
BRANCH   1  43
ATOM     43  C   UNL     1      -0.667   8.662   7.380  1.00  0.00     0.102 C 
ATOM     44  C   UNL     1      -0.906   9.999   8.103  1.00  0.00     0.020 C 
BRANCH  43  45
ATOM     45  C   UNL     1       0.478   8.701   6.364  1.00  0.00     0.225 C 
ATOM     46  O   UNL     1       1.623   8.347   6.629  1.00  0.00    -0.275 OA
ATOM     47  N   UNL     1       0.167   9.253   5.142  1.00  0.00    -0.342 N 
ATOM     48  H   UNL     1      -0.801   9.397   4.890  1.00  0.00     0.164 HD
BRANCH  47  49
ATOM     49  C   UNL     1       1.153   9.324   4.060  1.00  0.00     0.192 C 
BRANCH  49  50
ATOM     50  C   UNL     1       1.448  10.789   3.728  1.00  0.00     0.047 C 
BRANCH  50  51
ATOM     51  C   UNL     1       2.678  10.945   2.823  1.00  0.00     0.103 C 
BRANCH  51  52
ATOM     52  C   UNL     1       2.326  11.582   1.481  1.00  0.00     0.226 C 
ATOM     53  O   UNL     1       1.470  12.467   1.431  1.00  0.00    -0.275 OA
BRANCH  52  54
ATOM     54  N   UNL     1       3.077  11.158   0.369  1.00  0.00    -0.311 N 
ATOM     55  C   UNL     1       4.476  11.572   0.199  1.00  0.00     0.153 C 
BRANCH  54  56
ATOM     56  C   UNL     1       2.523  10.320  -0.613  1.00  0.00     0.102 C 
ATOM     57  C   UNL     1       2.428   8.984  -0.519  1.00  0.00     0.043 C 
BRANCH  56  58
ATOM     58  C   UNL     1       1.928  10.896  -1.877  1.00  0.00     0.268 C 
ATOM     59  O   UNL     1       2.516  11.702  -2.586  1.00  0.00    -0.268 OA
ATOM     60  N   UNL     1       0.694  10.374  -2.180  1.00  0.00    -0.339 N 
ATOM     61  H   UNL     1       0.270   9.718  -1.534  1.00  0.00     0.164 HD
BRANCH  60  62
ATOM     62  C   UNL     1      -0.033  10.746  -3.393  1.00  0.00     0.168 CG0
ATOM     63  C   UNL     1       0.140   9.692  -4.479  1.00  0.00     0.041 C 
ATOM     64  G   UNL     1       0.455  12.124  -3.886  1.00  0.00     0.000 G0
ENDBRANCH  60  62
ENDBRANCH  56  58
ENDBRANCH  54  56
ENDBRANCH  52  54
ENDBRANCH  51  52
ENDBRANCH  50  51
ENDBRANCH  49  50
BRANCH  49  65
ATOM     65  C   UNL     1       0.659   8.605   2.795  1.00  0.00     0.326 C 
ATOM     66  O   UNL     1       1.044   7.513   2.402  1.00  0.00    -0.250 OA
BRANCH  65  67
ATOM     67  O   UNL     1      -0.235   9.304   2.061  1.00  0.00    -0.480 OA
ATOM     68  H   UNL     1      -0.649   8.622   1.489  1.00  0.00     0.296 HD
ENDBRANCH  65  67
ENDBRANCH  49  65
ENDBRANCH  47  49
ENDBRANCH  43  45
ENDBRANCH   1  43
BRANCH   1  69
ATOM     69  C   UNL     1      -2.992   9.002   6.161  1.00  0.00    -0.001 C 
ATOM     70  C   UNL     1      -4.188   9.328   6.681  1.00  0.00     0.001 C 
BRANCH  70  71
ATOM     71  C   UNL     1      -5.171  10.254   6.116  1.00  0.00    -0.055 C 
ATOM     72  C   UNL     1      -6.012  10.875   6.970  1.00  0.00    -0.018 C 
ATOM     73  C   UNL     1      -5.170  10.454   4.623  1.00  0.00     0.044 C 
BRANCH  72  74
ATOM     74  C   UNL     1      -7.118  11.878   6.674  1.00  0.00     0.038 C 
ATOM     75  C   UNL     1      -6.932  13.055   7.639  1.00  0.00     0.015 C 
BRANCH  74  76
ATOM     76  C   UNL     1      -8.492  11.154   6.783  1.00  0.00     0.128 C 
BRANCH  76  77
ATOM     77  O   UNL     1      -9.153  11.161   5.506  1.00  0.00    -0.381 OA
ATOM     78  C   UNL     1      -8.796  10.066   4.673  1.00  0.00     0.195 C 
ENDBRANCH  76  77
BRANCH  76  79
ATOM     79  C   UNL     1      -8.411   9.739   7.409  1.00  0.00     0.068 C 
BRANCH  79  80
ATOM     80  C   UNL     1      -8.838   9.577   8.848  1.00  0.00    -0.045 A 
ATOM     81  C   UNL     1      -9.546  10.589   9.509  1.00  0.00     0.004 A 
ATOM     82  C   UNL     1      -8.505   8.414   9.557  1.00  0.00     0.004 A 
ATOM     83  C   UNL     1      -9.925  10.437  10.844  1.00  0.00     0.000 A 
ATOM     84  C   UNL     1      -8.884   8.263  10.893  1.00  0.00     0.000 A 
ATOM     85  C   UNL     1      -9.595   9.274  11.535  1.00  0.00     0.000 A 
ENDBRANCH  79  80
ENDBRANCH  76  79
ENDBRANCH  74  76
ENDBRANCH  72  74
ENDBRANCH  70  71
ENDBRANCH   1  69
TORSDOF 17
ENDMDL
MODEL 40
REMARK VINA RESULT:    -6.028      4.971      8.501
REMARK INTER + INTRA:         -25.209
REMARK INTER:                 -19.021
REMARK INTRA:                  -6.188
REMARK UNBOUND:                -7.200
REMARK SMILES C=C1C(=O)N[C@H](C)C(=O)N[C@@H](CC(C)C)C(=O)N[C@@H](C(=O)O)[C@H](C)C(=O)N[C@@H](CCCN=C(N)N)C(=O)N[C@@H](/C=C/C(C)=C/[C@H](C)[C@H](Cc2ccccc2)OC)[C@H](C)C(=O)N[C@@H](C(=O)O)CCC(=O)N1C
REMARK SMILES IDX 39 1 38 2 37 3 36 4 28 6 27 7 25 8 26 9 23 11 24 12 19 13
REMARK SMILES IDX 18 14 16 15 17 16 11 18 10 19 8 20 9 21 12 24 13 25 14 26
REMARK SMILES IDX 15 27 20 28 21 29 22 30 29 32 30 33 31 34 32 35 33 36 34 37
REMARK SMILES IDX 35 38 57 43 58 44 59 45 60 46 61 47 62 49 66 50 67 51 68 52
REMARK SMILES IDX 69 53 70 54 71 55 2 56 1 57 3 58 4 59 5 60 6 62 7 63 63 65
REMARK SMILES IDX 64 66 65 67 40 69 41 70 42 71 44 72 43 73 45 74 46 75 47 76
REMARK SMILES IDX 55 77 56 78 48 79 49 80 50 81 54 82 51 83 53 84 52 85
REMARK H PARENT 38 5 27 10 18 17 10 22 22 31 34 39 34 40 35 41 35 42 61 48
REMARK H PARENT 5 61 65 68
REMARK Flexibility Score:  369.900
ROOT
ATOM      1  C   UNL     1      -2.301   7.276   7.862  1.00  0.00     0.117 C 
ENDROOT
BRANCH   1   2
ATOM      2  N   UNL     1      -1.628   7.246   6.563  1.00  0.00    -0.347 N 
ATOM      3  O   UNL     1       0.464   7.860   7.280  1.00  0.00    -0.273 OA
ATOM      4  C   UNL     1      -0.273   7.453   6.389  1.00  0.00     0.243 C 
ATOM      5  H   UNL     1      -2.158   7.014   5.736  1.00  0.00     0.164 HD
BRANCH   4   6
ATOM      6  C   UNL     1       0.200   7.280   4.923  1.00  0.00     0.171 C 
BRANCH   6   7
ATOM      7  N   UNL     1       0.334   8.592   4.268  1.00  0.00    -0.344 N 
ATOM      8  C   UNL     1      -0.743   9.174   3.636  1.00  0.00     0.226 C 
ATOM      9  O   UNL     1      -1.840   8.633   3.567  1.00  0.00    -0.275 OA
ATOM     10  H   UNL     1       1.241   9.039   4.246  1.00  0.00     0.164 HD
BRANCH   8  11
ATOM     11  C   UNL     1      -0.460  10.549   3.057  1.00  0.00     0.109 C 
ATOM     12  C   UNL     1      -0.896  11.634   4.042  1.00  0.00     0.021 C 
BRANCH  11  13
ATOM     13  C   UNL     1       1.013  10.633   2.609  1.00  0.00     0.204 C 
BRANCH  13  14
ATOM     14  N   UNL     1       1.144  11.123   1.234  1.00  0.00    -0.340 N 
ATOM     15  C   UNL     1       2.104  10.656   0.362  1.00  0.00     0.243 C 
ATOM     16  O   UNL     1       2.882   9.751   0.659  1.00  0.00    -0.273 OA
ATOM     17  H   UNL     1       0.635  11.972   0.975  1.00  0.00     0.164 HD
BRANCH  15  18
ATOM     18  C   UNL     1       2.185  11.462  -0.958  1.00  0.00     0.171 C 
BRANCH  18  19
ATOM     19  N   UNL     1       3.544  11.994  -1.041  1.00  0.00    -0.343 N 
ATOM     20  C   UNL     1       3.887  13.207  -0.475  1.00  0.00     0.242 CG0
ATOM     21  O   UNL     1       3.040  13.955   0.007  1.00  0.00    -0.273 OA
ATOM     22  H   UNL     1       4.256  11.465  -1.531  1.00  0.00     0.164 HD
ATOM     23  G   UNL     1       5.383  13.565  -0.596  1.00  0.00     0.000 G0
ENDBRANCH  18  19
BRANCH  18  24
ATOM     24  C   UNL     1       1.857  10.567  -2.160  1.00  0.00     0.038 C 
BRANCH  24  25
ATOM     25  C   UNL     1       0.548   9.761  -2.025  1.00  0.00    -0.015 C 
ATOM     26  C   UNL     1       0.505   8.554  -2.962  1.00  0.00     0.007 C 
ATOM     27  C   UNL     1      -0.649  10.673  -2.304  1.00  0.00     0.007 C 
ENDBRANCH  24  25
ENDBRANCH  18  24
ENDBRANCH  15  18
ENDBRANCH  13  14
BRANCH  13  28
ATOM     28  C   UNL     1       1.862  11.546   3.499  1.00  0.00     0.327 C 
ATOM     29  O   UNL     1       2.221  12.683   3.234  1.00  0.00    -0.250 OA
BRANCH  28  30
ATOM     30  O   UNL     1       2.309  10.932   4.613  1.00  0.00    -0.480 OA
ATOM     31  H   UNL     1       2.107  11.564   5.334  1.00  0.00     0.296 HD
ENDBRANCH  28  30
ENDBRANCH  13  28
ENDBRANCH  11  13
ENDBRANCH   8  11
ENDBRANCH   6   7
BRANCH   6  32
ATOM     32  C   UNL     1       1.533   6.524   4.911  1.00  0.00     0.037 C 
BRANCH  32  33
ATOM     33  C   UNL     1       1.374   5.077   4.424  1.00  0.00     0.026 C 
BRANCH  33  34
ATOM     34  C   UNL     1       2.010   4.847   3.053  1.00  0.00     0.146 C 
BRANCH  34  35
ATOM     35  N   UNL     1       1.300   5.647   2.065  1.00  0.00    -0.254 NA
ATOM     36  C   UNL     1       1.967   6.473   1.348  1.00  0.00     0.185 C 
ATOM     37  N   UNL     1       1.323   7.212   0.431  1.00  0.00    -0.370 N 
ATOM     38  N   UNL     1       3.286   6.733   1.365  1.00  0.00    -0.370 N 
ATOM     39  H   UNL     1       0.325   7.065   0.349  1.00  0.00     0.159 HD
ATOM     40  H   UNL     1       1.790   7.746  -0.281  1.00  0.00     0.159 HD
ATOM     41  H   UNL     1       3.672   7.506   0.848  1.00  0.00     0.159 HD
ATOM     42  H   UNL     1       3.893   6.261   2.018  1.00  0.00     0.159 HD
ENDBRANCH  34  35
ENDBRANCH  33  34
ENDBRANCH  32  33
ENDBRANCH   6  32
ENDBRANCH   4   6
ENDBRANCH   1   2
BRANCH   1  43
ATOM     43  C   UNL     1      -2.910   5.871   8.136  1.00  0.00     0.102 C 
ATOM     44  C   UNL     1      -4.036   5.886   9.184  1.00  0.00     0.020 C 
BRANCH  43  45
ATOM     45  C   UNL     1      -1.812   4.841   8.419  1.00  0.00     0.225 C 
ATOM     46  O   UNL     1      -1.011   4.464   7.568  1.00  0.00    -0.275 OA
ATOM     47  N   UNL     1      -1.832   4.284   9.677  1.00  0.00    -0.342 N 
ATOM     48  H   UNL     1      -2.392   4.708  10.403  1.00  0.00     0.164 HD
BRANCH  47  49
ATOM     49  C   UNL     1      -0.821   3.311  10.100  1.00  0.00     0.192 C 
BRANCH  49  50
ATOM     50  C   UNL     1      -1.378   1.893   9.953  1.00  0.00     0.047 C 
BRANCH  50  51
ATOM     51  C   UNL     1      -2.866   1.811  10.321  1.00  0.00     0.103 C 
BRANCH  51  52
ATOM     52  C   UNL     1      -3.125   0.811  11.446  1.00  0.00     0.226 C 
ATOM     53  O   UNL     1      -2.453   0.867  12.479  1.00  0.00    -0.275 OA
BRANCH  52  54
ATOM     54  N   UNL     1      -4.192  -0.086  11.255  1.00  0.00    -0.311 N 
ATOM     55  C   UNL     1      -4.105  -1.165  10.262  1.00  0.00     0.153 C 
BRANCH  54  56
ATOM     56  C   UNL     1      -5.375   0.013  12.007  1.00  0.00     0.102 C 
ATOM     57  C   UNL     1      -6.236  -0.996  12.219  1.00  0.00     0.043 C 
BRANCH  56  58
ATOM     58  C   UNL     1      -5.751   1.304  12.694  1.00  0.00     0.268 C 
ATOM     59  O   UNL     1      -6.494   2.137  12.193  1.00  0.00    -0.268 OA
ATOM     60  N   UNL     1      -5.228   1.414  13.960  1.00  0.00    -0.339 N 
ATOM     61  H   UNL     1      -4.613   0.684  14.298  1.00  0.00     0.164 HD
BRANCH  60  62
ATOM     62  C   UNL     1      -5.518   2.556  14.826  1.00  0.00     0.168 CG0
ATOM     63  C   UNL     1      -4.370   3.558  14.813  1.00  0.00     0.041 C 
ATOM     64  G   UNL     1      -5.794   2.060  16.261  1.00  0.00     0.000 G0
ENDBRANCH  60  62
ENDBRANCH  56  58
ENDBRANCH  54  56
ENDBRANCH  52  54
ENDBRANCH  51  52
ENDBRANCH  50  51
ENDBRANCH  49  50
BRANCH  49  65
ATOM     65  C   UNL     1      -0.388   3.540  11.556  1.00  0.00     0.326 C 
ATOM     66  O   UNL     1      -1.078   4.043  12.432  1.00  0.00    -0.250 OA
BRANCH  65  67
ATOM     67  O   UNL     1       0.888   3.189  11.827  1.00  0.00    -0.480 OA
ATOM     68  H   UNL     1       1.326   4.045  12.025  1.00  0.00     0.296 HD
ENDBRANCH  65  67
ENDBRANCH  49  65
ENDBRANCH  47  49
ENDBRANCH  43  45
ENDBRANCH   1  43
BRANCH   1  69
ATOM     69  C   UNL     1      -3.223   8.482   7.834  1.00  0.00    -0.001 C 
ATOM     70  C   UNL     1      -3.624   9.228   8.879  1.00  0.00     0.001 C 
BRANCH  70  71
ATOM     71  C   UNL     1      -4.497  10.403   8.837  1.00  0.00    -0.055 C 
ATOM     72  C   UNL     1      -5.619  10.378   9.587  1.00  0.00    -0.018 C 
ATOM     73  C   UNL     1      -4.077  11.559   7.967  1.00  0.00     0.044 C 
BRANCH  72  74
ATOM     74  C   UNL     1      -6.696  11.442   9.743  1.00  0.00     0.038 C 
ATOM     75  C   UNL     1      -6.872  11.692  11.245  1.00  0.00     0.015 C 
BRANCH  74  76
ATOM     76  C   UNL     1      -7.982  10.963   9.006  1.00  0.00     0.128 C 
BRANCH  76  77
ATOM     77  O   UNL     1      -8.767  12.098   8.601  1.00  0.00    -0.381 OA
ATOM     78  C   UNL     1     -10.099  12.077   9.095  1.00  0.00     0.195 C 
ENDBRANCH  76  77
BRANCH  76  79
ATOM     79  C   UNL     1      -7.711   9.976   7.843  1.00  0.00     0.068 C 
BRANCH  79  80
ATOM     80  C   UNL     1      -8.014  10.438   6.438  1.00  0.00    -0.045 A 
ATOM     81  C   UNL     1      -9.251  10.163   5.839  1.00  0.00     0.004 A 
ATOM     82  C   UNL     1      -7.045  11.130   5.696  1.00  0.00     0.004 A 
ATOM     83  C   UNL     1      -9.519  10.581   4.534  1.00  0.00     0.000 A 
ATOM     84  C   UNL     1      -7.314  11.547   4.390  1.00  0.00     0.000 A 
ATOM     85  C   UNL     1      -8.550  11.274   3.811  1.00  0.00     0.000 A 
ENDBRANCH  79  80
ENDBRANCH  76  79
ENDBRANCH  74  76
ENDBRANCH  72  74
ENDBRANCH  70  71
ENDBRANCH   1  69
TORSDOF 17
ENDMDL
MODEL 41
REMARK VINA RESULT:    -6.027      3.264      8.075
REMARK INTER + INTRA:         -25.205
REMARK INTER:                 -17.951
REMARK INTRA:                  -7.254
REMARK UNBOUND:                -7.200
REMARK SMILES C=C1C(=O)N[C@H](C)C(=O)N[C@@H](CC(C)C)C(=O)N[C@@H](C(=O)O)[C@H](C)C(=O)N[C@@H](CCCN=C(N)N)C(=O)N[C@@H](/C=C/C(C)=C/[C@H](C)[C@H](Cc2ccccc2)OC)[C@H](C)C(=O)N[C@@H](C(=O)O)CCC(=O)N1C
REMARK SMILES IDX 39 1 38 2 37 3 36 4 28 6 27 7 25 8 26 9 23 11 24 12 19 13
REMARK SMILES IDX 18 14 16 15 17 16 11 18 10 19 8 20 9 21 12 24 13 25 14 26
REMARK SMILES IDX 15 27 20 28 21 29 22 30 29 32 30 33 31 34 32 35 33 36 34 37
REMARK SMILES IDX 35 38 57 43 58 44 59 45 60 46 61 47 62 49 66 50 67 51 68 52
REMARK SMILES IDX 69 53 70 54 71 55 2 56 1 57 3 58 4 59 5 60 6 62 7 63 63 65
REMARK SMILES IDX 64 66 65 67 40 69 41 70 42 71 44 72 43 73 45 74 46 75 47 76
REMARK SMILES IDX 55 77 56 78 48 79 49 80 50 81 54 82 51 83 53 84 52 85
REMARK H PARENT 38 5 27 10 18 17 10 22 22 31 34 39 34 40 35 41 35 42 61 48
REMARK H PARENT 5 61 65 68
REMARK Flexibility Score:  369.900
ROOT
ATOM      1  C   UNL     1      -3.007   8.896   7.732  1.00  0.00     0.117 C 
ENDROOT
BRANCH   1   2
ATOM      2  N   UNL     1      -2.146   9.356   6.642  1.00  0.00    -0.347 N 
ATOM      3  O   UNL     1      -3.752  10.439   5.410  1.00  0.00    -0.273 OA
ATOM      4  C   UNL     1      -2.572  10.172   5.612  1.00  0.00     0.243 C 
ATOM      5  H   UNL     1      -1.166   9.116   6.651  1.00  0.00     0.164 HD
BRANCH   4   6
ATOM      6  C   UNL     1      -1.442  10.585   4.635  1.00  0.00     0.171 C 
BRANCH   6   7
ATOM      7  N   UNL     1      -0.276   9.701   4.795  1.00  0.00    -0.344 N 
ATOM      8  C   UNL     1       0.988  10.138   4.462  1.00  0.00     0.226 C 
ATOM      9  O   UNL     1       1.201  11.254   4.003  1.00  0.00    -0.275 OA
ATOM     10  H   UNL     1      -0.421   8.749   5.107  1.00  0.00     0.164 HD
BRANCH   8  11
ATOM     11  C   UNL     1       2.090   9.129   4.734  1.00  0.00     0.109 C 
ATOM     12  C   UNL     1       1.690   8.212   5.890  1.00  0.00     0.021 C 
BRANCH  11  13
ATOM     13  C   UNL     1       2.465   8.400   3.428  1.00  0.00     0.204 C 
BRANCH  13  14
ATOM     14  N   UNL     1       2.163   9.205   2.241  1.00  0.00    -0.340 N 
ATOM     15  C   UNL     1       1.604   8.674   1.099  1.00  0.00     0.243 C 
ATOM     16  O   UNL     1       1.262   7.495   1.018  1.00  0.00    -0.273 OA
ATOM     17  H   UNL     1       2.557  10.149   2.187  1.00  0.00     0.164 HD
BRANCH  15  18
ATOM     18  C   UNL     1       1.569   9.664  -0.091  1.00  0.00     0.171 C 
BRANCH  18  19
ATOM     19  N   UNL     1       2.600  10.667   0.168  1.00  0.00    -0.343 N 
ATOM     20  C   UNL     1       2.462  11.978  -0.245  1.00  0.00     0.242 CG0
ATOM     21  O   UNL     1       1.530  12.331  -0.964  1.00  0.00    -0.273 OA
ATOM     22  H   UNL     1       3.445  10.396   0.659  1.00  0.00     0.164 HD
ATOM     23  G   UNL     1       3.615  12.907   0.188  1.00  0.00     0.000 G0
ENDBRANCH  18  19
BRANCH  18  24
ATOM     24  C   UNL     1       1.820   8.929  -1.414  1.00  0.00     0.038 C 
BRANCH  24  25
ATOM     25  C   UNL     1       0.557   8.691  -2.269  1.00  0.00    -0.015 C 
ATOM     26  C   UNL     1       0.875   8.558  -3.758  1.00  0.00     0.007 C 
ATOM     27  C   UNL     1      -0.433   9.839  -2.053  1.00  0.00     0.007 C 
ENDBRANCH  24  25
ENDBRANCH  18  24
ENDBRANCH  15  18
ENDBRANCH  13  14
BRANCH  13  28
ATOM     28  C   UNL     1       3.947   8.020   3.353  1.00  0.00     0.327 C 
ATOM     29  O   UNL     1       4.859   8.537   3.981  1.00  0.00    -0.250 OA
BRANCH  28  30
ATOM     30  O   UNL     1       4.208   7.095   2.408  1.00  0.00    -0.480 OA
ATOM     31  H   UNL     1       4.948   7.479   1.893  1.00  0.00     0.296 HD
ENDBRANCH  28  30
ENDBRANCH  13  28
ENDBRANCH  11  13
ENDBRANCH   8  11
ENDBRANCH   6   7
BRANCH   6  32
ATOM     32  C   UNL     1      -1.974  10.535   3.199  1.00  0.00     0.037 C 
BRANCH  32  33
ATOM     33  C   UNL     1      -1.804  11.876   2.472  1.00  0.00     0.026 C 
BRANCH  33  34
ATOM     34  C   UNL     1      -1.156  11.718   1.096  1.00  0.00     0.146 C 
BRANCH  34  35
ATOM     35  N   UNL     1      -1.743  12.691   0.185  1.00  0.00    -0.254 NA
ATOM     36  C   UNL     1      -2.787  12.359  -0.479  1.00  0.00     0.185 C 
ATOM     37  N   UNL     1      -3.340  13.249  -1.318  1.00  0.00    -0.370 N 
ATOM     38  N   UNL     1      -3.459  11.194  -0.470  1.00  0.00    -0.370 N 
ATOM     39  H   UNL     1      -2.896  14.157  -1.373  1.00  0.00     0.159 HD
ATOM     40  H   UNL     1      -4.246  13.130  -1.736  1.00  0.00     0.159 HD
ATOM     41  H   UNL     1      -4.185  11.006  -1.142  1.00  0.00     0.159 HD
ATOM     42  H   UNL     1      -3.146  10.426   0.104  1.00  0.00     0.159 HD
ENDBRANCH  34  35
ENDBRANCH  33  34
ENDBRANCH  32  33
ENDBRANCH   6  32
ENDBRANCH   4   6
ENDBRANCH   1   2
BRANCH   1  43
ATOM     43  C   UNL     1      -2.942   9.936   8.888  1.00  0.00     0.102 C 
ATOM     44  C   UNL     1      -2.252   9.402  10.154  1.00  0.00     0.020 C 
BRANCH  43  45
ATOM     45  C   UNL     1      -4.318  10.558   9.145  1.00  0.00     0.225 C 
ATOM     46  O   UNL     1      -4.687  10.935  10.254  1.00  0.00    -0.275 OA
ATOM     47  N   UNL     1      -5.168  10.586   8.063  1.00  0.00    -0.342 N 
ATOM     48  H   UNL     1      -4.803  10.416   7.136  1.00  0.00     0.164 HD
BRANCH  47  49
ATOM     49  C   UNL     1      -6.503  11.184   8.152  1.00  0.00     0.192 C 
BRANCH  49  50
ATOM     50  C   UNL     1      -7.561  10.078   8.191  1.00  0.00     0.047 C 
BRANCH  50  51
ATOM     51  C   UNL     1      -8.049   9.789   9.617  1.00  0.00     0.103 C 
BRANCH  51  52
ATOM     52  C   UNL     1      -9.554   9.534   9.667  1.00  0.00     0.226 C 
ATOM     53  O   UNL     1      -9.987   8.399   9.455  1.00  0.00    -0.275 OA
BRANCH  52  54
ATOM     54  N   UNL     1     -10.363  10.624  10.036  1.00  0.00    -0.311 N 
ATOM     55  C   UNL     1     -10.586  11.746   9.115  1.00  0.00     0.153 C 
BRANCH  54  56
ATOM     56  C   UNL     1     -10.991  10.679  11.292  1.00  0.00     0.102 C 
ATOM     57  C   UNL     1     -10.487  11.288  12.377  1.00  0.00     0.043 C 
BRANCH  56  58
ATOM     58  C   UNL     1     -12.356  10.067  11.503  1.00  0.00     0.268 C 
ATOM     59  O   UNL     1     -12.944   9.427  10.641  1.00  0.00    -0.268 OA
ATOM     60  N   UNL     1     -12.836  10.246  12.778  1.00  0.00    -0.339 N 
ATOM     61  H   UNL     1     -12.293  10.797  13.431  1.00  0.00     0.164 HD
BRANCH  60  62
ATOM     62  C   UNL     1     -14.112   9.681  13.216  1.00  0.00     0.168 CG0
ATOM     63  C   UNL     1     -14.706  10.493  14.360  1.00  0.00     0.041 C 
ATOM     64  G   UNL     1     -13.909   8.211  13.638  1.00  0.00     0.000 G0
ENDBRANCH  60  62
ENDBRANCH  56  58
ENDBRANCH  54  56
ENDBRANCH  52  54
ENDBRANCH  51  52
ENDBRANCH  50  51
ENDBRANCH  49  50
BRANCH  49  65
ATOM     65  C   UNL     1      -6.786  12.118   6.965  1.00  0.00     0.326 C 
ATOM     66  O   UNL     1      -7.064  11.759   5.829  1.00  0.00    -0.250 OA
BRANCH  65  67
ATOM     67  O   UNL     1      -6.650  13.434   7.238  1.00  0.00    -0.480 OA
ATOM     68  H   UNL     1      -6.851  13.494   8.196  1.00  0.00     0.296 HD
ENDBRANCH  65  67
ENDBRANCH  49  65
ENDBRANCH  47  49
ENDBRANCH  43  45
ENDBRANCH   1  43
BRANCH   1  69
ATOM     69  C   UNL     1      -2.602   7.460   8.014  1.00  0.00    -0.001 C 
ATOM     70  C   UNL     1      -2.870   6.374   7.268  1.00  0.00     0.001 C 
BRANCH  70  71
ATOM     71  C   UNL     1      -2.456   4.996   7.540  1.00  0.00    -0.055 C 
ATOM     72  C   UNL     1      -1.590   4.790   8.554  1.00  0.00    -0.018 C 
ATOM     73  C   UNL     1      -3.032   3.906   6.674  1.00  0.00     0.044 C 
BRANCH  72  74
ATOM     74  C   UNL     1      -0.995   3.484   9.061  1.00  0.00     0.038 C 
ATOM     75  C   UNL     1      -0.894   3.595  10.587  1.00  0.00     0.015 C 
BRANCH  74  76
ATOM     76  C   UNL     1       0.360   3.235   8.334  1.00  0.00     0.128 C 
BRANCH  76  77
ATOM     77  O   UNL     1       0.195   2.227   7.322  1.00  0.00    -0.381 OA
ATOM     78  C   UNL     1      -0.707   1.192   7.688  1.00  0.00     0.195 C 
ENDBRANCH  76  77
BRANCH  76  79
ATOM     79  C   UNL     1       1.030   4.523   7.794  1.00  0.00     0.068 C 
BRANCH  79  80
ATOM     80  C   UNL     1       1.342   4.593   6.318  1.00  0.00    -0.045 A 
ATOM     81  C   UNL     1       2.652   4.432   5.849  1.00  0.00     0.004 A 
ATOM     82  C   UNL     1       0.320   4.849   5.391  1.00  0.00     0.004 A 
ATOM     83  C   UNL     1       2.934   4.512   4.484  1.00  0.00     0.000 A 
ATOM     84  C   UNL     1       0.604   4.929   4.026  1.00  0.00     0.000 A 
ATOM     85  C   UNL     1       1.910   4.759   3.573  1.00  0.00     0.000 A 
ENDBRANCH  79  80
ENDBRANCH  76  79
ENDBRANCH  74  76
ENDBRANCH  72  74
ENDBRANCH  70  71
ENDBRANCH   1  69
TORSDOF 17
ENDMDL
MODEL 42
REMARK VINA RESULT:    -6.013      3.939     12.379
REMARK INTER + INTRA:         -25.165
REMARK INTER:                 -18.167
REMARK INTRA:                  -6.997
REMARK UNBOUND:                -7.200
REMARK SMILES C=C1C(=O)N[C@H](C)C(=O)N[C@@H](CC(C)C)C(=O)N[C@@H](C(=O)O)[C@H](C)C(=O)N[C@@H](CCCN=C(N)N)C(=O)N[C@@H](/C=C/C(C)=C/[C@H](C)[C@H](Cc2ccccc2)OC)[C@H](C)C(=O)N[C@@H](C(=O)O)CCC(=O)N1C
REMARK SMILES IDX 39 1 38 2 37 3 36 4 28 6 27 7 25 8 26 9 23 11 24 12 19 13
REMARK SMILES IDX 18 14 16 15 17 16 11 18 10 19 8 20 9 21 12 24 13 25 14 26
REMARK SMILES IDX 15 27 20 28 21 29 22 30 29 32 30 33 31 34 32 35 33 36 34 37
REMARK SMILES IDX 35 38 57 43 58 44 59 45 60 46 61 47 62 49 66 50 67 51 68 52
REMARK SMILES IDX 69 53 70 54 71 55 2 56 1 57 3 58 4 59 5 60 6 62 7 63 63 65
REMARK SMILES IDX 64 66 65 67 40 69 41 70 42 71 44 72 43 73 45 74 46 75 47 76
REMARK SMILES IDX 55 77 56 78 48 79 49 80 50 81 54 82 51 83 53 84 52 85
REMARK H PARENT 38 5 27 10 18 17 10 22 22 31 34 39 34 40 35 41 35 42 61 48
REMARK H PARENT 5 61 65 68
REMARK Flexibility Score:  369.900
ROOT
ATOM      1  C   UNL     1      -1.478   9.539   4.525  1.00  0.00     0.117 C 
ENDROOT
BRANCH   1   2
ATOM      2  N   UNL     1      -0.558   8.625   5.201  1.00  0.00    -0.347 N 
ATOM      3  O   UNL     1      -1.013   6.748   3.960  1.00  0.00    -0.273 OA
ATOM      4  C   UNL     1      -0.332   7.321   4.804  1.00  0.00     0.243 C 
ATOM      5  H   UNL     1      -0.009   8.961   5.978  1.00  0.00     0.164 HD
BRANCH   4   6
ATOM      6  C   UNL     1       0.755   6.595   5.637  1.00  0.00     0.171 C 
BRANCH   6   7
ATOM      7  N   UNL     1       0.336   5.217   5.939  1.00  0.00    -0.344 N 
ATOM      8  C   UNL     1       0.062   4.833   7.234  1.00  0.00     0.226 C 
ATOM      9  O   UNL     1       0.172   5.596   8.186  1.00  0.00    -0.275 OA
ATOM     10  H   UNL     1       0.299   4.539   5.187  1.00  0.00     0.164 HD
BRANCH   8  11
ATOM     11  C   UNL     1      -0.410   3.396   7.374  1.00  0.00     0.109 C 
ATOM     12  C   UNL     1       0.632   2.572   8.131  1.00  0.00     0.021 C 
BRANCH  11  13
ATOM     13  C   UNL     1      -1.826   3.369   7.982  1.00  0.00     0.204 C 
BRANCH  13  14
ATOM     14  N   UNL     1      -1.865   3.977   9.316  1.00  0.00    -0.340 N 
ATOM     15  C   UNL     1      -2.282   3.295  10.438  1.00  0.00     0.243 C 
ATOM     16  O   UNL     1      -2.593   2.105  10.410  1.00  0.00    -0.273 OA
ATOM     17  H   UNL     1      -1.766   4.994   9.383  1.00  0.00     0.164 HD
BRANCH  15  18
ATOM     18  C   UNL     1      -2.437   4.195  11.688  1.00  0.00     0.171 C 
BRANCH  18  19
ATOM     19  N   UNL     1      -3.636   3.738  12.387  1.00  0.00    -0.343 N 
ATOM     20  C   UNL     1      -4.822   4.447  12.341  1.00  0.00     0.242 CG0
ATOM     21  O   UNL     1      -4.886   5.559  11.822  1.00  0.00    -0.273 OA
ATOM     22  H   UNL     1      -3.601   2.881  12.926  1.00  0.00     0.164 HD
ATOM     23  G   UNL     1      -5.998   3.769  13.073  1.00  0.00     0.000 G0
ENDBRANCH  18  19
BRANCH  18  24
ATOM     24  C   UNL     1      -1.195   4.099  12.582  1.00  0.00     0.038 C 
BRANCH  24  25
ATOM     25  C   UNL     1      -0.045   5.051  12.191  1.00  0.00    -0.015 C 
ATOM     26  C   UNL     1       0.980   5.223  13.313  1.00  0.00     0.007 C 
ATOM     27  C   UNL     1      -0.616   6.417  11.803  1.00  0.00     0.007 C 
ENDBRANCH  24  25
ENDBRANCH  18  24
ENDBRANCH  15  18
ENDBRANCH  13  14
BRANCH  13  28
ATOM     28  C   UNL     1      -2.866   4.093   7.122  1.00  0.00     0.327 C 
ATOM     29  O   UNL     1      -3.885   4.635   7.524  1.00  0.00    -0.250 OA
BRANCH  28  30
ATOM     30  O   UNL     1      -2.624   3.990   5.800  1.00  0.00    -0.480 OA
ATOM     31  H   UNL     1      -2.395   4.902   5.525  1.00  0.00     0.296 HD
ENDBRANCH  28  30
ENDBRANCH  13  28
ENDBRANCH  11  13
ENDBRANCH   8  11
ENDBRANCH   6   7
BRANCH   6  32
ATOM     32  C   UNL     1       2.077   6.608   4.862  1.00  0.00     0.037 C 
BRANCH  32  33
ATOM     33  C   UNL     1       3.067   5.560   5.387  1.00  0.00     0.026 C 
BRANCH  33  34
ATOM     34  C   UNL     1       3.465   4.543   4.316  1.00  0.00     0.146 C 
BRANCH  34  35
ATOM     35  N   UNL     1       2.260   4.060   3.656  1.00  0.00    -0.254 NA
ATOM     36  C   UNL     1       2.277   3.903   2.384  1.00  0.00     0.185 C 
ATOM     37  N   UNL     1       1.174   3.454   1.766  1.00  0.00    -0.370 N 
ATOM     38  N   UNL     1       3.282   4.128   1.519  1.00  0.00    -0.370 N 
ATOM     39  H   UNL     1       0.375   3.251   2.353  1.00  0.00     0.159 HD
ATOM     40  H   UNL     1       1.161   3.142   0.810  1.00  0.00     0.159 HD
ATOM     41  H   UNL     1       3.129   4.099   0.524  1.00  0.00     0.159 HD
ATOM     42  H   UNL     1       4.168   4.483   1.843  1.00  0.00     0.159 HD
ENDBRANCH  34  35
ENDBRANCH  33  34
ENDBRANCH  32  33
ENDBRANCH   6  32
ENDBRANCH   4   6
ENDBRANCH   1   2
BRANCH   1  43
ATOM     43  C   UNL     1      -0.649  10.682   3.871  1.00  0.00     0.102 C 
ATOM     44  C   UNL     1      -1.343  11.325   2.658  1.00  0.00     0.020 C 
BRANCH  43  45
ATOM     45  C   UNL     1       0.789  10.232   3.598  1.00  0.00     0.225 C 
ATOM     46  O   UNL     1       1.711  10.415   4.388  1.00  0.00    -0.275 OA
ATOM     47  N   UNL     1       1.012   9.683   2.356  1.00  0.00    -0.342 N 
ATOM     48  H   UNL     1       0.227   9.402   1.785  1.00  0.00     0.164 HD
BRANCH  47  49
ATOM     49  C   UNL     1       2.331   9.174   1.968  1.00  0.00     0.192 C 
BRANCH  49  50
ATOM     50  C   UNL     1       2.881  10.005   0.806  1.00  0.00     0.047 C 
BRANCH  50  51
ATOM     51  C   UNL     1       1.775  10.477  -0.147  1.00  0.00     0.103 C 
BRANCH  51  52
ATOM     52  C   UNL     1       1.437  11.953   0.054  1.00  0.00     0.226 C 
ATOM     53  O   UNL     1       1.887  12.555   1.031  1.00  0.00    -0.275 OA
BRANCH  52  54
ATOM     54  N   UNL     1       0.673  12.564  -0.959  1.00  0.00    -0.311 N 
ATOM     55  C   UNL     1      -0.603  13.223  -0.650  1.00  0.00     0.153 C 
BRANCH  54  56
ATOM     56  C   UNL     1       1.103  12.572  -2.296  1.00  0.00     0.102 C 
ATOM     57  C   UNL     1       2.176  13.238  -2.754  1.00  0.00     0.043 C 
BRANCH  56  58
ATOM     58  C   UNL     1       0.382  11.762  -3.347  1.00  0.00     0.268 C 
ATOM     59  O   UNL     1      -0.790  11.946  -3.647  1.00  0.00    -0.268 OA
ATOM     60  N   UNL     1       1.193  10.846  -3.973  1.00  0.00    -0.339 N 
ATOM     61  H   UNL     1       2.151  10.748  -3.659  1.00  0.00     0.164 HD
BRANCH  60  62
ATOM     62  C   UNL     1       0.714  10.000  -5.066  1.00  0.00     0.168 CG0
ATOM     63  C   UNL     1       1.598   8.770  -5.234  1.00  0.00     0.041 C 
ATOM     64  G   UNL     1       0.665  10.820  -6.371  1.00  0.00     0.000 G0
ENDBRANCH  60  62
ENDBRANCH  56  58
ENDBRANCH  54  56
ENDBRANCH  52  54
ENDBRANCH  51  52
ENDBRANCH  50  51
ENDBRANCH  49  50
BRANCH  49  65
ATOM     65  C   UNL     1       2.269   7.696   1.553  1.00  0.00     0.326 C 
ATOM     66  O   UNL     1       1.247   7.052   1.369  1.00  0.00    -0.250 OA
BRANCH  65  67
ATOM     67  O   UNL     1       3.472   7.089   1.449  1.00  0.00    -0.480 OA
ATOM     68  H   UNL     1       3.257   6.135   1.526  1.00  0.00     0.296 HD
ENDBRANCH  65  67
ENDBRANCH  49  65
ENDBRANCH  47  49
ENDBRANCH  43  45
ENDBRANCH   1  43
BRANCH   1  69
ATOM     69  C   UNL     1      -2.545   9.897   5.543  1.00  0.00    -0.001 C 
ATOM     70  C   UNL     1      -2.536  10.926   6.409  1.00  0.00     0.001 C 
BRANCH  70  71
ATOM     71  C   UNL     1      -3.582  11.274   7.373  1.00  0.00    -0.055 C 
ATOM     72  C   UNL     1      -4.693  10.507   7.398  1.00  0.00    -0.018 C 
ATOM     73  C   UNL     1      -3.342  12.457   8.273  1.00  0.00     0.044 C 
BRANCH  72  74
ATOM     74  C   UNL     1      -5.925  10.626   8.282  1.00  0.00     0.038 C 
ATOM     75  C   UNL     1      -5.734   9.660   9.458  1.00  0.00     0.015 C 
BRANCH  74  76
ATOM     76  C   UNL     1      -7.191  10.358   7.416  1.00  0.00     0.128 C 
BRANCH  76  77
ATOM     77  O   UNL     1      -8.213   9.740   8.218  1.00  0.00    -0.381 OA
ATOM     78  C   UNL     1      -9.202  10.649   8.681  1.00  0.00     0.195 C 
ENDBRANCH  76  77
BRANCH  76  79
ATOM     79  C   UNL     1      -7.703  11.602   6.647  1.00  0.00     0.068 C 
BRANCH  79  80
ATOM     80  C   UNL     1      -7.440  11.673   5.162  1.00  0.00    -0.045 A 
ATOM     81  C   UNL     1      -6.512  10.820   4.552  1.00  0.00     0.004 A 
ATOM     82  C   UNL     1      -8.106  12.621   4.371  1.00  0.00     0.004 A 
ATOM     83  C   UNL     1      -6.264  10.901   3.180  1.00  0.00     0.000 A 
ATOM     84  C   UNL     1      -7.857  12.703   2.999  1.00  0.00     0.000 A 
ATOM     85  C   UNL     1      -6.937  11.842   2.404  1.00  0.00     0.000 A 
ENDBRANCH  79  80
ENDBRANCH  76  79
ENDBRANCH  74  76
ENDBRANCH  72  74
ENDBRANCH  70  71
ENDBRANCH   1  69
TORSDOF 17
ENDMDL
MODEL 43
REMARK VINA RESULT:    -6.013      4.228      7.688
REMARK INTER + INTRA:         -25.163
REMARK INTER:                 -17.788
REMARK INTRA:                  -7.376
REMARK UNBOUND:                -7.200
REMARK SMILES C=C1C(=O)N[C@H](C)C(=O)N[C@@H](CC(C)C)C(=O)N[C@@H](C(=O)O)[C@H](C)C(=O)N[C@@H](CCCN=C(N)N)C(=O)N[C@@H](/C=C/C(C)=C/[C@H](C)[C@H](Cc2ccccc2)OC)[C@H](C)C(=O)N[C@@H](C(=O)O)CCC(=O)N1C
REMARK SMILES IDX 39 1 38 2 37 3 36 4 28 6 27 7 25 8 26 9 23 11 24 12 19 13
REMARK SMILES IDX 18 14 16 15 17 16 11 18 10 19 8 20 9 21 12 24 13 25 14 26
REMARK SMILES IDX 15 27 20 28 21 29 22 30 29 32 30 33 31 34 32 35 33 36 34 37
REMARK SMILES IDX 35 38 57 43 58 44 59 45 60 46 61 47 62 49 66 50 67 51 68 52
REMARK SMILES IDX 69 53 70 54 71 55 2 56 1 57 3 58 4 59 5 60 6 62 7 63 63 65
REMARK SMILES IDX 64 66 65 67 40 69 41 70 42 71 44 72 43 73 45 74 46 75 47 76
REMARK SMILES IDX 55 77 56 78 48 79 49 80 50 81 54 82 51 83 53 84 52 85
REMARK H PARENT 38 5 27 10 18 17 10 22 22 31 34 39 34 40 35 41 35 42 61 48
REMARK H PARENT 5 61 65 68
REMARK Flexibility Score:  369.900
ROOT
ATOM      1  C   UNL     1      -0.970  10.549   3.652  1.00  0.00     0.117 C 
ENDROOT
BRANCH   1   2
ATOM      2  N   UNL     1       0.092   9.646   4.096  1.00  0.00    -0.347 N 
ATOM      3  O   UNL     1       1.442  11.215   5.089  1.00  0.00    -0.273 OA
ATOM      4  C   UNL     1       1.173  10.040   4.861  1.00  0.00     0.243 C 
ATOM      5  H   UNL     1       0.027   8.662   3.882  1.00  0.00     0.164 HD
BRANCH   4   6
ATOM      6  C   UNL     1       2.107   8.873   5.269  1.00  0.00     0.171 C 
BRANCH   6   7
ATOM      7  N   UNL     1       1.646   7.611   4.667  1.00  0.00    -0.344 N 
ATOM      8  C   UNL     1       1.411   6.503   5.452  1.00  0.00     0.226 C 
ATOM      9  O   UNL     1       1.591   6.503   6.664  1.00  0.00    -0.275 OA
ATOM     10  H   UNL     1       1.551   7.553   3.661  1.00  0.00     0.164 HD
BRANCH   8  11
ATOM     11  C   UNL     1       0.888   5.297   4.692  1.00  0.00     0.109 C 
ATOM     12  C   UNL     1      -0.617   5.434   4.460  1.00  0.00     0.021 C 
BRANCH  11  13
ATOM     13  C   UNL     1       1.724   5.084   3.414  1.00  0.00     0.204 C 
BRANCH  13  14
ATOM     14  N   UNL     1       3.046   4.522   3.708  1.00  0.00    -0.340 N 
ATOM     15  C   UNL     1       4.218   5.214   3.493  1.00  0.00     0.243 C 
ATOM     16  O   UNL     1       4.235   6.377   3.096  1.00  0.00    -0.273 OA
ATOM     17  H   UNL     1       3.110   3.517   3.893  1.00  0.00     0.164 HD
BRANCH  15  18
ATOM     18  C   UNL     1       5.490   4.349   3.677  1.00  0.00     0.171 C 
BRANCH  18  19
ATOM     19  N   UNL     1       6.633   5.243   3.498  1.00  0.00    -0.343 N 
ATOM     20  C   UNL     1       7.768   4.846   2.818  1.00  0.00     0.242 CG0
ATOM     21  O   UNL     1       7.924   3.684   2.449  1.00  0.00    -0.273 OA
ATOM     22  H   UNL     1       6.598   6.178   3.887  1.00  0.00     0.164 HD
ATOM     23  G   UNL     1       8.835   5.949   2.663  1.00  0.00     0.000 G0
ENDBRANCH  18  19
BRANCH  18  24
ATOM     24  C   UNL     1       5.502   3.692   5.062  1.00  0.00     0.038 C 
BRANCH  24  25
ATOM     25  C   UNL     1       5.256   4.661   6.238  1.00  0.00    -0.015 C 
ATOM     26  C   UNL     1       6.523   4.928   7.051  1.00  0.00     0.007 C 
ATOM     27  C   UNL     1       4.166   4.095   7.152  1.00  0.00     0.007 C 
ENDBRANCH  24  25
ENDBRANCH  18  24
ENDBRANCH  15  18
ENDBRANCH  13  14
BRANCH  13  28
ATOM     28  C   UNL     1       1.051   4.154   2.400  1.00  0.00     0.327 C 
ATOM     29  O   UNL     1       1.020   2.934   2.447  1.00  0.00    -0.250 OA
BRANCH  28  30
ATOM     30  O   UNL     1       0.559   4.808   1.328  1.00  0.00    -0.480 OA
ATOM     31  H   UNL     1       1.035   4.415   0.567  1.00  0.00     0.296 HD
ENDBRANCH  28  30
ENDBRANCH  13  28
ENDBRANCH  11  13
ENDBRANCH   8  11
ENDBRANCH   6   7
BRANCH   6  32
ATOM     32  C   UNL     1       3.539   9.198   4.830  1.00  0.00     0.037 C 
BRANCH  32  33
ATOM     33  C   UNL     1       4.312   9.977   5.903  1.00  0.00     0.026 C 
BRANCH  33  34
ATOM     34  C   UNL     1       3.900   9.584   7.322  1.00  0.00     0.146 C 
BRANCH  34  35
ATOM     35  N   UNL     1       3.506  10.784   8.047  1.00  0.00    -0.254 NA
ATOM     36  C   UNL     1       2.337  10.832   8.569  1.00  0.00     0.185 C 
ATOM     37  N   UNL     1       1.967  11.931   9.243  1.00  0.00    -0.370 N 
ATOM     38  N   UNL     1       1.365   9.903   8.549  1.00  0.00    -0.370 N 
ATOM     39  H   UNL     1       2.650  12.674   9.312  1.00  0.00     0.159 HD
ATOM     40  H   UNL     1       1.146  11.978   9.822  1.00  0.00     0.159 HD
ATOM     41  H   UNL     1       0.437  10.113   8.877  1.00  0.00     0.159 HD
ATOM     42  H   UNL     1       1.500   9.030   8.063  1.00  0.00     0.159 HD
ENDBRANCH  34  35
ENDBRANCH  33  34
ENDBRANCH  32  33
ENDBRANCH   6  32
ENDBRANCH   4   6
ENDBRANCH   1   2
BRANCH   1  43
ATOM     43  C   UNL     1      -2.341   9.946   4.075  1.00  0.00     0.102 C 
ATOM     44  C   UNL     1      -3.538  10.569   3.337  1.00  0.00     0.020 C 
BRANCH  43  45
ATOM     45  C   UNL     1      -2.489   9.934   5.600  1.00  0.00     0.225 C 
ATOM     46  O   UNL     1      -2.106   9.004   6.303  1.00  0.00    -0.275 OA
ATOM     47  N   UNL     1      -3.172  11.001   6.137  1.00  0.00    -0.342 N 
ATOM     48  H   UNL     1      -3.344  11.821   5.572  1.00  0.00     0.164 HD
BRANCH  47  49
ATOM     49  C   UNL     1      -3.359  11.140   7.584  1.00  0.00     0.192 C 
BRANCH  49  50
ATOM     50  C   UNL     1      -4.767  10.678   7.968  1.00  0.00     0.047 C 
BRANCH  50  51
ATOM     51  C   UNL     1      -5.859  11.557   7.343  1.00  0.00     0.103 C 
BRANCH  51  52
ATOM     52  C   UNL     1      -6.656  10.810   6.275  1.00  0.00     0.226 C 
ATOM     53  O   UNL     1      -6.062  10.143   5.426  1.00  0.00    -0.275 OA
BRANCH  52  54
ATOM     54  N   UNL     1      -8.058  10.874   6.380  1.00  0.00    -0.311 N 
ATOM     55  C   UNL     1      -8.880  11.334   5.252  1.00  0.00     0.153 C 
BRANCH  54  56
ATOM     56  C   UNL     1      -8.723  10.498   7.559  1.00  0.00     0.102 C 
ATOM     57  C   UNL     1      -8.858   9.235   7.995  1.00  0.00     0.043 C 
BRANCH  56  58
ATOM     58  C   UNL     1      -9.317  11.539   8.479  1.00  0.00     0.268 C 
ATOM     59  O   UNL     1      -8.638  12.303   9.152  1.00  0.00    -0.268 OA
ATOM     60  N   UNL     1     -10.690  11.581   8.431  1.00  0.00    -0.339 N 
ATOM     61  H   UNL     1     -11.178  10.906   7.856  1.00  0.00     0.164 HD
BRANCH  60  62
ATOM     62  C   UNL     1     -11.466  12.556   9.196  1.00  0.00     0.168 CG0
ATOM     63  C   UNL     1     -11.656  12.095  10.636  1.00  0.00     0.041 C 
ATOM     64  G   UNL     1     -12.829  12.783   8.511  1.00  0.00     0.000 G0
ENDBRANCH  60  62
ENDBRANCH  56  58
ENDBRANCH  54  56
ENDBRANCH  52  54
ENDBRANCH  51  52
ENDBRANCH  50  51
ENDBRANCH  49  50
BRANCH  49  65
ATOM     65  C   UNL     1      -3.158  12.593   8.044  1.00  0.00     0.326 C 
ATOM     66  O   UNL     1      -2.878  13.536   7.319  1.00  0.00    -0.250 OA
BRANCH  65  67
ATOM     67  O   UNL     1      -3.256  12.780   9.379  1.00  0.00    -0.480 OA
ATOM     68  H   UNL     1      -3.938  12.131   9.654  1.00  0.00     0.296 HD
ENDBRANCH  65  67
ENDBRANCH  49  65
ENDBRANCH  47  49
ENDBRANCH  43  45
ENDBRANCH   1  43
BRANCH   1  69
ATOM     69  C   UNL     1      -0.711  10.819   2.181  1.00  0.00    -0.001 C 
ATOM     70  C   UNL     1      -0.794  11.998   1.540  1.00  0.00     0.001 C 
BRANCH  70  71
ATOM     71  C   UNL     1      -0.520  12.250   0.124  1.00  0.00    -0.055 C 
ATOM     72  C   UNL     1       0.514  13.062  -0.181  1.00  0.00    -0.018 C 
ATOM     73  C   UNL     1      -1.406  11.579  -0.894  1.00  0.00     0.044 C 
BRANCH  72  74
ATOM     74  C   UNL     1       1.029  13.496  -1.546  1.00  0.00     0.038 C 
ATOM     75  C   UNL     1      -0.197  13.758  -2.429  1.00  0.00     0.015 C 
BRANCH  74  76
ATOM     76  C   UNL     1       2.001  12.406  -2.084  1.00  0.00     0.128 C 
BRANCH  76  77
ATOM     77  O   UNL     1       2.766  12.930  -3.183  1.00  0.00    -0.381 OA
ATOM     78  C   UNL     1       3.514  14.093  -2.854  1.00  0.00     0.195 C 
ENDBRANCH  76  77
BRANCH  76  79
ATOM     79  C   UNL     1       2.887  11.757  -0.991  1.00  0.00     0.068 C 
BRANCH  79  80
ATOM     80  C   UNL     1       2.459  10.421  -0.434  1.00  0.00    -0.045 A 
ATOM     81  C   UNL     1       1.665   9.546  -1.187  1.00  0.00     0.004 A 
ATOM     82  C   UNL     1       2.829  10.046   0.866  1.00  0.00     0.004 A 
ATOM     83  C   UNL     1       1.261   8.318  -0.659  1.00  0.00     0.000 A 
ATOM     84  C   UNL     1       2.424   8.818   1.394  1.00  0.00     0.000 A 
ATOM     85  C   UNL     1       1.642   7.954   0.631  1.00  0.00     0.000 A 
ENDBRANCH  79  80
ENDBRANCH  76  79
ENDBRANCH  74  76
ENDBRANCH  72  74
ENDBRANCH  70  71
ENDBRANCH   1  69
TORSDOF 17
ENDMDL
MODEL 44
REMARK VINA RESULT:    -5.988      4.925      8.305
REMARK INTER + INTRA:         -25.091
REMARK INTER:                 -19.874
REMARK INTRA:                  -5.217
REMARK UNBOUND:                -7.200
REMARK SMILES C=C1C(=O)N[C@H](C)C(=O)N[C@@H](CC(C)C)C(=O)N[C@@H](C(=O)O)[C@H](C)C(=O)N[C@@H](CCCN=C(N)N)C(=O)N[C@@H](/C=C/C(C)=C/[C@H](C)[C@H](Cc2ccccc2)OC)[C@H](C)C(=O)N[C@@H](C(=O)O)CCC(=O)N1C
REMARK SMILES IDX 39 1 38 2 37 3 36 4 28 6 27 7 25 8 26 9 23 11 24 12 19 13
REMARK SMILES IDX 18 14 16 15 17 16 11 18 10 19 8 20 9 21 12 24 13 25 14 26
REMARK SMILES IDX 15 27 20 28 21 29 22 30 29 32 30 33 31 34 32 35 33 36 34 37
REMARK SMILES IDX 35 38 57 43 58 44 59 45 60 46 61 47 62 49 66 50 67 51 68 52
REMARK SMILES IDX 69 53 70 54 71 55 2 56 1 57 3 58 4 59 5 60 6 62 7 63 63 65
REMARK SMILES IDX 64 66 65 67 40 69 41 70 42 71 44 72 43 73 45 74 46 75 47 76
REMARK SMILES IDX 55 77 56 78 48 79 49 80 50 81 54 82 51 83 53 84 52 85
REMARK H PARENT 38 5 27 10 18 17 10 22 22 31 34 39 34 40 35 41 35 42 61 48
REMARK H PARENT 5 61 65 68
REMARK Flexibility Score:  369.900
ROOT
ATOM      1  C   UNL     1      -0.987   5.164   7.469  1.00  0.00     0.117 C 
ENDROOT
BRANCH   1   2
ATOM      2  N   UNL     1      -0.497   5.612   6.165  1.00  0.00    -0.347 N 
ATOM      3  O   UNL     1       1.598   6.275   6.830  1.00  0.00    -0.273 OA
ATOM      4  C   UNL     1       0.794   6.048   5.933  1.00  0.00     0.243 C 
ATOM      5  H   UNL     1      -1.106   5.561   5.363  1.00  0.00     0.164 HD
BRANCH   4   6
ATOM      6  C   UNL     1       1.080   6.382   4.447  1.00  0.00     0.171 C 
BRANCH   6   7
ATOM      7  N   UNL     1       1.035   7.837   4.229  1.00  0.00    -0.344 N 
ATOM      8  C   UNL     1      -0.164   8.477   4.001  1.00  0.00     0.226 C 
ATOM      9  O   UNL     1      -1.232   7.878   3.946  1.00  0.00    -0.275 OA
ATOM     10  H   UNL     1       1.904   8.356   4.199  1.00  0.00     0.164 HD
BRANCH   8  11
ATOM     11  C   UNL     1      -0.050   9.983   3.850  1.00  0.00     0.109 C 
ATOM     12  C   UNL     1      -0.082  10.654   5.223  1.00  0.00     0.021 C 
BRANCH  11  13
ATOM     13  C   UNL     1       1.180  10.329   2.987  1.00  0.00     0.204 C 
BRANCH  13  14
ATOM     14  N   UNL     1       0.810  10.676   1.612  1.00  0.00    -0.340 N 
ATOM     15  C   UNL     1       0.880   9.777   0.569  1.00  0.00     0.243 C 
ATOM     16  O   UNL     1       1.200   8.601   0.731  1.00  0.00    -0.273 OA
ATOM     17  H   UNL     1       0.683  11.665   1.383  1.00  0.00     0.164 HD
BRANCH  15  18
ATOM     18  C   UNL     1       0.642  10.420  -0.819  1.00  0.00     0.171 C 
BRANCH  18  19
ATOM     19  N   UNL     1       1.342  11.703  -0.812  1.00  0.00    -0.343 N 
ATOM     20  C   UNL     1       2.680  11.804  -1.144  1.00  0.00     0.242 CG0
ATOM     21  O   UNL     1       3.374  10.808  -1.331  1.00  0.00    -0.273 OA
ATOM     22  H   UNL     1       0.839  12.543  -0.551  1.00  0.00     0.164 HD
ATOM     23  G   UNL     1       3.225  13.247  -1.157  1.00  0.00     0.000 G0
ENDBRANCH  18  19
BRANCH  18  24
ATOM     24  C   UNL     1       1.157   9.504  -1.936  1.00  0.00     0.038 C 
BRANCH  24  25
ATOM     25  C   UNL     1       0.191   9.335  -3.128  1.00  0.00    -0.015 C 
ATOM     26  C   UNL     1       0.588   8.175  -4.042  1.00  0.00     0.007 C 
ATOM     27  C   UNL     1       0.139  10.633  -3.937  1.00  0.00     0.007 C 
ENDBRANCH  24  25
ENDBRANCH  18  24
ENDBRANCH  15  18
ENDBRANCH  13  14
BRANCH  13  28
ATOM     28  C   UNL     1       1.998  11.498   3.545  1.00  0.00     0.327 C 
ATOM     29  O   UNL     1       1.723  12.684   3.448  1.00  0.00    -0.250 OA
BRANCH  28  30
ATOM     30  O   UNL     1       3.172  11.112   4.086  1.00  0.00    -0.480 OA
ATOM     31  H   UNL     1       3.850  11.523   3.510  1.00  0.00     0.296 HD
ENDBRANCH  28  30
ENDBRANCH  13  28
ENDBRANCH  11  13
ENDBRANCH   8  11
ENDBRANCH   6   7
BRANCH   6  32
ATOM     32  C   UNL     1       2.449   5.812   4.057  1.00  0.00     0.037 C 
BRANCH  32  33
ATOM     33  C   UNL     1       3.017   6.480   2.797  1.00  0.00     0.026 C 
BRANCH  33  34
ATOM     34  C   UNL     1       2.753   5.662   1.532  1.00  0.00     0.146 C 
BRANCH  34  35
ATOM     35  N   UNL     1       1.436   5.049   1.635  1.00  0.00    -0.254 NA
ATOM     36  C   UNL     1       1.347   3.772   1.588  1.00  0.00     0.185 C 
ATOM     37  N   UNL     1       0.139   3.196   1.687  1.00  0.00    -0.370 N 
ATOM     38  N   UNL     1       2.327   2.861   1.448  1.00  0.00    -0.370 N 
ATOM     39  H   UNL     1      -0.651   3.817   1.806  1.00  0.00     0.159 HD
ATOM     40  H   UNL     1       0.003   2.211   1.833  1.00  0.00     0.159 HD
ATOM     41  H   UNL     1       2.117   1.890   1.284  1.00  0.00     0.159 HD
ATOM     42  H   UNL     1       3.287   3.153   1.346  1.00  0.00     0.159 HD
ENDBRANCH  34  35
ENDBRANCH  33  34
ENDBRANCH  32  33
ENDBRANCH   6  32
ENDBRANCH   4   6
ENDBRANCH   1   2
BRANCH   1  43
ATOM     43  C   UNL     1      -1.921   3.939   7.253  1.00  0.00     0.102 C 
ATOM     44  C   UNL     1      -3.400   4.321   7.072  1.00  0.00     0.020 C 
BRANCH  43  45
ATOM     45  C   UNL     1      -1.682   2.869   8.322  1.00  0.00     0.225 C 
ATOM     46  O   UNL     1      -1.520   1.681   8.058  1.00  0.00    -0.275 OA
ATOM     47  N   UNL     1      -1.752   3.307   9.625  1.00  0.00    -0.342 N 
ATOM     48  H   UNL     1      -1.733   4.298   9.821  1.00  0.00     0.164 HD
BRANCH  47  49
ATOM     49  C   UNL     1      -1.508   2.402  10.752  1.00  0.00     0.192 C 
BRANCH  49  50
ATOM     50  C   UNL     1      -2.352   2.837  11.953  1.00  0.00     0.047 C 
BRANCH  50  51
ATOM     51  C   UNL     1      -2.941   4.242  11.771  1.00  0.00     0.103 C 
BRANCH  51  52
ATOM     52  C   UNL     1      -4.248   4.421  12.542  1.00  0.00     0.226 C 
ATOM     53  O   UNL     1      -4.218   4.809  13.712  1.00  0.00    -0.275 OA
BRANCH  52  54
ATOM     54  N   UNL     1      -5.436   4.194  11.823  1.00  0.00    -0.311 N 
ATOM     55  C   UNL     1      -5.659   4.822  10.514  1.00  0.00     0.153 C 
BRANCH  54  56
ATOM     56  C   UNL     1      -6.448   3.358  12.325  1.00  0.00     0.102 C 
ATOM     57  C   UNL     1      -7.750   3.681  12.389  1.00  0.00     0.043 C 
BRANCH  56  58
ATOM     58  C   UNL     1      -6.131   1.962  12.806  1.00  0.00     0.268 C 
ATOM     59  O   UNL     1      -5.867   1.699  13.971  1.00  0.00    -0.268 OA
ATOM     60  N   UNL     1      -6.236   1.013  11.817  1.00  0.00    -0.339 N 
ATOM     61  H   UNL     1      -6.449   1.314  10.873  1.00  0.00     0.164 HD
BRANCH  60  62
ATOM     62  C   UNL     1      -6.033  -0.411  12.079  1.00  0.00     0.168 CG0
ATOM     63  C   UNL     1      -4.590  -0.817  11.809  1.00  0.00     0.041 C 
ATOM     64  G   UNL     1      -7.004  -1.240  11.212  1.00  0.00     0.000 G0
ENDBRANCH  60  62
ENDBRANCH  56  58
ENDBRANCH  54  56
ENDBRANCH  52  54
ENDBRANCH  51  52
ENDBRANCH  50  51
ENDBRANCH  49  50
BRANCH  49  65
ATOM     65  C   UNL     1      -0.025   2.382  11.153  1.00  0.00     0.326 C 
ATOM     66  O   UNL     1       0.540   1.473  11.743  1.00  0.00    -0.250 OA
BRANCH  65  67
ATOM     67  O   UNL     1       0.655   3.511  10.854  1.00  0.00    -0.480 OA
ATOM     68  H   UNL     1       0.127   4.219  11.281  1.00  0.00     0.296 HD
ENDBRANCH  65  67
ENDBRANCH  49  65
ENDBRANCH  47  49
ENDBRANCH  43  45
ENDBRANCH   1  43
BRANCH   1  69
ATOM     69  C   UNL     1      -1.542   6.397   8.159  1.00  0.00    -0.001 C 
ATOM     70  C   UNL     1      -1.921   7.553   7.586  1.00  0.00     0.001 C 
BRANCH  70  71
ATOM     71  C   UNL     1      -2.475   8.729   8.260  1.00  0.00    -0.055 C 
ATOM     72  C   UNL     1      -3.767   9.039   8.020  1.00  0.00    -0.018 C 
ATOM     73  C   UNL     1      -1.569   9.504   9.181  1.00  0.00     0.044 C 
BRANCH  72  74
ATOM     74  C   UNL     1      -4.601  10.185   8.574  1.00  0.00     0.038 C 
ATOM     75  C   UNL     1      -5.848   9.567   9.218  1.00  0.00     0.015 C 
BRANCH  74  76
ATOM     76  C   UNL     1      -4.893  11.194   7.424  1.00  0.00     0.128 C 
BRANCH  76  77
ATOM     77  O   UNL     1      -4.919  12.534   7.943  1.00  0.00    -0.381 OA
ATOM     78  C   UNL     1      -6.229  13.029   8.181  1.00  0.00     0.195 C 
ENDBRANCH  76  77
BRANCH  76  79
ATOM     79  C   UNL     1      -3.954  11.042   6.201  1.00  0.00     0.068 C 
BRANCH  79  80
ATOM     80  C   UNL     1      -4.567  10.621   4.887  1.00  0.00    -0.045 A 
ATOM     81  C   UNL     1      -3.775  10.438   3.746  1.00  0.00     0.004 A 
ATOM     82  C   UNL     1      -5.954  10.434   4.782  1.00  0.00     0.004 A 
ATOM     83  C   UNL     1      -4.351  10.063   2.531  1.00  0.00     0.000 A 
ATOM     84  C   UNL     1      -6.529  10.059   3.566  1.00  0.00     0.000 A 
ATOM     85  C   UNL     1      -5.728   9.872   2.442  1.00  0.00     0.000 A 
ENDBRANCH  79  80
ENDBRANCH  76  79
ENDBRANCH  74  76
ENDBRANCH  72  74
ENDBRANCH  70  71
ENDBRANCH   1  69
TORSDOF 17
ENDMDL
MODEL 45
REMARK VINA RESULT:    -5.988      4.588     12.941
REMARK INTER + INTRA:         -25.089
REMARK INTER:                 -20.856
REMARK INTRA:                  -4.233
REMARK UNBOUND:                -7.200
REMARK SMILES C=C1C(=O)N[C@H](C)C(=O)N[C@@H](CC(C)C)C(=O)N[C@@H](C(=O)O)[C@H](C)C(=O)N[C@@H](CCCN=C(N)N)C(=O)N[C@@H](/C=C/C(C)=C/[C@H](C)[C@H](Cc2ccccc2)OC)[C@H](C)C(=O)N[C@@H](C(=O)O)CCC(=O)N1C
REMARK SMILES IDX 39 1 38 2 37 3 36 4 28 6 27 7 25 8 26 9 23 11 24 12 19 13
REMARK SMILES IDX 18 14 16 15 17 16 11 18 10 19 8 20 9 21 12 24 13 25 14 26
REMARK SMILES IDX 15 27 20 28 21 29 22 30 29 32 30 33 31 34 32 35 33 36 34 37
REMARK SMILES IDX 35 38 57 43 58 44 59 45 60 46 61 47 62 49 66 50 67 51 68 52
REMARK SMILES IDX 69 53 70 54 71 55 2 56 1 57 3 58 4 59 5 60 6 62 7 63 63 65
REMARK SMILES IDX 64 66 65 67 40 69 41 70 42 71 44 72 43 73 45 74 46 75 47 76
REMARK SMILES IDX 55 77 56 78 48 79 49 80 50 81 54 82 51 83 53 84 52 85
REMARK H PARENT 38 5 27 10 18 17 10 22 22 31 34 39 34 40 35 41 35 42 61 48
REMARK H PARENT 5 61 65 68
REMARK Flexibility Score:  369.900
ROOT
ATOM      1  C   UNL     1      -1.359  10.225   5.571  1.00  0.00     0.117 C 
ENDROOT
BRANCH   1   2
ATOM      2  N   UNL     1      -1.212   8.841   6.021  1.00  0.00    -0.347 N 
ATOM      3  O   UNL     1      -1.084   7.851   3.954  1.00  0.00    -0.273 OA
ATOM      4  C   UNL     1      -0.993   7.771   5.174  1.00  0.00     0.243 C 
ATOM      5  H   UNL     1      -1.217   8.639   7.010  1.00  0.00     0.164 HD
BRANCH   4   6
ATOM      6  C   UNL     1      -0.785   6.424   5.913  1.00  0.00     0.171 C 
BRANCH   6   7
ATOM      7  N   UNL     1      -1.735   6.298   7.029  1.00  0.00    -0.344 N 
ATOM      8  C   UNL     1      -1.287   6.052   8.309  1.00  0.00     0.226 C 
ATOM      9  O   UNL     1      -0.100   5.906   8.576  1.00  0.00    -0.275 OA
ATOM     10  H   UNL     1      -2.728   6.345   6.837  1.00  0.00     0.164 HD
BRANCH   8  11
ATOM     11  C   UNL     1      -2.384   6.003   9.358  1.00  0.00     0.109 C 
ATOM     12  C   UNL     1      -3.362   7.159   9.150  1.00  0.00     0.021 C 
BRANCH  11  13
ATOM     13  C   UNL     1      -3.030   4.603   9.373  1.00  0.00     0.204 C 
BRANCH  13  14
ATOM     14  N   UNL     1      -3.212   4.094  10.735  1.00  0.00    -0.340 N 
ATOM     15  C   UNL     1      -3.216   2.749  11.038  1.00  0.00     0.243 C 
ATOM     16  O   UNL     1      -3.006   1.882  10.192  1.00  0.00    -0.273 OA
ATOM     17  H   UNL     1      -3.540   4.747  11.452  1.00  0.00     0.164 HD
BRANCH  15  18
ATOM     18  C   UNL     1      -3.632   2.445  12.498  1.00  0.00     0.171 C 
BRANCH  18  19
ATOM     19  N   UNL     1      -2.428   1.989  13.190  1.00  0.00    -0.343 N 
ATOM     20  C   UNL     1      -2.117   0.648  13.305  1.00  0.00     0.242 CG0
ATOM     21  O   UNL     1      -2.903  -0.227  12.949  1.00  0.00    -0.273 OA
ATOM     22  H   UNL     1      -1.803   2.672  13.603  1.00  0.00     0.164 HD
ATOM     23  G   UNL     1      -0.769   0.363  13.998  1.00  0.00     0.000 G0
ENDBRANCH  18  19
BRANCH  18  24
ATOM     24  C   UNL     1      -4.224   3.693  13.164  1.00  0.00     0.038 C 
BRANCH  24  25
ATOM     25  C   UNL     1      -5.594   3.475  13.840  1.00  0.00    -0.015 C 
ATOM     26  C   UNL     1      -5.504   2.564  15.064  1.00  0.00     0.007 C 
ATOM     27  C   UNL     1      -6.578   2.883  12.828  1.00  0.00     0.007 C 
ENDBRANCH  24  25
ENDBRANCH  18  24
ENDBRANCH  15  18
ENDBRANCH  13  14
BRANCH  13  28
ATOM     28  C   UNL     1      -4.398   4.562   8.686  1.00  0.00     0.327 C 
ATOM     29  O   UNL     1      -5.485   4.537   9.242  1.00  0.00    -0.250 OA
BRANCH  28  30
ATOM     30  O   UNL     1      -4.314   4.434   7.346  1.00  0.00    -0.480 OA
ATOM     31  H   UNL     1      -4.364   3.468   7.193  1.00  0.00     0.296 HD
ENDBRANCH  28  30
ENDBRANCH  13  28
ENDBRANCH  11  13
ENDBRANCH   8  11
ENDBRANCH   6   7
BRANCH   6  32
ATOM     32  C   UNL     1      -0.956   5.273   4.916  1.00  0.00     0.037 C 
BRANCH  32  33
ATOM     33  C   UNL     1       0.357   4.513   4.678  1.00  0.00     0.026 C 
BRANCH  33  34
ATOM     34  C   UNL     1       1.094   4.996   3.429  1.00  0.00     0.146 C 
BRANCH  34  35
ATOM     35  N   UNL     1       1.805   3.871   2.838  1.00  0.00    -0.254 NA
ATOM     36  C   UNL     1       1.256   3.236   1.870  1.00  0.00     0.185 C 
ATOM     37  N   UNL     1       1.904   2.201   1.315  1.00  0.00    -0.370 N 
ATOM     38  N   UNL     1       0.064   3.454   1.286  1.00  0.00    -0.370 N 
ATOM     39  H   UNL     1       2.816   1.980   1.695  1.00  0.00     0.159 HD
ATOM     40  H   UNL     1       1.625   1.768   0.452  1.00  0.00     0.159 HD
ATOM     41  H   UNL     1      -0.319   2.799   0.625  1.00  0.00     0.159 HD
ATOM     42  H   UNL     1      -0.540   4.193   1.613  1.00  0.00     0.159 HD
ENDBRANCH  34  35
ENDBRANCH  33  34
ENDBRANCH  32  33
ENDBRANCH   6  32
ENDBRANCH   4   6
ENDBRANCH   1   2
BRANCH   1  43
ATOM     43  C   UNL     1       0.029  10.923   5.651  1.00  0.00     0.102 C 
ATOM     44  C   UNL     1       0.013  12.226   6.468  1.00  0.00     0.020 C 
BRANCH  43  45
ATOM     45  C   UNL     1       0.652  11.069   4.260  1.00  0.00     0.225 C 
ATOM     46  O   UNL     1       1.303  10.179   3.719  1.00  0.00    -0.275 OA
ATOM     47  N   UNL     1       0.519  12.309   3.678  1.00  0.00    -0.342 N 
ATOM     48  H   UNL     1      -0.140  12.973   4.061  1.00  0.00     0.164 HD
BRANCH  47  49
ATOM     49  C   UNL     1       1.034  12.584   2.334  1.00  0.00     0.192 C 
BRANCH  49  50
ATOM     50  C   UNL     1       0.269  11.744   1.308  1.00  0.00     0.047 C 
BRANCH  50  51
ATOM     51  C   UNL     1      -0.183  12.573   0.097  1.00  0.00     0.103 C 
BRANCH  51  52
ATOM     52  C   UNL     1      -0.507  11.695  -1.110  1.00  0.00     0.226 C 
ATOM     53  O   UNL     1      -1.682  11.524  -1.441  1.00  0.00    -0.275 OA
BRANCH  52  54
ATOM     54  N   UNL     1       0.591  11.186  -1.828  1.00  0.00    -0.311 N 
ATOM     55  C   UNL     1       1.881  11.887  -1.834  1.00  0.00     0.153 C 
BRANCH  54  56
ATOM     56  C   UNL     1       0.497   9.990  -2.559  1.00  0.00     0.102 C 
ATOM     57  C   UNL     1       0.502   8.759  -2.022  1.00  0.00     0.043 C 
BRANCH  56  58
ATOM     58  C   UNL     1       0.330  10.010  -4.060  1.00  0.00     0.268 C 
ATOM     59  O   UNL     1       0.070   9.012  -4.718  1.00  0.00    -0.268 OA
ATOM     60  N   UNL     1       0.434  11.270  -4.598  1.00  0.00    -0.339 N 
ATOM     61  H   UNL     1       0.662  12.044  -3.986  1.00  0.00     0.164 HD
BRANCH  60  62
ATOM     62  C   UNL     1       0.244  11.526  -6.025  1.00  0.00     0.168 CG0
ATOM     63  C   UNL     1      -0.886  12.522  -6.257  1.00  0.00     0.041 C 
ATOM     64  G   UNL     1      -0.041  10.197  -6.755  1.00  0.00     0.000 G0
ENDBRANCH  60  62
ENDBRANCH  56  58
ENDBRANCH  54  56
ENDBRANCH  52  54
ENDBRANCH  51  52
ENDBRANCH  50  51
ENDBRANCH  49  50
BRANCH  49  65
ATOM     65  C   UNL     1       2.535  12.274   2.228  1.00  0.00     0.326 C 
ATOM     66  O   UNL     1       3.056  11.560   1.383  1.00  0.00    -0.250 OA
BRANCH  65  67
ATOM     67  O   UNL     1       3.293  12.817   3.206  1.00  0.00    -0.480 OA
ATOM     68  H   UNL     1       3.959  12.121   3.396  1.00  0.00     0.296 HD
ENDBRANCH  65  67
ENDBRANCH  49  65
ENDBRANCH  47  49
ENDBRANCH  43  45
ENDBRANCH   1  43
BRANCH   1  69
ATOM     69  C   UNL     1      -2.519  10.806   6.359  1.00  0.00    -0.001 C 
ATOM     70  C   UNL     1      -3.101  10.290   7.456  1.00  0.00     0.001 C 
BRANCH  70  71
ATOM     71  C   UNL     1      -4.206  10.871   8.221  1.00  0.00    -0.055 C 
ATOM     72  C   UNL     1      -5.416  10.280   8.124  1.00  0.00    -0.018 C 
ATOM     73  C   UNL     1      -3.914  12.081   9.069  1.00  0.00     0.044 C 
BRANCH  72  74
ATOM     74  C   UNL     1      -6.728  10.655   8.797  1.00  0.00     0.038 C 
ATOM     75  C   UNL     1      -7.062   9.538   9.793  1.00  0.00     0.015 C 
BRANCH  74  76
ATOM     76  C   UNL     1      -7.805  10.895   7.698  1.00  0.00     0.128 C 
BRANCH  76  77
ATOM     77  O   UNL     1      -8.588  12.056   8.022  1.00  0.00    -0.381 OA
ATOM     78  C   UNL     1      -9.923  11.756   8.404  1.00  0.00     0.195 C 
ENDBRANCH  76  77
BRANCH  76  79
ATOM     79  C   UNL     1      -7.235  10.939   6.258  1.00  0.00     0.068 C 
BRANCH  79  80
ATOM     80  C   UNL     1      -8.180  11.288   5.134  1.00  0.00    -0.045 A 
ATOM     81  C   UNL     1      -9.314  10.507   4.875  1.00  0.00     0.004 A 
ATOM     82  C   UNL     1      -7.919  12.392   4.308  1.00  0.00     0.004 A 
ATOM     83  C   UNL     1     -10.175  10.829   3.824  1.00  0.00     0.000 A 
ATOM     84  C   UNL     1      -8.781  12.713   3.257  1.00  0.00     0.000 A 
ATOM     85  C   UNL     1      -9.909  11.933   3.017  1.00  0.00     0.000 A 
ENDBRANCH  79  80
ENDBRANCH  76  79
ENDBRANCH  74  76
ENDBRANCH  72  74
ENDBRANCH  70  71
ENDBRANCH   1  69
TORSDOF 17
ENDMDL
MODEL 46
REMARK VINA RESULT:    -5.931      4.143      8.315
REMARK INTER + INTRA:         -24.920
REMARK INTER:                 -18.152
REMARK INTRA:                  -6.767
REMARK UNBOUND:                -7.200
REMARK SMILES C=C1C(=O)N[C@H](C)C(=O)N[C@@H](CC(C)C)C(=O)N[C@@H](C(=O)O)[C@H](C)C(=O)N[C@@H](CCCN=C(N)N)C(=O)N[C@@H](/C=C/C(C)=C/[C@H](C)[C@H](Cc2ccccc2)OC)[C@H](C)C(=O)N[C@@H](C(=O)O)CCC(=O)N1C
REMARK SMILES IDX 39 1 38 2 37 3 36 4 28 6 27 7 25 8 26 9 23 11 24 12 19 13
REMARK SMILES IDX 18 14 16 15 17 16 11 18 10 19 8 20 9 21 12 24 13 25 14 26
REMARK SMILES IDX 15 27 20 28 21 29 22 30 29 32 30 33 31 34 32 35 33 36 34 37
REMARK SMILES IDX 35 38 57 43 58 44 59 45 60 46 61 47 62 49 66 50 67 51 68 52
REMARK SMILES IDX 69 53 70 54 71 55 2 56 1 57 3 58 4 59 5 60 6 62 7 63 63 65
REMARK SMILES IDX 64 66 65 67 40 69 41 70 42 71 44 72 43 73 45 74 46 75 47 76
REMARK SMILES IDX 55 77 56 78 48 79 49 80 50 81 54 82 51 83 53 84 52 85
REMARK H PARENT 38 5 27 10 18 17 10 22 22 31 34 39 34 40 35 41 35 42 61 48
REMARK H PARENT 5 61 65 68
REMARK Flexibility Score:  369.900
ROOT
ATOM      1  C   UNL     1      -1.665   8.169   6.997  1.00  0.00     0.117 C 
ENDROOT
BRANCH   1   2
ATOM      2  N   UNL     1      -1.490   8.930   5.759  1.00  0.00    -0.347 N 
ATOM      3  O   UNL     1      -0.339  10.708   6.644  1.00  0.00    -0.273 OA
ATOM      4  C   UNL     1      -0.759  10.098   5.666  1.00  0.00     0.243 C 
ATOM      5  H   UNL     1      -1.878   8.571   4.900  1.00  0.00     0.164 HD
BRANCH   4   6
ATOM      6  C   UNL     1      -0.658  10.657   4.224  1.00  0.00     0.171 C 
BRANCH   6   7
ATOM      7  N   UNL     1       0.703  10.473   3.695  1.00  0.00    -0.344 N 
ATOM      8  C   UNL     1       1.422  11.546   3.216  1.00  0.00     0.226 C 
ATOM      9  O   UNL     1       0.967  12.684   3.184  1.00  0.00    -0.275 OA
ATOM     10  H   UNL     1       1.087   9.537   3.643  1.00  0.00     0.164 HD
BRANCH   8  11
ATOM     11  C   UNL     1       2.828  11.203   2.757  1.00  0.00     0.109 C 
ATOM     12  C   UNL     1       2.998   9.686   2.674  1.00  0.00     0.021 C 
BRANCH  11  13
ATOM     13  C   UNL     1       3.152  11.963   1.456  1.00  0.00     0.204 C 
BRANCH  13  14
ATOM     14  N   UNL     1       2.017  11.977   0.527  1.00  0.00    -0.340 N 
ATOM     15  C   UNL     1       2.112  11.539  -0.776  1.00  0.00     0.243 C 
ATOM     16  O   UNL     1       3.142  11.049  -1.235  1.00  0.00    -0.273 OA
ATOM     17  H   UNL     1       1.184  12.507   0.795  1.00  0.00     0.164 HD
BRANCH  15  18
ATOM     18  C   UNL     1       0.851  11.841  -1.623  1.00  0.00     0.171 C 
BRANCH  18  19
ATOM     19  N   UNL     1       0.597  13.275  -1.498  1.00  0.00    -0.343 N 
ATOM     20  C   UNL     1      -0.672  13.805  -1.632  1.00  0.00     0.242 CG0
ATOM     21  O   UNL     1      -1.623  13.115  -1.992  1.00  0.00    -0.273 OA
ATOM     22  H   UNL     1       1.371  13.904  -1.315  1.00  0.00     0.164 HD
ATOM     23  G   UNL     1      -0.756  15.326  -1.390  1.00  0.00     0.000 G0
ENDBRANCH  18  19
BRANCH  18  24
ATOM     24  C   UNL     1       1.070  11.434  -3.085  1.00  0.00     0.038 C 
BRANCH  24  25
ATOM     25  C   UNL     1       0.104  10.348  -3.603  1.00  0.00    -0.015 C 
ATOM     26  C   UNL     1      -0.236   9.309  -2.535  1.00  0.00     0.007 C 
ATOM     27  C   UNL     1       0.718   9.652  -4.821  1.00  0.00     0.007 C 
ENDBRANCH  24  25
ENDBRANCH  18  24
ENDBRANCH  15  18
ENDBRANCH  13  14
BRANCH  13  28
ATOM     28  C   UNL     1       3.561  13.420   1.694  1.00  0.00     0.327 C 
ATOM     29  O   UNL     1       3.697  14.282   0.839  1.00  0.00    -0.250 OA
BRANCH  28  30
ATOM     30  O   UNL     1       3.888  13.674   2.977  1.00  0.00    -0.480 OA
ATOM     31  H   UNL     1       4.333  12.855   3.279  1.00  0.00     0.296 HD
ENDBRANCH  28  30
ENDBRANCH  13  28
ENDBRANCH  11  13
ENDBRANCH   8  11
ENDBRANCH   6   7
BRANCH   6  32
ATOM     32  C   UNL     1      -1.690   9.951   3.337  1.00  0.00     0.037 C 
BRANCH  32  33
ATOM     33  C   UNL     1      -2.951  10.800   3.128  1.00  0.00     0.026 C 
BRANCH  33  34
ATOM     34  C   UNL     1      -3.941  10.149   2.161  1.00  0.00     0.146 C 
BRANCH  34  35
ATOM     35  N   UNL     1      -4.504  11.180   1.300  1.00  0.00    -0.254 NA
ATOM     36  C   UNL     1      -3.835  11.557   0.275  1.00  0.00     0.185 C 
ATOM     37  N   UNL     1      -4.347  12.503  -0.528  1.00  0.00    -0.370 N 
ATOM     38  N   UNL     1      -2.633  11.132  -0.153  1.00  0.00    -0.370 N 
ATOM     39  H   UNL     1      -5.257  12.867  -0.278  1.00  0.00     0.159 HD
ATOM     40  H   UNL     1      -3.972  12.726  -1.434  1.00  0.00     0.159 HD
ATOM     41  H   UNL     1      -2.148  11.605  -0.897  1.00  0.00     0.159 HD
ATOM     42  H   UNL     1      -2.123  10.432   0.364  1.00  0.00     0.159 HD
ENDBRANCH  34  35
ENDBRANCH  33  34
ENDBRANCH  32  33
ENDBRANCH   6  32
ENDBRANCH   4   6
ENDBRANCH   1   2
BRANCH   1  43
ATOM     43  C   UNL     1      -1.686   6.653   6.649  1.00  0.00     0.102 C 
ATOM     44  C   UNL     1      -2.951   5.929   7.141  1.00  0.00     0.020 C 
BRANCH  43  45
ATOM     45  C   UNL     1      -0.379   5.974   7.068  1.00  0.00     0.225 C 
ATOM     46  O   UNL     1       0.595   5.877   6.326  1.00  0.00    -0.275 OA
ATOM     47  N   UNL     1      -0.388   5.388   8.313  1.00  0.00    -0.342 N 
ATOM     48  H   UNL     1      -1.131   5.605   8.962  1.00  0.00     0.164 HD
BRANCH  47  49
ATOM     49  C   UNL     1       0.803   4.733   8.860  1.00  0.00     0.192 C 
BRANCH  49  50
ATOM     50  C   UNL     1       0.428   3.353   9.405  1.00  0.00     0.047 C 
BRANCH  50  51
ATOM     51  C   UNL     1      -1.075   3.231   9.695  1.00  0.00     0.103 C 
BRANCH  51  52
ATOM     52  C   UNL     1      -1.426   3.697  11.107  1.00  0.00     0.226 C 
ATOM     53  O   UNL     1      -0.853   3.195  12.076  1.00  0.00    -0.275 OA
BRANCH  52  54
ATOM     54  N   UNL     1      -2.352   4.752  11.206  1.00  0.00    -0.311 N 
ATOM     55  C   UNL     1      -1.904   6.132  11.441  1.00  0.00     0.153 C 
BRANCH  54  56
ATOM     56  C   UNL     1      -3.733   4.529  11.078  1.00  0.00     0.102 C 
ATOM     57  C   UNL     1      -4.394   4.453   9.912  1.00  0.00     0.043 C 
BRANCH  56  58
ATOM     58  C   UNL     1      -4.598   4.305  12.296  1.00  0.00     0.268 C 
ATOM     59  O   UNL     1      -5.287   5.183  12.798  1.00  0.00    -0.268 OA
ATOM     60  N   UNL     1      -4.581   3.004  12.739  1.00  0.00    -0.339 N 
ATOM     61  H   UNL     1      -3.974   2.339  12.274  1.00  0.00     0.164 HD
BRANCH  60  62
ATOM     62  C   UNL     1      -5.395   2.555  13.867  1.00  0.00     0.168 CG0
ATOM     63  C   UNL     1      -4.749   2.934  15.194  1.00  0.00     0.041 C 
ATOM     64  G   UNL     1      -5.604   1.029  13.778  1.00  0.00     0.000 G0
ENDBRANCH  60  62
ENDBRANCH  56  58
ENDBRANCH  54  56
ENDBRANCH  52  54
ENDBRANCH  51  52
ENDBRANCH  50  51
ENDBRANCH  49  50
BRANCH  49  65
ATOM     65  C   UNL     1       1.443   5.566   9.982  1.00  0.00     0.326 C 
ATOM     66  O   UNL     1       1.733   6.751   9.910  1.00  0.00    -0.250 OA
BRANCH  65  67
ATOM     67  O   UNL     1       1.738   4.871  11.103  1.00  0.00    -0.480 OA
ATOM     68  H   UNL     1       0.886   4.449  11.345  1.00  0.00     0.296 HD
ENDBRANCH  65  67
ENDBRANCH  49  65
ENDBRANCH  47  49
ENDBRANCH  43  45
ENDBRANCH   1  43
BRANCH   1  69
ATOM     69  C   UNL     1      -2.865   8.776   7.702  1.00  0.00    -0.001 C 
ATOM     70  C   UNL     1      -2.862   9.543   8.806  1.00  0.00     0.001 C 
BRANCH  70  71
ATOM     71  C   UNL     1      -4.025  10.141   9.465  1.00  0.00    -0.055 C 
ATOM     72  C   UNL     1      -5.247   9.680   9.123  1.00  0.00    -0.018 C 
ATOM     73  C   UNL     1      -3.777  11.223  10.484  1.00  0.00     0.044 C 
BRANCH  72  74
ATOM     74  C   UNL     1      -6.615  10.104   9.636  1.00  0.00     0.038 C 
ATOM     75  C   UNL     1      -7.528   8.874   9.559  1.00  0.00     0.015 C 
BRANCH  74  76
ATOM     76  C   UNL     1      -7.102  11.331   8.811  1.00  0.00     0.128 C 
BRANCH  76  77
ATOM     77  O   UNL     1      -6.983  12.529   9.596  1.00  0.00    -0.381 OA
ATOM     78  C   UNL     1      -6.237  13.558   8.959  1.00  0.00     0.195 C 
ENDBRANCH  76  77
BRANCH  76  79
ATOM     79  C   UNL     1      -6.434  11.458   7.418  1.00  0.00     0.068 C 
BRANCH  79  80
ATOM     80  C   UNL     1      -7.182  10.921   6.223  1.00  0.00    -0.045 A 
ATOM     81  C   UNL     1      -6.562  10.813   4.971  1.00  0.00     0.004 A 
ATOM     82  C   UNL     1      -8.529  10.545   6.343  1.00  0.00     0.004 A 
ATOM     83  C   UNL     1      -7.266  10.327   3.867  1.00  0.00     0.000 A 
ATOM     84  C   UNL     1      -9.232  10.061   5.237  1.00  0.00     0.000 A 
ATOM     85  C   UNL     1      -8.601   9.950   4.001  1.00  0.00     0.000 A 
ENDBRANCH  79  80
ENDBRANCH  76  79
ENDBRANCH  74  76
ENDBRANCH  72  74
ENDBRANCH  70  71
ENDBRANCH   1  69
TORSDOF 17
ENDMDL
MODEL 47
REMARK VINA RESULT:    -5.920      5.884     12.662
REMARK INTER + INTRA:         -24.886
REMARK INTER:                 -15.251
REMARK INTRA:                  -9.635
REMARK UNBOUND:                -7.200
REMARK SMILES C=C1C(=O)N[C@H](C)C(=O)N[C@@H](CC(C)C)C(=O)N[C@@H](C(=O)O)[C@H](C)C(=O)N[C@@H](CCCN=C(N)N)C(=O)N[C@@H](/C=C/C(C)=C/[C@H](C)[C@H](Cc2ccccc2)OC)[C@H](C)C(=O)N[C@@H](C(=O)O)CCC(=O)N1C
REMARK SMILES IDX 39 1 38 2 37 3 36 4 28 6 27 7 25 8 26 9 23 11 24 12 19 13
REMARK SMILES IDX 18 14 16 15 17 16 11 18 10 19 8 20 9 21 12 24 13 25 14 26
REMARK SMILES IDX 15 27 20 28 21 29 22 30 29 32 30 33 31 34 32 35 33 36 34 37
REMARK SMILES IDX 35 38 57 43 58 44 59 45 60 46 61 47 62 49 66 50 67 51 68 52
REMARK SMILES IDX 69 53 70 54 71 55 2 56 1 57 3 58 4 59 5 60 6 62 7 63 63 65
REMARK SMILES IDX 64 66 65 67 40 69 41 70 42 71 44 72 43 73 45 74 46 75 47 76
REMARK SMILES IDX 55 77 56 78 48 79 49 80 50 81 54 82 51 83 53 84 52 85
REMARK H PARENT 38 5 27 10 18 17 10 22 22 31 34 39 34 40 35 41 35 42 61 48
REMARK H PARENT 5 61 65 68
REMARK Flexibility Score:  369.900
ROOT
ATOM      1  C   UNL     1      -0.737   9.997   3.906  1.00  0.00     0.117 C 
ENDROOT
BRANCH   1   2
ATOM      2  N   UNL     1       0.474   9.388   4.456  1.00  0.00    -0.347 N 
ATOM      3  O   UNL     1       1.061  11.087   5.883  1.00  0.00    -0.273 OA
ATOM      4  C   UNL     1       1.228   9.944   5.470  1.00  0.00     0.243 C 
ATOM      5  H   UNL     1       0.767   8.482   4.121  1.00  0.00     0.164 HD
BRANCH   4   6
ATOM      6  C   UNL     1       2.412   9.055   5.928  1.00  0.00     0.171 C 
BRANCH   6   7
ATOM      7  N   UNL     1       2.383   7.760   5.228  1.00  0.00    -0.344 N 
ATOM      8  C   UNL     1       2.590   6.585   5.916  1.00  0.00     0.226 C 
ATOM      9  O   UNL     1       2.826   6.556   7.118  1.00  0.00    -0.275 OA
ATOM     10  H   UNL     1       2.257   7.748   4.223  1.00  0.00     0.164 HD
BRANCH   8  11
ATOM     11  C   UNL     1       2.474   5.333   5.064  1.00  0.00     0.109 C 
ATOM     12  C   UNL     1       3.552   4.324   5.463  1.00  0.00     0.021 C 
BRANCH  11  13
ATOM     13  C   UNL     1       1.030   4.795   5.121  1.00  0.00     0.204 C 
BRANCH  13  14
ATOM     14  N   UNL     1       0.363   5.138   6.380  1.00  0.00    -0.340 N 
ATOM     15  C   UNL     1      -0.044   4.191   7.295  1.00  0.00     0.243 C 
ATOM     16  O   UNL     1       0.180   2.991   7.146  1.00  0.00    -0.273 OA
ATOM     17  H   UNL     1       0.014   6.094   6.494  1.00  0.00     0.164 HD
BRANCH  15  18
ATOM     18  C   UNL     1      -0.908   4.769   8.442  1.00  0.00     0.171 C 
BRANCH  18  19
ATOM     19  N   UNL     1      -0.512   4.064   9.660  1.00  0.00    -0.343 N 
ATOM     20  C   UNL     1      -1.439   3.446  10.478  1.00  0.00     0.242 CG0
ATOM     21  O   UNL     1      -2.647   3.573  10.292  1.00  0.00    -0.273 OA
ATOM     22  H   UNL     1       0.467   4.030   9.919  1.00  0.00     0.164 HD
ATOM     23  G   UNL     1      -0.826   2.686  11.673  1.00  0.00     0.000 G0
ENDBRANCH  18  19
BRANCH  18  24
ATOM     24  C   UNL     1      -0.691   6.282   8.573  1.00  0.00     0.038 C 
BRANCH  24  25
ATOM     25  C   UNL     1      -1.978   7.128   8.476  1.00  0.00    -0.015 C 
ATOM     26  C   UNL     1      -2.792   7.107   9.771  1.00  0.00     0.007 C 
ATOM     27  C   UNL     1      -2.841   6.621   7.318  1.00  0.00     0.007 C 
ENDBRANCH  24  25
ENDBRANCH  18  24
ENDBRANCH  15  18
ENDBRANCH  13  14
BRANCH  13  28
ATOM     28  C   UNL     1       0.147   5.315   3.983  1.00  0.00     0.327 C 
ATOM     29  O   UNL     1       0.063   4.841   2.860  1.00  0.00    -0.250 OA
BRANCH  28  30
ATOM     30  O   UNL     1      -0.484   6.467   4.287  1.00  0.00    -0.480 OA
ATOM     31  H   UNL     1      -1.414   6.198   4.441  1.00  0.00     0.296 HD
ENDBRANCH  28  30
ENDBRANCH  13  28
ENDBRANCH  11  13
ENDBRANCH   8  11
ENDBRANCH   6   7
BRANCH   6  32
ATOM     32  C   UNL     1       3.729   9.792   5.660  1.00  0.00     0.037 C 
BRANCH  32  33
ATOM     33  C   UNL     1       4.852   9.332   6.600  1.00  0.00     0.026 C 
BRANCH  33  34
ATOM     34  C   UNL     1       5.827   8.370   5.920  1.00  0.00     0.146 C 
BRANCH  34  35
ATOM     35  N   UNL     1       6.495   9.071   4.832  1.00  0.00    -0.254 NA
ATOM     36  C   UNL     1       6.285   8.682   3.630  1.00  0.00     0.185 C 
ATOM     37  N   UNL     1       6.891   9.323   2.619  1.00  0.00    -0.370 N 
ATOM     38  N   UNL     1       5.507   7.676   3.191  1.00  0.00    -0.370 N 
ATOM     39  H   UNL     1       7.487  10.102   2.868  1.00  0.00     0.159 HD
ATOM     40  H   UNL     1       6.646   9.195   1.652  1.00  0.00     0.159 HD
ATOM     41  H   UNL     1       5.533   7.379   2.230  1.00  0.00     0.159 HD
ATOM     42  H   UNL     1       5.002   7.096   3.844  1.00  0.00     0.159 HD
ENDBRANCH  34  35
ENDBRANCH  33  34
ENDBRANCH  32  33
ENDBRANCH   6  32
ENDBRANCH   4   6
ENDBRANCH   1   2
BRANCH   1  43
ATOM     43  C   UNL     1      -0.324  11.007   2.797  1.00  0.00     0.102 C 
ATOM     44  C   UNL     1      -1.504  11.484   1.933  1.00  0.00     0.020 C 
BRANCH  43  45
ATOM     45  C   UNL     1       0.865  10.479   1.987  1.00  0.00     0.225 C 
ATOM     46  O   UNL     1       2.022  10.843   2.179  1.00  0.00    -0.275 OA
ATOM     47  N   UNL     1       0.547   9.629   0.953  1.00  0.00    -0.342 N 
ATOM     48  H   UNL     1      -0.378   9.224   0.905  1.00  0.00     0.164 HD
BRANCH  47  49
ATOM     49  C   UNL     1       1.584   9.018   0.117  1.00  0.00     0.192 C 
BRANCH  49  50
ATOM     50  C   UNL     1       1.088   8.919  -1.328  1.00  0.00     0.047 C 
BRANCH  50  51
ATOM     51  C   UNL     1       2.120   9.443  -2.335  1.00  0.00     0.103 C 
BRANCH  51  52
ATOM     52  C   UNL     1       1.623  10.685  -3.073  1.00  0.00     0.226 C 
ATOM     53  O   UNL     1       1.628  10.705  -4.305  1.00  0.00    -0.275 OA
BRANCH  52  54
ATOM     54  N   UNL     1       1.107  11.723  -2.275  1.00  0.00    -0.311 N 
ATOM     55  C   UNL     1       1.946  12.395  -1.274  1.00  0.00     0.153 C 
BRANCH  54  56
ATOM     56  C   UNL     1      -0.222  12.159  -2.410  1.00  0.00     0.102 C 
ATOM     57  C   UNL     1      -1.265  11.667  -1.722  1.00  0.00     0.043 C 
BRANCH  56  58
ATOM     58  C   UNL     1      -0.575  13.291  -3.346  1.00  0.00     0.268 C 
ATOM     59  O   UNL     1      -0.551  14.468  -3.013  1.00  0.00    -0.268 OA
ATOM     60  N   UNL     1      -0.862  12.867  -4.622  1.00  0.00    -0.339 N 
ATOM     61  H   UNL     1      -0.871  11.872  -4.814  1.00  0.00     0.164 HD
BRANCH  60  62
ATOM     62  C   UNL     1      -1.169  13.803  -5.703  1.00  0.00     0.168 CG0
ATOM     63  C   UNL     1      -2.660  13.808  -6.014  1.00  0.00     0.041 C 
ATOM     64  G   UNL     1      -0.351  13.430  -6.957  1.00  0.00     0.000 G0
ENDBRANCH  60  62
ENDBRANCH  56  58
ENDBRANCH  54  56
ENDBRANCH  52  54
ENDBRANCH  51  52
ENDBRANCH  50  51
ENDBRANCH  49  50
BRANCH  49  65
ATOM     65  C   UNL     1       1.966   7.617   0.620  1.00  0.00     0.326 C 
ATOM     66  O   UNL     1       1.252   6.626   0.575  1.00  0.00    -0.250 OA
BRANCH  65  67
ATOM     67  O   UNL     1       3.183   7.541   1.203  1.00  0.00    -0.480 OA
ATOM     68  H   UNL     1       3.753   8.091   0.623  1.00  0.00     0.296 HD
ENDBRANCH  65  67
ENDBRANCH  49  65
ENDBRANCH  47  49
ENDBRANCH  43  45
ENDBRANCH   1  43
BRANCH   1  69
ATOM     69  C   UNL     1      -1.535  10.500   5.095  1.00  0.00    -0.001 C 
ATOM     70  C   UNL     1      -2.561   9.885   5.709  1.00  0.00     0.001 C 
BRANCH  70  71
ATOM     71  C   UNL     1      -3.310  10.370   6.870  1.00  0.00    -0.055 C 
ATOM     72  C   UNL     1      -2.633  11.067   7.807  1.00  0.00    -0.018 C 
ATOM     73  C   UNL     1      -4.784  10.065   6.932  1.00  0.00     0.044 C 
BRANCH  72  74
ATOM     74  C   UNL     1      -3.143  11.689   9.100  1.00  0.00     0.038 C 
ATOM     75  C   UNL     1      -3.795  13.027   8.732  1.00  0.00     0.015 C 
BRANCH  74  76
ATOM     76  C   UNL     1      -1.958  11.795  10.105  1.00  0.00     0.128 C 
BRANCH  76  77
ATOM     77  O   UNL     1      -2.114  12.965  10.926  1.00  0.00    -0.381 OA
ATOM     78  C   UNL     1      -1.265  12.980  12.066  1.00  0.00     0.195 C 
ENDBRANCH  76  77
BRANCH  76  79
ATOM     79  C   UNL     1      -1.720  10.508  10.935  1.00  0.00     0.068 C 
BRANCH  79  80
ATOM     80  C   UNL     1      -0.449   9.733  10.687  1.00  0.00    -0.045 A 
ATOM     81  C   UNL     1      -0.007   8.761  11.596  1.00  0.00     0.004 A 
ATOM     82  C   UNL     1       0.330   9.995   9.550  1.00  0.00     0.004 A 
ATOM     83  C   UNL     1       1.177   8.058  11.367  1.00  0.00     0.000 A 
ATOM     84  C   UNL     1       1.515   9.292   9.322  1.00  0.00     0.000 A 
ATOM     85  C   UNL     1       1.937   8.323  10.229  1.00  0.00     0.000 A 
ENDBRANCH  79  80
ENDBRANCH  76  79
ENDBRANCH  74  76
ENDBRANCH  72  74
ENDBRANCH  70  71
ENDBRANCH   1  69
TORSDOF 17
ENDMDL
MODEL 48
REMARK VINA RESULT:    -5.898      2.771      3.916
REMARK INTER + INTRA:         -24.821
REMARK INTER:                 -18.960
REMARK INTRA:                  -5.861
REMARK UNBOUND:                -7.200
REMARK SMILES C=C1C(=O)N[C@H](C)C(=O)N[C@@H](CC(C)C)C(=O)N[C@@H](C(=O)O)[C@H](C)C(=O)N[C@@H](CCCN=C(N)N)C(=O)N[C@@H](/C=C/C(C)=C/[C@H](C)[C@H](Cc2ccccc2)OC)[C@H](C)C(=O)N[C@@H](C(=O)O)CCC(=O)N1C
REMARK SMILES IDX 39 1 38 2 37 3 36 4 28 6 27 7 25 8 26 9 23 11 24 12 19 13
REMARK SMILES IDX 18 14 16 15 17 16 11 18 10 19 8 20 9 21 12 24 13 25 14 26
REMARK SMILES IDX 15 27 20 28 21 29 22 30 29 32 30 33 31 34 32 35 33 36 34 37
REMARK SMILES IDX 35 38 57 43 58 44 59 45 60 46 61 47 62 49 66 50 67 51 68 52
REMARK SMILES IDX 69 53 70 54 71 55 2 56 1 57 3 58 4 59 5 60 6 62 7 63 63 65
REMARK SMILES IDX 64 66 65 67 40 69 41 70 42 71 44 72 43 73 45 74 46 75 47 76
REMARK SMILES IDX 55 77 56 78 48 79 49 80 50 81 54 82 51 83 53 84 52 85
REMARK H PARENT 38 5 27 10 18 17 10 22 22 31 34 39 34 40 35 41 35 42 61 48
REMARK H PARENT 5 61 65 68
REMARK Flexibility Score:  369.900
ROOT
ATOM      1  C   UNL     1      -7.907  11.775   4.381  1.00  0.00     0.117 C 
ENDROOT
BRANCH   1   2
ATOM      2  N   UNL     1      -6.571  11.302   4.746  1.00  0.00    -0.347 N 
ATOM      3  O   UNL     1      -6.360   9.684   3.131  1.00  0.00    -0.273 OA
ATOM      4  C   UNL     1      -5.865  10.353   4.032  1.00  0.00     0.243 C 
ATOM      5  H   UNL     1      -6.098  11.715   5.535  1.00  0.00     0.164 HD
BRANCH   4   6
ATOM      6  C   UNL     1      -4.439  10.094   4.581  1.00  0.00     0.171 C 
BRANCH   6   7
ATOM      7  N   UNL     1      -3.441  10.830   3.789  1.00  0.00    -0.344 N 
ATOM      8  C   UNL     1      -2.330  10.189   3.286  1.00  0.00     0.226 C 
ATOM      9  O   UNL     1      -2.107   9.001   3.486  1.00  0.00    -0.275 OA
ATOM     10  H   UNL     1      -3.556  11.828   3.660  1.00  0.00     0.164 HD
BRANCH   8  11
ATOM     11  C   UNL     1      -1.424  11.072   2.445  1.00  0.00     0.109 C 
ATOM     12  C   UNL     1      -1.379  12.484   3.028  1.00  0.00     0.021 C 
BRANCH  11  13
ATOM     13  C   UNL     1      -0.049  10.396   2.275  1.00  0.00     0.204 C 
BRANCH  13  14
ATOM     14  N   UNL     1       0.410  10.422   0.883  1.00  0.00    -0.340 N 
ATOM     15  C   UNL     1       0.893   9.307   0.233  1.00  0.00     0.243 C 
ATOM     16  O   UNL     1       0.916   8.195   0.758  1.00  0.00    -0.273 OA
ATOM     17  H   UNL     1       0.558  11.335   0.443  1.00  0.00     0.164 HD
BRANCH  15  18
ATOM     18  C   UNL     1       1.510   9.618  -1.153  1.00  0.00     0.171 C 
BRANCH  18  19
ATOM     19  N   UNL     1       2.959   9.645  -0.969  1.00  0.00    -0.343 N 
ATOM     20  C   UNL     1       3.614  10.767  -0.500  1.00  0.00     0.242 CG0
ATOM     21  O   UNL     1       3.026  11.835  -0.342  1.00  0.00    -0.273 OA
ATOM     22  H   UNL     1       3.505   8.821  -1.197  1.00  0.00     0.164 HD
ATOM     23  G   UNL     1       5.131  10.582  -0.296  1.00  0.00     0.000 G0
ENDBRANCH  18  19
BRANCH  18  24
ATOM     24  C   UNL     1       1.093   8.558  -2.181  1.00  0.00     0.038 C 
BRANCH  24  25
ATOM     25  C   UNL     1       0.604   9.126  -3.530  1.00  0.00    -0.015 C 
ATOM     26  C   UNL     1       0.888   8.183  -4.699  1.00  0.00     0.007 C 
ATOM     27  C   UNL     1       1.266  10.482  -3.788  1.00  0.00     0.007 C 
ENDBRANCH  24  25
ENDBRANCH  18  24
ENDBRANCH  15  18
ENDBRANCH  13  14
BRANCH  13  28
ATOM     28  C   UNL     1       1.049  11.040   3.127  1.00  0.00     0.327 C 
ATOM     29  O   UNL     1       1.180  10.935   4.337  1.00  0.00    -0.250 OA
BRANCH  28  30
ATOM     30  O   UNL     1       1.845  11.871   2.424  1.00  0.00    -0.480 OA
ATOM     31  H   UNL     1       2.657  11.348   2.262  1.00  0.00     0.296 HD
ENDBRANCH  28  30
ENDBRANCH  13  28
ENDBRANCH  11  13
ENDBRANCH   8  11
ENDBRANCH   6   7
BRANCH   6  32
ATOM     32  C   UNL     1      -4.383  10.510   6.055  1.00  0.00     0.037 C 
BRANCH  32  33
ATOM     33  C   UNL     1      -3.052  10.126   6.716  1.00  0.00     0.026 C 
BRANCH  33  34
ATOM     34  C   UNL     1      -2.185  11.344   7.037  1.00  0.00     0.146 C 
BRANCH  34  35
ATOM     35  N   UNL     1      -2.455  11.765   8.405  1.00  0.00    -0.254 NA
ATOM     36  C   UNL     1      -3.020  12.899   8.599  1.00  0.00     0.185 C 
ATOM     37  N   UNL     1      -3.278  13.295   9.855  1.00  0.00    -0.370 N 
ATOM     38  N   UNL     1      -3.420  13.809   7.693  1.00  0.00    -0.370 N 
ATOM     39  H   UNL     1      -3.015  12.657  10.595  1.00  0.00     0.159 HD
ATOM     40  H   UNL     1      -3.867  14.078  10.081  1.00  0.00     0.159 HD
ATOM     41  H   UNL     1      -3.726  14.726   7.976  1.00  0.00     0.159 HD
ATOM     42  H   UNL     1      -3.274  13.651   6.708  1.00  0.00     0.159 HD
ENDBRANCH  34  35
ENDBRANCH  33  34
ENDBRANCH  32  33
ENDBRANCH   6  32
ENDBRANCH   4   6
ENDBRANCH   1   2
BRANCH   1  43
ATOM     43  C   UNL     1      -8.934  10.650   4.697  1.00  0.00     0.102 C 
ATOM     44  C   UNL     1     -10.267  10.811   3.947  1.00  0.00     0.020 C 
BRANCH  43  45
ATOM     45  C   UNL     1      -9.090  10.455   6.208  1.00  0.00     0.225 C 
ATOM     46  O   UNL     1      -9.137   9.350   6.741  1.00  0.00    -0.275 OA
ATOM     47  N   UNL     1      -9.270  11.608   6.938  1.00  0.00    -0.342 N 
ATOM     48  H   UNL     1      -9.078  12.504   6.513  1.00  0.00     0.164 HD
BRANCH  47  49
ATOM     49  C   UNL     1      -9.397  11.578   8.398  1.00  0.00     0.192 C 
BRANCH  49  50
ATOM     50  C   UNL     1     -10.675  12.309   8.818  1.00  0.00     0.047 C 
BRANCH  50  51
ATOM     51  C   UNL     1     -11.600  11.424   9.664  1.00  0.00     0.103 C 
BRANCH  51  52
ATOM     52  C   UNL     1     -11.722  11.930  11.100  1.00  0.00     0.226 C 
ATOM     53  O   UNL     1     -10.814  12.606  11.588  1.00  0.00    -0.275 OA
BRANCH  52  54
ATOM     54  N   UNL     1     -12.930  11.646  11.765  1.00  0.00    -0.311 N 
ATOM     55  C   UNL     1     -12.990  10.624  12.819  1.00  0.00     0.153 C 
BRANCH  54  56
ATOM     56  C   UNL     1     -14.117  12.329  11.452  1.00  0.00     0.102 C 
ATOM     57  C   UNL     1     -15.259  11.743  11.057  1.00  0.00     0.043 C 
BRANCH  56  58
ATOM     58  C   UNL     1     -14.205  13.831  11.587  1.00  0.00     0.268 C 
ATOM     59  O   UNL     1     -14.612  14.561  10.693  1.00  0.00    -0.268 OA
ATOM     60  N   UNL     1     -13.846  14.283  12.834  1.00  0.00    -0.339 N 
ATOM     61  H   UNL     1     -13.510  13.614  13.517  1.00  0.00     0.164 HD
BRANCH  60  62
ATOM     62  C   UNL     1     -13.918  15.697  13.201  1.00  0.00     0.168 CG0
ATOM     63  C   UNL     1     -15.237  16.015  13.895  1.00  0.00     0.041 C 
ATOM     64  G   UNL     1     -13.741  16.567  11.940  1.00  0.00     0.000 G0
ENDBRANCH  60  62
ENDBRANCH  56  58
ENDBRANCH  54  56
ENDBRANCH  52  54
ENDBRANCH  51  52
ENDBRANCH  50  51
ENDBRANCH  49  50
BRANCH  49  65
ATOM     65  C   UNL     1      -8.188  12.230   9.086  1.00  0.00     0.326 C 
ATOM     66  O   UNL     1      -7.206  12.685   8.516  1.00  0.00    -0.250 OA
BRANCH  65  67
ATOM     67  O   UNL     1      -8.237  12.226  10.436  1.00  0.00    -0.480 OA
ATOM     68  H   UNL     1      -9.153  11.934  10.633  1.00  0.00     0.296 HD
ENDBRANCH  65  67
ENDBRANCH  49  65
ENDBRANCH  47  49
ENDBRANCH  43  45
ENDBRANCH   1  43
BRANCH   1  69
ATOM     69  C   UNL     1      -7.799  12.292   2.958  1.00  0.00    -0.001 C 
ATOM     70  C   UNL     1      -8.454  13.333   2.415  1.00  0.00     0.001 C 
BRANCH  70  71
ATOM     71  C   UNL     1      -8.326  13.836   1.046  1.00  0.00    -0.055 C 
ATOM     72  C   UNL     1      -7.083  13.948   0.532  1.00  0.00    -0.018 C 
ATOM     73  C   UNL     1      -9.590  14.186   0.305  1.00  0.00     0.044 C 
BRANCH  72  74
ATOM     74  C   UNL     1      -6.650  14.430  -0.845  1.00  0.00     0.038 C 
ATOM     75  C   UNL     1      -6.616  13.204  -1.764  1.00  0.00     0.015 C 
BRANCH  74  76
ATOM     76  C   UNL     1      -5.293  15.182  -0.708  1.00  0.00     0.128 C 
BRANCH  76  77
ATOM     77  O   UNL     1      -5.472  16.382   0.064  1.00  0.00    -0.381 OA
ATOM     78  C   UNL     1      -6.243  17.376  -0.598  1.00  0.00     0.195 C 
ENDBRANCH  76  77
BRANCH  76  79
ATOM     79  C   UNL     1      -4.134  14.298  -0.181  1.00  0.00     0.068 C 
BRANCH  79  80
ATOM     80  C   UNL     1      -3.134  13.774  -1.183  1.00  0.00    -0.045 A 
ATOM     81  C   UNL     1      -3.057  14.310  -2.475  1.00  0.00     0.004 A 
ATOM     82  C   UNL     1      -2.280  12.714  -0.841  1.00  0.00     0.004 A 
ATOM     83  C   UNL     1      -2.138  13.810  -3.400  1.00  0.00     0.000 A 
ATOM     84  C   UNL     1      -1.362  12.214  -1.767  1.00  0.00     0.000 A 
ATOM     85  C   UNL     1      -1.291  12.762  -3.046  1.00  0.00     0.000 A 
ENDBRANCH  79  80
ENDBRANCH  76  79
ENDBRANCH  74  76
ENDBRANCH  72  74
ENDBRANCH  70  71
ENDBRANCH   1  69
TORSDOF 17
ENDMDL
MODEL 49
REMARK VINA RESULT:    -5.898      5.455     13.879
REMARK INTER + INTRA:         -24.821
REMARK INTER:                 -17.712
REMARK INTRA:                  -7.108
REMARK UNBOUND:                -7.200
REMARK SMILES C=C1C(=O)N[C@H](C)C(=O)N[C@@H](CC(C)C)C(=O)N[C@@H](C(=O)O)[C@H](C)C(=O)N[C@@H](CCCN=C(N)N)C(=O)N[C@@H](/C=C/C(C)=C/[C@H](C)[C@H](Cc2ccccc2)OC)[C@H](C)C(=O)N[C@@H](C(=O)O)CCC(=O)N1C
REMARK SMILES IDX 39 1 38 2 37 3 36 4 28 6 27 7 25 8 26 9 23 11 24 12 19 13
REMARK SMILES IDX 18 14 16 15 17 16 11 18 10 19 8 20 9 21 12 24 13 25 14 26
REMARK SMILES IDX 15 27 20 28 21 29 22 30 29 32 30 33 31 34 32 35 33 36 34 37
REMARK SMILES IDX 35 38 57 43 58 44 59 45 60 46 61 47 62 49 66 50 67 51 68 52
REMARK SMILES IDX 69 53 70 54 71 55 2 56 1 57 3 58 4 59 5 60 6 62 7 63 63 65
REMARK SMILES IDX 64 66 65 67 40 69 41 70 42 71 44 72 43 73 45 74 46 75 47 76
REMARK SMILES IDX 55 77 56 78 48 79 49 80 50 81 54 82 51 83 53 84 52 85
REMARK H PARENT 38 5 27 10 18 17 10 22 22 31 34 39 34 40 35 41 35 42 61 48
REMARK H PARENT 5 61 65 68
REMARK Flexibility Score:  369.900
ROOT
ATOM      1  C   UNL     1       1.580   9.039   6.727  1.00  0.00     0.117 C 
ENDROOT
BRANCH   1   2
ATOM      2  N   UNL     1       0.575   7.996   6.523  1.00  0.00    -0.347 N 
ATOM      3  O   UNL     1       0.465   7.238   8.687  1.00  0.00    -0.273 OA
ATOM      4  C   UNL     1       0.029   7.237   7.540  1.00  0.00     0.243 C 
ATOM      5  H   UNL     1       0.207   7.838   5.596  1.00  0.00     0.164 HD
BRANCH   4   6
ATOM      6  C   UNL     1      -1.079   6.263   7.066  1.00  0.00     0.171 C 
BRANCH   6   7
ATOM      7  N   UNL     1      -1.229   5.152   8.020  1.00  0.00    -0.344 N 
ATOM      8  C   UNL     1      -0.918   3.861   7.650  1.00  0.00     0.226 C 
ATOM      9  O   UNL     1      -0.530   3.572   6.524  1.00  0.00    -0.275 OA
ATOM     10  H   UNL     1      -1.610   5.341   8.938  1.00  0.00     0.164 HD
BRANCH   8  11
ATOM     11  C   UNL     1      -1.073   2.837   8.760  1.00  0.00     0.109 C 
ATOM     12  C   UNL     1       0.056   1.809   8.689  1.00  0.00     0.021 C 
BRANCH  11  13
ATOM     13  C   UNL     1      -1.211   3.556  10.117  1.00  0.00     0.204 C 
BRANCH  13  14
ATOM     14  N   UNL     1      -2.206   2.915  10.983  1.00  0.00    -0.340 N 
ATOM     15  C   UNL     1      -3.563   3.058  10.796  1.00  0.00     0.243 C 
ATOM     16  O   UNL     1      -4.037   3.685   9.850  1.00  0.00    -0.273 OA
ATOM     17  H   UNL     1      -1.884   2.511  11.866  1.00  0.00     0.164 HD
BRANCH  15  18
ATOM     18  C   UNL     1      -4.412   2.467  11.948  1.00  0.00     0.171 C 
BRANCH  18  19
ATOM     19  N   UNL     1      -4.078   1.046  12.028  1.00  0.00    -0.343 N 
ATOM     20  C   UNL     1      -5.025   0.062  11.820  1.00  0.00     0.242 CG0
ATOM     21  O   UNL     1      -6.217   0.333  11.690  1.00  0.00    -0.273 OA
ATOM     22  H   UNL     1      -3.128   0.770  12.247  1.00  0.00     0.164 HD
ATOM     23  G   UNL     1      -4.470  -1.376  11.867  1.00  0.00     0.000 G0
ENDBRANCH  18  19
BRANCH  18  24
ATOM     24  C   UNL     1      -4.113   3.190  13.267  1.00  0.00     0.038 C 
BRANCH  24  25
ATOM     25  C   UNL     1      -5.343   3.416  14.171  1.00  0.00    -0.015 C 
ATOM     26  C   UNL     1      -5.506   2.319  15.223  1.00  0.00     0.007 C 
ATOM     27  C   UNL     1      -6.606   3.497  13.311  1.00  0.00     0.007 C 
ENDBRANCH  24  25
ENDBRANCH  18  24
ENDBRANCH  15  18
ENDBRANCH  13  14
BRANCH  13  28
ATOM     28  C   UNL     1       0.102   3.619  10.903  1.00  0.00     0.327 C 
ATOM     29  O   UNL     1       0.411   2.913  11.851  1.00  0.00    -0.250 OA
BRANCH  28  30
ATOM     30  O   UNL     1       0.896   4.641  10.526  1.00  0.00    -0.480 OA
ATOM     31  H   UNL     1       1.696   4.544  11.084  1.00  0.00     0.296 HD
ENDBRANCH  28  30
ENDBRANCH  13  28
ENDBRANCH  11  13
ENDBRANCH   8  11
ENDBRANCH   6   7
BRANCH   6  32
ATOM     32  C   UNL     1      -2.395   7.033   6.912  1.00  0.00     0.037 C 
BRANCH  32  33
ATOM     33  C   UNL     1      -3.118   7.218   8.253  1.00  0.00     0.026 C 
BRANCH  33  34
ATOM     34  C   UNL     1      -3.130   8.675   8.716  1.00  0.00     0.146 C 
BRANCH  34  35
ATOM     35  N   UNL     1      -3.619   9.510   7.627  1.00  0.00    -0.254 NA
ATOM     36  C   UNL     1      -4.744  10.106   7.767  1.00  0.00     0.185 C 
ATOM     37  N   UNL     1      -5.201  10.881   6.772  1.00  0.00    -0.370 N 
ATOM     38  N   UNL     1      -5.590  10.078   8.812  1.00  0.00    -0.370 N 
ATOM     39  H   UNL     1      -4.614  10.961   5.952  1.00  0.00     0.159 HD
ATOM     40  H   UNL     1      -5.978  11.512   6.871  1.00  0.00     0.159 HD
ATOM     41  H   UNL     1      -6.512  10.478   8.746  1.00  0.00     0.159 HD
ATOM     42  H   UNL     1      -5.382   9.521   9.626  1.00  0.00     0.159 HD
ENDBRANCH  34  35
ENDBRANCH  33  34
ENDBRANCH  32  33
ENDBRANCH   6  32
ENDBRANCH   4   6
ENDBRANCH   1   2
BRANCH   1  43
ATOM     43  C   UNL     1       1.188  10.279   5.873  1.00  0.00     0.102 C 
ATOM     44  C   UNL     1       0.493  11.385   6.684  1.00  0.00     0.020 C 
BRANCH  43  45
ATOM     45  C   UNL     1       0.425   9.860   4.613  1.00  0.00     0.225 C 
ATOM     46  O   UNL     1       0.767   8.917   3.904  1.00  0.00    -0.275 OA
ATOM     47  N   UNL     1      -0.629  10.671   4.261  1.00  0.00    -0.342 N 
ATOM     48  H   UNL     1      -0.987  11.342   4.927  1.00  0.00     0.164 HD
BRANCH  47  49
ATOM     49  C   UNL     1      -1.472  10.373   3.099  1.00  0.00     0.192 C 
BRANCH  49  50
ATOM     50  C   UNL     1      -1.174  11.372   1.978  1.00  0.00     0.047 C 
BRANCH  50  51
ATOM     51  C   UNL     1       0.037  12.259   2.296  1.00  0.00     0.103 C 
BRANCH  51  52
ATOM     52  C   UNL     1       1.085  12.218   1.185  1.00  0.00     0.226 C 
ATOM     53  O   UNL     1       1.181  13.164   0.401  1.00  0.00    -0.275 OA
BRANCH  52  54
ATOM     54  N   UNL     1       1.945  11.104   1.176  1.00  0.00    -0.311 N 
ATOM     55  C   UNL     1       3.045  10.990   2.144  1.00  0.00     0.153 C 
BRANCH  54  56
ATOM     56  C   UNL     1       1.782  10.060   0.250  1.00  0.00     0.102 C 
ATOM     57  C   UNL     1       1.264   8.854   0.535  1.00  0.00     0.043 C 
BRANCH  56  58
ATOM     58  C   UNL     1       2.155  10.247  -1.202  1.00  0.00     0.268 C 
ATOM     59  O   UNL     1       3.197   9.826  -1.685  1.00  0.00    -0.268 OA
ATOM     60  N   UNL     1       1.177  10.879  -1.933  1.00  0.00    -0.339 N 
ATOM     61  H   UNL     1       0.347  11.208  -1.455  1.00  0.00     0.164 HD
BRANCH  60  62
ATOM     62  C   UNL     1       1.305  11.106  -3.372  1.00  0.00     0.168 CG0
ATOM     63  C   UNL     1       0.840   9.889  -4.161  1.00  0.00     0.041 C 
ATOM     64  G   UNL     1       2.770  11.451  -3.713  1.00  0.00     0.000 G0
ENDBRANCH  60  62
ENDBRANCH  56  58
ENDBRANCH  54  56
ENDBRANCH  52  54
ENDBRANCH  51  52
ENDBRANCH  50  51
ENDBRANCH  49  50
BRANCH  49  65
ATOM     65  C   UNL     1      -2.966  10.433   3.452  1.00  0.00     0.326 C 
ATOM     66  O   UNL     1      -3.888  10.220   2.678  1.00  0.00    -0.250 OA
BRANCH  65  67
ATOM     67  O   UNL     1      -3.231  10.811   4.722  1.00  0.00    -0.480 OA
ATOM     68  H   UNL     1      -3.402  11.774   4.646  1.00  0.00     0.296 HD
ENDBRANCH  65  67
ENDBRANCH  49  65
ENDBRANCH  47  49
ENDBRANCH  43  45
ENDBRANCH   1  43
BRANCH   1  69
ATOM     69  C   UNL     1       2.928   8.381   6.489  1.00  0.00    -0.001 C 
ATOM     70  C   UNL     1       3.163   7.173   5.948  1.00  0.00     0.001 C 
BRANCH  70  71
ATOM     71  C   UNL     1       4.469   6.557   5.704  1.00  0.00    -0.055 C 
ATOM     72  C   UNL     1       4.584   5.727   4.646  1.00  0.00    -0.018 C 
ATOM     73  C   UNL     1       5.594   6.900   6.646  1.00  0.00     0.044 C 
BRANCH  72  74
ATOM     74  C   UNL     1       5.801   4.958   4.153  1.00  0.00     0.038 C 
ATOM     75  C   UNL     1       6.561   5.881   3.192  1.00  0.00     0.015 C 
BRANCH  74  76
ATOM     76  C   UNL     1       5.325   3.614   3.528  1.00  0.00     0.128 C 
BRANCH  76  77
ATOM     77  O   UNL     1       4.392   2.966   4.409  1.00  0.00    -0.381 OA
ATOM     78  C   UNL     1       5.012   2.186   5.423  1.00  0.00     0.195 C 
ENDBRANCH  76  77
BRANCH  76  79
ATOM     79  C   UNL     1       4.788   3.748   2.080  1.00  0.00     0.068 C 
BRANCH  79  80
ATOM     80  C   UNL     1       3.294   3.844   1.886  1.00  0.00    -0.045 A 
ATOM     81  C   UNL     1       2.518   2.696   1.679  1.00  0.00     0.004 A 
ATOM     82  C   UNL     1       2.660   5.096   1.883  1.00  0.00     0.004 A 
ATOM     83  C   UNL     1       1.138   2.794   1.487  1.00  0.00     0.000 A 
ATOM     84  C   UNL     1       1.281   5.193   1.689  1.00  0.00     0.000 A 
ATOM     85  C   UNL     1       0.520   4.043   1.493  1.00  0.00     0.000 A 
ENDBRANCH  79  80
ENDBRANCH  76  79
ENDBRANCH  74  76
ENDBRANCH  72  74
ENDBRANCH  70  71
ENDBRANCH   1  69
TORSDOF 17
ENDMDL
MODEL 50
REMARK VINA RESULT:    -5.862      5.226     13.293
REMARK INTER + INTRA:         -24.712
REMARK INTER:                 -17.892
REMARK INTRA:                  -6.819
REMARK UNBOUND:                -7.200
REMARK SMILES C=C1C(=O)N[C@H](C)C(=O)N[C@@H](CC(C)C)C(=O)N[C@@H](C(=O)O)[C@H](C)C(=O)N[C@@H](CCCN=C(N)N)C(=O)N[C@@H](/C=C/C(C)=C/[C@H](C)[C@H](Cc2ccccc2)OC)[C@H](C)C(=O)N[C@@H](C(=O)O)CCC(=O)N1C
REMARK SMILES IDX 39 1 38 2 37 3 36 4 28 6 27 7 25 8 26 9 23 11 24 12 19 13
REMARK SMILES IDX 18 14 16 15 17 16 11 18 10 19 8 20 9 21 12 24 13 25 14 26
REMARK SMILES IDX 15 27 20 28 21 29 22 30 29 32 30 33 31 34 32 35 33 36 34 37
REMARK SMILES IDX 35 38 57 43 58 44 59 45 60 46 61 47 62 49 66 50 67 51 68 52
REMARK SMILES IDX 69 53 70 54 71 55 2 56 1 57 3 58 4 59 5 60 6 62 7 63 63 65
REMARK SMILES IDX 64 66 65 67 40 69 41 70 42 71 44 72 43 73 45 74 46 75 47 76
REMARK SMILES IDX 55 77 56 78 48 79 49 80 50 81 54 82 51 83 53 84 52 85
REMARK H PARENT 38 5 27 10 18 17 10 22 22 31 34 39 34 40 35 41 35 42 61 48
REMARK H PARENT 5 61 65 68
REMARK Flexibility Score:  369.900
ROOT
ATOM      1  C   UNL     1      -1.409   8.472   6.697  1.00  0.00     0.117 C 
ENDROOT
BRANCH   1   2
ATOM      2  N   UNL     1      -1.164   7.505   7.767  1.00  0.00    -0.347 N 
ATOM      3  O   UNL     1      -2.916   6.091   7.319  1.00  0.00    -0.273 OA
ATOM      4  C   UNL     1      -1.885   6.339   7.936  1.00  0.00     0.243 C 
ATOM      5  H   UNL     1      -0.394   7.654   8.402  1.00  0.00     0.164 HD
BRANCH   4   6
ATOM      6  C   UNL     1      -1.367   5.447   9.093  1.00  0.00     0.171 C 
BRANCH   6   7
ATOM      7  N   UNL     1      -2.485   4.743   9.740  1.00  0.00    -0.344 N 
ATOM      8  C   UNL     1      -2.476   4.510  11.099  1.00  0.00     0.226 C 
ATOM      9  O   UNL     1      -1.546   4.849  11.821  1.00  0.00    -0.275 OA
ATOM     10  H   UNL     1      -3.239   4.388   9.167  1.00  0.00     0.164 HD
BRANCH   8  11
ATOM     11  C   UNL     1      -3.724   3.822  11.623  1.00  0.00     0.109 C 
ATOM     12  C   UNL     1      -4.973   4.467  11.022  1.00  0.00     0.021 C 
BRANCH  11  13
ATOM     13  C   UNL     1      -3.612   2.300  11.404  1.00  0.00     0.204 C 
BRANCH  13  14
ATOM     14  N   UNL     1      -2.231   1.824  11.534  1.00  0.00    -0.340 N 
ATOM     15  C   UNL     1      -1.693   0.856  10.714  1.00  0.00     0.243 C 
ATOM     16  O   UNL     1      -2.316   0.365   9.774  1.00  0.00    -0.273 OA
ATOM     17  H   UNL     1      -1.714   2.077  12.380  1.00  0.00     0.164 HD
BRANCH  15  18
ATOM     18  C   UNL     1      -0.295   0.367  11.169  1.00  0.00     0.171 C 
BRANCH  18  19
ATOM     19  N   UNL     1      -0.470  -0.997  11.664  1.00  0.00    -0.343 N 
ATOM     20  C   UNL     1      -0.924  -1.255  12.943  1.00  0.00     0.242 CG0
ATOM     21  O   UNL     1      -1.076  -0.355  13.766  1.00  0.00    -0.273 OA
ATOM     22  H   UNL     1      -0.247  -1.778  11.058  1.00  0.00     0.164 HD
ATOM     23  G   UNL     1      -1.120  -2.752  13.259  1.00  0.00     0.000 G0
ENDBRANCH  18  19
BRANCH  18  24
ATOM     24  C   UNL     1       0.702   0.419  10.005  1.00  0.00     0.038 C 
BRANCH  24  25
ATOM     25  C   UNL     1       1.710   1.586  10.072  1.00  0.00    -0.015 C 
ATOM     26  C   UNL     1       2.579   1.681   8.818  1.00  0.00     0.007 C 
ATOM     27  C   UNL     1       2.602   1.424  11.306  1.00  0.00     0.007 C 
ENDBRANCH  24  25
ENDBRANCH  18  24
ENDBRANCH  15  18
ENDBRANCH  13  14
BRANCH  13  28
ATOM     28  C   UNL     1      -4.466   1.485  12.380  1.00  0.00     0.327 C 
ATOM     29  O   UNL     1      -4.136   1.118  13.497  1.00  0.00    -0.250 OA
BRANCH  28  30
ATOM     30  O   UNL     1      -5.637   1.080  11.847  1.00  0.00    -0.480 OA
ATOM     31  H   UNL     1      -6.240   1.839  11.984  1.00  0.00     0.296 HD
ENDBRANCH  28  30
ENDBRANCH  13  28
ENDBRANCH  11  13
ENDBRANCH   8  11
ENDBRANCH   6   7
BRANCH   6  32
ATOM     32  C   UNL     1      -0.340   4.452   8.540  1.00  0.00     0.037 C 
BRANCH  32  33
ATOM     33  C   UNL     1      -0.992   3.138   8.088  1.00  0.00     0.026 C 
BRANCH  33  34
ATOM     34  C   UNL     1      -1.137   3.050   6.568  1.00  0.00     0.146 C 
BRANCH  34  35
ATOM     35  N   UNL     1       0.012   3.696   5.948  1.00  0.00    -0.254 NA
ATOM     36  C   UNL     1      -0.194   4.645   5.112  1.00  0.00     0.185 C 
ATOM     37  N   UNL     1       0.857   5.251   4.539  1.00  0.00    -0.370 N 
ATOM     38  N   UNL     1      -1.362   5.162   4.693  1.00  0.00    -0.370 N 
ATOM     39  H   UNL     1       1.775   4.923   4.812  1.00  0.00     0.159 HD
ATOM     40  H   UNL     1       0.788   6.106   4.015  1.00  0.00     0.159 HD
ATOM     41  H   UNL     1      -1.398   5.814   3.926  1.00  0.00     0.159 HD
ATOM     42  H   UNL     1      -2.237   4.792   5.030  1.00  0.00     0.159 HD
ENDBRANCH  34  35
ENDBRANCH  33  34
ENDBRANCH  32  33
ENDBRANCH   6  32
ENDBRANCH   4   6
ENDBRANCH   1   2
BRANCH   1  43
ATOM     43  C   UNL     1      -0.065   8.753   5.966  1.00  0.00     0.102 C 
ATOM     44  C   UNL     1       0.672   9.995   6.495  1.00  0.00     0.020 C 
BRANCH  43  45
ATOM     45  C   UNL     1      -0.254   8.743   4.446  1.00  0.00     0.225 C 
ATOM     46  O   UNL     1      -0.772   7.810   3.840  1.00  0.00    -0.275 OA
ATOM     47  N   UNL     1       0.283   9.819   3.775  1.00  0.00    -0.342 N 
ATOM     48  H   UNL     1       0.566  10.640   4.292  1.00  0.00     0.164 HD
BRANCH  47  49
ATOM     49  C   UNL     1       0.148   9.961   2.322  1.00  0.00     0.192 C 
BRANCH  49  50
ATOM     50  C   UNL     1       1.534   9.950   1.673  1.00  0.00     0.047 C 
BRANCH  50  51
ATOM     51  C   UNL     1       1.542   9.206   0.330  1.00  0.00     0.103 C 
BRANCH  51  52
ATOM     52  C   UNL     1       2.154  10.048  -0.788  1.00  0.00     0.226 C 
ATOM     53  O   UNL     1       3.368   9.996  -0.995  1.00  0.00    -0.275 OA
BRANCH  52  54
ATOM     54  N   UNL     1       1.256  10.790  -1.577  1.00  0.00    -0.311 N 
ATOM     55  C   UNL     1       0.975  12.200  -1.278  1.00  0.00     0.153 C 
BRANCH  54  56
ATOM     56  C   UNL     1       0.603  10.215  -2.679  1.00  0.00     0.102 C 
ATOM     57  C   UNL     1      -0.649   9.729  -2.663  1.00  0.00     0.043 C 
BRANCH  56  58
ATOM     58  C   UNL     1       1.277  10.144  -4.029  1.00  0.00     0.268 C 
ATOM     59  O   UNL     1       1.626  11.135  -4.657  1.00  0.00    -0.268 OA
ATOM     60  N   UNL     1       1.515   8.856  -4.447  1.00  0.00    -0.339 N 
ATOM     61  H   UNL     1       1.184   8.089  -3.874  1.00  0.00     0.164 HD
BRANCH  60  62
ATOM     62  C   UNL     1       2.213   8.559  -5.697  1.00  0.00     0.168 CG0
ATOM     63  C   UNL     1       3.513   7.809  -5.432  1.00  0.00     0.041 C 
ATOM     64  G   UNL     1       2.486   9.871  -6.461  1.00  0.00     0.000 G0
ENDBRANCH  60  62
ENDBRANCH  56  58
ENDBRANCH  54  56
ENDBRANCH  52  54
ENDBRANCH  51  52
ENDBRANCH  50  51
ENDBRANCH  49  50
BRANCH  49  65
ATOM     65  C   UNL     1      -0.580  11.261   1.946  1.00  0.00     0.326 C 
ATOM     66  O   UNL     1      -0.419  12.347   2.483  1.00  0.00    -0.250 OA
BRANCH  65  67
ATOM     67  O   UNL     1      -1.506  11.126   0.971  1.00  0.00    -0.480 OA
ATOM     68  H   UNL     1      -1.613  12.038   0.625  1.00  0.00     0.296 HD
ENDBRANCH  65  67
ENDBRANCH  49  65
ENDBRANCH  47  49
ENDBRANCH  43  45
ENDBRANCH   1  43
BRANCH   1  69
ATOM     69  C   UNL     1      -2.153   9.631   7.336  1.00  0.00    -0.001 C 
ATOM     70  C   UNL     1      -3.484   9.802   7.418  1.00  0.00     0.001 C 
BRANCH  70  71
ATOM     71  C   UNL     1      -4.190  10.914   8.056  1.00  0.00    -0.055 C 
ATOM     72  C   UNL     1      -5.385  10.654   8.628  1.00  0.00    -0.018 C 
ATOM     73  C   UNL     1      -3.531  12.269   8.037  1.00  0.00     0.044 C 
BRANCH  72  74
ATOM     74  C   UNL     1      -6.330  11.599   9.357  1.00  0.00     0.038 C 
ATOM     75  C   UNL     1      -5.960  11.551  10.844  1.00  0.00     0.015 C 
BRANCH  74  76
ATOM     76  C   UNL     1      -7.797  11.186   9.035  1.00  0.00     0.128 C 
BRANCH  76  77
ATOM     77  O   UNL     1      -8.610  11.306  10.214  1.00  0.00    -0.381 OA
ATOM     78  C   UNL     1      -9.891  10.702  10.089  1.00  0.00     0.195 C 
ENDBRANCH  76  77
BRANCH  76  79
ATOM     79  C   UNL     1      -8.403  11.918   7.811  1.00  0.00     0.068 C 
BRANCH  79  80
ATOM     80  C   UNL     1      -8.247  11.275   6.454  1.00  0.00    -0.045 A 
ATOM     81  C   UNL     1      -9.240  10.433   5.936  1.00  0.00     0.004 A 
ATOM     82  C   UNL     1      -7.085  11.490   5.699  1.00  0.00     0.004 A 
ATOM     83  C   UNL     1      -9.082   9.831   4.686  1.00  0.00     0.000 A 
ATOM     84  C   UNL     1      -6.927  10.887   4.450  1.00  0.00     0.000 A 
ATOM     85  C   UNL     1      -7.926  10.059   3.943  1.00  0.00     0.000 A 
ENDBRANCH  79  80
ENDBRANCH  76  79
ENDBRANCH  74  76
ENDBRANCH  72  74
ENDBRANCH  70  71
ENDBRANCH   1  69
TORSDOF 17
ENDMDL
