MODEL 1
REMARK VINA RESULT:    -6.402      0.000      0.000
REMARK INTER + INTRA:         -22.280
REMARK INTER:                 -15.946
REMARK INTRA:                  -6.334
REMARK UNBOUND:                -6.334
REMARK SMILES CCCCCCC[C@H](N)[C@H](O)C(=O)N[C@H](C)C(=O)N(C)[C@H](CC(C)C)C(=O)N[C@@H](Cc1ccc(O)cc1)C(=O)N[C@@H](Cc1ccc(O)cc1)C(=O)O
REMARK SMILES IDX 18 1 17 2 15 3 16 4 14 5 12 6 13 7 10 9 11 10 8 12 9 13 7 16
REMARK SMILES IDX 6 17 5 18 4 19 3 20 2 21 1 22 19 23 20 24 21 25 22 26 23 27
REMARK SMILES IDX 24 28 25 29 26 30 27 31 28 32 29 34 30 35 31 36 32 37 37 38
REMARK SMILES IDX 33 39 36 40 34 41 35 42 38 44 39 45 40 46 41 48 42 49 43 50
REMARK SMILES IDX 44 51 49 52 45 53 48 54 46 55 47 56 50 58 51 59 52 60
REMARK H PARENT 14 8 11 11 9 14 9 15 28 33 35 43 40 47 47 57 52 61
ROOT
ATOM      1  O   UNL     1      -1.114  -8.146  -3.265  1.00  0.00    -0.272 OA
ATOM      2  C   UNL     1      -0.945  -8.765  -2.205  1.00  0.00     0.245 C 
ENDROOT
BRANCH   2   3
ATOM      3  C   UNL     1       0.468  -9.314  -1.885  1.00  0.00     0.168 C 
ATOM      4  C   UNL     1       1.037 -10.074  -3.078  1.00  0.00     0.041 C 
BRANCH   3   5
ATOM      5  N   UNL     1       1.406  -8.326  -1.374  1.00  0.00    -0.342 N 
ATOM      6  C   UNL     1       1.962  -8.432  -0.117  1.00  0.00     0.251 C 
ATOM      7  O   UNL     1       1.684  -9.328   0.673  1.00  0.00    -0.272 OA
ATOM      8  H   UNL     1       1.687  -7.518  -1.925  1.00  0.00     0.164 HD
BRANCH   6   9
ATOM      9  C   UNL     1       3.029  -7.358   0.154  1.00  0.00     0.219 C 
BRANCH   9  10
ATOM     10  O   UNL     1       4.114  -7.411  -0.780  1.00  0.00    -0.382 OA
ATOM     11  H   UNL     1       3.666  -7.451  -1.653  1.00  0.00     0.211 HD
ENDBRANCH   9  10
BRANCH   9  12
ATOM     12  C   UNL     1       2.443  -5.925   0.237  1.00  0.00     0.089 C 
BRANCH  12  13
ATOM     13  N   UNL     1       0.976  -6.029   0.412  1.00  0.00    -0.325 NA
ATOM     14  H   UNL     1       0.639  -5.207   0.918  1.00  0.00     0.119 HD
ATOM     15  H   UNL     1       0.771  -6.822   1.025  1.00  0.00     0.119 HD
ENDBRANCH  12  13
BRANCH  12  16
ATOM     16  C   UNL     1       3.045  -5.009   1.330  1.00  0.00     0.022 C 
BRANCH  16  17
ATOM     17  C   UNL     1       3.373  -3.550   0.984  1.00  0.00     0.002 C 
BRANCH  17  18
ATOM     18  C   UNL     1       2.218  -2.568   1.169  1.00  0.00     0.000 C 
BRANCH  18  19
ATOM     19  C   UNL     1       1.248  -2.950   2.295  1.00  0.00    -0.000 C 
BRANCH  19  20
ATOM     20  C   UNL     1       0.792  -1.787   3.181  1.00  0.00    -0.000 C 
BRANCH  20  21
ATOM     21  C   UNL     1      -0.714  -1.800   3.458  1.00  0.00    -0.003 C 
ATOM     22  C   UNL     1      -1.513  -1.521   2.195  1.00  0.00     0.004 C 
ENDBRANCH  20  21
ENDBRANCH  19  20
ENDBRANCH  18  19
ENDBRANCH  17  18
ENDBRANCH  16  17
ENDBRANCH  12  16
ENDBRANCH   9  12
ENDBRANCH   6   9
ENDBRANCH   3   5
ENDBRANCH   2   3
BRANCH   2  23
ATOM     23  N   UNL     1      -1.977  -8.851  -1.277  1.00  0.00    -0.332 N 
ATOM     24  C   UNL     1      -3.389  -8.703  -1.597  1.00  0.00     0.147 C 
BRANCH  23  25
ATOM     25  C   UNL     1      -1.691  -9.241   0.131  1.00  0.00     0.174 C 
BRANCH  25  26
ATOM     26  C   UNL     1      -2.617 -10.368   0.644  1.00  0.00     0.038 C 
BRANCH  26  27
ATOM     27  C   UNL     1      -1.946 -11.707   1.025  1.00  0.00    -0.015 C 
ATOM     28  C   UNL     1      -2.964 -12.815   1.296  1.00  0.00     0.007 C 
ATOM     29  C   UNL     1      -0.902 -12.172   0.014  1.00  0.00     0.007 C 
ENDBRANCH  26  27
ENDBRANCH  25  26
BRANCH  25  30
ATOM     30  C   UNL     1      -1.676  -7.989   1.037  1.00  0.00     0.243 C 
ATOM     31  O   UNL     1      -1.906  -6.864   0.596  1.00  0.00    -0.273 OA
ATOM     32  N   UNL     1      -1.383  -8.215   2.358  1.00  0.00    -0.342 N 
ATOM     33  H   UNL     1      -1.344  -9.187   2.674  1.00  0.00     0.164 HD
BRANCH  32  34
ATOM     34  C   UNL     1      -1.298  -7.145   3.355  1.00  0.00     0.175 C 
BRANCH  34  35
ATOM     35  C   UNL     1      -2.254  -7.400   4.531  1.00  0.00     0.070 C 
BRANCH  35  36
ATOM     36  C   UNL     1      -3.286  -8.461   4.226  1.00  0.00    -0.045 A 
ATOM     37  C   UNL     1      -3.164  -9.741   4.787  1.00  0.00     0.007 A 
ATOM     38  C   UNL     1      -4.360  -8.194   3.367  1.00  0.00     0.007 A 
ATOM     39  C   UNL     1      -4.104 -10.732   4.501  1.00  0.00     0.046 A 
ATOM     40  C   UNL     1      -5.301  -9.186   3.078  1.00  0.00     0.046 A 
ATOM     41  C   UNL     1      -5.165 -10.446   3.650  1.00  0.00     0.115 A 
BRANCH  41  42
ATOM     42  O   UNL     1      -6.059 -11.443   3.394  1.00  0.00    -0.508 OA
ATOM     43  H   UNL     1      -6.916 -11.189   3.775  1.00  0.00     0.293 HD
ENDBRANCH  41  42
ENDBRANCH  35  36
ENDBRANCH  34  35
BRANCH  34  44
ATOM     44  C   UNL     1       0.172  -7.038   3.819  1.00  0.00     0.243 C 
ATOM     45  O   UNL     1       1.123  -7.546   3.232  1.00  0.00    -0.273 OA
ATOM     46  N   UNL     1       0.318  -6.421   5.043  1.00  0.00    -0.341 N 
ATOM     47  H   UNL     1      -0.513  -6.121   5.547  1.00  0.00     0.164 HD
BRANCH  46  48
ATOM     48  C   UNL     1       1.608  -6.265   5.718  1.00  0.00     0.196 C 
BRANCH  48  49
ATOM     49  C   UNL     1       1.712  -4.901   6.420  1.00  0.00     0.072 C 
BRANCH  49  50
ATOM     50  C   UNL     1       2.766  -4.009   5.805  1.00  0.00    -0.045 A 
ATOM     51  C   UNL     1       3.773  -4.567   5.003  1.00  0.00     0.007 A 
ATOM     52  C   UNL     1       2.769  -2.628   6.040  1.00  0.00     0.007 A 
ATOM     53  C   UNL     1       4.759  -3.756   4.441  1.00  0.00     0.046 A 
ATOM     54  C   UNL     1       3.757  -1.816   5.478  1.00  0.00     0.046 A 
ATOM     55  C   UNL     1       4.744  -2.387   4.682  1.00  0.00     0.115 A 
BRANCH  55  56
ATOM     56  O   UNL     1       5.726  -1.630   4.116  1.00  0.00    -0.508 OA
ATOM     57  H   UNL     1       5.309  -0.897   3.635  1.00  0.00     0.293 HD
ENDBRANCH  55  56
ENDBRANCH  49  50
ENDBRANCH  48  49
BRANCH  48  58
ATOM     58  C   UNL     1       1.771  -7.389   6.751  1.00  0.00     0.326 C 
ATOM     59  O   UNL     1       1.954  -7.268   7.951  1.00  0.00    -0.250 OA
BRANCH  58  60
ATOM     60  O   UNL     1       1.678  -8.633   6.217  1.00  0.00    -0.480 OA
ATOM     61  H   UNL     1       1.959  -8.500   5.286  1.00  0.00     0.296 HD
ENDBRANCH  58  60
ENDBRANCH  48  58
ENDBRANCH  46  48
ENDBRANCH  34  44
ENDBRANCH  32  34
ENDBRANCH  25  30
ENDBRANCH  23  25
ENDBRANCH   2  23
TORSDOF 28
ENDMDL
MODEL 2
REMARK VINA RESULT:    -5.957      3.159      8.523
REMARK INTER + INTRA:         -21.172
REMARK INTER:                 -17.639
REMARK INTRA:                  -3.534
REMARK UNBOUND:                -6.334
REMARK SMILES CCCCCCC[C@H](N)[C@H](O)C(=O)N[C@H](C)C(=O)N(C)[C@H](CC(C)C)C(=O)N[C@@H](Cc1ccc(O)cc1)C(=O)N[C@@H](Cc1ccc(O)cc1)C(=O)O
REMARK SMILES IDX 18 1 17 2 15 3 16 4 14 5 12 6 13 7 10 9 11 10 8 12 9 13 7 16
REMARK SMILES IDX 6 17 5 18 4 19 3 20 2 21 1 22 19 23 20 24 21 25 22 26 23 27
REMARK SMILES IDX 24 28 25 29 26 30 27 31 28 32 29 34 30 35 31 36 32 37 37 38
REMARK SMILES IDX 33 39 36 40 34 41 35 42 38 44 39 45 40 46 41 48 42 49 43 50
REMARK SMILES IDX 44 51 49 52 45 53 48 54 46 55 47 56 50 58 51 59 52 60
REMARK H PARENT 14 8 11 11 9 14 9 15 28 33 35 43 40 47 47 57 52 61
ROOT
ATOM      1  O   UNL     1      -4.484 -11.173  -0.152  1.00  0.00    -0.272 OA
ATOM      2  C   UNL     1      -3.382 -10.853   0.319  1.00  0.00     0.245 C 
ENDROOT
BRANCH   2   3
ATOM      3  C   UNL     1      -2.461 -11.969   0.872  1.00  0.00     0.168 C 
ATOM      4  C   UNL     1      -1.165 -12.046   0.074  1.00  0.00     0.041 C 
BRANCH   3   5
ATOM      5  N   UNL     1      -2.213 -11.902   2.304  1.00  0.00    -0.342 N 
ATOM      6  C   UNL     1      -3.016 -12.558   3.214  1.00  0.00     0.251 C 
ATOM      7  O   UNL     1      -4.009 -13.204   2.897  1.00  0.00    -0.272 OA
ATOM      8  H   UNL     1      -1.438 -11.367   2.690  1.00  0.00     0.164 HD
BRANCH   6   9
ATOM      9  C   UNL     1      -2.484 -12.464   4.652  1.00  0.00     0.219 C 
BRANCH   9  10
ATOM     10  O   UNL     1      -1.643 -11.322   4.857  1.00  0.00    -0.382 OA
ATOM     11  H   UNL     1      -0.741 -11.661   4.667  1.00  0.00     0.211 HD
ENDBRANCH   9  10
BRANCH   9  12
ATOM     12  C   UNL     1      -3.605 -12.521   5.722  1.00  0.00     0.089 C 
BRANCH  12  13
ATOM     13  N   UNL     1      -3.228 -13.527   6.742  1.00  0.00    -0.325 NA
ATOM     14  H   UNL     1      -2.246 -13.398   6.993  1.00  0.00     0.119 HD
ATOM     15  H   UNL     1      -3.276 -14.458   6.322  1.00  0.00     0.119 HD
ENDBRANCH  12  13
BRANCH  12  16
ATOM     16  C   UNL     1      -3.960 -11.179   6.405  1.00  0.00     0.022 C 
BRANCH  16  17
ATOM     17  C   UNL     1      -5.180 -11.113   7.334  1.00  0.00     0.002 C 
BRANCH  17  18
ATOM     18  C   UNL     1      -6.066  -9.883   7.149  1.00  0.00     0.000 C 
BRANCH  18  19
ATOM     19  C   UNL     1      -7.040  -9.635   8.309  1.00  0.00    -0.000 C 
BRANCH  19  20
ATOM     20  C   UNL     1      -7.503  -8.184   8.469  1.00  0.00    -0.000 C 
BRANCH  20  21
ATOM     21  C   UNL     1      -6.505  -7.318   9.242  1.00  0.00    -0.003 C 
ATOM     22  C   UNL     1      -7.216  -6.348  10.172  1.00  0.00     0.004 C 
ENDBRANCH  20  21
ENDBRANCH  19  20
ENDBRANCH  18  19
ENDBRANCH  17  18
ENDBRANCH  16  17
ENDBRANCH  12  16
ENDBRANCH   9  12
ENDBRANCH   6   9
ENDBRANCH   3   5
ENDBRANCH   2   3
BRANCH   2  23
ATOM     23  N   UNL     1      -2.945  -9.536   0.232  1.00  0.00    -0.332 N 
ATOM     24  C   UNL     1      -2.893  -8.761  -0.999  1.00  0.00     0.147 C 
BRANCH  23  25
ATOM     25  C   UNL     1      -2.610  -8.773   1.466  1.00  0.00     0.174 C 
BRANCH  25  26
ATOM     26  C   UNL     1      -3.854  -8.162   2.153  1.00  0.00     0.038 C 
BRANCH  26  27
ATOM     27  C   UNL     1      -4.311  -8.810   3.479  1.00  0.00    -0.015 C 
ATOM     28  C   UNL     1      -4.737  -7.774   4.519  1.00  0.00     0.007 C 
ATOM     29  C   UNL     1      -5.398  -9.866   3.295  1.00  0.00     0.007 C 
ENDBRANCH  26  27
ENDBRANCH  25  26
BRANCH  25  30
ATOM     30  C   UNL     1      -1.495  -7.744   1.170  1.00  0.00     0.243 C 
ATOM     31  O   UNL     1      -1.742  -6.553   0.985  1.00  0.00    -0.273 OA
ATOM     32  N   UNL     1      -0.220  -8.248   1.121  1.00  0.00    -0.342 N 
ATOM     33  H   UNL     1      -0.081  -9.215   1.424  1.00  0.00     0.164 HD
BRANCH  32  34
ATOM     34  C   UNL     1       0.956  -7.425   0.826  1.00  0.00     0.175 C 
BRANCH  34  35
ATOM     35  C   UNL     1       2.166  -7.857   1.668  1.00  0.00     0.070 C 
BRANCH  35  36
ATOM     36  C   UNL     1       1.874  -7.861   3.152  1.00  0.00    -0.045 A 
ATOM     37  C   UNL     1       1.862  -6.654   3.868  1.00  0.00     0.007 A 
ATOM     38  C   UNL     1       1.635  -9.061   3.835  1.00  0.00     0.007 A 
ATOM     39  C   UNL     1       1.608  -6.649   5.240  1.00  0.00     0.046 A 
ATOM     40  C   UNL     1       1.381  -9.057   5.209  1.00  0.00     0.046 A 
ATOM     41  C   UNL     1       1.368  -7.849   5.899  1.00  0.00     0.115 A 
BRANCH  41  42
ATOM     42  O   UNL     1       1.126  -7.801   7.240  1.00  0.00    -0.508 OA
ATOM     43  H   UNL     1       1.763  -8.384   7.685  1.00  0.00     0.293 HD
ENDBRANCH  41  42
ENDBRANCH  35  36
ENDBRANCH  34  35
BRANCH  34  44
ATOM     44  C   UNL     1       1.242  -7.526  -0.689  1.00  0.00     0.243 C 
ATOM     45  O   UNL     1       1.527  -6.570  -1.406  1.00  0.00    -0.273 OA
ATOM     46  N   UNL     1       1.021  -8.784  -1.208  1.00  0.00    -0.341 N 
ATOM     47  H   UNL     1       0.672  -9.516  -0.594  1.00  0.00     0.164 HD
BRANCH  46  48
ATOM     48  C   UNL     1       1.160  -9.106  -2.630  1.00  0.00     0.196 C 
BRANCH  48  49
ATOM     49  C   UNL     1       2.611  -9.473  -2.981  1.00  0.00     0.072 C 
BRANCH  49  50
ATOM     50  C   UNL     1       2.990  -9.067  -4.387  1.00  0.00    -0.045 A 
ATOM     51  C   UNL     1       4.139  -8.293  -4.606  1.00  0.00     0.007 A 
ATOM     52  C   UNL     1       2.197  -9.434  -5.482  1.00  0.00     0.007 A 
ATOM     53  C   UNL     1       4.491  -7.901  -5.897  1.00  0.00     0.046 A 
ATOM     54  C   UNL     1       2.549  -9.041  -6.775  1.00  0.00     0.046 A 
ATOM     55  C   UNL     1       3.695  -8.278  -6.972  1.00  0.00     0.115 A 
BRANCH  55  56
ATOM     56  O   UNL     1       4.073  -7.872  -8.218  1.00  0.00    -0.508 OA
ATOM     57  H   UNL     1       3.310  -7.957  -8.811  1.00  0.00     0.293 HD
ENDBRANCH  55  56
ENDBRANCH  49  50
ENDBRANCH  48  49
BRANCH  48  58
ATOM     58  C   UNL     1       0.234 -10.283  -2.968  1.00  0.00     0.326 C 
ATOM     59  O   UNL     1       0.443 -11.468  -2.768  1.00  0.00    -0.250 OA
BRANCH  58  60
ATOM     60  O   UNL     1      -0.937  -9.904  -3.539  1.00  0.00    -0.480 OA
ATOM     61  H   UNL     1      -0.867 -10.255  -4.453  1.00  0.00     0.296 HD
ENDBRANCH  58  60
ENDBRANCH  48  58
ENDBRANCH  46  48
ENDBRANCH  34  44
ENDBRANCH  32  34
ENDBRANCH  25  30
ENDBRANCH  23  25
ENDBRANCH   2  23
TORSDOF 28
ENDMDL
MODEL 3
REMARK VINA RESULT:    -5.837      2.266      7.978
REMARK INTER + INTRA:         -20.872
REMARK INTER:                 -15.121
REMARK INTRA:                  -5.751
REMARK UNBOUND:                -6.334
REMARK SMILES CCCCCCC[C@H](N)[C@H](O)C(=O)N[C@H](C)C(=O)N(C)[C@H](CC(C)C)C(=O)N[C@@H](Cc1ccc(O)cc1)C(=O)N[C@@H](Cc1ccc(O)cc1)C(=O)O
REMARK SMILES IDX 18 1 17 2 15 3 16 4 14 5 12 6 13 7 10 9 11 10 8 12 9 13 7 16
REMARK SMILES IDX 6 17 5 18 4 19 3 20 2 21 1 22 19 23 20 24 21 25 22 26 23 27
REMARK SMILES IDX 24 28 25 29 26 30 27 31 28 32 29 34 30 35 31 36 32 37 37 38
REMARK SMILES IDX 33 39 36 40 34 41 35 42 38 44 39 45 40 46 41 48 42 49 43 50
REMARK SMILES IDX 44 51 49 52 45 53 48 54 46 55 47 56 50 58 51 59 52 60
REMARK H PARENT 14 8 11 11 9 14 9 15 28 33 35 43 40 47 47 57 52 61
ROOT
ATOM      1  O   UNL     1      -0.632  -7.425   0.206  1.00  0.00    -0.272 OA
ATOM      2  C   UNL     1      -0.333  -8.376  -0.530  1.00  0.00     0.245 C 
ENDROOT
BRANCH   2   3
ATOM      3  C   UNL     1      -1.432  -8.987  -1.435  1.00  0.00     0.168 C 
ATOM      4  C   UNL     1      -0.880  -9.300  -2.822  1.00  0.00     0.041 C 
BRANCH   3   5
ATOM      5  N   UNL     1      -2.134 -10.124  -0.861  1.00  0.00    -0.342 N 
ATOM      6  C   UNL     1      -3.289  -9.970  -0.123  1.00  0.00     0.251 C 
ATOM      7  O   UNL     1      -3.783  -8.879   0.140  1.00  0.00    -0.272 OA
ATOM      8  H   UNL     1      -1.800 -11.077  -0.982  1.00  0.00     0.164 HD
BRANCH   6   9
ATOM      9  C   UNL     1      -3.933 -11.312   0.260  1.00  0.00     0.219 C 
BRANCH   9  10
ATOM     10  O   UNL     1      -3.170 -12.439  -0.188  1.00  0.00    -0.382 OA
ATOM     11  H   UNL     1      -2.578 -12.059  -0.874  1.00  0.00     0.211 HD
ENDBRANCH   9  10
BRANCH   9  12
ATOM     12  C   UNL     1      -4.247 -11.426   1.775  1.00  0.00     0.089 C 
BRANCH  12  13
ATOM     13  N   UNL     1      -5.278 -10.420   2.116  1.00  0.00    -0.325 NA
ATOM     14  H   UNL     1      -5.994 -10.857   2.699  1.00  0.00     0.119 HD
ATOM     15  H   UNL     1      -5.764 -10.141   1.260  1.00  0.00     0.119 HD
ENDBRANCH  12  13
BRANCH  12  16
ATOM     16  C   UNL     1      -4.683 -12.825   2.273  1.00  0.00     0.022 C 
BRANCH  16  17
ATOM     17  C   UNL     1      -4.030 -13.406   3.534  1.00  0.00     0.002 C 
BRANCH  17  18
ATOM     18  C   UNL     1      -3.151 -12.430   4.313  1.00  0.00     0.000 C 
BRANCH  18  19
ATOM     19  C   UNL     1      -3.925 -11.535   5.289  1.00  0.00    -0.000 C 
BRANCH  19  20
ATOM     20  C   UNL     1      -3.076 -10.505   6.040  1.00  0.00    -0.000 C 
BRANCH  20  21
ATOM     21  C   UNL     1      -1.982 -11.143   6.900  1.00  0.00    -0.003 C 
ATOM     22  C   UNL     1      -0.607 -10.599   6.544  1.00  0.00     0.004 C 
ENDBRANCH  20  21
ENDBRANCH  19  20
ENDBRANCH  18  19
ENDBRANCH  17  18
ENDBRANCH  16  17
ENDBRANCH  12  16
ENDBRANCH   9  12
ENDBRANCH   6   9
ENDBRANCH   3   5
ENDBRANCH   2   3
BRANCH   2  23
ATOM     23  N   UNL     1       0.990  -8.795  -0.623  1.00  0.00    -0.332 N 
ATOM     24  C   UNL     1       1.478 -10.093  -0.181  1.00  0.00     0.147 C 
BRANCH  23  25
ATOM     25  C   UNL     1       1.997  -7.953  -1.325  1.00  0.00     0.174 C 
BRANCH  25  26
ATOM     26  C   UNL     1       2.880  -8.760  -2.306  1.00  0.00     0.038 C 
BRANCH  26  27
ATOM     27  C   UNL     1       2.731  -8.437  -3.809  1.00  0.00    -0.015 C 
ATOM     28  C   UNL     1       2.349  -9.665  -4.636  1.00  0.00     0.007 C 
ATOM     29  C   UNL     1       1.773  -7.282  -4.090  1.00  0.00     0.007 C 
ENDBRANCH  26  27
ENDBRANCH  25  26
BRANCH  25  30
ATOM     30  C   UNL     1       2.805  -7.125  -0.299  1.00  0.00     0.243 C 
ATOM     31  O   UNL     1       4.026  -7.233  -0.194  1.00  0.00    -0.273 OA
ATOM     32  N   UNL     1       2.071  -6.273   0.485  1.00  0.00    -0.342 N 
ATOM     33  H   UNL     1       1.087  -6.136   0.243  1.00  0.00     0.164 HD
BRANCH  32  34
ATOM     34  C   UNL     1       2.665  -5.431   1.528  1.00  0.00     0.175 C 
BRANCH  34  35
ATOM     35  C   UNL     1       2.985  -4.025   0.997  1.00  0.00     0.070 C 
BRANCH  35  36
ATOM     36  C   UNL     1       4.227  -3.432   1.623  1.00  0.00    -0.045 A 
ATOM     37  C   UNL     1       4.183  -2.151   2.192  1.00  0.00     0.007 A 
ATOM     38  C   UNL     1       5.438  -4.137   1.624  1.00  0.00     0.007 A 
ATOM     39  C   UNL     1       5.327  -1.589   2.759  1.00  0.00     0.046 A 
ATOM     40  C   UNL     1       6.584  -3.576   2.191  1.00  0.00     0.046 A 
ATOM     41  C   UNL     1       6.518  -2.306   2.755  1.00  0.00     0.115 A 
BRANCH  41  42
ATOM     42  O   UNL     1       7.613  -1.721   3.317  1.00  0.00    -0.508 OA
ATOM     43  H   UNL     1       8.407  -2.092   2.896  1.00  0.00     0.293 HD
ENDBRANCH  41  42
ENDBRANCH  35  36
ENDBRANCH  34  35
BRANCH  34  44
ATOM     44  C   UNL     1       1.687  -5.388   2.723  1.00  0.00     0.243 C 
ATOM     45  O   UNL     1       0.626  -4.770   2.730  1.00  0.00    -0.273 OA
ATOM     46  N   UNL     1       2.173  -6.010   3.854  1.00  0.00    -0.341 N 
ATOM     47  H   UNL     1       3.109  -6.408   3.834  1.00  0.00     0.164 HD
BRANCH  46  48
ATOM     48  C   UNL     1       1.455  -6.040   5.129  1.00  0.00     0.196 C 
BRANCH  48  49
ATOM     49  C   UNL     1       0.780  -7.403   5.360  1.00  0.00     0.072 C 
BRANCH  49  50
ATOM     50  C   UNL     1      -0.591  -7.488   4.728  1.00  0.00    -0.045 A 
ATOM     51  C   UNL     1      -0.836  -8.426   3.715  1.00  0.00     0.007 A 
ATOM     52  C   UNL     1      -1.622  -6.626   5.123  1.00  0.00     0.007 A 
ATOM     53  C   UNL     1      -2.093  -8.504   3.114  1.00  0.00     0.046 A 
ATOM     54  C   UNL     1      -2.880  -6.704   4.522  1.00  0.00     0.046 A 
ATOM     55  C   UNL     1      -3.105  -7.644   3.522  1.00  0.00     0.115 A 
BRANCH  55  56
ATOM     56  O   UNL     1      -4.318  -7.752   2.909  1.00  0.00    -0.508 OA
ATOM     57  H   UNL     1      -4.209  -8.286   2.106  1.00  0.00     0.293 HD
ENDBRANCH  55  56
ENDBRANCH  49  50
ENDBRANCH  48  49
BRANCH  48  58
ATOM     58  C   UNL     1       2.446  -5.757   6.267  1.00  0.00     0.326 C 
ATOM     59  O   UNL     1       3.634  -5.499   6.165  1.00  0.00    -0.250 OA
BRANCH  58  60
ATOM     60  O   UNL     1       1.881  -5.798   7.500  1.00  0.00    -0.480 OA
ATOM     61  H   UNL     1       2.005  -4.884   7.836  1.00  0.00     0.296 HD
ENDBRANCH  58  60
ENDBRANCH  48  58
ENDBRANCH  46  48
ENDBRANCH  34  44
ENDBRANCH  32  34
ENDBRANCH  25  30
ENDBRANCH  23  25
ENDBRANCH   2  23
TORSDOF 28
ENDMDL
MODEL 4
REMARK VINA RESULT:    -5.804      2.264      9.522
REMARK INTER + INTRA:         -20.790
REMARK INTER:                 -14.738
REMARK INTRA:                  -6.052
REMARK UNBOUND:                -6.334
REMARK SMILES CCCCCCC[C@H](N)[C@H](O)C(=O)N[C@H](C)C(=O)N(C)[C@H](CC(C)C)C(=O)N[C@@H](Cc1ccc(O)cc1)C(=O)N[C@@H](Cc1ccc(O)cc1)C(=O)O
REMARK SMILES IDX 18 1 17 2 15 3 16 4 14 5 12 6 13 7 10 9 11 10 8 12 9 13 7 16
REMARK SMILES IDX 6 17 5 18 4 19 3 20 2 21 1 22 19 23 20 24 21 25 22 26 23 27
REMARK SMILES IDX 24 28 25 29 26 30 27 31 28 32 29 34 30 35 31 36 32 37 37 38
REMARK SMILES IDX 33 39 36 40 34 41 35 42 38 44 39 45 40 46 41 48 42 49 43 50
REMARK SMILES IDX 44 51 49 52 45 53 48 54 46 55 47 56 50 58 51 59 52 60
REMARK H PARENT 14 8 11 11 9 14 9 15 28 33 35 43 40 47 47 57 52 61
ROOT
ATOM      1  O   UNL     1      -0.137  -8.713   2.803  1.00  0.00    -0.272 OA
ATOM      2  C   UNL     1      -0.738  -7.758   3.317  1.00  0.00     0.245 C 
ENDROOT
BRANCH   2   3
ATOM      3  C   UNL     1      -2.203  -7.490   2.894  1.00  0.00     0.168 C 
ATOM      4  C   UNL     1      -2.271  -6.386   1.844  1.00  0.00     0.041 C 
BRANCH   3   5
ATOM      5  N   UNL     1      -2.947  -8.672   2.486  1.00  0.00    -0.342 N 
ATOM      6  C   UNL     1      -4.306  -8.785   2.692  1.00  0.00     0.251 C 
ATOM      7  O   UNL     1      -4.976  -7.931   3.264  1.00  0.00    -0.272 OA
ATOM      8  H   UNL     1      -2.493  -9.461   2.032  1.00  0.00     0.164 HD
BRANCH   6   9
ATOM      9  C   UNL     1      -4.901 -10.051   2.055  1.00  0.00     0.219 C 
BRANCH   9  10
ATOM     10  O   UNL     1      -4.398 -10.294   0.736  1.00  0.00    -0.382 OA
ATOM     11  H   UNL     1      -4.356 -11.274   0.681  1.00  0.00     0.211 HD
ENDBRANCH   9  10
BRANCH   9  12
ATOM     12  C   UNL     1      -4.745 -11.311   2.945  1.00  0.00     0.089 C 
BRANCH  12  13
ATOM     13  N   UNL     1      -6.044 -11.582   3.603  1.00  0.00    -0.325 NA
ATOM     14  H   UNL     1      -6.203 -12.591   3.630  1.00  0.00     0.119 HD
ATOM     15  H   UNL     1      -6.796 -11.209   3.018  1.00  0.00     0.119 HD
ENDBRANCH  12  13
BRANCH  12  16
ATOM     16  C   UNL     1      -4.235 -12.586   2.231  1.00  0.00     0.022 C 
BRANCH  16  17
ATOM     17  C   UNL     1      -2.983 -13.293   2.769  1.00  0.00     0.002 C 
BRANCH  17  18
ATOM     18  C   UNL     1      -3.133 -13.897   4.164  1.00  0.00     0.000 C 
BRANCH  18  19
ATOM     19  C   UNL     1      -2.161 -13.320   5.202  1.00  0.00    -0.000 C 
BRANCH  19  20
ATOM     20  C   UNL     1      -2.650 -12.060   5.920  1.00  0.00    -0.000 C 
BRANCH  20  21
ATOM     21  C   UNL     1      -1.971 -10.782   5.419  1.00  0.00    -0.003 C 
ATOM     22  C   UNL     1      -0.717 -10.469   6.220  1.00  0.00     0.004 C 
ENDBRANCH  20  21
ENDBRANCH  19  20
ENDBRANCH  18  19
ENDBRANCH  17  18
ENDBRANCH  16  17
ENDBRANCH  12  16
ENDBRANCH   9  12
ENDBRANCH   6   9
ENDBRANCH   3   5
ENDBRANCH   2   3
BRANCH   2  23
ATOM     23  N   UNL     1      -0.139  -7.028   4.339  1.00  0.00    -0.332 N 
ATOM     24  C   UNL     1      -0.699  -6.860   5.671  1.00  0.00     0.147 C 
BRANCH  23  25
ATOM     25  C   UNL     1       1.224  -6.458   4.155  1.00  0.00     0.174 C 
BRANCH  25  26
ATOM     26  C   UNL     1       1.711  -5.655   5.384  1.00  0.00     0.038 C 
BRANCH  26  27
ATOM     27  C   UNL     1       2.882  -4.672   5.159  1.00  0.00    -0.015 C 
ATOM     28  C   UNL     1       2.485  -3.220   5.428  1.00  0.00     0.007 C 
ATOM     29  C   UNL     1       4.141  -5.038   5.940  1.00  0.00     0.007 C 
ENDBRANCH  26  27
ENDBRANCH  25  26
BRANCH  25  30
ATOM     30  C   UNL     1       1.297  -5.669   2.828  1.00  0.00     0.243 C 
ATOM     31  O   UNL     1       0.692  -4.610   2.668  1.00  0.00    -0.273 OA
ATOM     32  N   UNL     1       2.073  -6.229   1.846  1.00  0.00    -0.342 N 
ATOM     33  H   UNL     1       2.654  -7.032   2.102  1.00  0.00     0.164 HD
BRANCH  32  34
ATOM     34  C   UNL     1       2.236  -5.636   0.517  1.00  0.00     0.175 C 
BRANCH  34  35
ATOM     35  C   UNL     1       3.684  -5.179   0.283  1.00  0.00     0.070 C 
BRANCH  35  36
ATOM     36  C   UNL     1       4.114  -4.086   1.236  1.00  0.00    -0.045 A 
ATOM     37  C   UNL     1       3.413  -2.871   1.271  1.00  0.00     0.007 A 
ATOM     38  C   UNL     1       5.223  -4.258   2.074  1.00  0.00     0.007 A 
ATOM     39  C   UNL     1       3.810  -1.852   2.137  1.00  0.00     0.046 A 
ATOM     40  C   UNL     1       5.622  -3.238   2.941  1.00  0.00     0.046 A 
ATOM     41  C   UNL     1       4.910  -2.043   2.965  1.00  0.00     0.115 A 
BRANCH  41  42
ATOM     42  O   UNL     1       5.267  -1.021   3.794  1.00  0.00    -0.508 OA
ATOM     43  H   UNL     1       5.985  -1.332   4.370  1.00  0.00     0.293 HD
ENDBRANCH  41  42
ENDBRANCH  35  36
ENDBRANCH  34  35
BRANCH  34  44
ATOM     44  C   UNL     1       1.783  -6.677  -0.532  1.00  0.00     0.243 C 
ATOM     45  O   UNL     1       1.884  -6.528  -1.746  1.00  0.00    -0.273 OA
ATOM     46  N   UNL     1       1.123  -7.756   0.017  1.00  0.00    -0.341 N 
ATOM     47  H   UNL     1       0.961  -7.778   1.021  1.00  0.00     0.164 HD
BRANCH  46  48
ATOM     48  C   UNL     1       0.542  -8.837  -0.783  1.00  0.00     0.196 C 
BRANCH  48  49
ATOM     49  C   UNL     1       1.081 -10.209  -0.345  1.00  0.00     0.072 C 
BRANCH  49  50
ATOM     50  C   UNL     1       1.085 -11.219  -1.471  1.00  0.00    -0.045 A 
ATOM     51  C   UNL     1       0.734 -12.552  -1.215  1.00  0.00     0.007 A 
ATOM     52  C   UNL     1       1.457 -10.849  -2.770  1.00  0.00     0.007 A 
ATOM     53  C   UNL     1       0.746 -13.495  -2.243  1.00  0.00     0.046 A 
ATOM     54  C   UNL     1       1.471 -11.793  -3.798  1.00  0.00     0.046 A 
ATOM     55  C   UNL     1       1.114 -13.109  -3.526  1.00  0.00     0.115 A 
BRANCH  55  56
ATOM     56  O   UNL     1       1.116 -14.062  -4.502  1.00  0.00    -0.508 OA
ATOM     57  H   UNL     1       0.211 -14.154  -4.840  1.00  0.00     0.293 HD
ENDBRANCH  55  56
ENDBRANCH  49  50
ENDBRANCH  48  49
BRANCH  48  58
ATOM     58  C   UNL     1      -0.984  -8.809  -0.626  1.00  0.00     0.326 C 
ATOM     59  O   UNL     1      -1.775  -8.087  -1.212  1.00  0.00    -0.250 OA
BRANCH  58  60
ATOM     60  O   UNL     1      -1.453  -9.718   0.266  1.00  0.00    -0.480 OA
ATOM     61  H   UNL     1      -2.413  -9.515   0.312  1.00  0.00     0.296 HD
ENDBRANCH  58  60
ENDBRANCH  48  58
ENDBRANCH  46  48
ENDBRANCH  34  44
ENDBRANCH  32  34
ENDBRANCH  25  30
ENDBRANCH  23  25
ENDBRANCH   2  23
TORSDOF 28
ENDMDL
MODEL 5
REMARK VINA RESULT:    -5.760      6.123     11.266
REMARK INTER + INTRA:         -20.679
REMARK INTER:                 -13.637
REMARK INTRA:                  -7.042
REMARK UNBOUND:                -6.334
REMARK SMILES CCCCCCC[C@H](N)[C@H](O)C(=O)N[C@H](C)C(=O)N(C)[C@H](CC(C)C)C(=O)N[C@@H](Cc1ccc(O)cc1)C(=O)N[C@@H](Cc1ccc(O)cc1)C(=O)O
REMARK SMILES IDX 18 1 17 2 15 3 16 4 14 5 12 6 13 7 10 9 11 10 8 12 9 13 7 16
REMARK SMILES IDX 6 17 5 18 4 19 3 20 2 21 1 22 19 23 20 24 21 25 22 26 23 27
REMARK SMILES IDX 24 28 25 29 26 30 27 31 28 32 29 34 30 35 31 36 32 37 37 38
REMARK SMILES IDX 33 39 36 40 34 41 35 42 38 44 39 45 40 46 41 48 42 49 43 50
REMARK SMILES IDX 44 51 49 52 45 53 48 54 46 55 47 56 50 58 51 59 52 60
REMARK H PARENT 14 8 11 11 9 14 9 15 28 33 35 43 40 47 47 57 52 61
ROOT
ATOM      1  O   UNL     1       1.691   0.633   6.478  1.00  0.00    -0.272 OA
ATOM      2  C   UNL     1       1.434   0.417   5.285  1.00  0.00     0.245 C 
ENDROOT
BRANCH   2   3
ATOM      3  C   UNL     1       0.357   1.285   4.589  1.00  0.00     0.168 C 
ATOM      4  C   UNL     1      -0.698   1.745   5.590  1.00  0.00     0.041 C 
BRANCH   3   5
ATOM      5  N   UNL     1       0.878   2.393   3.804  1.00  0.00    -0.342 N 
ATOM      6  C   UNL     1       0.726   2.450   2.435  1.00  0.00     0.251 C 
ATOM      7  O   UNL     1       0.187   1.567   1.777  1.00  0.00    -0.272 OA
ATOM      8  H   UNL     1       1.375   3.169   4.235  1.00  0.00     0.164 HD
BRANCH   6   9
ATOM      9  C   UNL     1       1.227   3.774   1.836  1.00  0.00     0.219 C 
BRANCH   9  10
ATOM     10  O   UNL     1       1.300   4.827   2.805  1.00  0.00    -0.382 OA
ATOM     11  H   UNL     1       1.065   5.630   2.291  1.00  0.00     0.211 HD
ENDBRANCH   9  10
BRANCH   9  12
ATOM     12  C   UNL     1       2.573   3.629   1.078  1.00  0.00     0.089 C 
BRANCH  12  13
ATOM     13  N   UNL     1       3.144   2.298   1.389  1.00  0.00    -0.325 NA
ATOM     14  H   UNL     1       3.466   2.290   2.359  1.00  0.00     0.119 HD
ATOM     15  H   UNL     1       3.986   2.160   0.826  1.00  0.00     0.119 HD
ENDBRANCH  12  13
BRANCH  12  16
ATOM     16  C   UNL     1       2.515   3.837  -0.454  1.00  0.00     0.022 C 
BRANCH  16  17
ATOM     17  C   UNL     1       2.670   2.623  -1.379  1.00  0.00     0.002 C 
BRANCH  17  18
ATOM     18  C   UNL     1       3.365   2.910  -2.708  1.00  0.00     0.000 C 
BRANCH  18  19
ATOM     19  C   UNL     1       4.883   3.102  -2.591  1.00  0.00    -0.000 C 
BRANCH  19  20
ATOM     20  C   UNL     1       5.391   4.500  -2.955  1.00  0.00    -0.000 C 
BRANCH  20  21
ATOM     21  C   UNL     1       4.268   5.461  -3.354  1.00  0.00    -0.003 C 
ATOM     22  C   UNL     1       4.075   6.552  -2.312  1.00  0.00     0.004 C 
ENDBRANCH  20  21
ENDBRANCH  19  20
ENDBRANCH  18  19
ENDBRANCH  17  18
ENDBRANCH  16  17
ENDBRANCH  12  16
ENDBRANCH   9  12
ENDBRANCH   6   9
ENDBRANCH   3   5
ENDBRANCH   2   3
BRANCH   2  23
ATOM     23  N   UNL     1       2.191  -0.503   4.566  1.00  0.00    -0.332 N 
ATOM     24  C   UNL     1       3.469  -1.043   5.005  1.00  0.00     0.147 C 
BRANCH  23  25
ATOM     25  C   UNL     1       1.651  -1.107   3.317  1.00  0.00     0.174 C 
BRANCH  25  26
ATOM     26  C   UNL     1       0.548  -2.158   3.584  1.00  0.00     0.038 C 
BRANCH  26  27
ATOM     27  C   UNL     1      -0.434  -2.451   2.427  1.00  0.00    -0.015 C 
ATOM     28  C   UNL     1      -0.729  -3.943   2.275  1.00  0.00     0.007 C 
ATOM     29  C   UNL     1      -1.733  -1.653   2.516  1.00  0.00     0.007 C 
ENDBRANCH  26  27
ENDBRANCH  25  26
BRANCH  25  30
ATOM     30  C   UNL     1       2.808  -1.630   2.436  1.00  0.00     0.243 C 
ATOM     31  O   UNL     1       3.147  -2.813   2.443  1.00  0.00    -0.273 OA
ATOM     32  N   UNL     1       3.432  -0.691   1.656  1.00  0.00    -0.342 N 
ATOM     33  H   UNL     1       3.004   0.237   1.599  1.00  0.00     0.164 HD
BRANCH  32  34
ATOM     34  C   UNL     1       4.565  -1.001   0.780  1.00  0.00     0.175 C 
BRANCH  34  35
ATOM     35  C   UNL     1       4.268  -0.609  -0.676  1.00  0.00     0.070 C 
BRANCH  35  36
ATOM     36  C   UNL     1       5.351  -1.053  -1.633  1.00  0.00    -0.045 A 
ATOM     37  C   UNL     1       6.130  -2.182  -1.337  1.00  0.00     0.007 A 
ATOM     38  C   UNL     1       5.608  -0.339  -2.811  1.00  0.00     0.007 A 
ATOM     39  C   UNL     1       7.141  -2.592  -2.207  1.00  0.00     0.046 A 
ATOM     40  C   UNL     1       6.620  -0.747  -3.682  1.00  0.00     0.046 A 
ATOM     41  C   UNL     1       7.377  -1.872  -3.372  1.00  0.00     0.115 A 
BRANCH  41  42
ATOM     42  O   UNL     1       8.376  -2.304  -4.194  1.00  0.00    -0.508 OA
ATOM     43  H   UNL     1       7.999  -2.943  -4.822  1.00  0.00     0.293 HD
ENDBRANCH  41  42
ENDBRANCH  35  36
ENDBRANCH  34  35
BRANCH  34  44
ATOM     44  C   UNL     1       5.810  -0.272   1.332  1.00  0.00     0.243 C 
ATOM     45  O   UNL     1       6.579  -0.745   2.164  1.00  0.00    -0.273 OA
ATOM     46  N   UNL     1       5.919   1.033   0.899  1.00  0.00    -0.341 N 
ATOM     47  H   UNL     1       5.192   1.417   0.301  1.00  0.00     0.164 HD
BRANCH  46  48
ATOM     48  C   UNL     1       6.979   1.943   1.341  1.00  0.00     0.196 C 
BRANCH  48  49
ATOM     49  C   UNL     1       7.493   2.810   0.179  1.00  0.00     0.072 C 
BRANCH  49  50
ATOM     50  C   UNL     1       8.341   2.028  -0.799  1.00  0.00    -0.045 A 
ATOM     51  C   UNL     1       8.523   2.507  -2.104  1.00  0.00     0.007 A 
ATOM     52  C   UNL     1       8.936   0.815  -0.429  1.00  0.00     0.007 A 
ATOM     53  C   UNL     1       9.293   1.789  -3.019  1.00  0.00     0.046 A 
ATOM     54  C   UNL     1       9.705   0.095  -1.345  1.00  0.00     0.046 A 
ATOM     55  C   UNL     1       9.878   0.589  -2.633  1.00  0.00     0.115 A 
BRANCH  55  56
ATOM     56  O   UNL     1      10.620  -0.084  -3.558  1.00  0.00    -0.508 OA
ATOM     57  H   UNL     1      10.918   0.549  -4.231  1.00  0.00     0.293 HD
ENDBRANCH  55  56
ENDBRANCH  49  50
ENDBRANCH  48  49
BRANCH  48  58
ATOM     58  C   UNL     1       6.430   2.846   2.454  1.00  0.00     0.326 C 
ATOM     59  O   UNL     1       6.630   4.041   2.602  1.00  0.00    -0.250 OA
BRANCH  58  60
ATOM     60  O   UNL     1       5.628   2.195   3.333  1.00  0.00    -0.480 OA
ATOM     61  H   UNL     1       5.667   1.263   3.027  1.00  0.00     0.296 HD
ENDBRANCH  58  60
ENDBRANCH  48  58
ENDBRANCH  46  48
ENDBRANCH  34  44
ENDBRANCH  32  34
ENDBRANCH  25  30
ENDBRANCH  23  25
ENDBRANCH   2  23
TORSDOF 28
ENDMDL
MODEL 6
REMARK VINA RESULT:    -5.720      4.836      8.656
REMARK INTER + INTRA:         -20.580
REMARK INTER:                 -14.008
REMARK INTRA:                  -6.572
REMARK UNBOUND:                -6.334
REMARK SMILES CCCCCCC[C@H](N)[C@H](O)C(=O)N[C@H](C)C(=O)N(C)[C@H](CC(C)C)C(=O)N[C@@H](Cc1ccc(O)cc1)C(=O)N[C@@H](Cc1ccc(O)cc1)C(=O)O
REMARK SMILES IDX 18 1 17 2 15 3 16 4 14 5 12 6 13 7 10 9 11 10 8 12 9 13 7 16
REMARK SMILES IDX 6 17 5 18 4 19 3 20 2 21 1 22 19 23 20 24 21 25 22 26 23 27
REMARK SMILES IDX 24 28 25 29 26 30 27 31 28 32 29 34 30 35 31 36 32 37 37 38
REMARK SMILES IDX 33 39 36 40 34 41 35 42 38 44 39 45 40 46 41 48 42 49 43 50
REMARK SMILES IDX 44 51 49 52 45 53 48 54 46 55 47 56 50 58 51 59 52 60
REMARK H PARENT 14 8 11 11 9 14 9 15 28 33 35 43 40 47 47 57 52 61
ROOT
ATOM      1  O   UNL     1       2.573  -0.547   2.035  1.00  0.00    -0.272 OA
ATOM      2  C   UNL     1       2.871  -1.014   3.144  1.00  0.00     0.245 C 
ENDROOT
BRANCH   2   3
ATOM      3  C   UNL     1       4.144  -0.487   3.852  1.00  0.00     0.168 C 
ATOM      4  C   UNL     1       4.968  -1.640   4.415  1.00  0.00     0.041 C 
BRANCH   3   5
ATOM      5  N   UNL     1       4.955   0.420   3.056  1.00  0.00    -0.342 N 
ATOM      6  C   UNL     1       4.858   1.790   3.187  1.00  0.00     0.251 C 
ATOM      7  O   UNL     1       4.064   2.342   3.941  1.00  0.00    -0.272 OA
ATOM      8  H   UNL     1       5.625   0.079   2.370  1.00  0.00     0.164 HD
BRANCH   6   9
ATOM      9  C   UNL     1       5.906   2.542   2.352  1.00  0.00     0.219 C 
BRANCH   9  10
ATOM     10  O   UNL     1       7.241   2.084   2.599  1.00  0.00    -0.382 OA
ATOM     11  H   UNL     1       7.354   1.347   1.960  1.00  0.00     0.211 HD
ENDBRANCH   9  10
BRANCH   9  12
ATOM     12  C   UNL     1       5.594   2.537   0.833  1.00  0.00     0.089 C 
BRANCH  12  13
ATOM     13  N   UNL     1       4.123   2.515   0.658  1.00  0.00    -0.325 NA
ATOM     14  H   UNL     1       3.708   3.264   1.214  1.00  0.00     0.119 HD
ATOM     15  H   UNL     1       3.756   1.649   1.060  1.00  0.00     0.119 HD
ENDBRANCH  12  13
BRANCH  12  16
ATOM     16  C   UNL     1       6.209   3.694   0.010  1.00  0.00     0.022 C 
BRANCH  16  17
ATOM     17  C   UNL     1       5.342   4.916  -0.324  1.00  0.00     0.002 C 
BRANCH  17  18
ATOM     18  C   UNL     1       5.357   5.334  -1.793  1.00  0.00     0.000 C 
BRANCH  18  19
ATOM     19  C   UNL     1       4.712   4.314  -2.740  1.00  0.00    -0.000 C 
BRANCH  19  20
ATOM     20  C   UNL     1       3.230   4.554  -3.042  1.00  0.00    -0.000 C 
BRANCH  20  21
ATOM     21  C   UNL     1       2.295   3.728  -2.155  1.00  0.00    -0.003 C 
ATOM     22  C   UNL     1       1.641   4.589  -1.086  1.00  0.00     0.004 C 
ENDBRANCH  20  21
ENDBRANCH  19  20
ENDBRANCH  18  19
ENDBRANCH  17  18
ENDBRANCH  16  17
ENDBRANCH  12  16
ENDBRANCH   9  12
ENDBRANCH   6   9
ENDBRANCH   3   5
ENDBRANCH   2   3
BRANCH   2  23
ATOM     23  N   UNL     1       2.008  -1.900   3.781  1.00  0.00    -0.332 N 
ATOM     24  C   UNL     1       1.468  -1.709   5.119  1.00  0.00     0.147 C 
BRANCH  23  25
ATOM     25  C   UNL     1       1.468  -3.079   3.050  1.00  0.00     0.174 C 
BRANCH  25  26
ATOM     26  C   UNL     1       0.188  -3.656   3.700  1.00  0.00     0.038 C 
BRANCH  26  27
ATOM     27  C   UNL     1      -0.171  -5.119   3.359  1.00  0.00    -0.015 C 
ATOM     28  C   UNL     1      -0.124  -6.033   4.583  1.00  0.00     0.007 C 
ATOM     29  C   UNL     1      -1.506  -5.263   2.632  1.00  0.00     0.007 C 
ENDBRANCH  26  27
ENDBRANCH  25  26
BRANCH  25  30
ATOM     30  C   UNL     1       2.583  -4.128   2.834  1.00  0.00     0.243 C 
ATOM     31  O   UNL     1       3.169  -4.656   3.777  1.00  0.00    -0.273 OA
ATOM     32  N   UNL     1       2.875  -4.422   1.527  1.00  0.00    -0.342 N 
ATOM     33  H   UNL     1       2.251  -4.050   0.807  1.00  0.00     0.164 HD
BRANCH  32  34
ATOM     34  C   UNL     1       3.920  -5.371   1.134  1.00  0.00     0.175 C 
BRANCH  34  35
ATOM     35  C   UNL     1       3.360  -6.471   0.219  1.00  0.00     0.070 C 
BRANCH  35  36
ATOM     36  C   UNL     1       2.277  -7.289   0.884  1.00  0.00    -0.045 A 
ATOM     37  C   UNL     1       2.562  -8.015   2.051  1.00  0.00     0.007 A 
ATOM     38  C   UNL     1       0.988  -7.355   0.338  1.00  0.00     0.007 A 
ATOM     39  C   UNL     1       1.572  -8.784   2.664  1.00  0.00     0.046 A 
ATOM     40  C   UNL     1      -0.003  -8.126   0.950  1.00  0.00     0.046 A 
ATOM     41  C   UNL     1       0.298  -8.833   2.110  1.00  0.00     0.115 A 
BRANCH  41  42
ATOM     42  O   UNL     1      -0.639  -9.598   2.738  1.00  0.00    -0.508 OA
ATOM     43  H   UNL     1      -1.472  -9.099   2.764  1.00  0.00     0.293 HD
ENDBRANCH  41  42
ENDBRANCH  35  36
ENDBRANCH  34  35
BRANCH  34  44
ATOM     44  C   UNL     1       5.057  -4.576   0.452  1.00  0.00     0.243 C 
ATOM     45  O   UNL     1       5.969  -5.085  -0.193  1.00  0.00    -0.273 OA
ATOM     46  N   UNL     1       5.034  -3.228   0.742  1.00  0.00    -0.341 N 
ATOM     47  H   UNL     1       4.324  -2.872   1.377  1.00  0.00     0.164 HD
BRANCH  46  48
ATOM     48  C   UNL     1       6.048  -2.284   0.265  1.00  0.00     0.196 C 
BRANCH  48  49
ATOM     49  C   UNL     1       5.410  -0.963  -0.195  1.00  0.00     0.072 C 
BRANCH  49  50
ATOM     50  C   UNL     1       5.523  -0.751  -1.688  1.00  0.00    -0.045 A 
ATOM     51  C   UNL     1       6.330  -1.604  -2.455  1.00  0.00     0.007 A 
ATOM     52  C   UNL     1       4.848   0.301  -2.320  1.00  0.00     0.007 A 
ATOM     53  C   UNL     1       6.453  -1.410  -3.831  1.00  0.00     0.046 A 
ATOM     54  C   UNL     1       4.972   0.495  -3.698  1.00  0.00     0.046 A 
ATOM     55  C   UNL     1       5.773  -0.364  -4.442  1.00  0.00     0.115 A 
BRANCH  55  56
ATOM     56  O   UNL     1       5.922  -0.208  -5.789  1.00  0.00    -0.508 OA
ATOM     57  H   UNL     1       5.070   0.075  -6.159  1.00  0.00     0.293 HD
ENDBRANCH  55  56
ENDBRANCH  49  50
ENDBRANCH  48  49
BRANCH  48  58
ATOM     58  C   UNL     1       7.044  -2.007   1.400  1.00  0.00     0.326 C 
ATOM     59  O   UNL     1       7.658  -2.829   2.061  1.00  0.00    -0.250 OA
BRANCH  58  60
ATOM     60  O   UNL     1       7.234  -0.686   1.642  1.00  0.00    -0.480 OA
ATOM     61  H   UNL     1       7.611  -0.674   2.549  1.00  0.00     0.296 HD
ENDBRANCH  58  60
ENDBRANCH  48  58
ENDBRANCH  46  48
ENDBRANCH  34  44
ENDBRANCH  32  34
ENDBRANCH  25  30
ENDBRANCH  23  25
ENDBRANCH   2  23
TORSDOF 28
ENDMDL
MODEL 7
REMARK VINA RESULT:    -5.601      2.820      6.955
REMARK INTER + INTRA:         -20.285
REMARK INTER:                 -16.273
REMARK INTRA:                  -4.012
REMARK UNBOUND:                -6.334
REMARK SMILES CCCCCCC[C@H](N)[C@H](O)C(=O)N[C@H](C)C(=O)N(C)[C@H](CC(C)C)C(=O)N[C@@H](Cc1ccc(O)cc1)C(=O)N[C@@H](Cc1ccc(O)cc1)C(=O)O
REMARK SMILES IDX 18 1 17 2 15 3 16 4 14 5 12 6 13 7 10 9 11 10 8 12 9 13 7 16
REMARK SMILES IDX 6 17 5 18 4 19 3 20 2 21 1 22 19 23 20 24 21 25 22 26 23 27
REMARK SMILES IDX 24 28 25 29 26 30 27 31 28 32 29 34 30 35 31 36 32 37 37 38
REMARK SMILES IDX 33 39 36 40 34 41 35 42 38 44 39 45 40 46 41 48 42 49 43 50
REMARK SMILES IDX 44 51 49 52 45 53 48 54 46 55 47 56 50 58 51 59 52 60
REMARK H PARENT 14 8 11 11 9 14 9 15 28 33 35 43 40 47 47 57 52 61
ROOT
ATOM      1  O   UNL     1      -4.717 -10.689   0.790  1.00  0.00    -0.272 OA
ATOM      2  C   UNL     1      -3.546 -10.500   1.150  1.00  0.00     0.245 C 
ENDROOT
BRANCH   2   3
ATOM      3  C   UNL     1      -2.737 -11.702   1.700  1.00  0.00     0.168 C 
ATOM      4  C   UNL     1      -1.692 -12.159   0.689  1.00  0.00     0.041 C 
BRANCH   3   5
ATOM      5  N   UNL     1      -2.162 -11.497   3.021  1.00  0.00    -0.342 N 
ATOM      6  C   UNL     1      -2.654 -12.140   4.137  1.00  0.00     0.251 C 
ATOM      7  O   UNL     1      -3.626 -12.888   4.113  1.00  0.00    -0.272 OA
ATOM      8  H   UNL     1      -1.374 -10.872   3.171  1.00  0.00     0.164 HD
BRANCH   6   9
ATOM      9  C   UNL     1      -1.805 -11.885   5.393  1.00  0.00     0.219 C 
BRANCH   9  10
ATOM     10  O   UNL     1      -0.830 -10.853   5.200  1.00  0.00    -0.382 OA
ATOM     11  H   UNL     1      -1.073 -10.464   4.332  1.00  0.00     0.211 HD
ENDBRANCH   9  10
BRANCH   9  12
ATOM     12  C   UNL     1      -2.658 -11.608   6.658  1.00  0.00     0.089 C 
BRANCH  12  13
ATOM     13  N   UNL     1      -1.761 -11.108   7.725  1.00  0.00    -0.325 NA
ATOM     14  H   UNL     1      -2.301 -10.537   8.378  1.00  0.00     0.119 HD
ATOM     15  H   UNL     1      -1.079 -10.467   7.312  1.00  0.00     0.119 HD
ENDBRANCH  12  13
BRANCH  12  16
ATOM     16  C   UNL     1      -3.853 -10.643   6.473  1.00  0.00     0.022 C 
BRANCH  16  17
ATOM     17  C   UNL     1      -5.228 -11.042   7.027  1.00  0.00     0.002 C 
BRANCH  17  18
ATOM     18  C   UNL     1      -6.214  -9.889   7.197  1.00  0.00     0.000 C 
BRANCH  18  19
ATOM     19  C   UNL     1      -5.547  -8.520   7.388  1.00  0.00    -0.000 C 
BRANCH  19  20
ATOM     20  C   UNL     1      -6.270  -7.573   8.350  1.00  0.00    -0.000 C 
BRANCH  20  21
ATOM     21  C   UNL     1      -5.372  -6.449   8.873  1.00  0.00    -0.003 C 
ATOM     22  C   UNL     1      -5.683  -6.121  10.325  1.00  0.00     0.004 C 
ENDBRANCH  20  21
ENDBRANCH  19  20
ENDBRANCH  18  19
ENDBRANCH  17  18
ENDBRANCH  16  17
ENDBRANCH  12  16
ENDBRANCH   9  12
ENDBRANCH   6   9
ENDBRANCH   3   5
ENDBRANCH   2   3
BRANCH   2  23
ATOM     23  N   UNL     1      -2.945  -9.263   0.944  1.00  0.00    -0.332 N 
ATOM     24  C   UNL     1      -2.966  -8.534  -0.316  1.00  0.00     0.147 C 
BRANCH  23  25
ATOM     25  C   UNL     1      -2.331  -8.527   2.084  1.00  0.00     0.174 C 
BRANCH  25  26
ATOM     26  C   UNL     1      -2.920  -7.109   2.272  1.00  0.00     0.038 C 
BRANCH  26  27
ATOM     27  C   UNL     1      -2.969  -6.558   3.715  1.00  0.00    -0.015 C 
ATOM     28  C   UNL     1      -3.035  -7.668   4.763  1.00  0.00     0.007 C 
ATOM     29  C   UNL     1      -1.836  -5.586   4.032  1.00  0.00     0.007 C 
ENDBRANCH  26  27
ENDBRANCH  25  26
BRANCH  25  30
ATOM     30  C   UNL     1      -0.790  -8.549   1.962  1.00  0.00     0.243 C 
ATOM     31  O   UNL     1      -0.116  -9.473   2.413  1.00  0.00    -0.273 OA
ATOM     32  N   UNL     1      -0.230  -7.470   1.327  1.00  0.00    -0.342 N 
ATOM     33  H   UNL     1      -0.862  -6.816   0.858  1.00  0.00     0.164 HD
BRANCH  32  34
ATOM     34  C   UNL     1       1.215  -7.309   1.146  1.00  0.00     0.175 C 
BRANCH  34  35
ATOM     35  C   UNL     1       1.599  -7.349  -0.341  1.00  0.00     0.070 C 
BRANCH  35  36
ATOM     36  C   UNL     1       1.216  -8.651  -1.009  1.00  0.00    -0.045 A 
ATOM     37  C   UNL     1       0.299  -8.651  -2.071  1.00  0.00     0.007 A 
ATOM     38  C   UNL     1       1.748  -9.869  -0.567  1.00  0.00     0.007 A 
ATOM     39  C   UNL     1      -0.071  -9.849  -2.684  1.00  0.00     0.046 A 
ATOM     40  C   UNL     1       1.378 -11.069  -1.180  1.00  0.00     0.046 A 
ATOM     41  C   UNL     1       0.471 -11.047  -2.235  1.00  0.00     0.115 A 
BRANCH  41  42
ATOM     42  O   UNL     1       0.081 -12.195  -2.859  1.00  0.00    -0.508 OA
ATOM     43  H   UNL     1      -0.776 -12.033  -3.286  1.00  0.00     0.293 HD
ENDBRANCH  41  42
ENDBRANCH  35  36
ENDBRANCH  34  35
BRANCH  34  44
ATOM     44  C   UNL     1       1.636  -5.981   1.815  1.00  0.00     0.243 C 
ATOM     45  O   UNL     1       1.995  -5.877   2.984  1.00  0.00    -0.273 OA
ATOM     46  N   UNL     1       1.449  -4.877   1.010  1.00  0.00    -0.341 N 
ATOM     47  H   UNL     1       1.039  -5.002   0.088  1.00  0.00     0.164 HD
BRANCH  46  48
ATOM     48  C   UNL     1       1.713  -3.505   1.449  1.00  0.00     0.196 C 
BRANCH  48  49
ATOM     49  C   UNL     1       2.669  -2.782   0.485  1.00  0.00     0.072 C 
BRANCH  49  50
ATOM     50  C   UNL     1       4.120  -2.934   0.883  1.00  0.00    -0.045 A 
ATOM     51  C   UNL     1       4.451  -3.291   2.198  1.00  0.00     0.007 A 
ATOM     52  C   UNL     1       5.148  -2.701  -0.040  1.00  0.00     0.007 A 
ATOM     53  C   UNL     1       5.786  -3.421   2.579  1.00  0.00     0.046 A 
ATOM     54  C   UNL     1       6.485  -2.830   0.343  1.00  0.00     0.046 A 
ATOM     55  C   UNL     1       6.793  -3.190   1.650  1.00  0.00     0.115 A 
BRANCH  55  56
ATOM     56  O   UNL     1       8.085  -3.326   2.063  1.00  0.00    -0.508 OA
ATOM     57  H   UNL     1       8.300  -2.579   2.645  1.00  0.00     0.293 HD
ENDBRANCH  55  56
ENDBRANCH  49  50
ENDBRANCH  48  49
BRANCH  48  58
ATOM     58  C   UNL     1       0.384  -2.741   1.526  1.00  0.00     0.326 C 
ATOM     59  O   UNL     1      -0.562  -2.975   2.260  1.00  0.00    -0.250 OA
BRANCH  58  60
ATOM     60  O   UNL     1       0.313  -1.691   0.669  1.00  0.00    -0.480 OA
ATOM     61  H   UNL     1       0.753  -0.966   1.164  1.00  0.00     0.296 HD
ENDBRANCH  58  60
ENDBRANCH  48  58
ENDBRANCH  46  48
ENDBRANCH  34  44
ENDBRANCH  32  34
ENDBRANCH  25  30
ENDBRANCH  23  25
ENDBRANCH   2  23
TORSDOF 28
ENDMDL
MODEL 8
REMARK VINA RESULT:    -5.585      2.291      6.685
REMARK INTER + INTRA:         -20.245
REMARK INTER:                 -13.842
REMARK INTRA:                  -6.403
REMARK UNBOUND:                -6.334
REMARK SMILES CCCCCCC[C@H](N)[C@H](O)C(=O)N[C@H](C)C(=O)N(C)[C@H](CC(C)C)C(=O)N[C@@H](Cc1ccc(O)cc1)C(=O)N[C@@H](Cc1ccc(O)cc1)C(=O)O
REMARK SMILES IDX 18 1 17 2 15 3 16 4 14 5 12 6 13 7 10 9 11 10 8 12 9 13 7 16
REMARK SMILES IDX 6 17 5 18 4 19 3 20 2 21 1 22 19 23 20 24 21 25 22 26 23 27
REMARK SMILES IDX 24 28 25 29 26 30 27 31 28 32 29 34 30 35 31 36 32 37 37 38
REMARK SMILES IDX 33 39 36 40 34 41 35 42 38 44 39 45 40 46 41 48 42 49 43 50
REMARK SMILES IDX 44 51 49 52 45 53 48 54 46 55 47 56 50 58 51 59 52 60
REMARK H PARENT 14 8 11 11 9 14 9 15 28 33 35 43 40 47 47 57 52 61
ROOT
ATOM      1  O   UNL     1       2.587  -5.970   2.019  1.00  0.00    -0.272 OA
ATOM      2  C   UNL     1       1.768  -6.898   2.096  1.00  0.00     0.245 C 
ENDROOT
BRANCH   2   3
ATOM      3  C   UNL     1       1.653  -7.885   0.907  1.00  0.00     0.168 C 
ATOM      4  C   UNL     1       2.623  -9.050   1.074  1.00  0.00     0.041 C 
BRANCH   3   5
ATOM      5  N   UNL     1       0.302  -8.341   0.620  1.00  0.00    -0.342 N 
ATOM      6  C   UNL     1      -0.188  -8.402  -0.667  1.00  0.00     0.251 C 
ATOM      7  O   UNL     1       0.450  -8.043  -1.651  1.00  0.00    -0.272 OA
ATOM      8  H   UNL     1      -0.334  -8.632   1.359  1.00  0.00     0.164 HD
BRANCH   6   9
ATOM      9  C   UNL     1      -1.581  -9.047  -0.743  1.00  0.00     0.219 C 
BRANCH   9  10
ATOM     10  O   UNL     1      -1.526 -10.477  -0.807  1.00  0.00    -0.382 OA
ATOM     11  H   UNL     1      -1.630 -10.669  -1.765  1.00  0.00     0.211 HD
ENDBRANCH   9  10
BRANCH   9  12
ATOM     12  C   UNL     1      -2.529  -8.582   0.393  1.00  0.00     0.089 C 
BRANCH  12  13
ATOM     13  N   UNL     1      -2.911  -7.175   0.137  1.00  0.00    -0.325 NA
ATOM     14  H   UNL     1      -3.711  -6.931   0.725  1.00  0.00     0.119 HD
ATOM     15  H   UNL     1      -3.252  -7.094  -0.824  1.00  0.00     0.119 HD
ENDBRANCH  12  13
BRANCH  12  16
ATOM     16  C   UNL     1      -3.795  -9.445   0.614  1.00  0.00     0.022 C 
BRANCH  16  17
ATOM     17  C   UNL     1      -4.492  -9.412   1.981  1.00  0.00     0.002 C 
BRANCH  17  18
ATOM     18  C   UNL     1      -4.321 -10.675   2.823  1.00  0.00     0.000 C 
BRANCH  18  19
ATOM     19  C   UNL     1      -3.215 -10.576   3.881  1.00  0.00    -0.000 C 
BRANCH  19  20
ATOM     20  C   UNL     1      -3.700 -10.597   5.333  1.00  0.00    -0.000 C 
BRANCH  20  21
ATOM     21  C   UNL     1      -2.591 -10.943   6.331  1.00  0.00    -0.003 C 
ATOM     22  C   UNL     1      -1.219 -10.587   5.781  1.00  0.00     0.004 C 
ENDBRANCH  20  21
ENDBRANCH  19  20
ENDBRANCH  18  19
ENDBRANCH  17  18
ENDBRANCH  16  17
ENDBRANCH  12  16
ENDBRANCH   9  12
ENDBRANCH   6   9
ENDBRANCH   3   5
ENDBRANCH   2   3
BRANCH   2  23
ATOM     23  N   UNL     1       1.064  -7.109   3.277  1.00  0.00    -0.332 N 
ATOM     24  C   UNL     1       1.536  -7.926   4.385  1.00  0.00     0.147 C 
BRANCH  23  25
ATOM     25  C   UNL     1      -0.207  -6.379   3.534  1.00  0.00     0.174 C 
BRANCH  25  26
ATOM     26  C   UNL     1      -1.417  -7.324   3.721  1.00  0.00     0.038 C 
BRANCH  26  27
ATOM     27  C   UNL     1      -2.275  -7.121   4.990  1.00  0.00    -0.015 C 
ATOM     28  C   UNL     1      -1.767  -5.972   5.861  1.00  0.00     0.007 C 
ATOM     29  C   UNL     1      -3.764  -6.954   4.696  1.00  0.00     0.007 C 
ENDBRANCH  26  27
ENDBRANCH  25  26
BRANCH  25  30
ATOM     30  C   UNL     1      -0.426  -5.295   2.453  1.00  0.00     0.243 C 
ATOM     31  O   UNL     1      -1.025  -5.534   1.405  1.00  0.00    -0.273 OA
ATOM     32  N   UNL     1       0.094  -4.059   2.738  1.00  0.00    -0.342 N 
ATOM     33  H   UNL     1       0.451  -3.902   3.685  1.00  0.00     0.164 HD
BRANCH  32  34
ATOM     34  C   UNL     1       0.006  -2.921   1.820  1.00  0.00     0.175 C 
BRANCH  34  35
ATOM     35  C   UNL     1      -1.143  -1.977   2.209  1.00  0.00     0.070 C 
BRANCH  35  36
ATOM     36  C   UNL     1      -1.268  -1.794   3.705  1.00  0.00    -0.045 A 
ATOM     37  C   UNL     1      -0.357  -0.976   4.390  1.00  0.00     0.007 A 
ATOM     38  C   UNL     1      -2.273  -2.450   4.428  1.00  0.00     0.007 A 
ATOM     39  C   UNL     1      -0.456  -0.811   5.772  1.00  0.00     0.046 A 
ATOM     40  C   UNL     1      -2.372  -2.287   5.812  1.00  0.00     0.046 A 
ATOM     41  C   UNL     1      -1.463  -1.467   6.471  1.00  0.00     0.115 A 
BRANCH  41  42
ATOM     42  O   UNL     1      -1.523  -1.282   7.821  1.00  0.00    -0.508 OA
ATOM     43  H   UNL     1      -2.166  -1.912   8.186  1.00  0.00     0.293 HD
ENDBRANCH  41  42
ENDBRANCH  35  36
ENDBRANCH  34  35
BRANCH  34  44
ATOM     44  C   UNL     1       1.372  -2.198   1.821  1.00  0.00     0.243 C 
ATOM     45  O   UNL     1       1.563  -1.076   1.360  1.00  0.00    -0.273 OA
ATOM     46  N   UNL     1       2.408  -2.985   2.275  1.00  0.00    -0.341 N 
ATOM     47  H   UNL     1       2.219  -3.949   2.538  1.00  0.00     0.164 HD
BRANCH  46  48
ATOM     48  C   UNL     1       3.804  -2.541   2.305  1.00  0.00     0.196 C 
BRANCH  48  49
ATOM     49  C   UNL     1       4.621  -3.331   3.341  1.00  0.00     0.072 C 
BRANCH  49  50
ATOM     50  C   UNL     1       3.886  -3.506   4.650  1.00  0.00    -0.045 A 
ATOM     51  C   UNL     1       3.654  -4.794   5.155  1.00  0.00     0.007 A 
ATOM     52  C   UNL     1       3.411  -2.399   5.364  1.00  0.00     0.007 A 
ATOM     53  C   UNL     1       2.965  -4.969   6.355  1.00  0.00     0.046 A 
ATOM     54  C   UNL     1       2.720  -2.574   6.566  1.00  0.00     0.046 A 
ATOM     55  C   UNL     1       2.504  -3.858   7.051  1.00  0.00     0.115 A 
BRANCH  55  56
ATOM     56  O   UNL     1       1.834  -4.072   8.220  1.00  0.00    -0.508 OA
ATOM     57  H   UNL     1       2.269  -4.799   8.693  1.00  0.00     0.293 HD
ENDBRANCH  55  56
ENDBRANCH  49  50
ENDBRANCH  48  49
BRANCH  48  58
ATOM     58  C   UNL     1       4.418  -2.732   0.911  1.00  0.00     0.326 C 
ATOM     59  O   UNL     1       4.912  -3.750   0.454  1.00  0.00    -0.250 OA
BRANCH  58  60
ATOM     60  O   UNL     1       4.367  -1.617   0.140  1.00  0.00    -0.480 OA
ATOM     61  H   UNL     1       3.419  -1.363   0.171  1.00  0.00     0.296 HD
ENDBRANCH  58  60
ENDBRANCH  48  58
ENDBRANCH  46  48
ENDBRANCH  34  44
ENDBRANCH  32  34
ENDBRANCH  25  30
ENDBRANCH  23  25
ENDBRANCH   2  23
TORSDOF 28
ENDMDL
MODEL 9
REMARK VINA RESULT:    -5.558      5.721     11.387
REMARK INTER + INTRA:         -20.178
REMARK INTER:                 -15.290
REMARK INTRA:                  -4.888
REMARK UNBOUND:                -6.334
REMARK SMILES CCCCCCC[C@H](N)[C@H](O)C(=O)N[C@H](C)C(=O)N(C)[C@H](CC(C)C)C(=O)N[C@@H](Cc1ccc(O)cc1)C(=O)N[C@@H](Cc1ccc(O)cc1)C(=O)O
REMARK SMILES IDX 18 1 17 2 15 3 16 4 14 5 12 6 13 7 10 9 11 10 8 12 9 13 7 16
REMARK SMILES IDX 6 17 5 18 4 19 3 20 2 21 1 22 19 23 20 24 21 25 22 26 23 27
REMARK SMILES IDX 24 28 25 29 26 30 27 31 28 32 29 34 30 35 31 36 32 37 37 38
REMARK SMILES IDX 33 39 36 40 34 41 35 42 38 44 39 45 40 46 41 48 42 49 43 50
REMARK SMILES IDX 44 51 49 52 45 53 48 54 46 55 47 56 50 58 51 59 52 60
REMARK H PARENT 14 8 11 11 9 14 9 15 28 33 35 43 40 47 47 57 52 61
ROOT
ATOM      1  O   UNL     1      -4.856  -2.945   7.152  1.00  0.00    -0.272 OA
ATOM      2  C   UNL     1      -4.723  -3.170   8.364  1.00  0.00     0.245 C 
ENDROOT
BRANCH   2   3
ATOM      3  C   UNL     1      -5.881  -2.789   9.320  1.00  0.00     0.168 C 
ATOM      4  C   UNL     1      -6.020  -1.274   9.426  1.00  0.00     0.041 C 
BRANCH   3   5
ATOM      5  N   UNL     1      -7.153  -3.431   9.025  1.00  0.00    -0.342 N 
ATOM      6  C   UNL     1      -7.558  -4.576   9.676  1.00  0.00     0.251 C 
ATOM      7  O   UNL     1      -6.873  -5.159  10.510  1.00  0.00    -0.272 OA
ATOM      8  H   UNL     1      -7.791  -3.059   8.326  1.00  0.00     0.164 HD
BRANCH   6   9
ATOM      9  C   UNL     1      -8.991  -4.994   9.308  1.00  0.00     0.219 C 
BRANCH   9  10
ATOM     10  O   UNL     1      -9.894  -3.882   9.256  1.00  0.00    -0.382 OA
ATOM     11  H   UNL     1     -10.774  -4.293   9.403  1.00  0.00     0.211 HD
ENDBRANCH   9  10
BRANCH   9  12
ATOM     12  C   UNL     1      -9.066  -5.826   8.001  1.00  0.00     0.089 C 
BRANCH  12  13
ATOM     13  N   UNL     1      -7.779  -5.687   7.284  1.00  0.00    -0.325 NA
ATOM     14  H   UNL     1      -7.448  -6.612   7.004  1.00  0.00     0.119 HD
ATOM     15  H   UNL     1      -7.073  -5.336   7.935  1.00  0.00     0.119 HD
ENDBRANCH  12  13
BRANCH  12  16
ATOM     16  C   UNL     1      -9.421  -7.323   8.171  1.00  0.00     0.022 C 
BRANCH  16  17
ATOM     17  C   UNL     1     -10.840  -7.797   7.828  1.00  0.00     0.002 C 
BRANCH  17  18
ATOM     18  C   UNL     1     -10.924  -9.201   7.234  1.00  0.00     0.000 C 
BRANCH  18  19
ATOM     19  C   UNL     1     -12.337  -9.800   7.243  1.00  0.00    -0.000 C 
BRANCH  19  20
ATOM     20  C   UNL     1     -12.700 -10.591   8.503  1.00  0.00    -0.000 C 
BRANCH  20  21
ATOM     21  C   UNL     1     -13.994 -10.108   9.164  1.00  0.00    -0.003 C 
ATOM     22  C   UNL     1     -13.900  -8.643   9.561  1.00  0.00     0.004 C 
ENDBRANCH  20  21
ENDBRANCH  19  20
ENDBRANCH  18  19
ENDBRANCH  17  18
ENDBRANCH  16  17
ENDBRANCH  12  16
ENDBRANCH   9  12
ENDBRANCH   6   9
ENDBRANCH   3   5
ENDBRANCH   2   3
BRANCH   2  23
ATOM     23  N   UNL     1      -3.607  -3.861   8.825  1.00  0.00    -0.332 N 
ATOM     24  C   UNL     1      -3.630  -4.845   9.897  1.00  0.00     0.147 C 
BRANCH  23  25
ATOM     25  C   UNL     1      -2.296  -3.718   8.134  1.00  0.00     0.174 C 
BRANCH  25  26
ATOM     26  C   UNL     1      -1.749  -2.272   8.175  1.00  0.00     0.038 C 
BRANCH  26  27
ATOM     27  C   UNL     1      -0.835  -1.903   9.365  1.00  0.00    -0.015 C 
ATOM     28  C   UNL     1      -0.334  -3.134  10.121  1.00  0.00     0.007 C 
ATOM     29  C   UNL     1       0.333  -1.000   8.977  1.00  0.00     0.007 C 
ENDBRANCH  26  27
ENDBRANCH  25  26
BRANCH  25  30
ATOM     30  C   UNL     1      -2.379  -4.311   6.709  1.00  0.00     0.243 C 
ATOM     31  O   UNL     1      -1.991  -3.687   5.722  1.00  0.00    -0.273 OA
ATOM     32  N   UNL     1      -2.916  -5.569   6.620  1.00  0.00    -0.342 N 
ATOM     33  H   UNL     1      -3.083  -6.076   7.493  1.00  0.00     0.164 HD
BRANCH  32  34
ATOM     34  C   UNL     1      -3.097  -6.275   5.348  1.00  0.00     0.175 C 
BRANCH  34  35
ATOM     35  C   UNL     1      -1.939  -7.249   5.081  1.00  0.00     0.070 C 
BRANCH  35  36
ATOM     36  C   UNL     1      -1.680  -7.458   3.605  1.00  0.00    -0.045 A 
ATOM     37  C   UNL     1      -2.573  -6.938   2.656  1.00  0.00     0.007 A 
ATOM     38  C   UNL     1      -0.567  -8.187   3.167  1.00  0.00     0.007 A 
ATOM     39  C   UNL     1      -2.350  -7.138   1.293  1.00  0.00     0.046 A 
ATOM     40  C   UNL     1      -0.344  -8.389   1.803  1.00  0.00     0.046 A 
ATOM     41  C   UNL     1      -1.238  -7.860   0.878  1.00  0.00     0.115 A 
BRANCH  41  42
ATOM     42  O   UNL     1      -1.058  -8.035  -0.463  1.00  0.00    -0.508 OA
ATOM     43  H   UNL     1      -0.239  -8.540  -0.597  1.00  0.00     0.293 HD
ENDBRANCH  41  42
ENDBRANCH  35  36
ENDBRANCH  34  35
BRANCH  34  44
ATOM     44  C   UNL     1      -4.462  -7.000   5.393  1.00  0.00     0.243 C 
ATOM     45  O   UNL     1      -5.503  -6.548   4.925  1.00  0.00    -0.273 OA
ATOM     46  N   UNL     1      -4.441  -8.164   6.132  1.00  0.00    -0.341 N 
ATOM     47  H   UNL     1      -3.580  -8.437   6.599  1.00  0.00     0.164 HD
BRANCH  46  48
ATOM     48  C   UNL     1      -5.629  -8.986   6.373  1.00  0.00     0.196 C 
BRANCH  48  49
ATOM     49  C   UNL     1      -5.389 -10.449   5.964  1.00  0.00     0.072 C 
BRANCH  49  50
ATOM     50  C   UNL     1      -4.660 -10.572   4.645  1.00  0.00    -0.045 A 
ATOM     51  C   UNL     1      -5.285 -10.160   3.459  1.00  0.00     0.007 A 
ATOM     52  C   UNL     1      -3.369 -11.114   4.583  1.00  0.00     0.007 A 
ATOM     53  C   UNL     1      -4.627 -10.281   2.235  1.00  0.00     0.046 A 
ATOM     54  C   UNL     1      -2.711 -11.236   3.357  1.00  0.00     0.046 A 
ATOM     55  C   UNL     1      -3.346 -10.817   2.193  1.00  0.00     0.115 A 
BRANCH  55  56
ATOM     56  O   UNL     1      -2.738 -10.920   0.977  1.00  0.00    -0.508 OA
ATOM     57  H   UNL     1      -2.687 -10.034   0.584  1.00  0.00     0.293 HD
ENDBRANCH  55  56
ENDBRANCH  49  50
ENDBRANCH  48  49
BRANCH  48  58
ATOM     58  C   UNL     1      -5.987  -8.921   7.864  1.00  0.00     0.326 C 
ATOM     59  O   UNL     1      -6.467  -9.810   8.548  1.00  0.00    -0.250 OA
BRANCH  58  60
ATOM     60  O   UNL     1      -5.704  -7.724   8.437  1.00  0.00    -0.480 OA
ATOM     61  H   UNL     1      -6.434  -7.604   9.082  1.00  0.00     0.296 HD
ENDBRANCH  58  60
ENDBRANCH  48  58
ENDBRANCH  46  48
ENDBRANCH  34  44
ENDBRANCH  32  34
ENDBRANCH  25  30
ENDBRANCH  23  25
ENDBRANCH   2  23
TORSDOF 28
ENDMDL
MODEL 10
REMARK VINA RESULT:    -5.418      7.724     11.575
REMARK INTER + INTRA:         -19.828
REMARK INTER:                 -14.116
REMARK INTRA:                  -5.712
REMARK UNBOUND:                -6.334
REMARK SMILES CCCCCCC[C@H](N)[C@H](O)C(=O)N[C@H](C)C(=O)N(C)[C@H](CC(C)C)C(=O)N[C@@H](Cc1ccc(O)cc1)C(=O)N[C@@H](Cc1ccc(O)cc1)C(=O)O
REMARK SMILES IDX 18 1 17 2 15 3 16 4 14 5 12 6 13 7 10 9 11 10 8 12 9 13 7 16
REMARK SMILES IDX 6 17 5 18 4 19 3 20 2 21 1 22 19 23 20 24 21 25 22 26 23 27
REMARK SMILES IDX 24 28 25 29 26 30 27 31 28 32 29 34 30 35 31 36 32 37 37 38
REMARK SMILES IDX 33 39 36 40 34 41 35 42 38 44 39 45 40 46 41 48 42 49 43 50
REMARK SMILES IDX 44 51 49 52 45 53 48 54 46 55 47 56 50 58 51 59 52 60
REMARK H PARENT 14 8 11 11 9 14 9 15 28 33 35 43 40 47 47 57 52 61
ROOT
ATOM      1  O   UNL     1       8.613  -0.025  -0.300  1.00  0.00    -0.272 OA
ATOM      2  C   UNL     1       9.187  -0.632  -1.217  1.00  0.00     0.245 C 
ENDROOT
BRANCH   2   3
ATOM      3  C   UNL     1      10.624  -0.201  -1.604  1.00  0.00     0.168 C 
ATOM      4  C   UNL     1      11.554  -1.407  -1.663  1.00  0.00     0.041 C 
BRANCH   3   5
ATOM      5  N   UNL     1      10.714   0.613  -2.807  1.00  0.00    -0.342 N 
ATOM      6  C   UNL     1      11.601   1.663  -2.910  1.00  0.00     0.251 C 
ATOM      7  O   UNL     1      12.341   2.016  -1.998  1.00  0.00    -0.272 OA
ATOM      8  H   UNL     1      10.126   0.438  -3.618  1.00  0.00     0.164 HD
BRANCH   6   9
ATOM      9  C   UNL     1      11.623   2.287  -4.315  1.00  0.00     0.219 C 
BRANCH   9  10
ATOM     10  O   UNL     1      11.572   1.304  -5.357  1.00  0.00    -0.382 OA
ATOM     11  H   UNL     1      12.378   0.763  -5.203  1.00  0.00     0.211 HD
ENDBRANCH   9  10
BRANCH   9  12
ATOM     12  C   UNL     1      10.527   3.364  -4.520  1.00  0.00     0.089 C 
BRANCH  12  13
ATOM     13  N   UNL     1       9.244   2.679  -4.799  1.00  0.00    -0.325 NA
ATOM     14  H   UNL     1       8.594   2.858  -4.032  1.00  0.00     0.119 HD
ATOM     15  H   UNL     1       9.400   1.668  -4.787  1.00  0.00     0.119 HD
ENDBRANCH  12  13
BRANCH  12  16
ATOM     16  C   UNL     1      10.348   4.378  -3.365  1.00  0.00     0.022 C 
BRANCH  16  17
ATOM     17  C   UNL     1       9.059   4.341  -2.532  1.00  0.00     0.002 C 
BRANCH  17  18
ATOM     18  C   UNL     1       8.604   5.693  -1.988  1.00  0.00     0.000 C 
BRANCH  18  19
ATOM     19  C   UNL     1       8.518   5.754  -0.457  1.00  0.00    -0.000 C 
BRANCH  19  20
ATOM     20  C   UNL     1       8.626   4.403   0.255  1.00  0.00    -0.000 C 
BRANCH  20  21
ATOM     21  C   UNL     1       7.945   4.391   1.626  1.00  0.00    -0.003 C 
ATOM     22  C   UNL     1       7.322   5.741   1.947  1.00  0.00     0.004 C 
ENDBRANCH  20  21
ENDBRANCH  19  20
ENDBRANCH  18  19
ENDBRANCH  17  18
ENDBRANCH  16  17
ENDBRANCH  12  16
ENDBRANCH   9  12
ENDBRANCH   6   9
ENDBRANCH   3   5
ENDBRANCH   2   3
BRANCH   2  23
ATOM     23  N   UNL     1       8.592  -1.750  -1.791  1.00  0.00    -0.332 N 
ATOM     24  C   UNL     1       8.072  -1.803  -3.149  1.00  0.00     0.147 C 
BRANCH  23  25
ATOM     25  C   UNL     1       8.567  -3.046  -1.060  1.00  0.00     0.174 C 
BRANCH  25  26
ATOM     26  C   UNL     1       9.073  -4.231  -1.916  1.00  0.00     0.038 C 
BRANCH  26  27
ATOM     27  C   UNL     1      10.390  -4.905  -1.469  1.00  0.00    -0.015 C 
ATOM     28  C   UNL     1      10.599  -4.834   0.044  1.00  0.00     0.007 C 
ATOM     29  C   UNL     1      10.534  -6.342  -1.963  1.00  0.00     0.007 C 
ENDBRANCH  26  27
ENDBRANCH  25  26
BRANCH  25  30
ATOM     30  C   UNL     1       7.170  -3.280  -0.439  1.00  0.00     0.243 C 
ATOM     31  O   UNL     1       6.451  -4.214  -0.790  1.00  0.00    -0.273 OA
ATOM     32  N   UNL     1       6.788  -2.376   0.518  1.00  0.00    -0.342 N 
ATOM     33  H   UNL     1       7.493  -1.716   0.855  1.00  0.00     0.164 HD
BRANCH  32  34
ATOM     34  C   UNL     1       5.488  -2.426   1.194  1.00  0.00     0.175 C 
BRANCH  34  35
ATOM     35  C   UNL     1       5.652  -2.655   2.704  1.00  0.00     0.070 C 
BRANCH  35  36
ATOM     36  C   UNL     1       4.590  -3.566   3.276  1.00  0.00    -0.045 A 
ATOM     37  C   UNL     1       4.553  -3.823   4.655  1.00  0.00     0.007 A 
ATOM     38  C   UNL     1       3.647  -4.183   2.443  1.00  0.00     0.007 A 
ATOM     39  C   UNL     1       3.585  -4.673   5.190  1.00  0.00     0.046 A 
ATOM     40  C   UNL     1       2.678  -5.035   2.978  1.00  0.00     0.046 A 
ATOM     41  C   UNL     1       2.656  -5.272   4.349  1.00  0.00     0.115 A 
BRANCH  41  42
ATOM     42  O   UNL     1       1.728  -6.098   4.911  1.00  0.00    -0.508 OA
ATOM     43  H   UNL     1       1.662  -6.899   4.364  1.00  0.00     0.293 HD
ENDBRANCH  41  42
ENDBRANCH  35  36
ENDBRANCH  34  35
BRANCH  34  44
ATOM     44  C   UNL     1       4.739  -1.110   0.888  1.00  0.00     0.243 C 
ATOM     45  O   UNL     1       3.574  -0.885   1.203  1.00  0.00    -0.273 OA
ATOM     46  N   UNL     1       5.461  -0.238   0.101  1.00  0.00    -0.341 N 
ATOM     47  H   UNL     1       6.379  -0.519  -0.234  1.00  0.00     0.164 HD
BRANCH  46  48
ATOM     48  C   UNL     1       4.934   1.043  -0.376  1.00  0.00     0.196 C 
BRANCH  48  49
ATOM     49  C   UNL     1       6.059   1.955  -0.892  1.00  0.00     0.072 C 
BRANCH  49  50
ATOM     50  C   UNL     1       5.548   3.290  -1.383  1.00  0.00    -0.045 A 
ATOM     51  C   UNL     1       4.968   4.191  -0.478  1.00  0.00     0.007 A 
ATOM     52  C   UNL     1       5.624   3.638  -2.737  1.00  0.00     0.007 A 
ATOM     53  C   UNL     1       4.480   5.421  -0.921  1.00  0.00     0.046 A 
ATOM     54  C   UNL     1       5.134   4.869  -3.181  1.00  0.00     0.046 A 
ATOM     55  C   UNL     1       4.567   5.751  -2.268  1.00  0.00     0.115 A 
BRANCH  55  56
ATOM     56  O   UNL     1       4.077   6.961  -2.660  1.00  0.00    -0.508 OA
ATOM     57  H   UNL     1       4.226   7.057  -3.614  1.00  0.00     0.293 HD
ENDBRANCH  55  56
ENDBRANCH  49  50
ENDBRANCH  48  49
BRANCH  48  58
ATOM     58  C   UNL     1       3.926   0.780  -1.503  1.00  0.00     0.326 C 
ATOM     59  O   UNL     1       2.738   1.060  -1.513  1.00  0.00    -0.250 OA
BRANCH  58  60
ATOM     60  O   UNL     1       4.474   0.180  -2.590  1.00  0.00    -0.480 OA
ATOM     61  H   UNL     1       3.736  -0.361  -2.946  1.00  0.00     0.296 HD
ENDBRANCH  58  60
ENDBRANCH  48  58
ENDBRANCH  46  48
ENDBRANCH  34  44
ENDBRANCH  32  34
ENDBRANCH  25  30
ENDBRANCH  23  25
ENDBRANCH   2  23
TORSDOF 28
ENDMDL
