MODEL 1
REMARK VINA RESULT:    -6.516      0.000      0.000
REMARK INTER + INTRA:         -20.538
REMARK INTER:                 -16.229
REMARK INTRA:                  -4.309
REMARK UNBOUND:                -4.309
REMARK SMILES CCCCCCC[C@H](N)[C@H](O)C(=O)N[C@H](C)C(=O)N(C)[C@H](CC(C)C)C(=O)N[C@@H](Cc1ccc(O)cc1)C(=O)N[C@@H](Cc1ccc(O)cc1)C(=O)O
REMARK SMILES IDX 18 1 17 2 15 3 16 4 14 5 12 6 13 7 10 9 11 10 8 12 9 13 7 16
REMARK SMILES IDX 6 17 5 18 4 19 3 20 2 21 1 22 19 23 20 24 21 25 22 26 23 27
REMARK SMILES IDX 24 28 25 29 26 30 27 31 28 32 29 34 30 35 31 36 32 37 37 38
REMARK SMILES IDX 33 39 36 40 34 41 35 42 38 44 39 45 40 46 41 48 42 49 43 50
REMARK SMILES IDX 44 51 49 52 45 53 48 54 46 55 47 56 50 58 51 59 52 60
REMARK H PARENT 14 8 11 11 9 14 9 15 28 33 35 43 40 47 47 57 52 61
ROOT
ATOM      1  O   UNL     1      -9.200  -3.612   3.431  1.00  0.00    -0.272 OA
ATOM      2  C   UNL     1     -10.328  -3.166   3.175  1.00  0.00     0.245 C 
ENDROOT
BRANCH   2   3
ATOM      3  C   UNL     1     -10.446  -1.952   2.220  1.00  0.00     0.168 C 
ATOM      4  C   UNL     1      -9.226  -1.046   2.342  1.00  0.00     0.041 C 
BRANCH   3   5
ATOM      5  N   UNL     1     -10.734  -2.291   0.835  1.00  0.00    -0.342 N 
ATOM      6  C   UNL     1     -11.890  -1.875   0.209  1.00  0.00     0.251 C 
ATOM      7  O   UNL     1     -12.771  -1.235   0.772  1.00  0.00    -0.272 OA
ATOM      8  H   UNL     1     -10.092  -2.848   0.275  1.00  0.00     0.164 HD
BRANCH   6   9
ATOM      9  C   UNL     1     -11.914  -2.226  -1.288  1.00  0.00     0.219 C 
BRANCH   9  10
ATOM     10  O   UNL     1     -10.646  -2.688  -1.768  1.00  0.00    -0.382 OA
ATOM     11  H   UNL     1     -10.867  -3.130  -2.616  1.00  0.00     0.211 HD
ENDBRANCH   9  10
BRANCH   9  12
ATOM     12  C   UNL     1     -13.041  -3.223  -1.661  1.00  0.00     0.089 C 
BRANCH  12  13
ATOM     13  N   UNL     1     -14.343  -2.532  -1.519  1.00  0.00    -0.325 NA
ATOM     14  H   UNL     1     -14.180  -1.534  -1.372  1.00  0.00     0.119 HD
ATOM     15  H   UNL     1     -14.798  -2.856  -0.662  1.00  0.00     0.119 HD
ENDBRANCH  12  13
BRANCH  12  16
ATOM     16  C   UNL     1     -12.935  -3.873  -3.062  1.00  0.00     0.022 C 
BRANCH  16  17
ATOM     17  C   UNL     1     -13.129  -5.390  -3.198  1.00  0.00     0.002 C 
BRANCH  17  18
ATOM     18  C   UNL     1     -11.866  -6.172  -3.552  1.00  0.00     0.000 C 
BRANCH  18  19
ATOM     19  C   UNL     1     -10.777  -6.121  -2.473  1.00  0.00    -0.000 C 
BRANCH  19  20
ATOM     20  C   UNL     1      -9.765  -7.270  -2.515  1.00  0.00    -0.000 C 
BRANCH  20  21
ATOM     21  C   UNL     1     -10.303  -8.516  -3.223  1.00  0.00    -0.003 C 
ATOM     22  C   UNL     1     -11.133  -9.375  -2.281  1.00  0.00     0.004 C 
ENDBRANCH  20  21
ENDBRANCH  19  20
ENDBRANCH  18  19
ENDBRANCH  17  18
ENDBRANCH  16  17
ENDBRANCH  12  16
ENDBRANCH   9  12
ENDBRANCH   6   9
ENDBRANCH   3   5
ENDBRANCH   2   3
BRANCH   2  23
ATOM     23  N   UNL     1     -11.459  -3.826   3.643  1.00  0.00    -0.332 N 
ATOM     24  C   UNL     1     -12.790  -3.241   3.706  1.00  0.00     0.147 C 
BRANCH  23  25
ATOM     25  C   UNL     1     -11.392  -5.269   4.003  1.00  0.00     0.174 C 
BRANCH  25  26
ATOM     26  C   UNL     1     -12.093  -6.181   2.968  1.00  0.00     0.038 C 
BRANCH  26  27
ATOM     27  C   UNL     1     -11.248  -6.650   1.762  1.00  0.00    -0.015 C 
ATOM     28  C   UNL     1      -9.806  -6.975   2.150  1.00  0.00     0.007 C 
ATOM     29  C   UNL     1     -11.874  -7.814   0.998  1.00  0.00     0.007 C 
ENDBRANCH  26  27
ENDBRANCH  25  26
BRANCH  25  30
ATOM     30  C   UNL     1     -11.885  -5.480   5.452  1.00  0.00     0.243 C 
ATOM     31  O   UNL     1     -12.995  -5.950   5.699  1.00  0.00    -0.273 OA
ATOM     32  N   UNL     1     -11.009  -5.105   6.438  1.00  0.00    -0.342 N 
ATOM     33  H   UNL     1     -10.057  -4.857   6.156  1.00  0.00     0.164 HD
BRANCH  32  34
ATOM     34  C   UNL     1     -11.318  -5.207   7.867  1.00  0.00     0.175 C 
BRANCH  34  35
ATOM     35  C   UNL     1     -10.834  -6.544   8.449  1.00  0.00     0.070 C 
BRANCH  35  36
ATOM     36  C   UNL     1     -11.939  -7.320   9.129  1.00  0.00    -0.045 A 
ATOM     37  C   UNL     1     -11.629  -8.446   9.908  1.00  0.00     0.007 A 
ATOM     38  C   UNL     1     -13.280  -6.947   8.974  1.00  0.00     0.007 A 
ATOM     39  C   UNL     1     -12.643  -9.176  10.528  1.00  0.00     0.046 A 
ATOM     40  C   UNL     1     -14.296  -7.679   9.594  1.00  0.00     0.046 A 
ATOM     41  C   UNL     1     -13.967  -8.787  10.367  1.00  0.00     0.115 A 
BRANCH  41  42
ATOM     42  O   UNL     1     -14.928  -9.530  10.987  1.00  0.00    -0.508 OA
ATOM     43  H   UNL     1     -14.489 -10.238  11.488  1.00  0.00     0.293 HD
ENDBRANCH  41  42
ENDBRANCH  35  36
ENDBRANCH  34  35
BRANCH  34  44
ATOM     44  C   UNL     1     -10.675  -3.998   8.583  1.00  0.00     0.243 C 
ATOM     45  O   UNL     1     -10.311  -4.000   9.756  1.00  0.00    -0.273 OA
ATOM     46  N   UNL     1     -10.660  -2.851   7.818  1.00  0.00    -0.341 N 
ATOM     47  H   UNL     1     -11.080  -2.870   6.892  1.00  0.00     0.164 HD
BRANCH  46  48
ATOM     48  C   UNL     1     -10.162  -1.563   8.307  1.00  0.00     0.196 C 
BRANCH  48  49
ATOM     49  C   UNL     1      -9.474  -0.767   7.186  1.00  0.00     0.072 C 
BRANCH  49  50
ATOM     50  C   UNL     1      -8.053  -1.221   6.938  1.00  0.00    -0.045 A 
ATOM     51  C   UNL     1      -7.565  -1.307   5.626  1.00  0.00     0.007 A 
ATOM     52  C   UNL     1      -7.215  -1.580   8.002  1.00  0.00     0.007 A 
ATOM     53  C   UNL     1      -6.260  -1.737   5.385  1.00  0.00     0.046 A 
ATOM     54  C   UNL     1      -5.909  -2.012   7.760  1.00  0.00     0.046 A 
ATOM     55  C   UNL     1      -5.442  -2.086   6.453  1.00  0.00     0.115 A 
BRANCH  55  56
ATOM     56  O   UNL     1      -4.174  -2.503   6.174  1.00  0.00    -0.508 OA
ATOM     57  H   UNL     1      -4.068  -2.535   5.210  1.00  0.00     0.293 HD
ENDBRANCH  55  56
ENDBRANCH  49  50
ENDBRANCH  48  49
BRANCH  48  58
ATOM     58  C   UNL     1     -11.340  -0.753   8.865  1.00  0.00     0.326 C 
ATOM     59  O   UNL     1     -11.924  -0.930   9.922  1.00  0.00    -0.250 OA
BRANCH  58  60
ATOM     60  O   UNL     1     -11.724   0.270   8.060  1.00  0.00    -0.480 OA
ATOM     61  H   UNL     1     -11.719   1.046   8.662  1.00  0.00     0.296 HD
ENDBRANCH  58  60
ENDBRANCH  48  58
ENDBRANCH  46  48
ENDBRANCH  34  44
ENDBRANCH  32  34
ENDBRANCH  25  30
ENDBRANCH  23  25
ENDBRANCH   2  23
TORSDOF 28
ENDMDL
MODEL 2
REMARK VINA RESULT:    -6.453      2.753      5.585
REMARK INTER + INTRA:         -20.382
REMARK INTER:                 -15.097
REMARK INTRA:                  -5.284
REMARK UNBOUND:                -4.309
REMARK SMILES CCCCCCC[C@H](N)[C@H](O)C(=O)N[C@H](C)C(=O)N(C)[C@H](CC(C)C)C(=O)N[C@@H](Cc1ccc(O)cc1)C(=O)N[C@@H](Cc1ccc(O)cc1)C(=O)O
REMARK SMILES IDX 18 1 17 2 15 3 16 4 14 5 12 6 13 7 10 9 11 10 8 12 9 13 7 16
REMARK SMILES IDX 6 17 5 18 4 19 3 20 2 21 1 22 19 23 20 24 21 25 22 26 23 27
REMARK SMILES IDX 24 28 25 29 26 30 27 31 28 32 29 34 30 35 31 36 32 37 37 38
REMARK SMILES IDX 33 39 36 40 34 41 35 42 38 44 39 45 40 46 41 48 42 49 43 50
REMARK SMILES IDX 44 51 49 52 45 53 48 54 46 55 47 56 50 58 51 59 52 60
REMARK H PARENT 14 8 11 11 9 14 9 15 28 33 35 43 40 47 47 57 52 61
ROOT
ATOM      1  O   UNL     1      -6.893  -8.637   1.082  1.00  0.00    -0.272 OA
ATOM      2  C   UNL     1      -7.779  -7.885   0.649  1.00  0.00     0.245 C 
ENDROOT
BRANCH   2   3
ATOM      3  C   UNL     1      -7.633  -7.318  -0.785  1.00  0.00     0.168 C 
ATOM      4  C   UNL     1      -6.262  -7.653  -1.363  1.00  0.00     0.041 C 
BRANCH   3   5
ATOM      5  N   UNL     1      -8.708  -7.677  -1.696  1.00  0.00    -0.342 N 
ATOM      6  C   UNL     1      -9.326  -6.741  -2.498  1.00  0.00     0.251 C 
ATOM      7  O   UNL     1      -9.052  -5.546  -2.477  1.00  0.00    -0.272 OA
ATOM      8  H   UNL     1      -9.046  -8.634  -1.776  1.00  0.00     0.164 HD
BRANCH   6   9
ATOM      9  C   UNL     1     -10.330  -7.369  -3.479  1.00  0.00     0.219 C 
BRANCH   9  10
ATOM     10  O   UNL     1      -9.730  -8.352  -4.331  1.00  0.00    -0.382 OA
ATOM     11  H   UNL     1      -9.717  -7.917  -5.212  1.00  0.00     0.211 HD
ENDBRANCH   9  10
BRANCH   9  12
ATOM     12  C   UNL     1     -11.589  -7.942  -2.778  1.00  0.00     0.089 C 
BRANCH  12  13
ATOM     13  N   UNL     1     -11.339  -9.367  -2.460  1.00  0.00    -0.325 NA
ATOM     14  H   UNL     1     -10.738  -9.426  -1.636  1.00  0.00     0.119 HD
ATOM     15  H   UNL     1     -10.794  -9.784  -3.218  1.00  0.00     0.119 HD
ENDBRANCH  12  13
BRANCH  12  16
ATOM     16  C   UNL     1     -12.061  -7.190  -1.511  1.00  0.00     0.022 C 
BRANCH  16  17
ATOM     17  C   UNL     1     -13.092  -6.061  -1.653  1.00  0.00     0.002 C 
BRANCH  17  18
ATOM     18  C   UNL     1     -12.585  -4.813  -2.372  1.00  0.00     0.000 C 
BRANCH  18  19
ATOM     19  C   UNL     1     -13.292  -3.518  -1.949  1.00  0.00    -0.000 C 
BRANCH  19  20
ATOM     20  C   UNL     1     -13.485  -3.346  -0.440  1.00  0.00    -0.000 C 
BRANCH  20  21
ATOM     21  C   UNL     1     -13.506  -1.879  -0.002  1.00  0.00    -0.003 C 
ATOM     22  C   UNL     1     -12.179  -1.194  -0.291  1.00  0.00     0.004 C 
ENDBRANCH  20  21
ENDBRANCH  19  20
ENDBRANCH  18  19
ENDBRANCH  17  18
ENDBRANCH  16  17
ENDBRANCH  12  16
ENDBRANCH   9  12
ENDBRANCH   6   9
ENDBRANCH   3   5
ENDBRANCH   2   3
BRANCH   2  23
ATOM     23  N   UNL     1      -8.930  -7.664   1.397  1.00  0.00    -0.332 N 
ATOM     24  C   UNL     1     -10.121  -8.498   1.346  1.00  0.00     0.147 C 
BRANCH  23  25
ATOM     25  C   UNL     1      -8.962  -6.589   2.427  1.00  0.00     0.174 C 
BRANCH  25  26
ATOM     26  C   UNL     1      -9.388  -7.104   3.822  1.00  0.00     0.038 C 
BRANCH  26  27
ATOM     27  C   UNL     1      -8.440  -6.793   5.002  1.00  0.00    -0.015 C 
ATOM     28  C   UNL     1      -7.007  -6.524   4.545  1.00  0.00     0.007 C 
ATOM     29  C   UNL     1      -8.938  -5.664   5.900  1.00  0.00     0.007 C 
ENDBRANCH  26  27
ENDBRANCH  25  26
BRANCH  25  30
ATOM     30  C   UNL     1      -9.802  -5.393   1.922  1.00  0.00     0.243 C 
ATOM     31  O   UNL     1     -10.092  -5.258   0.734  1.00  0.00    -0.273 OA
ATOM     32  N   UNL     1     -10.193  -4.496   2.882  1.00  0.00    -0.342 N 
ATOM     33  H   UNL     1     -10.036  -4.751   3.861  1.00  0.00     0.164 HD
BRANCH  32  34
ATOM     34  C   UNL     1     -10.971  -3.290   2.584  1.00  0.00     0.175 C 
BRANCH  34  35
ATOM     35  C   UNL     1     -12.379  -3.369   3.192  1.00  0.00     0.070 C 
BRANCH  35  36
ATOM     36  C   UNL     1     -12.378  -3.921   4.600  1.00  0.00    -0.045 A 
ATOM     37  C   UNL     1     -12.763  -5.251   4.832  1.00  0.00     0.007 A 
ATOM     38  C   UNL     1     -12.019  -3.116   5.688  1.00  0.00     0.007 A 
ATOM     39  C   UNL     1     -12.779  -5.766   6.128  1.00  0.00     0.046 A 
ATOM     40  C   UNL     1     -12.036  -3.631   6.987  1.00  0.00     0.046 A 
ATOM     41  C   UNL     1     -12.415  -4.953   7.195  1.00  0.00     0.115 A 
BRANCH  41  42
ATOM     42  O   UNL     1     -12.446  -5.493   8.446  1.00  0.00    -0.508 OA
ATOM     43  H   UNL     1     -12.037  -6.374   8.408  1.00  0.00     0.293 HD
ENDBRANCH  41  42
ENDBRANCH  35  36
ENDBRANCH  34  35
BRANCH  34  44
ATOM     44  C   UNL     1     -10.182  -2.070   3.109  1.00  0.00     0.243 C 
ATOM     45  O   UNL     1     -10.338  -0.919   2.711  1.00  0.00    -0.273 OA
ATOM     46  N   UNL     1      -9.175  -2.405   3.990  1.00  0.00    -0.341 N 
ATOM     47  H   UNL     1      -9.009  -3.386   4.200  1.00  0.00     0.164 HD
BRANCH  46  48
ATOM     48  C   UNL     1      -8.252  -1.426   4.568  1.00  0.00     0.196 C 
BRANCH  48  49
ATOM     49  C   UNL     1      -7.732  -1.889   5.940  1.00  0.00     0.072 C 
BRANCH  49  50
ATOM     50  C   UNL     1      -8.490  -1.265   7.090  1.00  0.00    -0.045 A 
ATOM     51  C   UNL     1      -9.609  -0.459   6.834  1.00  0.00     0.007 A 
ATOM     52  C   UNL     1      -8.079  -1.461   8.414  1.00  0.00     0.007 A 
ATOM     53  C   UNL     1     -10.308   0.132   7.886  1.00  0.00     0.046 A 
ATOM     54  C   UNL     1      -8.778  -0.868   9.468  1.00  0.00     0.046 A 
ATOM     55  C   UNL     1      -9.888  -0.076   9.194  1.00  0.00     0.115 A 
BRANCH  55  56
ATOM     56  O   UNL     1     -10.598   0.521  10.194  1.00  0.00    -0.508 OA
ATOM     57  H   UNL     1     -11.475   0.109  10.235  1.00  0.00     0.293 HD
ENDBRANCH  55  56
ENDBRANCH  49  50
ENDBRANCH  48  49
BRANCH  48  58
ATOM     58  C   UNL     1      -7.069  -1.229   3.609  1.00  0.00     0.326 C 
ATOM     59  O   UNL     1      -7.038  -0.530   2.609  1.00  0.00    -0.250 OA
BRANCH  58  60
ATOM     60  O   UNL     1      -5.959  -1.920   3.970  1.00  0.00    -0.480 OA
ATOM     61  H   UNL     1      -5.569  -1.367   4.681  1.00  0.00     0.296 HD
ENDBRANCH  58  60
ENDBRANCH  48  58
ENDBRANCH  46  48
ENDBRANCH  34  44
ENDBRANCH  32  34
ENDBRANCH  25  30
ENDBRANCH  23  25
ENDBRANCH   2  23
TORSDOF 28
ENDMDL
MODEL 3
REMARK VINA RESULT:    -6.295      2.226      3.978
REMARK INTER + INTRA:         -19.988
REMARK INTER:                 -14.678
REMARK INTRA:                  -5.310
REMARK UNBOUND:                -4.309
REMARK SMILES CCCCCCC[C@H](N)[C@H](O)C(=O)N[C@H](C)C(=O)N(C)[C@H](CC(C)C)C(=O)N[C@@H](Cc1ccc(O)cc1)C(=O)N[C@@H](Cc1ccc(O)cc1)C(=O)O
REMARK SMILES IDX 18 1 17 2 15 3 16 4 14 5 12 6 13 7 10 9 11 10 8 12 9 13 7 16
REMARK SMILES IDX 6 17 5 18 4 19 3 20 2 21 1 22 19 23 20 24 21 25 22 26 23 27
REMARK SMILES IDX 24 28 25 29 26 30 27 31 28 32 29 34 30 35 31 36 32 37 37 38
REMARK SMILES IDX 33 39 36 40 34 41 35 42 38 44 39 45 40 46 41 48 42 49 43 50
REMARK SMILES IDX 44 51 49 52 45 53 48 54 46 55 47 56 50 58 51 59 52 60
REMARK H PARENT 14 8 11 11 9 14 9 15 28 33 35 43 40 47 47 57 52 61
ROOT
ATOM      1  O   UNL     1     -13.333  -2.334   1.191  1.00  0.00    -0.272 OA
ATOM      2  C   UNL     1     -12.394  -3.110   0.957  1.00  0.00     0.245 C 
ENDROOT
BRANCH   2   3
ATOM      3  C   UNL     1     -11.872  -3.225  -0.497  1.00  0.00     0.168 C 
ATOM      4  C   UNL     1     -10.421  -2.767  -0.590  1.00  0.00     0.041 C 
BRANCH   3   5
ATOM      5  N   UNL     1     -12.071  -4.526  -1.117  1.00  0.00    -0.342 N 
ATOM      6  C   UNL     1     -12.481  -4.653  -2.427  1.00  0.00     0.251 C 
ATOM      7  O   UNL     1     -12.747  -3.697  -3.149  1.00  0.00    -0.272 OA
ATOM      8  H   UNL     1     -11.916  -5.392  -0.607  1.00  0.00     0.164 HD
BRANCH   6   9
ATOM      9  C   UNL     1     -12.486  -6.112  -2.910  1.00  0.00     0.219 C 
BRANCH   9  10
ATOM     10  O   UNL     1     -13.429  -6.343  -3.964  1.00  0.00    -0.382 OA
ATOM     11  H   UNL     1     -13.705  -7.275  -3.827  1.00  0.00     0.211 HD
ENDBRANCH   9  10
BRANCH   9  12
ATOM     12  C   UNL     1     -11.078  -6.627  -3.308  1.00  0.00     0.089 C 
BRANCH  12  13
ATOM     13  N   UNL     1     -10.080  -5.602  -2.924  1.00  0.00    -0.325 NA
ATOM     14  H   UNL     1     -10.022  -4.897  -3.661  1.00  0.00     0.119 HD
ATOM     15  H   UNL     1      -9.155  -6.035  -2.896  1.00  0.00     0.119 HD
ENDBRANCH  12  13
BRANCH  12  16
ATOM     16  C   UNL     1     -10.672  -8.005  -2.733  1.00  0.00     0.022 C 
BRANCH  16  17
ATOM     17  C   UNL     1     -11.561  -8.661  -1.668  1.00  0.00     0.002 C 
BRANCH  17  18
ATOM     18  C   UNL     1     -11.300  -8.198  -0.236  1.00  0.00     0.000 C 
BRANCH  18  19
ATOM     19  C   UNL     1      -9.813  -8.030   0.104  1.00  0.00    -0.000 C 
BRANCH  19  20
ATOM     20  C   UNL     1      -9.411  -8.495   1.507  1.00  0.00    -0.000 C 
BRANCH  20  21
ATOM     21  C   UNL     1      -8.847  -9.917   1.529  1.00  0.00    -0.003 C 
ATOM     22  C   UNL     1      -8.189 -10.233   2.863  1.00  0.00     0.004 C 
ENDBRANCH  20  21
ENDBRANCH  19  20
ENDBRANCH  18  19
ENDBRANCH  17  18
ENDBRANCH  16  17
ENDBRANCH  12  16
ENDBRANCH   9  12
ENDBRANCH   6   9
ENDBRANCH   3   5
ENDBRANCH   2   3
BRANCH   2  23
ATOM     23  N   UNL     1     -11.754  -3.763   2.005  1.00  0.00    -0.332 N 
ATOM     24  C   UNL     1     -11.306  -5.147   1.965  1.00  0.00     0.147 C 
BRANCH  23  25
ATOM     25  C   UNL     1     -11.362  -3.013   3.229  1.00  0.00     0.174 C 
BRANCH  25  26
ATOM     26  C   UNL     1      -9.863  -3.168   3.577  1.00  0.00     0.038 C 
BRANCH  26  27
ATOM     27  C   UNL     1      -8.855  -2.413   2.683  1.00  0.00    -0.015 C 
ATOM     28  C   UNL     1      -8.228  -1.213   3.394  1.00  0.00     0.007 C 
ATOM     29  C   UNL     1      -7.773  -3.313   2.093  1.00  0.00     0.007 C 
ENDBRANCH  26  27
ENDBRANCH  25  26
BRANCH  25  30
ATOM     30  C   UNL     1     -12.311  -3.368   4.397  1.00  0.00     0.243 C 
ATOM     31  O   UNL     1     -13.514  -3.113   4.357  1.00  0.00    -0.273 OA
ATOM     32  N   UNL     1     -11.723  -3.977   5.475  1.00  0.00    -0.342 N 
ATOM     33  H   UNL     1     -10.752  -4.282   5.375  1.00  0.00     0.164 HD
BRANCH  32  34
ATOM     34  C   UNL     1     -12.462  -4.360   6.681  1.00  0.00     0.175 C 
BRANCH  34  35
ATOM     35  C   UNL     1     -12.411  -5.878   6.909  1.00  0.00     0.070 C 
BRANCH  35  36
ATOM     36  C   UNL     1     -11.052  -6.470   6.609  1.00  0.00    -0.045 A 
ATOM     37  C   UNL     1     -10.626  -6.611   5.280  1.00  0.00     0.007 A 
ATOM     38  C   UNL     1     -10.213  -6.904   7.644  1.00  0.00     0.007 A 
ATOM     39  C   UNL     1      -9.380  -7.168   4.993  1.00  0.00     0.046 A 
ATOM     40  C   UNL     1      -8.965  -7.463   7.357  1.00  0.00     0.046 A 
ATOM     41  C   UNL     1      -8.560  -7.589   6.033  1.00  0.00     0.115 A 
BRANCH  41  42
ATOM     42  O   UNL     1      -7.351  -8.130   5.709  1.00  0.00    -0.508 OA
ATOM     43  H   UNL     1      -6.943  -7.578   5.022  1.00  0.00     0.293 HD
ENDBRANCH  41  42
ENDBRANCH  35  36
ENDBRANCH  34  35
BRANCH  34  44
ATOM     44  C   UNL     1     -11.870  -3.577   7.875  1.00  0.00     0.243 C 
ATOM     45  O   UNL     1     -12.260  -3.679   9.034  1.00  0.00    -0.273 OA
ATOM     46  N   UNL     1     -10.932  -2.637   7.503  1.00  0.00    -0.341 N 
ATOM     47  H   UNL     1     -10.727  -2.508   6.515  1.00  0.00     0.164 HD
BRANCH  46  48
ATOM     48  C   UNL     1     -10.282  -1.728   8.450  1.00  0.00     0.196 C 
BRANCH  48  49
ATOM     49  C   UNL     1      -8.941  -2.298   8.942  1.00  0.00     0.072 C 
BRANCH  49  50
ATOM     50  C   UNL     1      -8.002  -2.638   7.808  1.00  0.00    -0.045 A 
ATOM     51  C   UNL     1      -6.941  -1.776   7.496  1.00  0.00     0.007 A 
ATOM     52  C   UNL     1      -8.186  -3.798   7.043  1.00  0.00     0.007 A 
ATOM     53  C   UNL     1      -6.076  -2.073   6.442  1.00  0.00     0.046 A 
ATOM     54  C   UNL     1      -7.320  -4.094   5.988  1.00  0.00     0.046 A 
ATOM     55  C   UNL     1      -6.271  -3.229   5.697  1.00  0.00     0.115 A 
BRANCH  55  56
ATOM     56  O   UNL     1      -5.405  -3.482   4.675  1.00  0.00    -0.508 OA
ATOM     57  H   UNL     1      -4.499  -3.391   5.012  1.00  0.00     0.293 HD
ENDBRANCH  55  56
ENDBRANCH  49  50
ENDBRANCH  48  49
BRANCH  48  58
ATOM     58  C   UNL     1     -10.046  -0.376   7.763  1.00  0.00     0.326 C 
ATOM     59  O   UNL     1     -10.043   0.727   8.285  1.00  0.00    -0.250 OA
BRANCH  58  60
ATOM     60  O   UNL     1      -9.806  -0.480   6.432  1.00  0.00    -0.480 OA
ATOM     61  H   UNL     1      -9.960  -1.432   6.248  1.00  0.00     0.296 HD
ENDBRANCH  58  60
ENDBRANCH  48  58
ENDBRANCH  46  48
ENDBRANCH  34  44
ENDBRANCH  32  34
ENDBRANCH  25  30
ENDBRANCH  23  25
ENDBRANCH   2  23
TORSDOF 28
ENDMDL
MODEL 4
REMARK VINA RESULT:    -6.138      2.920      5.454
REMARK INTER + INTRA:         -19.598
REMARK INTER:                 -15.245
REMARK INTRA:                  -4.354
REMARK UNBOUND:                -4.309
REMARK SMILES CCCCCCC[C@H](N)[C@H](O)C(=O)N[C@H](C)C(=O)N(C)[C@H](CC(C)C)C(=O)N[C@@H](Cc1ccc(O)cc1)C(=O)N[C@@H](Cc1ccc(O)cc1)C(=O)O
REMARK SMILES IDX 18 1 17 2 15 3 16 4 14 5 12 6 13 7 10 9 11 10 8 12 9 13 7 16
REMARK SMILES IDX 6 17 5 18 4 19 3 20 2 21 1 22 19 23 20 24 21 25 22 26 23 27
REMARK SMILES IDX 24 28 25 29 26 30 27 31 28 32 29 34 30 35 31 36 32 37 37 38
REMARK SMILES IDX 33 39 36 40 34 41 35 42 38 44 39 45 40 46 41 48 42 49 43 50
REMARK SMILES IDX 44 51 49 52 45 53 48 54 46 55 47 56 50 58 51 59 52 60
REMARK H PARENT 14 8 11 11 9 14 9 15 28 33 35 43 40 47 47 57 52 61
ROOT
ATOM      1  O   UNL     1     -12.419  -6.622   0.311  1.00  0.00    -0.272 OA
ATOM      2  C   UNL     1     -11.949  -5.988  -0.645  1.00  0.00     0.245 C 
ENDROOT
BRANCH   2   3
ATOM      3  C   UNL     1     -12.180  -6.529  -2.078  1.00  0.00     0.168 C 
ATOM      4  C   UNL     1     -12.980  -5.533  -2.910  1.00  0.00     0.041 C 
BRANCH   3   5
ATOM      5  N   UNL     1     -10.977  -6.968  -2.767  1.00  0.00    -0.342 N 
ATOM      6  C   UNL     1     -10.725  -8.301  -3.015  1.00  0.00     0.251 C 
ATOM      7  O   UNL     1     -11.462  -9.209  -2.644  1.00  0.00    -0.272 OA
ATOM      8  H   UNL     1     -10.274  -6.308  -3.092  1.00  0.00     0.164 HD
BRANCH   6   9
ATOM      9  C   UNL     1      -9.472  -8.519  -3.878  1.00  0.00     0.219 C 
BRANCH   9  10
ATOM     10  O   UNL     1      -9.548  -7.848  -5.142  1.00  0.00    -0.382 OA
ATOM     11  H   UNL     1      -9.626  -6.900  -4.896  1.00  0.00     0.211 HD
ENDBRANCH   9  10
BRANCH   9  12
ATOM     12  C   UNL     1      -8.155  -8.159  -3.141  1.00  0.00     0.089 C 
BRANCH  12  13
ATOM     13  N   UNL     1      -8.036  -6.684  -3.093  1.00  0.00    -0.325 NA
ATOM     14  H   UNL     1      -7.148  -6.433  -2.653  1.00  0.00     0.119 HD
ATOM     15  H   UNL     1      -8.756  -6.314  -2.468  1.00  0.00     0.119 HD
ENDBRANCH  12  13
BRANCH  12  16
ATOM     16  C   UNL     1      -7.988  -8.753  -1.722  1.00  0.00     0.022 C 
BRANCH  16  17
ATOM     17  C   UNL     1      -8.237  -7.855  -0.502  1.00  0.00     0.002 C 
BRANCH  17  18
ATOM     18  C   UNL     1      -9.322  -8.351   0.451  1.00  0.00     0.000 C 
BRANCH  18  19
ATOM     19  C   UNL     1      -8.781  -9.075   1.691  1.00  0.00    -0.000 C 
BRANCH  19  20
ATOM     20  C   UNL     1      -8.732 -10.602   1.582  1.00  0.00    -0.000 C 
BRANCH  20  21
ATOM     21  C   UNL     1      -7.355 -11.129   1.168  1.00  0.00    -0.003 C 
ATOM     22  C   UNL     1      -6.487 -11.425   2.380  1.00  0.00     0.004 C 
ENDBRANCH  20  21
ENDBRANCH  19  20
ENDBRANCH  18  19
ENDBRANCH  17  18
ENDBRANCH  16  17
ENDBRANCH  12  16
ENDBRANCH   9  12
ENDBRANCH   6   9
ENDBRANCH   3   5
ENDBRANCH   2   3
BRANCH   2  23
ATOM     23  N   UNL     1     -11.337  -4.758  -0.430  1.00  0.00    -0.332 N 
ATOM     24  C   UNL     1      -9.942  -4.466  -0.726  1.00  0.00     0.147 C 
BRANCH  23  25
ATOM     25  C   UNL     1     -12.141  -3.586   0.014  1.00  0.00     0.174 C 
BRANCH  25  26
ATOM     26  C   UNL     1     -11.838  -2.305  -0.797  1.00  0.00     0.038 C 
BRANCH  26  27
ATOM     27  C   UNL     1     -12.990  -1.726  -1.649  1.00  0.00    -0.015 C 
ATOM     28  C   UNL     1     -13.369  -0.306  -1.232  1.00  0.00     0.007 C 
ATOM     29  C   UNL     1     -12.726  -1.793  -3.151  1.00  0.00     0.007 C 
ENDBRANCH  26  27
ENDBRANCH  25  26
BRANCH  25  30
ATOM     30  C   UNL     1     -12.009  -3.400   1.543  1.00  0.00     0.243 C 
ATOM     31  O   UNL     1     -11.952  -2.285   2.060  1.00  0.00    -0.273 OA
ATOM     32  N   UNL     1     -11.953  -4.556   2.279  1.00  0.00    -0.342 N 
ATOM     33  H   UNL     1     -12.148  -5.435   1.795  1.00  0.00     0.164 HD
BRANCH  32  34
ATOM     34  C   UNL     1     -11.801  -4.571   3.737  1.00  0.00     0.175 C 
BRANCH  34  35
ATOM     35  C   UNL     1     -12.069  -5.971   4.311  1.00  0.00     0.070 C 
BRANCH  35  36
ATOM     36  C   UNL     1     -11.883  -6.033   5.810  1.00  0.00    -0.045 A 
ATOM     37  C   UNL     1     -12.790  -5.378   6.658  1.00  0.00     0.007 A 
ATOM     38  C   UNL     1     -10.799  -6.720   6.372  1.00  0.00     0.007 A 
ATOM     39  C   UNL     1     -12.618  -5.419   8.042  1.00  0.00     0.046 A 
ATOM     40  C   UNL     1     -10.626  -6.759   7.758  1.00  0.00     0.046 A 
ATOM     41  C   UNL     1     -11.539  -6.109   8.581  1.00  0.00     0.115 A 
BRANCH  41  42
ATOM     42  O   UNL     1     -11.406  -6.121   9.938  1.00  0.00    -0.508 OA
ATOM     43  H   UNL     1     -11.648  -5.242  10.276  1.00  0.00     0.293 HD
ENDBRANCH  41  42
ENDBRANCH  35  36
ENDBRANCH  34  35
BRANCH  34  44
ATOM     44  C   UNL     1     -10.378  -4.071   4.075  1.00  0.00     0.243 C 
ATOM     45  O   UNL     1      -9.349  -4.700   3.846  1.00  0.00    -0.273 OA
ATOM     46  N   UNL     1     -10.367  -2.891   4.788  1.00  0.00    -0.341 N 
ATOM     47  H   UNL     1     -11.251  -2.467   5.056  1.00  0.00     0.164 HD
BRANCH  46  48
ATOM     48  C   UNL     1      -9.141  -2.259   5.280  1.00  0.00     0.196 C 
BRANCH  48  49
ATOM     49  C   UNL     1      -8.869  -0.928   4.558  1.00  0.00     0.072 C 
BRANCH  49  50
ATOM     50  C   UNL     1      -7.893  -1.075   3.414  1.00  0.00    -0.045 A 
ATOM     51  C   UNL     1      -7.979  -0.218   2.307  1.00  0.00     0.007 A 
ATOM     52  C   UNL     1      -6.910  -2.073   3.428  1.00  0.00     0.007 A 
ATOM     53  C   UNL     1      -7.092  -0.353   1.239  1.00  0.00     0.046 A 
ATOM     54  C   UNL     1      -6.022  -2.209   2.358  1.00  0.00     0.046 A 
ATOM     55  C   UNL     1      -6.120  -1.346   1.272  1.00  0.00     0.115 A 
BRANCH  55  56
ATOM     56  O   UNL     1      -5.274  -1.445   0.208  1.00  0.00    -0.508 OA
ATOM     57  H   UNL     1      -5.764  -1.208  -0.596  1.00  0.00     0.293 HD
ENDBRANCH  55  56
ENDBRANCH  49  50
ENDBRANCH  48  49
BRANCH  48  58
ATOM     58  C   UNL     1      -9.278  -2.009   6.788  1.00  0.00     0.326 C 
ATOM     59  O   UNL     1      -9.992  -2.608   7.575  1.00  0.00    -0.250 OA
BRANCH  58  60
ATOM     60  O   UNL     1      -8.484  -1.007   7.245  1.00  0.00    -0.480 OA
ATOM     61  H   UNL     1      -8.317  -1.259   8.179  1.00  0.00     0.296 HD
ENDBRANCH  58  60
ENDBRANCH  48  58
ENDBRANCH  46  48
ENDBRANCH  34  44
ENDBRANCH  32  34
ENDBRANCH  25  30
ENDBRANCH  23  25
ENDBRANCH   2  23
TORSDOF 28
ENDMDL
MODEL 5
REMARK VINA RESULT:    -6.138      3.689      8.765
REMARK INTER + INTRA:         -19.596
REMARK INTER:                 -15.209
REMARK INTRA:                  -4.387
REMARK UNBOUND:                -4.309
REMARK SMILES CCCCCCC[C@H](N)[C@H](O)C(=O)N[C@H](C)C(=O)N(C)[C@H](CC(C)C)C(=O)N[C@@H](Cc1ccc(O)cc1)C(=O)N[C@@H](Cc1ccc(O)cc1)C(=O)O
REMARK SMILES IDX 18 1 17 2 15 3 16 4 14 5 12 6 13 7 10 9 11 10 8 12 9 13 7 16
REMARK SMILES IDX 6 17 5 18 4 19 3 20 2 21 1 22 19 23 20 24 21 25 22 26 23 27
REMARK SMILES IDX 24 28 25 29 26 30 27 31 28 32 29 34 30 35 31 36 32 37 37 38
REMARK SMILES IDX 33 39 36 40 34 41 35 42 38 44 39 45 40 46 41 48 42 49 43 50
REMARK SMILES IDX 44 51 49 52 45 53 48 54 46 55 47 56 50 58 51 59 52 60
REMARK H PARENT 14 8 11 11 9 14 9 15 28 33 35 43 40 47 47 57 52 61
ROOT
ATOM      1  O   UNL     1      -9.479  -5.074   1.695  1.00  0.00    -0.272 OA
ATOM      2  C   UNL     1     -10.101  -5.740   2.536  1.00  0.00     0.245 C 
ENDROOT
BRANCH   2   3
ATOM      3  C   UNL     1     -10.856  -7.009   2.065  1.00  0.00     0.168 C 
ATOM      4  C   UNL     1     -12.277  -6.664   1.634  1.00  0.00     0.041 C 
BRANCH   3   5
ATOM      5  N   UNL     1     -10.160  -7.796   1.060  1.00  0.00    -0.342 N 
ATOM      6  C   UNL     1      -9.200  -8.726   1.399  1.00  0.00     0.251 C 
ATOM      7  O   UNL     1      -8.833  -8.929   2.552  1.00  0.00    -0.272 OA
ATOM      8  H   UNL     1     -10.355  -7.691   0.067  1.00  0.00     0.164 HD
BRANCH   6   9
ATOM      9  C   UNL     1      -8.704  -9.537   0.191  1.00  0.00     0.219 C 
BRANCH   9  10
ATOM     10  O   UNL     1      -9.571  -9.423  -0.944  1.00  0.00    -0.382 OA
ATOM     11  H   UNL     1     -10.470  -9.502  -0.556  1.00  0.00     0.211 HD
ENDBRANCH   9  10
BRANCH   9  12
ATOM     12  C   UNL     1      -7.239  -9.212  -0.200  1.00  0.00     0.089 C 
BRANCH  12  13
ATOM     13  N   UNL     1      -6.856  -7.933   0.440  1.00  0.00    -0.325 NA
ATOM     14  H   UNL     1      -7.635  -7.596   1.010  1.00  0.00     0.119 HD
ATOM     15  H   UNL     1      -6.731  -7.224  -0.285  1.00  0.00     0.119 HD
ENDBRANCH  12  13
BRANCH  12  16
ATOM     16  C   UNL     1      -6.192 -10.304   0.126  1.00  0.00     0.022 C 
BRANCH  16  17
ATOM     17  C   UNL     1      -6.663 -11.633   0.731  1.00  0.00     0.002 C 
BRANCH  17  18
ATOM     18  C   UNL     1      -6.275 -12.877  -0.065  1.00  0.00     0.000 C 
BRANCH  18  19
ATOM     19  C   UNL     1      -4.789 -13.246   0.037  1.00  0.00    -0.000 C 
BRANCH  19  20
ATOM     20  C   UNL     1      -4.298 -13.580   1.448  1.00  0.00    -0.000 C 
BRANCH  20  21
ATOM     21  C   UNL     1      -4.918 -14.862   2.011  1.00  0.00    -0.003 C 
ATOM     22  C   UNL     1      -5.582 -14.612   3.356  1.00  0.00     0.004 C 
ENDBRANCH  20  21
ENDBRANCH  19  20
ENDBRANCH  18  19
ENDBRANCH  17  18
ENDBRANCH  16  17
ENDBRANCH  12  16
ENDBRANCH   9  12
ENDBRANCH   6   9
ENDBRANCH   3   5
ENDBRANCH   2   3
BRANCH   2  23
ATOM     23  N   UNL     1     -10.013  -5.414   3.885  1.00  0.00    -0.332 N 
ATOM     24  C   UNL     1      -8.891  -5.757   4.746  1.00  0.00     0.147 C 
BRANCH  23  25
ATOM     25  C   UNL     1     -11.049  -4.551   4.518  1.00  0.00     0.174 C 
BRANCH  25  26
ATOM     26  C   UNL     1     -12.275  -5.351   5.018  1.00  0.00     0.038 C 
BRANCH  26  27
ATOM     27  C   UNL     1     -12.723  -5.106   6.476  1.00  0.00    -0.015 C 
ATOM     28  C   UNL     1     -12.417  -6.293   7.389  1.00  0.00     0.007 C 
ATOM     29  C   UNL     1     -12.170  -3.814   7.072  1.00  0.00     0.007 C 
ENDBRANCH  26  27
ENDBRANCH  25  26
BRANCH  25  30
ATOM     30  C   UNL     1     -11.412  -3.379   3.578  1.00  0.00     0.243 C 
ATOM     31  O   UNL     1     -12.573  -3.153   3.240  1.00  0.00    -0.273 OA
ATOM     32  N   UNL     1     -10.358  -2.618   3.144  1.00  0.00    -0.342 N 
ATOM     33  H   UNL     1      -9.446  -2.780   3.578  1.00  0.00     0.164 HD
BRANCH  32  34
ATOM     34  C   UNL     1     -10.511  -1.484   2.228  1.00  0.00     0.175 C 
BRANCH  34  35
ATOM     35  C   UNL     1      -9.352  -0.487   2.375  1.00  0.00     0.070 C 
BRANCH  35  36
ATOM     36  C   UNL     1      -8.409  -0.847   3.501  1.00  0.00    -0.045 A 
ATOM     37  C   UNL     1      -8.873  -0.870   4.825  1.00  0.00     0.007 A 
ATOM     38  C   UNL     1      -7.063  -1.139   3.246  1.00  0.00     0.007 A 
ATOM     39  C   UNL     1      -8.008  -1.188   5.872  1.00  0.00     0.046 A 
ATOM     40  C   UNL     1      -6.195  -1.456   4.293  1.00  0.00     0.046 A 
ATOM     41  C   UNL     1      -6.677  -1.479   5.598  1.00  0.00     0.115 A 
BRANCH  41  42
ATOM     42  O   UNL     1      -5.863  -1.782   6.650  1.00  0.00    -0.508 OA
ATOM     43  H   UNL     1      -6.205  -2.585   7.077  1.00  0.00     0.293 HD
ENDBRANCH  41  42
ENDBRANCH  35  36
ENDBRANCH  34  35
BRANCH  34  44
ATOM     44  C   UNL     1     -10.614  -2.041   0.790  1.00  0.00     0.243 C 
ATOM     45  O   UNL     1      -9.649  -2.298   0.075  1.00  0.00    -0.273 OA
ATOM     46  N   UNL     1     -11.908  -2.107   0.318  1.00  0.00    -0.341 N 
ATOM     47  H   UNL     1     -12.666  -1.772   0.908  1.00  0.00     0.164 HD
BRANCH  46  48
ATOM     48  C   UNL     1     -12.250  -2.538  -1.039  1.00  0.00     0.196 C 
BRANCH  48  49
ATOM     49  C   UNL     1     -13.090  -3.826  -1.023  1.00  0.00     0.072 C 
BRANCH  49  50
ATOM     50  C   UNL     1     -12.396  -4.983  -1.704  1.00  0.00    -0.045 A 
ATOM     51  C   UNL     1     -13.147  -5.925  -2.421  1.00  0.00     0.007 A 
ATOM     52  C   UNL     1     -11.007  -5.144  -1.614  1.00  0.00     0.007 A 
ATOM     53  C   UNL     1     -12.519  -7.004  -3.043  1.00  0.00     0.046 A 
ATOM     54  C   UNL     1     -10.378  -6.225  -2.236  1.00  0.00     0.046 A 
ATOM     55  C   UNL     1     -11.140  -7.146  -2.947  1.00  0.00     0.115 A 
BRANCH  55  56
ATOM     56  O   UNL     1     -10.565  -8.215  -3.567  1.00  0.00    -0.508 OA
ATOM     57  H   UNL     1     -11.089  -8.430  -4.355  1.00  0.00     0.293 HD
ENDBRANCH  55  56
ENDBRANCH  49  50
ENDBRANCH  48  49
BRANCH  48  58
ATOM     58  C   UNL     1     -13.036  -1.419  -1.735  1.00  0.00     0.326 C 
ATOM     59  O   UNL     1     -13.501  -0.413  -1.223  1.00  0.00    -0.250 OA
BRANCH  58  60
ATOM     60  O   UNL     1     -13.191  -1.614  -3.069  1.00  0.00    -0.480 OA
ATOM     61  H   UNL     1     -13.238  -2.592  -3.150  1.00  0.00     0.296 HD
ENDBRANCH  58  60
ENDBRANCH  48  58
ENDBRANCH  46  48
ENDBRANCH  34  44
ENDBRANCH  32  34
ENDBRANCH  25  30
ENDBRANCH  23  25
ENDBRANCH   2  23
TORSDOF 28
ENDMDL
MODEL 6
REMARK VINA RESULT:    -6.053      2.643      3.991
REMARK INTER + INTRA:         -19.386
REMARK INTER:                 -16.650
REMARK INTRA:                  -2.736
REMARK UNBOUND:                -4.309
REMARK SMILES CCCCCCC[C@H](N)[C@H](O)C(=O)N[C@H](C)C(=O)N(C)[C@H](CC(C)C)C(=O)N[C@@H](Cc1ccc(O)cc1)C(=O)N[C@@H](Cc1ccc(O)cc1)C(=O)O
REMARK SMILES IDX 18 1 17 2 15 3 16 4 14 5 12 6 13 7 10 9 11 10 8 12 9 13 7 16
REMARK SMILES IDX 6 17 5 18 4 19 3 20 2 21 1 22 19 23 20 24 21 25 22 26 23 27
REMARK SMILES IDX 24 28 25 29 26 30 27 31 28 32 29 34 30 35 31 36 32 37 37 38
REMARK SMILES IDX 33 39 36 40 34 41 35 42 38 44 39 45 40 46 41 48 42 49 43 50
REMARK SMILES IDX 44 51 49 52 45 53 48 54 46 55 47 56 50 58 51 59 52 60
REMARK H PARENT 14 8 11 11 9 14 9 15 28 33 35 43 40 47 47 57 52 61
ROOT
ATOM      1  O   UNL     1     -13.375  -2.619   0.614  1.00  0.00    -0.272 OA
ATOM      2  C   UNL     1     -12.322  -3.259   0.476  1.00  0.00     0.245 C 
ENDROOT
BRANCH   2   3
ATOM      3  C   UNL     1     -11.716  -3.390  -0.943  1.00  0.00     0.168 C 
ATOM      4  C   UNL     1     -10.252  -2.961  -0.948  1.00  0.00     0.041 C 
BRANCH   3   5
ATOM      5  N   UNL     1     -11.902  -4.689  -1.570  1.00  0.00    -0.342 N 
ATOM      6  C   UNL     1     -12.678  -4.848  -2.698  1.00  0.00     0.251 C 
ATOM      7  O   UNL     1     -13.297  -3.932  -3.228  1.00  0.00    -0.272 OA
ATOM      8  H   UNL     1     -11.466  -5.530  -1.200  1.00  0.00     0.164 HD
BRANCH   6   9
ATOM      9  C   UNL     1     -12.616  -6.275  -3.266  1.00  0.00     0.219 C 
BRANCH   9  10
ATOM     10  O   UNL     1     -12.777  -6.311  -4.689  1.00  0.00    -0.382 OA
ATOM     11  H   UNL     1     -13.712  -6.041  -4.822  1.00  0.00     0.211 HD
ENDBRANCH   9  10
BRANCH   9  12
ATOM     12  C   UNL     1     -11.340  -7.046  -2.837  1.00  0.00     0.089 C 
BRANCH  12  13
ATOM     13  N   UNL     1     -11.598  -8.497  -2.987  1.00  0.00    -0.325 NA
ATOM     14  H   UNL     1     -11.856  -8.887  -2.078  1.00  0.00     0.119 HD
ATOM     15  H   UNL     1     -10.724  -8.964  -3.239  1.00  0.00     0.119 HD
ENDBRANCH  12  13
BRANCH  12  16
ATOM     16  C   UNL     1     -10.035  -6.659  -3.573  1.00  0.00     0.022 C 
BRANCH  16  17
ATOM     17  C   UNL     1      -9.272  -7.737  -4.357  1.00  0.00     0.002 C 
BRANCH  17  18
ATOM     18  C   UNL     1      -8.842  -7.327  -5.764  1.00  0.00     0.000 C 
BRANCH  18  19
ATOM     19  C   UNL     1      -8.544  -8.510  -6.695  1.00  0.00    -0.000 C 
BRANCH  19  20
ATOM     20  C   UNL     1      -9.246  -8.459  -8.055  1.00  0.00    -0.000 C 
BRANCH  20  21
ATOM     21  C   UNL     1      -9.805  -7.073  -8.391  1.00  0.00    -0.003 C 
ATOM     22  C   UNL     1      -9.480  -6.676  -9.822  1.00  0.00     0.004 C 
ENDBRANCH  20  21
ENDBRANCH  19  20
ENDBRANCH  18  19
ENDBRANCH  17  18
ENDBRANCH  16  17
ENDBRANCH  12  16
ENDBRANCH   9  12
ENDBRANCH   6   9
ENDBRANCH   3   5
ENDBRANCH   2   3
BRANCH   2  23
ATOM     23  N   UNL     1     -11.648  -3.738   1.594  1.00  0.00    -0.332 N 
ATOM     24  C   UNL     1     -11.169  -5.104   1.748  1.00  0.00     0.147 C 
BRANCH  23  25
ATOM     25  C   UNL     1     -11.250  -2.808   2.687  1.00  0.00     0.174 C 
BRANCH  25  26
ATOM     26  C   UNL     1      -9.736  -2.492   2.688  1.00  0.00     0.038 C 
BRANCH  26  27
ATOM     27  C   UNL     1      -9.324  -1.042   3.026  1.00  0.00    -0.015 C 
ATOM     28  C   UNL     1      -8.700  -0.920   4.416  1.00  0.00     0.007 C 
ATOM     29  C   UNL     1      -8.419  -0.407   1.973  1.00  0.00     0.007 C 
ENDBRANCH  26  27
ENDBRANCH  25  26
BRANCH  25  30
ATOM     30  C   UNL     1     -11.778  -3.326   4.044  1.00  0.00     0.243 C 
ATOM     31  O   UNL     1     -12.974  -3.296   4.331  1.00  0.00    -0.273 OA
ATOM     32  N   UNL     1     -10.828  -3.813   4.904  1.00  0.00    -0.342 N 
ATOM     33  H   UNL     1      -9.879  -3.936   4.541  1.00  0.00     0.164 HD
BRANCH  32  34
ATOM     34  C   UNL     1     -11.141  -4.320   6.243  1.00  0.00     0.175 C 
BRANCH  34  35
ATOM     35  C   UNL     1     -10.910  -5.837   6.334  1.00  0.00     0.070 C 
BRANCH  35  36
ATOM     36  C   UNL     1     -11.508  -6.445   7.583  1.00  0.00    -0.045 A 
ATOM     37  C   UNL     1     -10.705  -7.205   8.447  1.00  0.00     0.007 A 
ATOM     38  C   UNL     1     -12.866  -6.280   7.884  1.00  0.00     0.007 A 
ATOM     39  C   UNL     1     -11.250  -7.782   9.594  1.00  0.00     0.046 A 
ATOM     40  C   UNL     1     -13.413  -6.858   9.032  1.00  0.00     0.046 A 
ATOM     41  C   UNL     1     -12.599  -7.603   9.878  1.00  0.00     0.115 A 
BRANCH  41  42
ATOM     42  O   UNL     1     -13.093  -8.186  11.007  1.00  0.00    -0.508 OA
ATOM     43  H   UNL     1     -12.761  -9.098  11.050  1.00  0.00     0.293 HD
ENDBRANCH  41  42
ENDBRANCH  35  36
ENDBRANCH  34  35
BRANCH  34  44
ATOM     44  C   UNL     1     -10.280  -3.542   7.263  1.00  0.00     0.243 C 
ATOM     45  O   UNL     1      -9.210  -3.941   7.714  1.00  0.00    -0.273 OA
ATOM     46  N   UNL     1     -10.887  -2.398   7.734  1.00  0.00    -0.341 N 
ATOM     47  H   UNL     1     -11.827  -2.171   7.417  1.00  0.00     0.164 HD
BRANCH  46  48
ATOM     48  C   UNL     1     -10.295  -1.533   8.757  1.00  0.00     0.196 C 
BRANCH  48  49
ATOM     49  C   UNL     1      -9.110  -0.730   8.193  1.00  0.00     0.072 C 
BRANCH  49  50
ATOM     50  C   UNL     1      -7.952  -0.645   9.161  1.00  0.00    -0.045 A 
ATOM     51  C   UNL     1      -8.024   0.219  10.264  1.00  0.00     0.007 A 
ATOM     52  C   UNL     1      -6.791  -1.403   8.964  1.00  0.00     0.007 A 
ATOM     53  C   UNL     1      -6.956   0.315  11.156  1.00  0.00     0.046 A 
ATOM     54  C   UNL     1      -5.721  -1.305   9.857  1.00  0.00     0.046 A 
ATOM     55  C   UNL     1      -5.814  -0.447  10.947  1.00  0.00     0.115 A 
BRANCH  55  56
ATOM     56  O   UNL     1      -4.792  -0.322  11.841  1.00  0.00    -0.508 OA
ATOM     57  H   UNL     1      -5.095   0.235  12.576  1.00  0.00     0.293 HD
ENDBRANCH  55  56
ENDBRANCH  49  50
ENDBRANCH  48  49
BRANCH  48  58
ATOM     58  C   UNL     1     -11.369  -0.569   9.280  1.00  0.00     0.326 C 
ATOM     59  O   UNL     1     -12.223  -0.800  10.120  1.00  0.00    -0.250 OA
BRANCH  58  60
ATOM     60  O   UNL     1     -11.306   0.665   8.720  1.00  0.00    -0.480 OA
ATOM     61  H   UNL     1     -10.705   0.537   7.955  1.00  0.00     0.296 HD
ENDBRANCH  58  60
ENDBRANCH  48  58
ENDBRANCH  46  48
ENDBRANCH  34  44
ENDBRANCH  32  34
ENDBRANCH  25  30
ENDBRANCH  23  25
ENDBRANCH   2  23
TORSDOF 28
ENDMDL
MODEL 7
REMARK VINA RESULT:    -5.993      2.516     10.787
REMARK INTER + INTRA:         -19.236
REMARK INTER:                 -15.110
REMARK INTRA:                  -4.127
REMARK UNBOUND:                -4.309
REMARK SMILES CCCCCCC[C@H](N)[C@H](O)C(=O)N[C@H](C)C(=O)N(C)[C@H](CC(C)C)C(=O)N[C@@H](Cc1ccc(O)cc1)C(=O)N[C@@H](Cc1ccc(O)cc1)C(=O)O
REMARK SMILES IDX 18 1 17 2 15 3 16 4 14 5 12 6 13 7 10 9 11 10 8 12 9 13 7 16
REMARK SMILES IDX 6 17 5 18 4 19 3 20 2 21 1 22 19 23 20 24 21 25 22 26 23 27
REMARK SMILES IDX 24 28 25 29 26 30 27 31 28 32 29 34 30 35 31 36 32 37 37 38
REMARK SMILES IDX 33 39 36 40 34 41 35 42 38 44 39 45 40 46 41 48 42 49 43 50
REMARK SMILES IDX 44 51 49 52 45 53 48 54 46 55 47 56 50 58 51 59 52 60
REMARK H PARENT 14 8 11 11 9 14 9 15 28 33 35 43 40 47 47 57 52 61
ROOT
ATOM      1  O   UNL     1      -8.410  -4.821   6.276  1.00  0.00    -0.272 OA
ATOM      2  C   UNL     1      -9.202  -4.725   7.225  1.00  0.00     0.245 C 
ENDROOT
BRANCH   2   3
ATOM      3  C   UNL     1      -8.648  -4.839   8.667  1.00  0.00     0.168 C 
ATOM      4  C   UNL     1      -7.129  -4.704   8.676  1.00  0.00     0.041 C 
BRANCH   3   5
ATOM      5  N   UNL     1      -9.276  -3.953   9.635  1.00  0.00    -0.342 N 
ATOM      6  C   UNL     1     -10.054  -4.436  10.666  1.00  0.00     0.251 C 
ATOM      7  O   UNL     1     -10.307  -5.626  10.822  1.00  0.00    -0.272 OA
ATOM      8  H   UNL     1      -9.167  -2.943   9.588  1.00  0.00     0.164 HD
BRANCH   6   9
ATOM      9  C   UNL     1     -10.494  -3.335  11.645  1.00  0.00     0.219 C 
BRANCH   9  10
ATOM     10  O   UNL     1      -9.770  -2.112  11.463  1.00  0.00    -0.382 OA
ATOM     11  H   UNL     1      -9.882  -1.918  10.506  1.00  0.00     0.211 HD
ENDBRANCH   9  10
BRANCH   9  12
ATOM     12  C   UNL     1     -12.024  -3.078  11.623  1.00  0.00     0.089 C 
BRANCH  12  13
ATOM     13  N   UNL     1     -12.549  -3.491  10.302  1.00  0.00    -0.325 NA
ATOM     14  H   UNL     1     -11.885  -4.131   9.862  1.00  0.00     0.119 HD
ATOM     15  H   UNL     1     -12.578  -2.674   9.687  1.00  0.00     0.119 HD
ENDBRANCH  12  13
BRANCH  12  16
ATOM     16  C   UNL     1     -12.840  -3.750  12.753  1.00  0.00     0.022 C 
BRANCH  16  17
ATOM     17  C   UNL     1     -14.362  -3.878  12.601  1.00  0.00     0.002 C 
BRANCH  17  18
ATOM     18  C   UNL     1     -14.868  -5.299  12.361  1.00  0.00     0.000 C 
BRANCH  18  19
ATOM     19  C   UNL     1     -13.769  -6.295  11.967  1.00  0.00    -0.000 C 
BRANCH  19  20
ATOM     20  C   UNL     1     -14.194  -7.766  11.969  1.00  0.00    -0.000 C 
BRANCH  20  21
ATOM     21  C   UNL     1     -13.882  -8.483  10.653  1.00  0.00    -0.003 C 
ATOM     22  C   UNL     1     -14.455  -7.729   9.462  1.00  0.00     0.004 C 
ENDBRANCH  20  21
ENDBRANCH  19  20
ENDBRANCH  18  19
ENDBRANCH  17  18
ENDBRANCH  16  17
ENDBRANCH  12  16
ENDBRANCH   9  12
ENDBRANCH   6   9
ENDBRANCH   3   5
ENDBRANCH   2   3
BRANCH   2  23
ATOM     23  N   UNL     1     -10.534  -4.399   6.990  1.00  0.00    -0.332 N 
ATOM     24  C   UNL     1     -11.669  -5.202   7.418  1.00  0.00     0.147 C 
BRANCH  23  25
ATOM     25  C   UNL     1     -10.889  -3.092   6.371  1.00  0.00     0.174 C 
BRANCH  25  26
ATOM     26  C   UNL     1     -11.651  -2.155   7.337  1.00  0.00     0.038 C 
BRANCH  26  27
ATOM     27  C   UNL     1     -10.799  -1.220   8.223  1.00  0.00    -0.015 C 
ATOM     28  C   UNL     1      -9.681  -0.532   7.440  1.00  0.00     0.007 C 
ATOM     29  C   UNL     1     -11.626  -0.192   8.992  1.00  0.00     0.007 C 
ENDBRANCH  26  27
ENDBRANCH  25  26
BRANCH  25  30
ATOM     30  C   UNL     1     -11.615  -3.321   5.025  1.00  0.00     0.243 C 
ATOM     31  O   UNL     1     -12.805  -3.050   4.874  1.00  0.00    -0.273 OA
ATOM     32  N   UNL     1     -10.847  -3.849   4.019  1.00  0.00    -0.342 N 
ATOM     33  H   UNL     1      -9.838  -3.913   4.177  1.00  0.00     0.164 HD
BRANCH  32  34
ATOM     34  C   UNL     1     -11.373  -4.157   2.686  1.00  0.00     0.175 C 
BRANCH  34  35
ATOM     35  C   UNL     1     -10.530  -3.494   1.586  1.00  0.00     0.070 C 
BRANCH  35  36
ATOM     36  C   UNL     1     -11.362  -3.030   0.411  1.00  0.00    -0.045 A 
ATOM     37  C   UNL     1     -10.749  -2.772  -0.824  1.00  0.00     0.007 A 
ATOM     38  C   UNL     1     -12.743  -2.831   0.543  1.00  0.00     0.007 A 
ATOM     39  C   UNL     1     -11.507  -2.331  -1.910  1.00  0.00     0.046 A 
ATOM     40  C   UNL     1     -13.501  -2.388  -0.544  1.00  0.00     0.046 A 
ATOM     41  C   UNL     1     -12.876  -2.143  -1.761  1.00  0.00     0.115 A 
BRANCH  41  42
ATOM     42  O   UNL     1     -13.579  -1.708  -2.846  1.00  0.00    -0.508 OA
ATOM     43  H   UNL     1     -13.588  -2.419  -3.508  1.00  0.00     0.293 HD
ENDBRANCH  41  42
ENDBRANCH  35  36
ENDBRANCH  34  35
BRANCH  34  44
ATOM     44  C   UNL     1     -11.416  -5.694   2.533  1.00  0.00     0.243 C 
ATOM     45  O   UNL     1     -12.083  -6.443   3.241  1.00  0.00    -0.273 OA
ATOM     46  N   UNL     1     -10.526  -6.178   1.597  1.00  0.00    -0.341 N 
ATOM     47  H   UNL     1      -9.911  -5.525   1.118  1.00  0.00     0.164 HD
BRANCH  46  48
ATOM     48  C   UNL     1     -10.339  -7.604   1.325  1.00  0.00     0.196 C 
BRANCH  48  49
ATOM     49  C   UNL     1     -11.588  -8.218   0.669  1.00  0.00     0.072 C 
BRANCH  49  50
ATOM     50  C   UNL     1     -11.861  -7.650  -0.706  1.00  0.00    -0.045 A 
ATOM     51  C   UNL     1     -11.426  -8.340  -1.846  1.00  0.00     0.007 A 
ATOM     52  C   UNL     1     -12.526  -6.427  -0.861  1.00  0.00     0.007 A 
ATOM     53  C   UNL     1     -11.661  -7.820  -3.119  1.00  0.00     0.046 A 
ATOM     54  C   UNL     1     -12.760  -5.905  -2.136  1.00  0.00     0.046 A 
ATOM     55  C   UNL     1     -12.326  -6.607  -3.254  1.00  0.00     0.115 A 
BRANCH  55  56
ATOM     56  O   UNL     1     -12.533  -6.132  -4.515  1.00  0.00    -0.508 OA
ATOM     57  H   UNL     1     -11.679  -6.103  -4.976  1.00  0.00     0.293 HD
ENDBRANCH  55  56
ENDBRANCH  49  50
ENDBRANCH  48  49
BRANCH  48  58
ATOM     58  C   UNL     1      -9.130  -7.781   0.396  1.00  0.00     0.326 C 
ATOM     59  O   UNL     1      -8.563  -6.917  -0.252  1.00  0.00    -0.250 OA
BRANCH  58  60
ATOM     60  O   UNL     1      -8.674  -9.058   0.338  1.00  0.00    -0.480 OA
ATOM     61  H   UNL     1      -9.289  -9.489  -0.294  1.00  0.00     0.296 HD
ENDBRANCH  58  60
ENDBRANCH  48  58
ENDBRANCH  46  48
ENDBRANCH  34  44
ENDBRANCH  32  34
ENDBRANCH  25  30
ENDBRANCH  23  25
ENDBRANCH   2  23
TORSDOF 28
ENDMDL
MODEL 8
REMARK VINA RESULT:    -5.877      3.334      8.530
REMARK INTER + INTRA:         -18.946
REMARK INTER:                 -12.423
REMARK INTRA:                  -6.523
REMARK UNBOUND:                -4.309
REMARK SMILES CCCCCCC[C@H](N)[C@H](O)C(=O)N[C@H](C)C(=O)N(C)[C@H](CC(C)C)C(=O)N[C@@H](Cc1ccc(O)cc1)C(=O)N[C@@H](Cc1ccc(O)cc1)C(=O)O
REMARK SMILES IDX 18 1 17 2 15 3 16 4 14 5 12 6 13 7 10 9 11 10 8 12 9 13 7 16
REMARK SMILES IDX 6 17 5 18 4 19 3 20 2 21 1 22 19 23 20 24 21 25 22 26 23 27
REMARK SMILES IDX 24 28 25 29 26 30 27 31 28 32 29 34 30 35 31 36 32 37 37 38
REMARK SMILES IDX 33 39 36 40 34 41 35 42 38 44 39 45 40 46 41 48 42 49 43 50
REMARK SMILES IDX 44 51 49 52 45 53 48 54 46 55 47 56 50 58 51 59 52 60
REMARK H PARENT 14 8 11 11 9 14 9 15 28 33 35 43 40 47 47 57 52 61
ROOT
ATOM      1  O   UNL     1      -3.775  -5.051  -0.949  1.00  0.00    -0.272 OA
ATOM      2  C   UNL     1      -4.812  -4.675  -0.382  1.00  0.00     0.245 C 
ENDROOT
BRANCH   2   3
ATOM      3  C   UNL     1      -5.981  -4.146  -1.251  1.00  0.00     0.168 C 
ATOM      4  C   UNL     1      -5.483  -3.716  -2.626  1.00  0.00     0.041 C 
BRANCH   3   5
ATOM      5  N   UNL     1      -7.126  -5.039  -1.344  1.00  0.00    -0.342 N 
ATOM      6  C   UNL     1      -7.002  -6.336  -1.796  1.00  0.00     0.251 C 
ATOM      7  O   UNL     1      -5.945  -6.818  -2.189  1.00  0.00    -0.272 OA
ATOM      8  H   UNL     1      -8.061  -4.741  -1.079  1.00  0.00     0.164 HD
BRANCH   6   9
ATOM      9  C   UNL     1      -8.310  -7.135  -1.674  1.00  0.00     0.219 C 
BRANCH   9  10
ATOM     10  O   UNL     1      -8.342  -8.277  -2.538  1.00  0.00    -0.382 OA
ATOM     11  H   UNL     1      -8.333  -9.038  -1.916  1.00  0.00     0.211 HD
ENDBRANCH   9  10
BRANCH   9  12
ATOM     12  C   UNL     1      -8.643  -7.539  -0.214  1.00  0.00     0.089 C 
BRANCH  12  13
ATOM     13  N   UNL     1      -7.404  -7.442   0.592  1.00  0.00    -0.325 NA
ATOM     14  H   UNL     1      -7.503  -6.684   1.270  1.00  0.00     0.119 HD
ATOM     15  H   UNL     1      -6.634  -7.155  -0.018  1.00  0.00     0.119 HD
ENDBRANCH  12  13
BRANCH  12  16
ATOM     16  C   UNL     1      -9.783  -6.744   0.466  1.00  0.00     0.022 C 
BRANCH  16  17
ATOM     17  C   UNL     1     -10.906  -7.511   1.179  1.00  0.00     0.002 C 
BRANCH  17  18
ATOM     18  C   UNL     1     -11.692  -6.697   2.204  1.00  0.00     0.000 C 
BRANCH  18  19
ATOM     19  C   UNL     1     -10.823  -6.070   3.303  1.00  0.00    -0.000 C 
BRANCH  19  20
ATOM     20  C   UNL     1     -11.390  -6.177   4.721  1.00  0.00    -0.000 C 
BRANCH  20  21
ATOM     21  C   UNL     1     -12.793  -5.578   4.853  1.00  0.00    -0.003 C 
ATOM     22  C   UNL     1     -13.240  -5.527   6.306  1.00  0.00     0.004 C 
ENDBRANCH  20  21
ENDBRANCH  19  20
ENDBRANCH  18  19
ENDBRANCH  17  18
ENDBRANCH  16  17
ENDBRANCH  12  16
ENDBRANCH   9  12
ENDBRANCH   6   9
ENDBRANCH   3   5
ENDBRANCH   2   3
BRANCH   2  23
ATOM     23  N   UNL     1      -4.955  -4.845   0.991  1.00  0.00    -0.332 N 
ATOM     24  C   UNL     1      -4.471  -5.997   1.735  1.00  0.00     0.147 C 
BRANCH  23  25
ATOM     25  C   UNL     1      -5.525  -3.753   1.827  1.00  0.00     0.174 C 
BRANCH  25  26
ATOM     26  C   UNL     1      -4.711  -3.495   3.117  1.00  0.00     0.038 C 
BRANCH  26  27
ATOM     27  C   UNL     1      -4.117  -2.081   3.300  1.00  0.00    -0.015 C 
ATOM     28  C   UNL     1      -2.797  -1.900   2.551  1.00  0.00     0.007 C 
ATOM     29  C   UNL     1      -5.094  -0.962   2.945  1.00  0.00     0.007 C 
ENDBRANCH  26  27
ENDBRANCH  25  26
BRANCH  25  30
ATOM     30  C   UNL     1      -7.028  -4.006   2.081  1.00  0.00     0.243 C 
ATOM     31  O   UNL     1      -7.439  -5.067   2.550  1.00  0.00    -0.273 OA
ATOM     32  N   UNL     1      -7.869  -2.976   1.745  1.00  0.00    -0.342 N 
ATOM     33  H   UNL     1      -7.443  -2.079   1.497  1.00  0.00     0.164 HD
BRANCH  32  34
ATOM     34  C   UNL     1      -9.325  -3.049   1.892  1.00  0.00     0.175 C 
BRANCH  34  35
ATOM     35  C   UNL     1      -9.858  -1.898   2.759  1.00  0.00     0.070 C 
BRANCH  35  36
ATOM     36  C   UNL     1      -9.431  -2.009   4.205  1.00  0.00    -0.045 A 
ATOM     37  C   UNL     1      -8.380  -1.216   4.690  1.00  0.00     0.007 A 
ATOM     38  C   UNL     1     -10.057  -2.915   5.072  1.00  0.00     0.007 A 
ATOM     39  C   UNL     1      -7.970  -1.321   6.019  1.00  0.00     0.046 A 
ATOM     40  C   UNL     1      -9.646  -3.022   6.403  1.00  0.00     0.046 A 
ATOM     41  C   UNL     1      -8.606  -2.223   6.865  1.00  0.00     0.115 A 
BRANCH  41  42
ATOM     42  O   UNL     1      -8.173  -2.297   8.156  1.00  0.00    -0.508 OA
ATOM     43  H   UNL     1      -8.388  -1.459   8.598  1.00  0.00     0.293 HD
ENDBRANCH  41  42
ENDBRANCH  35  36
ENDBRANCH  34  35
BRANCH  34  44
ATOM     44  C   UNL     1      -9.949  -3.043   0.478  1.00  0.00     0.243 C 
ATOM     45  O   UNL     1      -9.305  -3.116  -0.565  1.00  0.00    -0.273 OA
ATOM     46  N   UNL     1     -11.309  -2.815   0.480  1.00  0.00    -0.341 N 
ATOM     47  H   UNL     1     -11.780  -2.644   1.364  1.00  0.00     0.164 HD
BRANCH  46  48
ATOM     48  C   UNL     1     -12.108  -2.699  -0.742  1.00  0.00     0.196 C 
BRANCH  48  49
ATOM     49  C   UNL     1     -13.173  -3.806  -0.822  1.00  0.00     0.072 C 
BRANCH  49  50
ATOM     50  C   UNL     1     -12.673  -5.046  -1.526  1.00  0.00    -0.045 A 
ATOM     51  C   UNL     1     -11.647  -4.944  -2.477  1.00  0.00     0.007 A 
ATOM     52  C   UNL     1     -13.233  -6.302  -1.259  1.00  0.00     0.007 A 
ATOM     53  C   UNL     1     -11.186  -6.080  -3.142  1.00  0.00     0.046 A 
ATOM     54  C   UNL     1     -12.772  -7.439  -1.927  1.00  0.00     0.046 A 
ATOM     55  C   UNL     1     -11.751  -7.318  -2.862  1.00  0.00     0.115 A 
BRANCH  55  56
ATOM     56  O   UNL     1     -11.273  -8.404  -3.536  1.00  0.00    -0.508 OA
ATOM     57  H   UNL     1     -11.721  -8.452  -4.396  1.00  0.00     0.293 HD
ENDBRANCH  55  56
ENDBRANCH  49  50
ENDBRANCH  48  49
BRANCH  48  58
ATOM     58  C   UNL     1     -12.790  -1.325  -0.764  1.00  0.00     0.326 C 
ATOM     59  O   UNL     1     -13.196  -0.686   0.193  1.00  0.00    -0.250 OA
BRANCH  58  60
ATOM     60  O   UNL     1     -12.919  -0.804  -2.011  1.00  0.00    -0.480 OA
ATOM     61  H   UNL     1     -11.998  -0.800  -2.350  1.00  0.00     0.296 HD
ENDBRANCH  58  60
ENDBRANCH  48  58
ENDBRANCH  46  48
ENDBRANCH  34  44
ENDBRANCH  32  34
ENDBRANCH  25  30
ENDBRANCH  23  25
ENDBRANCH   2  23
TORSDOF 28
ENDMDL
MODEL 9
REMARK VINA RESULT:    -5.677     18.813     23.533
REMARK INTER + INTRA:         -18.450
REMARK INTER:                 -11.051
REMARK INTRA:                  -7.399
REMARK UNBOUND:                -4.309
REMARK SMILES CCCCCCC[C@H](N)[C@H](O)C(=O)N[C@H](C)C(=O)N(C)[C@H](CC(C)C)C(=O)N[C@@H](Cc1ccc(O)cc1)C(=O)N[C@@H](Cc1ccc(O)cc1)C(=O)O
REMARK SMILES IDX 18 1 17 2 15 3 16 4 14 5 12 6 13 7 10 9 11 10 8 12 9 13 7 16
REMARK SMILES IDX 6 17 5 18 4 19 3 20 2 21 1 22 19 23 20 24 21 25 22 26 23 27
REMARK SMILES IDX 24 28 25 29 26 30 27 31 28 32 29 34 30 35 31 36 32 37 37 38
REMARK SMILES IDX 33 39 36 40 34 41 35 42 38 44 39 45 40 46 41 48 42 49 43 50
REMARK SMILES IDX 44 51 49 52 45 53 48 54 46 55 47 56 50 58 51 59 52 60
REMARK H PARENT 14 8 11 11 9 14 9 15 28 33 35 43 40 47 47 57 52 61
ROOT
ATOM      1  O   UNL     1      10.929   9.372   9.246  1.00  0.00    -0.272 OA
ATOM      2  C   UNL     1      11.072   8.626  10.227  1.00  0.00     0.245 C 
ENDROOT
BRANCH   2   3
ATOM      3  C   UNL     1       9.941   8.568  11.284  1.00  0.00     0.168 C 
ATOM      4  C   UNL     1       9.916   9.842  12.122  1.00  0.00     0.041 C 
BRANCH   3   5
ATOM      5  N   UNL     1       8.626   8.240  10.756  1.00  0.00    -0.342 N 
ATOM      6  C   UNL     1       7.743   7.437  11.446  1.00  0.00     0.251 C 
ATOM      7  O   UNL     1       8.007   6.910  12.521  1.00  0.00    -0.272 OA
ATOM      8  H   UNL     1       8.308   8.591   9.855  1.00  0.00     0.164 HD
BRANCH   6   9
ATOM      9  C   UNL     1       6.368   7.345  10.766  1.00  0.00     0.219 C 
BRANCH   9  10
ATOM     10  O   UNL     1       6.072   8.492   9.960  1.00  0.00    -0.382 OA
ATOM     11  H   UNL     1       5.703   8.106   9.135  1.00  0.00     0.211 HD
ENDBRANCH   9  10
BRANCH   9  12
ATOM     12  C   UNL     1       6.176   6.037   9.955  1.00  0.00     0.089 C 
BRANCH  12  13
ATOM     13  N   UNL     1       7.510   5.450   9.693  1.00  0.00    -0.325 NA
ATOM     14  H   UNL     1       7.486   4.947   8.804  1.00  0.00     0.119 HD
ATOM     15  H   UNL     1       7.701   4.736  10.399  1.00  0.00     0.119 HD
ENDBRANCH  12  13
BRANCH  12  16
ATOM     16  C   UNL     1       5.243   4.977  10.588  1.00  0.00     0.022 C 
BRANCH  16  17
ATOM     17  C   UNL     1       5.055   3.629   9.879  1.00  0.00     0.002 C 
BRANCH  17  18
ATOM     18  C   UNL     1       3.719   3.460   9.159  1.00  0.00     0.000 C 
BRANCH  18  19
ATOM     19  C   UNL     1       3.643   4.179   7.806  1.00  0.00    -0.000 C 
BRANCH  19  20
ATOM     20  C   UNL     1       2.623   5.319   7.732  1.00  0.00    -0.000 C 
BRANCH  20  21
ATOM     21  C   UNL     1       3.270   6.706   7.756  1.00  0.00    -0.003 C 
ATOM     22  C   UNL     1       2.865   7.486   8.997  1.00  0.00     0.004 C 
ENDBRANCH  20  21
ENDBRANCH  19  20
ENDBRANCH  18  19
ENDBRANCH  17  18
ENDBRANCH  16  17
ENDBRANCH  12  16
ENDBRANCH   9  12
ENDBRANCH   6   9
ENDBRANCH   3   5
ENDBRANCH   2   3
BRANCH   2  23
ATOM     23  N   UNL     1      12.170   7.776  10.300  1.00  0.00    -0.332 N 
ATOM     24  C   UNL     1      13.523   8.201  10.628  1.00  0.00     0.147 C 
BRANCH  23  25
ATOM     25  C   UNL     1      11.991   6.305  10.165  1.00  0.00     0.174 C 
BRANCH  25  26
ATOM     26  C   UNL     1      12.839   5.499  11.177  1.00  0.00     0.038 C 
BRANCH  26  27
ATOM     27  C   UNL     1      12.074   4.584  12.160  1.00  0.00    -0.015 C 
ATOM     28  C   UNL     1      12.468   4.831  13.616  1.00  0.00     0.007 C 
ATOM     29  C   UNL     1      10.558   4.649  11.995  1.00  0.00     0.007 C 
ENDBRANCH  26  27
ENDBRANCH  25  26
BRANCH  25  30
ATOM     30  C   UNL     1      12.205   5.875   8.695  1.00  0.00     0.243 C 
ATOM     31  O   UNL     1      13.187   6.235   8.049  1.00  0.00    -0.273 OA
ATOM     32  N   UNL     1      11.226   5.076   8.163  1.00  0.00    -0.342 N 
ATOM     33  H   UNL     1      10.518   4.705   8.801  1.00  0.00     0.164 HD
BRANCH  32  34
ATOM     34  C   UNL     1      11.248   4.596   6.778  1.00  0.00     0.175 C 
BRANCH  34  35
ATOM     35  C   UNL     1      10.947   3.091   6.703  1.00  0.00     0.070 C 
BRANCH  35  36
ATOM     36  C   UNL     1      10.582   2.501   8.047  1.00  0.00    -0.045 A 
ATOM     37  C   UNL     1       9.241   2.468   8.458  1.00  0.00     0.007 A 
ATOM     38  C   UNL     1      11.570   2.002   8.905  1.00  0.00     0.007 A 
ATOM     39  C   UNL     1       8.896   1.937   9.701  1.00  0.00     0.046 A 
ATOM     40  C   UNL     1      11.226   1.472  10.151  1.00  0.00     0.046 A 
ATOM     41  C   UNL     1       9.890   1.443  10.537  1.00  0.00     0.115 A 
BRANCH  41  42
ATOM     42  O   UNL     1       9.511   0.936  11.745  1.00  0.00    -0.508 OA
ATOM     43  H   UNL     1       8.659   0.483  11.631  1.00  0.00     0.293 HD
ENDBRANCH  41  42
ENDBRANCH  35  36
ENDBRANCH  34  35
BRANCH  34  44
ATOM     44  C   UNL     1      10.232   5.430   5.966  1.00  0.00     0.243 C 
ATOM     45  O   UNL     1      10.475   5.959   4.885  1.00  0.00    -0.273 OA
ATOM     46  N   UNL     1       9.042   5.644   6.630  1.00  0.00    -0.341 N 
ATOM     47  H   UNL     1       8.932   5.282   7.574  1.00  0.00     0.164 HD
BRANCH  46  48
ATOM     48  C   UNL     1       7.954   6.460   6.090  1.00  0.00     0.196 C 
BRANCH  48  49
ATOM     49  C   UNL     1       6.681   5.624   5.871  1.00  0.00     0.072 C 
BRANCH  49  50
ATOM     50  C   UNL     1       6.794   4.692   4.686  1.00  0.00    -0.045 A 
ATOM     51  C   UNL     1       6.982   5.218   3.399  1.00  0.00     0.007 A 
ATOM     52  C   UNL     1       6.693   3.305   4.848  1.00  0.00     0.007 A 
ATOM     53  C   UNL     1       7.075   4.368   2.297  1.00  0.00     0.046 A 
ATOM     54  C   UNL     1       6.784   2.454   3.744  1.00  0.00     0.046 A 
ATOM     55  C   UNL     1       6.975   2.994   2.476  1.00  0.00     0.115 A 
BRANCH  55  56
ATOM     56  O   UNL     1       7.069   2.199   1.373  1.00  0.00    -0.508 OA
ATOM     57  H   UNL     1       6.632   1.354   1.567  1.00  0.00     0.293 HD
ENDBRANCH  55  56
ENDBRANCH  49  50
ENDBRANCH  48  49
BRANCH  48  58
ATOM     58  C   UNL     1       7.655   7.605   7.068  1.00  0.00     0.326 C 
ATOM     59  O   UNL     1       6.649   8.294   7.115  1.00  0.00    -0.250 OA
BRANCH  58  60
ATOM     60  O   UNL     1       8.649   7.822   7.966  1.00  0.00    -0.480 OA
ATOM     61  H   UNL     1       9.462   7.793   7.416  1.00  0.00     0.296 HD
ENDBRANCH  58  60
ENDBRANCH  48  58
ENDBRANCH  46  48
ENDBRANCH  34  44
ENDBRANCH  32  34
ENDBRANCH  25  30
ENDBRANCH  23  25
ENDBRANCH   2  23
TORSDOF 28
ENDMDL
MODEL 10
REMARK VINA RESULT:    -5.642      2.945      9.051
REMARK INTER + INTRA:         -18.362
REMARK INTER:                 -13.510
REMARK INTRA:                  -4.852
REMARK UNBOUND:                -4.309
REMARK SMILES CCCCCCC[C@H](N)[C@H](O)C(=O)N[C@H](C)C(=O)N(C)[C@H](CC(C)C)C(=O)N[C@@H](Cc1ccc(O)cc1)C(=O)N[C@@H](Cc1ccc(O)cc1)C(=O)O
REMARK SMILES IDX 18 1 17 2 15 3 16 4 14 5 12 6 13 7 10 9 11 10 8 12 9 13 7 16
REMARK SMILES IDX 6 17 5 18 4 19 3 20 2 21 1 22 19 23 20 24 21 25 22 26 23 27
REMARK SMILES IDX 24 28 25 29 26 30 27 31 28 32 29 34 30 35 31 36 32 37 37 38
REMARK SMILES IDX 33 39 36 40 34 41 35 42 38 44 39 45 40 46 41 48 42 49 43 50
REMARK SMILES IDX 44 51 49 52 45 53 48 54 46 55 47 56 50 58 51 59 52 60
REMARK H PARENT 14 8 11 11 9 14 9 15 28 33 35 43 40 47 47 57 52 61
ROOT
ATOM      1  O   UNL     1      -8.525  -4.886   5.787  1.00  0.00    -0.272 OA
ATOM      2  C   UNL     1      -8.755  -3.927   6.538  1.00  0.00     0.245 C 
ENDROOT
BRANCH   2   3
ATOM      3  C   UNL     1      -7.669  -2.833   6.697  1.00  0.00     0.168 C 
ATOM      4  C   UNL     1      -6.647  -3.235   7.754  1.00  0.00     0.041 C 
BRANCH   3   5
ATOM      5  N   UNL     1      -7.032  -2.420   5.456  1.00  0.00    -0.342 N 
ATOM      6  C   UNL     1      -7.611  -1.494   4.614  1.00  0.00     0.251 C 
ATOM      7  O   UNL     1      -8.708  -0.986   4.819  1.00  0.00    -0.272 OA
ATOM      8  H   UNL     1      -6.135  -2.799   5.162  1.00  0.00     0.164 HD
BRANCH   6   9
ATOM      9  C   UNL     1      -6.697  -1.105   3.441  1.00  0.00     0.219 C 
BRANCH   9  10
ATOM     10  O   UNL     1      -5.330  -1.472   3.660  1.00  0.00    -0.382 OA
ATOM     11  H   UNL     1      -5.366  -2.025   4.471  1.00  0.00     0.211 HD
ENDBRANCH   9  10
BRANCH   9  12
ATOM     12  C   UNL     1      -7.199  -1.641   2.074  1.00  0.00     0.089 C 
BRANCH  12  13
ATOM     13  N   UNL     1      -6.392  -1.015   1.002  1.00  0.00    -0.325 NA
ATOM     14  H   UNL     1      -6.265  -0.024   1.212  1.00  0.00     0.119 HD
ATOM     15  H   UNL     1      -6.926  -1.037   0.130  1.00  0.00     0.119 HD
ENDBRANCH  12  13
BRANCH  12  16
ATOM     16  C   UNL     1      -7.202  -3.179   1.909  1.00  0.00     0.022 C 
BRANCH  16  17
ATOM     17  C   UNL     1      -6.034  -3.854   1.175  1.00  0.00     0.002 C 
BRANCH  17  18
ATOM     18  C   UNL     1      -5.546  -5.158   1.802  1.00  0.00     0.000 C 
BRANCH  18  19
ATOM     19  C   UNL     1      -4.637  -4.961   3.023  1.00  0.00    -0.000 C 
BRANCH  19  20
ATOM     20  C   UNL     1      -5.301  -5.224   4.377  1.00  0.00    -0.000 C 
BRANCH  20  21
ATOM     21  C   UNL     1      -4.675  -6.398   5.135  1.00  0.00    -0.003 C 
ATOM     22  C   UNL     1      -4.132  -5.959   6.486  1.00  0.00     0.004 C 
ENDBRANCH  20  21
ENDBRANCH  19  20
ENDBRANCH  18  19
ENDBRANCH  17  18
ENDBRANCH  16  17
ENDBRANCH  12  16
ENDBRANCH   9  12
ENDBRANCH   6   9
ENDBRANCH   3   5
ENDBRANCH   2   3
BRANCH   2  23
ATOM     23  N   UNL     1     -10.009  -3.785   7.121  1.00  0.00    -0.332 N 
ATOM     24  C   UNL     1     -10.461  -4.517   8.295  1.00  0.00     0.147 C 
BRANCH  23  25
ATOM     25  C   UNL     1     -10.952  -2.743   6.631  1.00  0.00     0.174 C 
BRANCH  25  26
ATOM     26  C   UNL     1     -11.929  -2.252   7.726  1.00  0.00     0.038 C 
BRANCH  26  27
ATOM     27  C   UNL     1     -11.575  -0.927   8.437  1.00  0.00    -0.015 C 
ATOM     28  C   UNL     1     -11.565  -1.065   9.959  1.00  0.00     0.007 C 
ATOM     29  C   UNL     1     -10.272  -0.303   7.946  1.00  0.00     0.007 C 
ENDBRANCH  26  27
ENDBRANCH  25  26
BRANCH  25  30
ATOM     30  C   UNL     1     -11.655  -3.224   5.341  1.00  0.00     0.243 C 
ATOM     31  O   UNL     1     -12.855  -3.492   5.316  1.00  0.00    -0.273 OA
ATOM     32  N   UNL     1     -10.852  -3.338   4.236  1.00  0.00    -0.342 N 
ATOM     33  H   UNL     1      -9.902  -2.964   4.300  1.00  0.00     0.164 HD
BRANCH  32  34
ATOM     34  C   UNL     1     -11.340  -3.805   2.935  1.00  0.00     0.175 C 
BRANCH  34  35
ATOM     35  C   UNL     1     -10.603  -3.111   1.780  1.00  0.00     0.070 C 
BRANCH  35  36
ATOM     36  C   UNL     1     -11.482  -2.903   0.567  1.00  0.00    -0.045 A 
ATOM     37  C   UNL     1     -10.902  -2.728  -0.699  1.00  0.00     0.007 A 
ATOM     38  C   UNL     1     -12.877  -2.858   0.689  1.00  0.00     0.007 A 
ATOM     39  C   UNL     1     -11.704  -2.521  -1.821  1.00  0.00     0.046 A 
ATOM     40  C   UNL     1     -13.681  -2.649  -0.434  1.00  0.00     0.046 A 
ATOM     41  C   UNL     1     -13.086  -2.484  -1.680  1.00  0.00     0.115 A 
BRANCH  41  42
ATOM     42  O   UNL     1     -13.834  -2.277  -2.802  1.00  0.00    -0.508 OA
ATOM     43  H   UNL     1     -13.361  -2.661  -3.558  1.00  0.00     0.293 HD
ENDBRANCH  41  42
ENDBRANCH  35  36
ENDBRANCH  34  35
BRANCH  34  44
ATOM     44  C   UNL     1     -11.175  -5.341   2.886  1.00  0.00     0.243 C 
ATOM     45  O   UNL     1     -11.531  -6.106   3.777  1.00  0.00    -0.273 OA
ATOM     46  N   UNL     1     -10.462  -5.781   1.791  1.00  0.00    -0.341 N 
ATOM     47  H   UNL     1     -10.086  -5.097   1.139  1.00  0.00     0.164 HD
BRANCH  46  48
ATOM     48  C   UNL     1     -10.120  -7.187   1.563  1.00  0.00     0.196 C 
BRANCH  48  49
ATOM     49  C   UNL     1     -11.327  -7.977   1.030  1.00  0.00     0.072 C 
BRANCH  49  50
ATOM     50  C   UNL     1     -11.730  -7.554  -0.364  1.00  0.00    -0.045 A 
ATOM     51  C   UNL     1     -11.320  -8.312  -1.471  1.00  0.00     0.007 A 
ATOM     52  C   UNL     1     -12.492  -6.398  -0.574  1.00  0.00     0.007 A 
ATOM     53  C   UNL     1     -11.674  -7.923  -2.763  1.00  0.00     0.046 A 
ATOM     54  C   UNL     1     -12.846  -6.008  -1.868  1.00  0.00     0.046 A 
ATOM     55  C   UNL     1     -12.435  -6.776  -2.952  1.00  0.00     0.115 A 
BRANCH  55  56
ATOM     56  O   UNL     1     -12.758  -6.429  -4.231  1.00  0.00    -0.508 OA
ATOM     57  H   UNL     1     -12.858  -5.465  -4.270  1.00  0.00     0.293 HD
ENDBRANCH  55  56
ENDBRANCH  49  50
ENDBRANCH  48  49
BRANCH  48  58
ATOM     58  C   UNL     1      -8.967  -7.264   0.553  1.00  0.00     0.326 C 
ATOM     59  O   UNL     1      -8.533  -6.360  -0.143  1.00  0.00    -0.250 OA
BRANCH  58  60
ATOM     60  O   UNL     1      -8.396  -8.492   0.476  1.00  0.00    -0.480 OA
ATOM     61  H   UNL     1      -9.009  -8.991  -0.107  1.00  0.00     0.296 HD
ENDBRANCH  58  60
ENDBRANCH  48  58
ENDBRANCH  46  48
ENDBRANCH  34  44
ENDBRANCH  32  34
ENDBRANCH  25  30
ENDBRANCH  23  25
ENDBRANCH   2  23
TORSDOF 28
ENDMDL
